REMARK  2 active torsions:
REMARK  status: ('A' for Active; 'I' for Inactive)
REMARK    1  A    between atoms: N2_13  and  C10_14 
REMARK    2  A    between atoms: C10_14  and  C11_15 
ROOT
HETATM    1  C1  UNL     1      -4.781  -0.294  -1.007  1.00  0.00     0.010 C 
HETATM    2  C2  UNL     1      -3.989  -0.351   0.283  1.00  0.00    -0.019 C 
HETATM    3  C3  UNL     1      -3.217   0.946   0.369  1.00  0.00     0.004 C 
HETATM    4  C4  UNL     1      -2.296   0.997   1.540  1.00  0.00     0.004 C 
HETATM    5  C5  UNL     1      -1.176   0.054   1.553  1.00  0.00     0.049 C 
HETATM    6  C6  UNL     1      -0.675  -0.462   0.232  1.00  0.00     0.105 C 
HETATM    7  C7  UNL     1      -1.781  -1.180  -0.545  1.00  0.00     0.049 C 
HETATM    8  C8  UNL     1      -2.984  -1.514   0.250  1.00  0.00     0.008 C 
HETATM    9  N1  UNL     1       0.271  -1.500   0.585  1.00  0.00    -0.319 N 
ATOM     10  H1  UNL     1      -0.116  -2.383   0.918  1.00  0.00     0.166 HD
HETATM   11  C9  UNL     1       1.680  -1.405   0.512  1.00  0.00     0.334 C 
HETATM   12  O1  UNL     1       2.433  -1.884   1.400  1.00  0.00    -0.246 OA
HETATM   13  N2  UNL     1       2.222  -0.737  -0.619  1.00  0.00    -0.214 N 
HETATM   14  S1  UNL     1       1.000  -0.164  -1.732  1.00  0.00     0.310 S 
HETATM   15  O2  UNL     1       0.442  -1.364  -2.436  1.00  0.00    -0.188 OA
HETATM   16  O3  UNL     1       1.549   0.846  -2.669  1.00  0.00    -0.188 OA
HETATM   17  N3  UNL     1      -0.179   0.540  -0.644  1.00  0.00    -0.169 NA
HETATM   18  C14 UNL     1       0.379   1.700  -0.094  1.00  0.00     0.133 C 
ENDROOT
BRANCH  13  19
HETATM   19  C10 UNL     1       3.608  -0.555  -0.819  1.00  0.00     0.152 C 
BRANCH  19  20
HETATM   20  C11 UNL     1       4.179   0.703  -0.241  1.00  0.00     0.005 A 
HETATM   21  C12 UNL     1       5.628   0.955  -0.414  1.00  0.00     0.007 A 
HETATM   22  C13 UNL     1       5.056   0.648   0.973  1.00  0.00     0.007 A 
ENDBRANCH  19  20
ENDBRANCH  13  19
TORSDOF 2
