REMARK  2 active torsions:
REMARK  status: ('A' for Active; 'I' for Inactive)
REMARK    1  A    between atoms: C10_10  and  N1_11 
REMARK       I    between atoms: N1_11  and  C11_13 
REMARK    2  A    between atoms: C11_13  and  C12_15 
ROOT
HETATM    1  C1  UNL     1       5.017  -0.628  -2.924  1.00  0.00     0.011 C 
HETATM    2  C2  UNL     1       3.992  -1.560  -2.312  1.00  0.00     0.010 C 
HETATM    3  C3  UNL     1       4.458  -1.956  -0.968  1.00  0.00     0.008 C 
HETATM    4  C4  UNL     1       3.596  -1.452   0.165  1.00  0.00     0.036 C 
HETATM    5  C5  UNL     1       3.149  -0.072  -0.192  1.00  0.00     0.227 C 
HETATM    6  C6  UNL     1       2.330   0.606   0.863  1.00  0.00     0.026 C 
HETATM    7  C7  UNL     1       2.237  -0.196   2.138  1.00  0.00     0.007 C 
HETATM    8  C8  UNL     1       1.506   0.656   3.154  1.00  0.00     0.002 C 
HETATM    9  C9  UNL     1       0.222   1.217   2.601  1.00  0.00     0.026 C 
HETATM   10  C10 UNL     1      -0.129   0.486   1.320  1.00  0.00     0.090 C 
HETATM   11  C17 UNL     1       0.933   0.766   0.311  1.00  0.00     0.043 C 
HETATM   12  C18 UNL     1       0.923  -0.172  -0.876  1.00  0.00     0.280 C 
HETATM   13  N3  UNL     1       2.287  -0.068  -1.330  1.00  0.00     0.094 N 
HETATM   14  C19 UNL     1       2.631  -0.954  -2.381  1.00  0.00     0.277 C 
ENDROOT
BRANCH  10  15
HETATM   15  N1  UNL     1      -1.407   0.947   0.808  1.00  0.00    -0.354 N 
HETATM   16  C11 UNL     1      -2.549   0.116   0.740  1.00  0.00     0.251 C 
HETATM   17  O1  UNL     1      -2.474  -1.072   1.134  1.00  0.00    -0.271 OA
ATOM     18  H1  UNL     1      -1.484   1.911   0.484  1.00  0.00     0.162 HD
BRANCH  16  19
HETATM   19  C12 UNL     1      -3.828   0.637   0.211  1.00  0.00     0.313 C 
HETATM   20  C13 UNL     1      -4.319   1.829   1.015  1.00  0.00     0.047 C 
HETATM   21  C14 UNL     1      -5.836   1.724   0.991  1.00  0.00     0.033 C 
HETATM   22  C15 UNL     1      -6.049   0.227   0.846  1.00  0.00     0.273 C 
HETATM   23  N2  UNL     1      -4.878  -0.323   0.231  1.00  0.00     0.098 N 
HETATM   24  C16 UNL     1      -5.134  -0.871  -1.076  1.00  0.00     0.310 C 
ENDBRANCH  16  19
ENDBRANCH  10  15
TORSDOF 2
