REMARK  2 active torsions:
REMARK  status: ('A' for Active; 'I' for Inactive)
REMARK    1  A    between atoms: C10_12  and  C11_13 
REMARK    2  A    between atoms: C11_13  and  C12_14 
ROOT
HETATM    1  C12 UNL     1       4.025   1.969  -0.115  1.00  0.00     0.126 C 
HETATM    2  C13 UNL     1       3.524   2.438  -1.389  1.00  0.00     0.059 C 
HETATM    3  N2  UNL     1       3.108   2.821  -2.399  1.00  0.00    -0.197 NA
ENDROOT
BRANCH   1   4
HETATM    4  C11 UNL     1       2.840   1.395   0.661  1.00  0.00     0.040 C 
BRANCH   4   5
HETATM    5  C10 UNL     1       2.200   0.257  -0.096  1.00  0.00     0.096 C 
HETATM    6  C9  UNL     1       1.031  -0.349   0.642  1.00  0.00     0.075 C 
HETATM    7  C4  UNL     1       0.057   0.649   1.187  1.00  0.00     0.076 C 
HETATM    8  C16 UNL     1       0.469  -1.463  -0.157  1.00  0.00    -0.024 C 
HETATM    9  O1  UNL     1      -0.738   0.148   2.196  1.00  0.00    -0.353 OA
HETATM   10  C5  UNL     1      -0.575   1.545   0.219  1.00  0.00     0.234 C 
HETATM   11  C3  UNL     1      -1.832  -0.550   1.918  1.00  0.00     0.186 C 
HETATM   12  C2  UNL     1      -1.969  -1.069   0.509  1.00  0.00     0.003 C 
HETATM   13  C1  UNL     1      -3.195  -2.013   0.619  1.00  0.00     0.019 C 
HETATM   14  C8  UNL     1      -2.290  -0.050  -0.495  1.00  0.00     0.253 C 
HETATM   15  C18 UNL     1      -0.852  -1.989   0.241  1.00  0.00     0.023 C 
HETATM   16  N1  UNL     1      -1.848   1.276  -0.288  1.00  0.00    -0.052 N 
HETATM   17  C6  UNL     1      -1.908   1.912  -1.625  1.00  0.00     0.278 C 
HETATM   18  C7  UNL     1      -2.871   1.997   0.490  1.00  0.00     0.278 C 
HETATM   19  C15 UNL     1       1.435  -2.656   0.059  1.00  0.00     0.112 C 
HETATM   20  C17 UNL     1       0.548  -1.268  -1.669  1.00  0.00     0.016 C 
HETATM   21  C14 UNL     1       2.839  -2.167  -0.056  1.00  0.00     0.218 C 
HETATM   22  N3  UNL     1       3.156  -0.809  -0.321  1.00  0.00    -0.356 N 
HETATM   23  O2  UNL     1       3.763  -2.980   0.086  1.00  0.00    -0.274 OA
ATOM     24  H3  UNL     1       4.082  -0.577  -0.680  1.00  0.00     0.162 HD
ENDBRANCH   4   5
ENDBRANCH   1   4
TORSDOF 2
