REMARK  4 active torsions:
REMARK  status: ('A' for Active; 'I' for Inactive)
REMARK    1  A    between atoms: C7_10  and  O1_11 
REMARK    2  A    between atoms: C10_16  and  C11_17 
REMARK    3  A    between atoms: C11_17  and  C12_18 
REMARK    4  A    between atoms: C16_23  and  O3_25 
ROOT
HETATM    1  C1  UNL     1      -3.209   0.720   1.800  1.00  0.00     0.036 C 
HETATM    2  C2  UNL     1      -2.695  -0.344   0.940  1.00  0.00    -0.027 C 
HETATM    3  C3  UNL     1      -1.655  -0.397   0.149  1.00  0.00    -0.061 C 
HETATM    4  C4  UNL     1      -1.636  -1.770  -0.484  1.00  0.00     0.077 C 
HETATM    5  C5  UNL     1      -2.869  -1.978  -1.351  1.00  0.00     0.244 C 
HETATM    6  N1  UNL     1      -2.511  -3.281  -1.948  1.00  0.00    -0.071 N 
ATOM      7  H11 UNL     1      -3.158  -3.655  -2.642  1.00  0.00     0.277 HD
ATOM      8  H12 UNL     1      -2.584  -4.095  -1.337  1.00  0.00     0.277 HD
HETATM    9  C6  UNL     1      -1.189  -2.948  -2.418  1.00  0.00     0.271 C 
HETATM   10  C7  UNL     1      -0.516  -2.217  -1.226  1.00  0.00     0.095 C 
HETATM   11  C8  UNL     1       0.538  -1.403  -1.800  1.00  0.00     0.084 C 
HETATM   12  C9  UNL     1       1.641  -0.869  -0.986  1.00  0.00     0.064 C 
HETATM   13  N2  UNL     1       1.498   0.198  -0.134  1.00  0.00    -0.361 N 
HETATM   14  C10 UNL     1       2.593   1.096   0.095  1.00  0.00     0.223 C 
HETATM   15  O2  UNL     1       2.079   2.385   0.071  1.00  0.00    -0.361 OA
HETATM   16  C14 UNL     1       0.750   2.566   0.014  1.00  0.00     0.134 C 
HETATM   17  C15 UNL     1       0.152   2.438  -1.359  1.00  0.00     0.071 C 
HETATM   18  C16 UNL     1      -1.173   1.811  -0.928  1.00  0.00     0.070 C 
HETATM   19  C17 UNL     1      -1.896   2.999  -0.314  1.00  0.00     0.047 C 
HETATM   20  C18 UNL     1      -0.839   0.786   0.074  1.00  0.00     0.043 A 
HETATM   21  C19 UNL     1      -0.100   1.660   0.938  1.00  0.00     0.057 A 
HETATM   22  C20 UNL     1       0.409   0.348   0.655  1.00  0.00     0.110 A 
ENDROOT
BRANCH  14  23
HETATM   23  C11 UNL     1       3.090   0.905   1.511  1.00  0.00     0.053 C 
BRANCH  23  24
HETATM   24  C12 UNL     1       3.567  -0.491   1.785  1.00  0.00    -0.000 C 
HETATM   25  C13 UNL     1       4.080  -0.588   3.220  1.00  0.00     0.005 C 
ENDBRANCH  23  24
ENDBRANCH  14  23
BRANCH  10  26
HETATM   26  O1  UNL     1       0.101  -3.336  -0.589  1.00  0.00    -0.387 OA
ATOM     27  H1  UNL     1       0.852  -3.636  -1.087  1.00  0.00     0.210 HD
ENDBRANCH  10  26
BRANCH  18  28
HETATM   28  O3  UNL     1      -1.934   1.412  -1.999  1.00  0.00    -0.389 OA
ATOM     29  H3  UNL     1      -2.758   1.022  -1.731  1.00  0.00     0.210 HD
ENDBRANCH  18  28
TORSDOF 4
