REMARK  9 active torsions:
REMARK  status: ('A' for Active; 'I' for Inactive)
REMARK    1  A    between atoms: C2_2  and  O1_5 
REMARK    2  A    between atoms: O1_5  and  C5_6 
REMARK    3  A    between atoms: C5_6  and  C6_8 
REMARK    4  A    between atoms: C6_8  and  C7_9 
REMARK    5  A    between atoms: N1_12  and  C10_14 
REMARK    6  A    between atoms: C10_14  and  C11_15 
REMARK    7  A    between atoms: C11_15  and  O3_16 
REMARK    8  A    between atoms: C22_28  and  C23_29 
REMARK    9  A    between atoms: C25_32  and  O5_33 
ROOT
HETATM    1  C11 UNL     1       0.702  -0.398  -0.769  1.00  0.00     0.094 C 
HETATM    2  C12 UNL     1       0.457   0.630   0.304  1.00  0.00     0.049 C 
HETATM    3  C13 UNL     1      -0.703  -0.284   0.732  1.00  0.00    -0.004 C 
HETATM    4  C14 UNL     1      -1.855   0.405   1.375  1.00  0.00     0.011 C 
HETATM    5  C15 UNL     1      -3.178   0.106   0.800  1.00  0.00     0.001 C 
HETATM    6  C16 UNL     1      -4.330   0.236   1.803  1.00  0.00     0.020 C 
HETATM    7  C17 UNL     1      -5.215  -0.953   1.814  1.00  0.00     0.018 C 
HETATM    8  C18 UNL     1      -6.186  -1.073   0.679  1.00  0.00    -0.029 C 
HETATM    9  C19 UNL     1      -7.561  -1.407   1.228  1.00  0.00     0.016 C 
HETATM   10  C20 UNL     1      -5.834  -2.160  -0.335  1.00  0.00     0.011 C 
HETATM   11  C21 UNL     1      -6.066  -1.122  -1.413  1.00  0.00     0.018 C 
HETATM   12  C22 UNL     1      -6.078  -0.041  -0.376  1.00  0.00     0.027 C 
HETATM   13  C24 UNL     1      -5.043   0.962  -0.279  1.00  0.00     0.039 C 
HETATM   14  C25 UNL     1      -5.057   1.434   1.194  1.00  0.00     0.128 C 
HETATM   15  C26 UNL     1      -3.613   0.794  -0.445  1.00  0.00    -0.033 C 
HETATM   16  C27 UNL     1      -3.027   2.198  -0.638  1.00  0.00     0.016 C 
HETATM   17  C28 UNL     1      -3.046   0.026  -1.595  1.00  0.00     0.010 C 
HETATM   18  C29 UNL     1      -1.524   0.235  -1.599  1.00  0.00     0.009 C 
HETATM   19  C30 UNL     1      -0.822  -0.684  -0.673  1.00  0.00     0.029 C 
ENDROOT
BRANCH   1  20
HETATM   20  C10 UNL     1       1.130   0.065  -2.108  1.00  0.00     0.098 C 
BRANCH  20  21
HETATM   21  N1  UNL     1       2.465   0.390  -2.205  1.00  0.00    -0.373 N 
HETATM   22  C9  UNL     1       3.431   0.515  -1.441  1.00  0.00    -0.009 A 
HETATM   23  C7  UNL     1       4.889   0.843  -1.339  1.00  0.00     0.046 A 
HETATM   24  C8  UNL     1       4.101   0.501  -0.099  1.00  0.00     0.063 A 
ATOM     25  H1  UNL     1       2.730   0.580  -3.171  1.00  0.00     0.164 HD
BRANCH  23  26
HETATM   26  C6  UNL     1       5.948  -0.122  -1.728  1.00  0.00     0.122 C 
BRANCH  26  27
HETATM   27  C5  UNL     1       6.949  -0.220  -0.641  1.00  0.00     0.260 C 
HETATM   28  O2  UNL     1       6.573  -0.512   0.515  1.00  0.00    -0.265 OA
BRANCH  27  29
HETATM   29  O1  UNL     1       8.309  -0.000  -0.842  1.00  0.00    -0.311 OA
BRANCH  29  30
HETATM   30  C2  UNL     1       9.282  -0.087   0.157  1.00  0.00     0.060 C 
HETATM   31  C1  UNL     1       9.314  -1.504   0.738  1.00  0.00     0.045 C 
HETATM   32  C3  UNL     1       9.051   0.902   1.285  1.00  0.00     0.045 C 
HETATM   33  C4  UNL     1      10.638   0.200  -0.440  1.00  0.00     0.045 C 
ENDBRANCH  29  30
ENDBRANCH  27  29
ENDBRANCH  26  27
ENDBRANCH  23  26
ENDBRANCH  20  21
ENDBRANCH   1  20
BRANCH   1  34
HETATM   34  O3  UNL     1       1.406  -1.521  -0.376  1.00  0.00    -0.384 OA
ATOM     35  H3  UNL     1       1.131  -1.818   0.483  1.00  0.00     0.211 HD
ENDBRANCH   1  34
BRANCH  14  36
HETATM   36  O5  UNL     1      -6.286   1.649   1.703  1.00  0.00    -0.395 OA
ATOM     37  H5  UNL     1      -6.738   2.394   1.324  1.00  0.00     0.210 HD
ENDBRANCH  14  36
BRANCH  12  38
HETATM   38  C23 UNL     1      -7.431   0.647  -0.488  1.00  0.00     0.242 C 
HETATM   39  O4  UNL     1      -8.455   0.026  -0.715  1.00  0.00    -0.306 OA
ENDBRANCH  12  38
TORSDOF 9
