REMARK  5 active torsions:
REMARK  status: ('A' for Active; 'I' for Inactive)
REMARK    1  A    between atoms: C4_4  and  O1_5 
REMARK    2  A    between atoms: O1_5  and  S1_6 
REMARK    3  A    between atoms: S1_6  and  N1_9 
REMARK    4  A    between atoms: N1_9  and  C5_11 
REMARK    5  A    between atoms: C24_32  and  C25_33 
ROOT
HETATM    1  C1  UNL     1      -0.126   1.953  -1.647  1.00  0.00     0.017 C 
HETATM    2  C2  UNL     1      -0.388   0.667  -1.481  1.00  0.00    -0.048 C 
HETATM    3  C3  UNL     1       0.664  -0.201  -2.087  1.00  0.00     0.070 C 
HETATM    4  C4  UNL     1       1.540  -0.823  -1.000  1.00  0.00     0.156 C 
HETATM    5  C9  UNL     1       0.890  -1.948  -0.286  1.00  0.00    -0.012 C 
HETATM    6  C10 UNL     1       1.854  -2.457   0.778  1.00  0.00     0.018 C 
HETATM    7  C11 UNL     1       0.745  -3.103  -1.260  1.00  0.00     0.018 C 
HETATM    8  C12 UNL     1      -0.415  -1.632   0.402  1.00  0.00    -0.018 C 
HETATM    9  C13 UNL     1      -0.854  -2.943   1.061  1.00  0.00     0.017 C 
HETATM   10  C14 UNL     1      -0.237  -0.665   1.523  1.00  0.00     0.011 C 
HETATM   11  C15 UNL     1      -1.446   0.211   1.767  1.00  0.00     0.009 C 
HETATM   12  C16 UNL     1      -1.730   1.057   0.531  1.00  0.00     0.033 C 
HETATM   13  C17 UNL     1      -2.829   2.017   0.678  1.00  0.00    -0.004 C 
HETATM   14  C18 UNL     1      -3.897   1.667   1.706  1.00  0.00     0.008 C 
HETATM   15  C19 UNL     1      -4.985   0.967   0.926  1.00  0.00     0.041 C 
HETATM   16  C20 UNL     1      -4.618   1.132  -0.533  1.00  0.00     0.093 C 
HETATM   17  C21 UNL     1      -5.834   1.358  -1.399  1.00  0.00     0.049 C 
HETATM   18  C22 UNL     1      -3.714   2.330  -0.475  1.00  0.00     0.046 C 
HETATM   19  O4  UNL     1      -3.864   0.124  -1.059  1.00  0.00    -0.229 OA
HETATM   20  O5  UNL     1      -2.715   0.481  -1.581  1.00  0.00    -0.223 OA
HETATM   21  C23 UNL     1      -1.630   0.254  -0.739  1.00  0.00     0.137 C 
HETATM   22  C24 UNL     1      -1.519  -1.240  -0.555  1.00  0.00     0.138 C 
ENDROOT
BRANCH   4  23
HETATM   23  O1  UNL     1       2.631  -1.327  -1.655  1.00  0.00    -0.253 OA
BRANCH  23  24
HETATM   24  S1  UNL     1       4.004  -0.479  -1.758  1.00  0.00     0.358 S 
HETATM   25  O2  UNL     1       4.482  -0.389  -3.219  1.00  0.00    -0.176 OA
HETATM   26  O3  UNL     1       5.113  -1.325  -1.120  1.00  0.00    -0.176 OA
BRANCH  24  27
HETATM   27  N1  UNL     1       4.094   1.052  -1.068  1.00  0.00    -0.288 N 
ATOM     28  H1  UNL     1       3.569   1.839  -1.449  1.00  0.00     0.175 HD
BRANCH  27  29
HETATM   29  C5  UNL     1       4.941   1.204   0.080  1.00  0.00     0.031 C 
HETATM   30  C6  UNL     1       6.375   0.808  -0.204  1.00  0.00     0.038 C 
HETATM   31  C7  UNL     1       4.908   2.682   0.486  1.00  0.00     0.038 C 
HETATM   32  C8  UNL     1       4.409   0.422   1.241  1.00  0.00     0.038 C 
ENDBRANCH  27  29
ENDBRANCH  24  27
ENDBRANCH  23  24
ENDBRANCH   4  23
BRANCH  22  33
HETATM   33  C25 UNL     1      -2.721  -2.045  -0.520  1.00  0.00     0.181 C 
HETATM   34  O6  UNL     1      -3.243  -2.634  -1.547  1.00  0.00    -0.648 OA
HETATM   35  O7  UNL     1      -3.522  -2.330   0.602  1.00  0.00    -0.648 OA
ENDBRANCH  22  33
TORSDOF 5
