REMARK  3 active torsions:
REMARK  status: ('A' for Active; 'I' for Inactive)
REMARK    1  A    between atoms: C2_2  and  C3_3 
REMARK    2  A    between atoms: C2_2  and  C15_18 
REMARK    3  A    between atoms: N3_24  and  S1_25 
ROOT
HETATM    1  C3  UNL     1      -1.029  -0.715   0.516  1.00  0.00    -0.007 C 
HETATM    2  C4  UNL     1      -0.177  -1.956   0.591  1.00  0.00     0.005 C 
HETATM    3  C5  UNL     1       1.202  -1.725   0.107  1.00  0.00     0.000 C 
HETATM    4  C6  UNL     1       2.259  -2.658   0.619  1.00  0.00     0.000 C 
HETATM    5  C7  UNL     1       3.599  -2.193   0.015  1.00  0.00     0.000 C 
HETATM    6  C8  UNL     1       3.615  -0.709   0.104  1.00  0.00     0.000 C 
HETATM    7  C9  UNL     1       4.903  -0.002  -0.156  1.00  0.00     0.000 C 
HETATM    8  C10 UNL     1       4.576   1.439  -0.504  1.00  0.00     0.009 C 
HETATM    9  C11 UNL     1       3.371   2.012   0.126  1.00  0.00     0.103 C 
HETATM   10  C12 UNL     1       2.234   2.228  -0.815  1.00  0.00     0.217 C 
HETATM   11  O1  UNL     1       2.578   2.292  -2.048  1.00  0.00    -0.274 OA
HETATM   12  N1  UNL     1       0.893   2.363  -0.506  1.00  0.00    -0.361 N 
ATOM     13  H1  UNL     1       0.402   3.115  -0.990  1.00  0.00     0.162 HD
HETATM   14  C13 UNL     1       0.091   1.580   0.413  1.00  0.00     0.123 C 
HETATM   15  C14 UNL     1      -0.445   0.384  -0.299  1.00  0.00     0.024 C 
ENDROOT
BRANCH   1  16
HETATM   16  C2  UNL     1      -2.355  -1.150  -0.082  1.00  0.00     0.014 C 
HETATM   17  C1  UNL     1      -2.262  -1.692  -1.470  1.00  0.00     0.012 C 
BRANCH  16  18
HETATM   18  C15 UNL     1      -3.508  -0.255   0.156  1.00  0.00     0.173 A 
HETATM   19  C16 UNL     1      -3.540   0.249   1.531  1.00  0.00     0.237 A 
HETATM   20  O2  UNL     1      -3.468  -0.422   2.574  1.00  0.00    -0.272 OA
HETATM   21  N2  UNL     1      -3.668   1.652   1.463  1.00  0.00    -0.347 N 
HETATM   22  C17 UNL     1      -3.825   2.030   0.085  1.00  0.00     0.233 A 
ATOM     23  H2  UNL     1      -3.652   2.291   2.258  1.00  0.00     0.163 HD
HETATM   24  N3  UNL     1      -3.718   0.837  -0.728  1.00  0.00    -0.166 NA
BRANCH  24  25
HETATM   25  S1  UNL     1      -5.173   0.682  -1.675  1.00  0.00     0.303 S 
HETATM   26  O3  UNL     1      -5.216  -0.585  -2.459  1.00  0.00    -0.194 OA
HETATM   27  O4  UNL     1      -5.295   1.903  -2.537  1.00  0.00    -0.194 OA
HETATM   28 CL1  UNL     1      -6.830   0.627  -0.407  1.00  0.00     0.035 Cl
ENDBRANCH  24  25
ENDBRANCH  16  18
ENDBRANCH   1  16
TORSDOF 3
