REMARK  5 active torsions:
REMARK  status: ('A' for Active; 'I' for Inactive)
REMARK    1  A    between atoms: C2_2  and  C4_5 
REMARK       I    between atoms: C4_5  and  N1_7 
REMARK    2  A    between atoms: C5_9  and  N2_10 
REMARK    3  A    between atoms: C5_9  and  C16_22 
REMARK    4  A    between atoms: N2_10  and  C6_12 
REMARK       I    between atoms: C16_22  and  N3_24 
REMARK    5  A    between atoms: N3_24  and  N4_26 
ROOT
HETATM    1  C4  UNL     1       1.113   2.934  -0.656  1.00  0.00     0.253 C 
HETATM    2  O1  UNL     1       1.937   3.483  -1.491  1.00  0.00    -0.268 OA
HETATM    3  N1  UNL     1       0.285   1.903  -1.057  1.00  0.00    -0.305 N 
ATOM      4  H1  UNL     1      -0.631   2.240  -1.353  1.00  0.00     0.171 HD
HETATM    5  C5  UNL     1       0.381   0.660  -1.147  1.00  0.00     0.175 C 
ENDROOT
BRANCH   5   6
HETATM    6  N2  UNL     1      -0.825   0.003  -1.649  1.00  0.00    -0.362 N 
ATOM      7  H2  UNL     1      -0.826  -0.302  -2.622  1.00  0.00     0.162 HD
BRANCH   6   8
HETATM    8  C6  UNL     1      -1.994  -0.242  -0.883  1.00  0.00     0.033 C 
HETATM    9  C7  UNL     1      -2.958  -1.000  -1.789  1.00  0.00     0.035 C 
HETATM   10  C8  UNL     1      -4.239  -1.370  -1.122  1.00  0.00    -0.012 C 
HETATM   11  C9  UNL     1      -4.943  -0.079  -0.716  1.00  0.00     0.009 C 
HETATM   12  C13 UNL     1      -3.987  -2.200   0.104  1.00  0.00     0.009 C 
HETATM   13  C10 UNL     1      -4.014   0.678   0.207  1.00  0.00    -0.012 C 
HETATM   14  C11 UNL     1      -3.786  -0.155   1.453  1.00  0.00     0.009 C 
HETATM   15  C15 UNL     1      -2.735   1.027  -0.482  1.00  0.00     0.035 C 
HETATM   16  C12 UNL     1      -3.063  -1.404   1.018  1.00  0.00    -0.012 C 
HETATM   17  C14 UNL     1      -1.761  -1.099   0.321  1.00  0.00     0.035 C 
ENDBRANCH   6   8
ENDBRANCH   5   6
BRANCH   5  18
HETATM   18  C16 UNL     1       1.464  -0.230  -0.854  1.00  0.00     0.304 C 
HETATM   19  O2  UNL     1       1.287  -1.482  -1.039  1.00  0.00    -0.263 OA
HETATM   20  N3  UNL     1       2.737   0.147  -0.371  1.00  0.00    -0.258 N 
ATOM     21  H3  UNL     1       2.921   1.137  -0.210  1.00  0.00     0.191 HD
BRANCH  20  22
HETATM   22  N4  UNL     1       3.739  -0.755  -0.107  1.00  0.00    -0.279 N 
HETATM   23  C17 UNL     1       4.304  -0.802   1.165  1.00  0.00     0.114 C 
HETATM   24  C18 UNL     1       5.145  -1.985   1.488  1.00  0.00     0.214 C 
HETATM   25  O3  UNL     1       5.379  -2.833   0.422  1.00  0.00    -0.381 OA
HETATM   26  C19 UNL     1       5.559  -2.162  -0.777  1.00  0.00     0.214 C 
HETATM   27  C20 UNL     1       4.242  -1.533  -1.157  1.00  0.00     0.114 C 
ENDBRANCH  20  22
ENDBRANCH   5  18
BRANCH   1  28
HETATM   28  C2  UNL     1       1.143   3.483   0.671  1.00  0.00     0.017 C 
HETATM   29  C1  UNL     1       0.252   2.931   1.715  1.00  0.00     0.055 C 
HETATM   30  C3  UNL     1       1.955   4.476   1.002  1.00  0.00     0.096 C 
HETATM   31 CL1  UNL     1       2.013   5.156   2.611  1.00  0.00    -0.096 Cl
ENDBRANCH   1  28
TORSDOF 5
