REMARK  6 active torsions:
REMARK  status: ('A' for Active; 'I' for Inactive)
REMARK    1  A    between atoms: N1_6  and  C6_7 
REMARK    2  A    between atoms: C6_7  and  O1_8 
REMARK    3  A    between atoms: C6_7  and  N2_10 
REMARK    4  A    between atoms: N2_10  and  C7_11 
REMARK    5  A    between atoms: C12_17  and  C13_18 
REMARK    6  A    between atoms: C14_21  and  C15_22 
ROOT
HETATM    1  C7  UNL     1      -0.564   1.422  -1.409  1.00  0.00     0.201 C 
HETATM    2  C8  UNL     1      -0.761  -0.023  -1.823  1.00  0.00     0.312 C 
HETATM    3  N3  UNL     1      -2.165  -0.337  -2.004  1.00  0.00     0.097 N 
HETATM    4  C9  UNL     1      -2.793   0.824  -2.631  1.00  0.00     0.273 C 
HETATM    5  C10 UNL     1      -2.938   1.945  -1.589  1.00  0.00     0.039 C 
HETATM    6  C11 UNL     1      -1.846   1.728  -0.568  1.00  0.00     0.041 C 
HETATM    7  C12 UNL     1      -2.190   0.486   0.207  1.00  0.00     0.128 C 
HETATM    8  C14 UNL     1      -2.841  -0.514  -0.733  1.00  0.00     0.247 C 
ENDROOT
BRANCH   1   9
HETATM    9  N2  UNL     1       0.587   1.682  -0.660  1.00  0.00    -0.402 NA
BRANCH   9  10
HETATM   10  C6  UNL     1       1.700   1.935   0.065  1.00  0.00     0.291 C 
BRANCH  10  11
HETATM   11  N1  UNL     1       2.565   0.910   0.592  1.00  0.00    -0.331 N 
HETATM   12  C4  UNL     1       2.560  -0.512   0.433  1.00  0.00     0.085 C 
HETATM   13  C3  UNL     1       4.000  -0.932   0.491  1.00  0.00     0.031 C 
HETATM   14  C5  UNL     1       1.792  -1.281   1.476  1.00  0.00     0.032 C 
HETATM   15  C2  UNL     1       4.774   0.280   0.912  1.00  0.00     0.002 C 
HETATM   16  C1  UNL     1       5.809  -0.064   1.929  1.00  0.00     0.011 C 
HETATM   17  C18 UNL     1       3.692   1.191   1.472  1.00  0.00     0.132 C 
ENDBRANCH  10  11
BRANCH  10  18
HETATM   18  O1  UNL     1       2.100   3.138   0.355  1.00  0.00    -0.322 OA
ATOM     19  H1  UNL     1       1.530   3.814   0.008  1.00  0.00     0.222 HD
ENDBRANCH  10  18
ENDBRANCH   9  10
ENDBRANCH   1   9
BRANCH   7  20
HETATM   20  C13 UNL     1      -3.076   0.808   1.384  1.00  0.00     0.179 C 
HETATM   21  O2  UNL     1      -3.498   1.955   1.631  1.00  0.00    -0.648 OA
HETATM   22  O3  UNL     1      -3.453  -0.222   2.250  1.00  0.00    -0.648 OA
ENDBRANCH   7  20
BRANCH   8  23
HETATM   23  C15 UNL     1      -2.613  -1.926  -0.274  1.00  0.00     0.098 A 
HETATM   24  C16 UNL     1      -2.964  -3.125  -1.036  1.00  0.00     0.092 A 
HETATM   25  C17 UNL     1      -3.864  -2.681   0.097  1.00  0.00     0.250 A 
HETATM   26  F1  UNL     1      -5.087  -2.124  -0.260  1.00  0.00    -0.206 F 
HETATM   27  F2  UNL     1      -3.867  -3.463   1.235  1.00  0.00    -0.206 F 
ENDBRANCH   8  23
TORSDOF 6
