REMARK  4 active torsions:
REMARK  status: ('A' for Active; 'I' for Inactive)
REMARK       I    between atoms: N1_2  and  C2_4 
REMARK       I    between atoms: C2_4  and  N2_6 
REMARK    1  A    between atoms: N3_9  and  C5_10 
REMARK    2  A    between atoms: N4_13  and  C8_14 
REMARK    3  A    between atoms: C13_19  and  C14_20 
REMARK    4  A    between atoms: C14_20  and  O2_21 
ROOT
HETATM    1  C5  UNL     1       0.769  -0.577  -0.799  1.00  0.00     0.082 C 
HETATM    2  C6  UNL     1       0.615   0.783  -0.162  1.00  0.00     0.044 C 
HETATM    3  C7  UNL     1      -0.847   1.150  -0.331  1.00  0.00     0.119 C 
HETATM    4  N4  UNL     1      -1.759   0.143   0.070  1.00  0.00    -0.408 N 
HETATM    5  C15 UNL     1      -1.509  -1.191  -0.240  1.00  0.00     0.119 C 
HETATM    6  C16 UNL     1      -0.038  -1.532   0.050  1.00  0.00     0.044 C 
ENDROOT
BRANCH   1   7
HETATM    7  N3  UNL     1       2.089  -1.041  -0.936  1.00  0.00    -0.405 N 
HETATM    8  C4  UNL     1       2.971  -0.301  -1.760  1.00  0.00     0.137 C 
HETATM    9  C3  UNL     1       4.139   0.330  -1.040  1.00  0.00     0.147 C 
HETATM   10  N2  UNL     1       4.747  -0.640  -0.189  1.00  0.00    -0.331 N 
HETATM   11  C2  UNL     1       5.919  -0.311   0.531  1.00  0.00     0.318 C 
HETATM   12  C18 UNL     1       4.129  -1.955  -0.089  1.00  0.00     0.147 C 
HETATM   13  N1  UNL     1       6.497   0.963   0.412  1.00  0.00    -0.347 N 
HETATM   14  O1  UNL     1       6.454  -1.161   1.284  1.00  0.00    -0.247 OA
HETATM   15  C1  UNL     1       7.697   1.309   1.145  1.00  0.00     0.151 C 
ATOM     16  H1  UNL     1       6.065   1.655  -0.200  1.00  0.00     0.163 HD
HETATM   17  C17 UNL     1       2.653  -1.732   0.159  1.00  0.00     0.137 C 
ENDBRANCH   1   7
BRANCH   4  18
HETATM   18  C8  UNL     1      -3.071   0.643   0.137  1.00  0.00     0.085 C 
HETATM   19  C9  UNL     1      -3.639   1.158  -1.177  1.00  0.00     0.025 C 
HETATM   20  C10 UNL     1      -4.942   1.869  -0.999  1.00  0.00     0.002 C 
HETATM   21  C11 UNL     1      -5.781   1.478   0.144  1.00  0.00     0.001 C 
HETATM   22  C12 UNL     1      -5.171   0.750   1.274  1.00  0.00     0.009 C 
HETATM   23  C13 UNL     1      -4.077  -0.220   0.841  1.00  0.00     0.032 C 
BRANCH  23  24
HETATM   24  C14 UNL     1      -4.764  -1.227  -0.032  1.00  0.00     0.170 C 
BRANCH  24  25
HETATM   25  O2  UNL     1      -5.661  -1.934   0.803  1.00  0.00    -0.400 OA
ATOM     26  H2  UNL     1      -6.096  -2.572   0.250  1.00  0.00     0.209 HD
ENDBRANCH  24  25
ENDBRANCH  23  24
ENDBRANCH   4  18
TORSDOF 4
