REMARK  6 active torsions:
REMARK  status: ('A' for Active; 'I' for Inactive)
REMARK       I    between atoms: N1_5  and  C4_6 
REMARK    1  A    between atoms: C4_6  and  C5_8 
REMARK    2  A    between atoms: C10_13  and  N2_14 
REMARK    3  A    between atoms: N2_14  and  C11_16 
REMARK    4  A    between atoms: C11_16  and  O2_17 
REMARK    5  A    between atoms: C11_16  and  N3_19 
REMARK    6  A    between atoms: C16_24  and  C17_25 
ROOT
HETATM    1  N2  UNL     1      -0.780  -0.265   0.298  1.00  0.00    -0.348 N 
ATOM      2  H2  UNL     1      -0.724   0.463  -0.414  1.00  0.00     0.163 HD
ENDROOT
BRANCH   1   3
HETATM    3  C10 UNL     1       0.429  -0.991   0.641  1.00  0.00     0.127 C 
HETATM    4  C2  UNL     1       1.506  -0.141   1.214  1.00  0.00     0.136 C 
HETATM    5  C1  UNL     1       0.967   1.048   1.928  1.00  0.00     0.055 C 
HETATM    6  F1  UNL     1       2.211  -0.901   2.146  1.00  0.00    -0.239 F 
HETATM    7  C3  UNL     1       2.452   0.348   0.122  1.00  0.00     0.171 C 
HETATM    8  N1  UNL     1       3.175  -0.806  -0.358  1.00  0.00    -0.349 N 
HETATM    9  C4  UNL     1       4.532  -0.763  -0.756  1.00  0.00     0.224 C 
HETATM   10  C8  UNL     1       2.416  -2.060  -0.425  1.00  0.00     0.128 C 
HETATM   11  O1  UNL     1       5.086  -1.831  -1.149  1.00  0.00    -0.273 OA
HETATM   12  C9  UNL     1       0.927  -1.826  -0.526  1.00  0.00     0.048 C 
BRANCH   9  13
HETATM   13  C5  UNL     1       5.302   0.492  -0.720  1.00  0.00     0.078 A 
HETATM   14  C6  UNL     1       6.785   0.367  -0.327  1.00  0.00     0.015 A 
HETATM   15  C7  UNL     1       6.398   0.741  -1.694  1.00  0.00     0.015 A 
ENDBRANCH   9  13
ENDBRANCH   1   3
BRANCH   1  16
HETATM   16  C11 UNL     1      -2.015  -0.515   0.895  1.00  0.00     0.216 C 
BRANCH  16  17
HETATM   17  O2  UNL     1      -1.981  -1.464   1.786  1.00  0.00    -0.333 OA
ATOM     18  H2  UNL     1      -2.822  -1.634   2.193  1.00  0.00     0.220 HD
ENDBRANCH  16  17
BRANCH  16  19
HETATM   19  N3  UNL     1      -3.262   0.063   0.702  1.00  0.00    -0.333 N 
HETATM   20  C12 UNL     1      -4.410  -0.535   1.463  1.00  0.00     0.127 C 
HETATM   21  C13 UNL     1      -5.589  -0.566   0.495  1.00  0.00     0.020 C 
HETATM   22  C14 UNL     1      -5.162  -0.605  -0.951  1.00  0.00     0.004 C 
HETATM   23  C15 UNL     1      -4.244   0.496  -1.391  1.00  0.00     0.036 C 
HETATM   24  C16 UNL     1      -3.694   1.136  -0.138  1.00  0.00     0.188 C 
BRANCH  24  25
HETATM   25  C17 UNL     1      -2.846   2.295  -0.303  1.00  0.00     0.196 C 
HETATM   26  O3  UNL     1      -2.002   2.600   0.585  1.00  0.00    -0.646 OA
HETATM   27  O4  UNL     1      -2.888   3.143  -1.416  1.00  0.00    -0.646 OA
ENDBRANCH  24  25
ENDBRANCH  16  19
ENDBRANCH   1  16
TORSDOF 6
