REMARK  4 active torsions:
REMARK  status: ('A' for Active; 'I' for Inactive)
REMARK    1  A    between atoms: C2_2  and  C3_3 
REMARK    2  A    between atoms: C3_3  and  S1_4 
REMARK    3  A    between atoms: S1_4  and  N1_5 
REMARK    4  A    between atoms: C7_13  and  C9_15 
ROOT
HETATM    1  C1  UNL     1       2.297   1.617  -0.479  1.00  0.00     0.018 C 
HETATM    2  C2  UNL     1       1.484   0.322  -0.137  1.00  0.00    -0.006 C 
HETATM    3  C4  UNL     1       0.825   0.597   1.146  1.00  0.00     0.035 C 
HETATM    4  C5  UNL     1      -0.519  -0.007   1.391  1.00  0.00     0.059 C 
HETATM    5  C6  UNL     1      -0.533  -1.339   2.049  1.00  0.00     0.031 C 
HETATM    6 BR1  UNL     1      -1.321   1.151   2.775  1.00  0.00    -0.083 Br
HETATM    7  C7  UNL     1      -1.374   0.072   0.153  1.00  0.00     0.228 C 
HETATM    8  C8  UNL     1      -1.662   1.542  -0.089  1.00  0.00     0.061 C 
HETATM    9  N2  UNL     1      -0.742  -0.393  -1.033  1.00  0.00    -0.054 N 
HETATM   10  C10 UNL     1      -1.578   0.079  -2.162  1.00  0.00     0.273 C 
HETATM   11  C11 UNL     1      -0.619  -1.797  -1.199  1.00  0.00     0.273 C 
HETATM   12  C12 UNL     1       0.517   0.231  -1.306  1.00  0.00     0.248 C 
ENDROOT
BRANCH   2  13
HETATM   13  C3  UNL     1       2.518  -0.730  -0.201  1.00  0.00     0.142 C 
BRANCH  13  14
HETATM   14  S1  UNL     1       3.755  -0.178   1.049  1.00  0.00     0.108 S 
HETATM   15  O1  UNL     1       2.996  -1.306   1.847  1.00  0.00    -0.236 OA
BRANCH  14  16
HETATM   16  N1  UNL     1       4.662   0.620   1.183  1.00  0.00    -0.350 N 
ATOM     17  H12 UNL     1       5.153   1.350   0.667  1.00  0.00     0.166 HD
ATOM     18  H11 UNL     1       5.347   0.925   1.875  1.00  0.00     0.166 HD
ENDBRANCH  14  16
ENDBRANCH  13  14
ENDBRANCH   2  13
BRANCH   7  19
HETATM   19  C9  UNL     1      -2.658  -0.547   0.466  1.00  0.00     0.212 C 
HETATM   20  O2  UNL     1      -3.258  -1.458  -0.139  1.00  0.00    -0.646 OA
HETATM   21  O3  UNL     1      -3.335  -0.077   1.593  1.00  0.00    -0.646 OA
ENDBRANCH   7  19
TORSDOF 4
