REMARK  5 active torsions:
REMARK  status: ('A' for Active; 'I' for Inactive)
REMARK    1  A    between atoms: C2_2  and  C4_4 
REMARK    2  A    between atoms: C4_4  and  O2_6 
REMARK    3  A    between atoms: O2_6  and  C5_7 
REMARK    4  A    between atoms: C8_10  and  C9_11 
REMARK    5  A    between atoms: C9_11  and  C10_12 
ROOT
HETATM    1  C5  UNL     1      -2.009   0.167   0.052  1.00  0.00     0.150 C 
HETATM    2  C6  UNL     1      -1.597   0.469  -1.381  1.00  0.00     0.067 C 
HETATM    3  C7  UNL     1      -0.271  -0.248  -1.650  1.00  0.00    -0.081 C 
HETATM    4  C8  UNL     1       0.780   0.524  -1.767  1.00  0.00    -0.023 C 
HETATM    5  C19 UNL     1      -0.172  -1.692  -1.762  1.00  0.00     0.040 C 
HETATM    6  C20 UNL     1      -0.340  -2.289  -0.374  1.00  0.00     0.059 C 
HETATM    7  C21 UNL     1      -1.792  -2.284   0.023  1.00  0.00     0.014 C 
HETATM    8  N1  UNL     1      -2.062  -3.531   0.206  1.00  0.00    -0.312 N 
ATOM      9  H1  UNL     1      -1.293  -4.183   0.051  1.00  0.00     0.186 HD
HETATM   10  N2  UNL     1      -3.285  -4.100   0.592  1.00  0.00    -0.337 N 
ATOM     11  H2  UNL     1      -3.507  -5.005   0.177  1.00  0.00     0.180 HD
HETATM   12  C22 UNL     1      -4.290  -3.553   1.522  1.00  0.00     0.139 C 
HETATM   13  C23 UNL     1      -3.578  -2.411   2.211  1.00  0.00     0.022 C 
HETATM   14  C24 UNL     1      -3.519  -1.144   1.450  1.00  0.00     0.019 C 
HETATM   15  C25 UNL     1      -2.741  -1.142   0.170  1.00  0.00     0.023 C 
HETATM   16  C26 UNL     1      -3.799  -1.214  -0.954  1.00  0.00     0.024 C 
ENDROOT
BRANCH   4  17
HETATM   17  C9  UNL     1       2.145   0.055  -2.025  1.00  0.00     0.037 C 
BRANCH  17  18
HETATM   18  C10 UNL     1       3.039   0.429  -0.896  1.00  0.00     0.025 C 
HETATM   19  C11 UNL     1       3.140   1.888  -0.701  1.00  0.00    -0.084 C 
HETATM   20  C12 UNL     1       2.933   2.812  -1.609  1.00  0.00     0.015 C 
HETATM   21  C13 UNL     1       3.555   2.309   0.695  1.00  0.00     0.034 C 
HETATM   22  C14 UNL     1       4.628   1.299   1.084  1.00  0.00     0.005 C 
HETATM   23  C15 UNL     1       5.345   0.720  -0.116  1.00  0.00     0.010 C 
HETATM   24  C16 UNL     1       4.442  -0.147  -0.977  1.00  0.00    -0.040 C 
HETATM   25  C17 UNL     1       4.995  -0.153  -2.372  1.00  0.00     0.015 C 
HETATM   26  C18 UNL     1       4.419  -1.553  -0.429  1.00  0.00     0.015 C 
ENDBRANCH  17  18
ENDBRANCH   4  17
BRANCH   1  27
HETATM   27  O2  UNL     1      -2.713   1.223   0.626  1.00  0.00    -0.311 OA
BRANCH  27  28
HETATM   28  C4  UNL     1      -2.265   2.029   1.660  1.00  0.00     0.288 C 
HETATM   29  O1  UNL     1      -1.145   1.813   2.133  1.00  0.00    -0.260 OA
BRANCH  28  30
HETATM   30  C2  UNL     1      -3.133   3.090   2.140  1.00  0.00     0.004 C 
HETATM   31  C1  UNL     1      -2.711   3.857   3.123  1.00  0.00     0.024 C 
HETATM   32  C3  UNL     1      -4.477   3.319   1.544  1.00  0.00     0.054 C 
ENDBRANCH  28  30
ENDBRANCH  27  28
ENDBRANCH   1  27
TORSDOF 5
