REMARK  5 active torsions:
REMARK  status: ('A' for Active; 'I' for Inactive)
REMARK       I    between atoms: C1_2  and  N1_3 
REMARK    1  A    between atoms: C1_2  and  C10_15 
REMARK    2  A    between atoms: N1_3  and  C2_5 
REMARK    3  A    between atoms: C5_9  and  N2_10 
REMARK    4  A    between atoms: C13_18  and  N3_19 
REMARK    5  A    between atoms: N3_19  and  C14_21 
ROOT
HETATM    1  C10 UNL     1      -0.642   0.803  -0.540  1.00  0.00     0.032 A 
HETATM    2  C11 UNL     1      -0.208   0.779  -1.834  1.00  0.00     0.019 A 
HETATM    3  C12 UNL     1       1.150   1.016  -2.091  1.00  0.00     0.030 A 
HETATM    4  C13 UNL     1       2.041   1.268  -1.080  1.00  0.00     0.034 A 
HETATM    5  C21 UNL     1       1.572   1.284   0.206  1.00  0.00     0.030 A 
HETATM    6  C22 UNL     1       0.247   1.054   0.470  1.00  0.00     0.019 A 
ENDROOT
BRANCH   1   7
HETATM    7  C1  UNL     1      -2.103   0.567  -0.208  1.00  0.00     0.256 C 
HETATM    8  O1  UNL     1      -2.258   0.093   0.921  1.00  0.00    -0.267 OA
HETATM    9  N1  UNL     1      -3.048   0.880  -1.126  1.00  0.00    -0.315 N 
ATOM     10  H1  UNL     1      -2.639   1.261  -1.979  1.00  0.00     0.170 HD
BRANCH   9  11
HETATM   11  C2  UNL     1      -4.448   0.813  -1.201  1.00  0.00     0.104 A 
HETATM   12  S1  UNL     1      -5.314   1.356  -2.663  1.00  0.00    -0.082 SA
HETATM   13  C3  UNL     1      -6.901   1.046  -2.184  1.00  0.00     0.054 A 
HETATM   14  C4  UNL     1      -6.745   0.542  -0.940  1.00  0.00     0.040 A 
HETATM   15  C5  UNL     1      -5.485   0.424  -0.439  1.00  0.00     0.073 A 
BRANCH  15  16
HETATM   16  N2  UNL     1      -5.367  -0.127   0.910  1.00  0.00    -0.330 N 
HETATM   17  C6  UNL     1      -5.264  -1.409   1.282  1.00  0.00     0.097 A 
HETATM   18  C7  UNL     1      -5.258  -1.495   2.664  1.00  0.00     0.019 A 
HETATM   19  C8  UNL     1      -5.362  -0.207   3.137  1.00  0.00     0.019 A 
HETATM   20  C9  UNL     1      -5.427   0.620   2.016  1.00  0.00     0.097 A 
ENDBRANCH  15  16
ENDBRANCH   9  11
ENDBRANCH   1   7
BRANCH   4  21
HETATM   21  N3  UNL     1       3.435   1.511  -1.340  1.00  0.00    -0.337 N 
ATOM     22  H3  UNL     1       3.760   2.301  -1.897  1.00  0.00     0.168 HD
BRANCH  21  23
HETATM   23  C14 UNL     1       4.259   0.635  -0.803  1.00  0.00     0.150 A 
HETATM   24  N4  UNL     1       5.588   0.622  -0.886  1.00  0.00    -0.335 N 
HETATM   25  C15 UNL     1       6.247  -0.344  -0.276  1.00  0.00     0.051 A 
ATOM     26  H4  UNL     1       6.085   1.343  -1.409  1.00  0.00     0.168 HD
HETATM   27  C16 UNL     1       7.649  -0.515  -0.256  1.00  0.00     0.031 A 
HETATM   28  C20 UNL     1       5.517  -1.274   0.406  1.00  0.00     0.035 A 
HETATM   29  C17 UNL     1       8.207  -1.556   0.412  1.00  0.00     0.002 A 
HETATM   30  C18 UNL     1       7.482  -2.499   1.101  1.00  0.00     0.002 A 
HETATM   31  C19 UNL     1       6.112  -2.350   1.094  1.00  0.00     0.021 A 
HETATM   32  S2  UNL     1       3.917  -0.735   0.150  1.00  0.00    -0.052 SA
ENDBRANCH  21  23
ENDBRANCH   4  21
TORSDOF 5
