REMARK  7 active torsions:
REMARK  status: ('A' for Active; 'I' for Inactive)
REMARK    1  A    between atoms: C2_2  and  C4_4 
REMARK    2  A    between atoms: C4_4  and  C5_5 
REMARK    3  A    between atoms: C6_8  and  O1_9 
REMARK    4  A    between atoms: O1_9  and  C7_10 
REMARK       I    between atoms: C7_10  and  N2_12 
REMARK    5  A    between atoms: N2_12  and  C8_14 
REMARK    6  A    between atoms: C19_25  and  N3_26 
REMARK    7  A    between atoms: C21_28  and  C22_29 
ROOT
HETATM    1  C5  UNL     1       1.820   2.868  -0.074  1.00  0.00     0.009 A 
HETATM    2  N1  UNL     1       0.662   2.604  -0.441  1.00  0.00    -0.368 N 
ATOM      3  H1  UNL     1       0.358   2.714  -1.408  1.00  0.00     0.161 HD
HETATM    4  C6  UNL     1      -0.192   2.147   0.563  1.00  0.00     0.234 A 
HETATM    5  C18 UNL     1       0.612   2.154   1.831  1.00  0.00     0.087 A 
HETATM    6  C19 UNL     1       1.949   2.609   1.374  1.00  0.00     0.156 A 
ENDROOT
BRANCH   6   7
HETATM    7  N3  UNL     1       3.007   1.655   1.667  1.00  0.00    -0.292 N 
HETATM    8  C20 UNL     1       3.299   0.536   1.005  1.00  0.00     0.124 A 
HETATM    9  C21 UNL     1       4.361  -0.062   1.612  1.00  0.00     0.009 A 
HETATM   10  C28 UNL     1       4.684   0.759   2.667  1.00  0.00     0.121 A 
HETATM   11  N5  UNL     1       3.838   1.787   2.662  1.00  0.00    -0.308 N 
ATOM     12  H5  UNL     1       3.840   2.557   3.331  1.00  0.00     0.186 HD
BRANCH   9  13
HETATM   13  C22 UNL     1       5.058  -1.302   1.274  1.00  0.00    -0.008 A 
HETATM   14  C23 UNL     1       6.086  -1.742   1.981  1.00  0.00     0.101 A 
HETATM   15  N4  UNL     1       6.767  -2.961   1.644  1.00  0.00    -0.361 N 
HETATM   16  C24 UNL     1       6.348  -3.738   0.526  1.00  0.00     0.100 A 
ATOM     17  H4  UNL     1       7.557  -3.273   2.210  1.00  0.00     0.165 HD
HETATM   18  C25 UNL     1       6.958  -4.865   0.194  1.00  0.00     0.293 C 
HETATM   19  C26 UNL     1       5.206  -3.220  -0.234  1.00  0.00     0.036 A 
HETATM   20  F1  UNL     1       6.503  -5.548  -0.881  1.00  0.00    -0.171 F 
HETATM   21  F2  UNL     1       7.998  -5.273   0.941  1.00  0.00    -0.171 F 
HETATM   22  C27 UNL     1       4.626  -2.090   0.132  1.00  0.00     0.016 A 
ENDBRANCH   9  13
ENDBRANCH   6   7
BRANCH   1  23
HETATM   23  C4  UNL     1       2.993   3.374  -0.858  1.00  0.00     0.058 C 
BRANCH  23  24
HETATM   24  C2  UNL     1       2.683   3.580  -2.303  1.00  0.00    -0.017 C 
HETATM   25  C1  UNL     1       2.242   2.338  -3.019  1.00  0.00     0.010 C 
HETATM   26  C3  UNL     1       3.926   4.097  -2.991  1.00  0.00     0.010 C 
ENDBRANCH  23  24
ENDBRANCH   1  23
BRANCH   4  27
HETATM   27  O1  UNL     1      -0.659   0.815   0.333  1.00  0.00    -0.278 OA
BRANCH  27  28
HETATM   28  C7  UNL     1      -2.029   0.527   0.276  1.00  0.00     0.363 C 
HETATM   29  O2  UNL     1      -2.781   1.509   0.439  1.00  0.00    -0.238 OA
HETATM   30  N2  UNL     1      -2.531  -0.755   0.053  1.00  0.00    -0.328 N 
ATOM     31  H2  UNL     1      -1.875  -1.527  -0.067  1.00  0.00     0.165 HD
BRANCH  30  32
HETATM   32  C8  UNL     1      -3.946  -1.025  -0.014  1.00  0.00     0.036 C 
HETATM   33  C9  UNL     1      -4.517  -0.381  -1.156  1.00  0.00     0.035 C 
HETATM   34  C10 UNL     1      -5.892  -0.412  -1.624  1.00  0.00    -0.012 C 
HETATM   35  C11 UNL     1      -6.999   0.003  -0.721  1.00  0.00     0.009 C 
HETATM   36  C13 UNL     1      -6.615  -1.682  -1.818  1.00  0.00     0.009 C 
HETATM   37  C12 UNL     1      -7.224  -1.442  -0.476  1.00  0.00    -0.013 C 
HETATM   38  C14 UNL     1      -6.672  -2.082   0.680  1.00  0.00     0.009 C 
HETATM   39  C15 UNL     1      -5.299  -2.076   1.132  1.00  0.00    -0.009 C 
HETATM   40  C16 UNL     1      -4.576  -0.807   1.332  1.00  0.00     0.035 C 
HETATM   41  C17 UNL     1      -4.207  -2.479   0.224  1.00  0.00     0.035 C 
ENDBRANCH  30  32
ENDBRANCH  27  28
ENDBRANCH   4  27
TORSDOF 7
