REMARK  8 active torsions:
REMARK  status: ('A' for Active; 'I' for Inactive)
REMARK    1  A    between atoms: C2_2  and  C3_3 
REMARK    2  A    between atoms: C3_3  and  C4_4 
REMARK    3  A    between atoms: C4_4  and  C5_5 
REMARK    4  A    between atoms: C5_5  and  N1_6 
REMARK    5  A    between atoms: N2_9  and  C8_10 
REMARK    6  A    between atoms: C13_17  and  N3_18 
REMARK    7  A    between atoms: C14_19  and  O1_20 
REMARK    8  A    between atoms: C17_24  and  O2_25 
ROOT
HETATM    1  C8  UNL     1       1.026  -2.412   0.509  1.00  0.00     0.062 A 
HETATM    2  C9  UNL     1       0.486  -3.640   0.898  1.00  0.00     0.051 A 
HETATM    3  C10 UNL     1       1.316  -4.738   0.926  1.00  0.00     0.016 A 
HETATM    4 BR1  UNL     1       0.540  -6.417   1.467  1.00  0.00    -0.051 Br
HETATM    5  C11 UNL     1       2.650  -4.659   0.584  1.00  0.00     0.064 A 
HETATM    6  C12 UNL     1       3.142  -3.430   0.207  1.00  0.00     0.147 A 
HETATM    7  F1  UNL     1       4.447  -3.266  -0.145  1.00  0.00    -0.204 F 
HETATM    8  C13 UNL     1       2.340  -2.286   0.163  1.00  0.00     0.108 A 
ENDROOT
BRANCH   8   9
HETATM    9  N3  UNL     1       2.881  -1.042  -0.221  1.00  0.00    -0.266 N 
HETATM   10  C14 UNL     1       3.138  -0.586  -1.464  1.00  0.00     0.157 A 
HETATM   11  C15 UNL     1       3.672   0.673  -1.353  1.00  0.00     0.012 A 
HETATM   12  C16 UNL     1       3.735   0.975  -0.015  1.00  0.00     0.012 A 
HETATM   13  C21 UNL     1       4.213   1.855  -2.066  1.00  0.00     0.047 C 
HETATM   14  C17 UNL     1       3.239  -0.103   0.686  1.00  0.00     0.157 A 
HETATM   15  C18 UNL     1       4.322   2.354   0.093  1.00  0.00     0.047 C 
HETATM   16  C19 UNL     1       5.715   2.253  -0.383  1.00  0.00    -0.021 C 
HETATM   17  C22 UNL     1       3.669   2.976  -1.157  1.00  0.00     0.026 C 
HETATM   18  C20 UNL     1       5.653   1.949  -1.700  1.00  0.00    -0.021 C 
BRANCH  10  19
HETATM   19  O1  UNL     1       2.890  -1.302  -2.658  1.00  0.00    -0.345 OA
ATOM     20  H1  UNL     1       3.071  -0.981  -3.534  1.00  0.00     0.219 HD
ENDBRANCH  10  19
BRANCH  14  21
HETATM   21  O2  UNL     1       3.145  -0.162   2.085  1.00  0.00    -0.345 OA
ATOM     22  H2  UNL     1       3.396   0.497   2.722  1.00  0.00     0.219 HD
ENDBRANCH  14  21
ENDBRANCH   8   9
BRANCH   1  23
HETATM   23  N2  UNL     1       0.140  -1.325   0.488  1.00  0.00    -0.375 N 
HETATM   24  C7  UNL     1      -0.187  -0.656  -0.740  1.00  0.00     0.153 C 
HETATM   25  C6  UNL     1      -1.698  -0.506  -0.759  1.00  0.00     0.292 C 
HETATM   26  N1  UNL     1      -2.212   0.225   0.349  1.00  0.00     0.096 N 
HETATM   27  C24 UNL     1      -1.327   0.371   1.467  1.00  0.00     0.236 C 
HETATM   28  C23 UNL     1      -0.470  -0.857   1.700  1.00  0.00     0.158 C 
HETATM   29  C25 UNL     1      -2.158   0.537   2.719  1.00  0.00     0.044 C 
BRANCH  26  30
HETATM   30  C5  UNL     1      -2.694   1.501  -0.137  1.00  0.00     0.273 C 
BRANCH  30  31
HETATM   31  C4  UNL     1      -3.897   1.387  -1.013  1.00  0.00     0.030 C 
BRANCH  31  32
HETATM   32  C3  UNL     1      -5.101   0.775  -0.374  1.00  0.00     0.001 C 
BRANCH  32  33
HETATM   33  C2  UNL     1      -5.626   1.544   0.820  1.00  0.00    -0.005 C 
HETATM   34  C1  UNL     1      -6.832   0.802   1.349  1.00  0.00     0.005 C 
ENDBRANCH  32  33
ENDBRANCH  31  32
ENDBRANCH  30  31
ENDBRANCH  26  30
ENDBRANCH   1  23
TORSDOF 8
