REMARK  6 active torsions:
REMARK  status: ('A' for Active; 'I' for Inactive)
REMARK    1  A    between atoms: C2_5  and  C3_7 
REMARK    2  A    between atoms: C8_12  and  C9_13 
REMARK    3  A    between atoms: C9_13  and  O1_14 
REMARK    4  A    between atoms: O1_14  and  C10_15 
REMARK    5  A    between atoms: C13_20  and  C14_21 
REMARK    6  A    between atoms: C14_21  and  C15_23 
ROOT
HETATM    1  N1  UNL     1      -0.450   3.535  -1.410  1.00  0.00    -0.172 NA
HETATM    2  C1  UNL     1      -1.227   2.872  -0.864  1.00  0.00     0.182 C 
HETATM    3  N2  UNL     1      -2.143   2.058  -0.194  1.00  0.00    -0.285 N 
ATOM      4  H2  UNL     1      -2.237   2.167   0.816  1.00  0.00     0.179 HD
HETATM    5  C2  UNL     1      -2.872   1.181  -0.781  1.00  0.00     0.106 C 
HETATM    6  N3  UNL     1      -2.752   1.016  -2.186  1.00  0.00    -0.086 NA
ENDROOT
BRANCH   5   7
HETATM    7  C3  UNL     1      -3.816   0.390  -0.010  1.00  0.00     0.057 C 
HETATM    8  C4  UNL     1      -5.251   0.567  -0.565  1.00  0.00     0.012 C 
HETATM    9  C5  UNL     1      -6.178  -0.018   0.424  1.00  0.00     0.001 C 
HETATM   10  C6  UNL     1      -5.917  -1.421   0.860  1.00  0.00     0.001 C 
HETATM   11  C7  UNL     1      -4.490  -1.820   0.937  1.00  0.00     0.007 C 
HETATM   12  C8  UNL     1      -3.583  -1.060  -0.003  1.00  0.00     0.021 C 
BRANCH  12  13
HETATM   13  C9  UNL     1      -2.163  -1.477   0.223  1.00  0.00     0.181 C 
BRANCH  13  14
HETATM   14  O1  UNL     1      -1.250  -1.036  -0.723  1.00  0.00    -0.345 OA
BRANCH  14  15
HETATM   15  C10 UNL     1       0.132  -1.379  -0.723  1.00  0.00     0.142 A 
HETATM   16  C11 UNL     1       0.512  -2.504  -1.415  1.00  0.00     0.193 A 
HETATM   17  F1  UNL     1      -0.305  -3.364  -2.121  1.00  0.00    -0.195 F 
HETATM   18  S1  UNL     1       2.197  -2.551  -1.172  1.00  0.00    -0.054 SA
HETATM   19  C12 UNL     1       2.384  -1.160  -0.210  1.00  0.00     0.053 A 
HETATM   20  C13 UNL     1       3.301  -0.340   0.482  1.00  0.00     0.050 A 
HETATM   21  C22 UNL     1       1.111  -0.685  -0.098  1.00  0.00     0.087 A 
HETATM   22  C21 UNL     1       2.529   0.637   1.010  1.00  0.00     0.105 A 
HETATM   23  N4  UNL     1       1.229   0.448   0.678  1.00  0.00    -0.361 N 
ATOM     24  H4  UNL     1       0.456   1.052   0.959  1.00  0.00     0.165 HD
BRANCH  20  25
HETATM   25  C14 UNL     1       4.703  -0.665   0.502  1.00  0.00     0.195 C 
HETATM   26  O2  UNL     1       5.031  -1.900   0.711  1.00  0.00    -0.287 OA
BRANCH  25  27
HETATM   27  C15 UNL     1       5.812   0.239   0.307  1.00  0.00     0.015 A 
HETATM   28  C16 UNL     1       5.635   1.587   0.189  1.00  0.00     0.017 A 
HETATM   29  C17 UNL     1       6.706   2.468  -0.011  1.00  0.00     0.020 A 
HETATM   30  C18 UNL     1       7.980   1.998  -0.097  1.00  0.00     0.011 A 
HETATM   31 BR1  UNL     1       9.419   3.221  -0.378  1.00  0.00    -0.051 Br
HETATM   32  C19 UNL     1       8.176   0.640   0.020  1.00  0.00     0.020 A 
HETATM   33  C20 UNL     1       7.115  -0.221   0.218  1.00  0.00     0.017 A 
ENDBRANCH  25  27
ENDBRANCH  20  25
ENDBRANCH  14  15
ENDBRANCH  13  14
ENDBRANCH  12  13
ENDBRANCH   5   7
TORSDOF 6
