REMARK  6 active torsions:
REMARK  status: ('A' for Active; 'I' for Inactive)
REMARK    1  A    between atoms: S1_2  and  C2_3 
REMARK    2  A    between atoms: C2_3  and  C3_4 
REMARK    3  A    between atoms: C3_4  and  C4_5 
REMARK    4  A    between atoms: N1_13  and  C12_15 
REMARK    5  A    between atoms: C12_15  and  C13_16 
REMARK    6  A    between atoms: C13_16  and  C14_17 
ROOT
HETATM    1  C4  UNL     1      -2.949  -0.992   0.518  1.00  0.00    -0.005 C 
HETATM    2  C5  UNL     1      -2.468  -0.006   1.565  1.00  0.00     0.005 C 
HETATM    3  C6  UNL     1      -1.981   1.283   0.909  1.00  0.00     0.001 C 
HETATM    4  C7  UNL     1      -1.025   0.986  -0.233  1.00  0.00     0.006 C 
HETATM    5  C8  UNL     1      -0.639  -0.443  -0.125  1.00  0.00    -0.001 C 
HETATM    6  C9  UNL     1       0.528  -0.868  -0.946  1.00  0.00    -0.000 C 
HETATM    7  C10 UNL     1       1.425   0.212  -1.427  1.00  0.00     0.057 C 
HETATM    8  C11 UNL     1       2.522   0.584  -0.533  1.00  0.00    -0.017 C 
HETATM    9  N1  UNL     1       2.883   1.788  -0.477  1.00  0.00    -0.396 N 
ATOM     10  H1  UNL     1       2.363   2.420  -1.086  1.00  0.00     0.159 HD
HETATM   11  C15 UNL     1       3.199  -0.436   0.271  1.00  0.00     0.056 C 
HETATM   12  C16 UNL     1       2.188  -1.365   0.851  1.00  0.00    -0.009 C 
HETATM   13  C17 UNL     1       2.874  -2.479   1.600  1.00  0.00     0.011 C 
HETATM   14  C18 UNL     1       1.225  -1.964  -0.151  1.00  0.00    -0.006 C 
HETATM   15  C19 UNL     1       0.213  -2.724   0.677  1.00  0.00     0.006 C 
HETATM   16  C20 UNL     1      -1.172  -2.762   0.180  1.00  0.00     0.010 C 
HETATM   17  C21 UNL     1      -1.744  -1.442  -0.287  1.00  0.00    -0.036 C 
HETATM   18  C22 UNL     1      -2.195  -1.683  -1.699  1.00  0.00     0.016 C 
ENDROOT
BRANCH   9  19
HETATM   19  C12 UNL     1       3.886   2.401   0.288  1.00  0.00     0.130 C 
BRANCH  19  20
HETATM   20  C13 UNL     1       5.212   2.271  -0.465  1.00  0.00     0.132 C 
BRANCH  20  21
HETATM   21  C14 UNL     1       6.301   2.909   0.306  1.00  0.00     0.174 C 
HETATM   22  O1  UNL     1       6.502   2.610   1.505  1.00  0.00    -0.648 OA
HETATM   23  O2  UNL     1       7.126   3.861  -0.285  1.00  0.00    -0.648 OA
ENDBRANCH  20  21
ENDBRANCH  19  20
ENDBRANCH   9  19
BRANCH   1  24
HETATM   24  C3  UNL     1      -3.973  -0.312  -0.326  1.00  0.00     0.015 C 
BRANCH  24  25
HETATM   25  C2  UNL     1      -5.187   0.182   0.467  1.00  0.00     0.073 C 
BRANCH  25  26
HETATM   26  S1  UNL     1      -6.358   0.982  -0.714  1.00  0.00    -0.173 SA
HETATM   27  C1  UNL     1      -5.552   2.457  -1.411  1.00  0.00     0.089 C 
ENDBRANCH  25  26
ENDBRANCH  24  25
ENDBRANCH   1  24
TORSDOF 6
