REMARK  7 active torsions:
REMARK  status: ('A' for Active; 'I' for Inactive)
REMARK    1  A    between atoms: C2_2  and  C3_3 
REMARK    2  A    between atoms: C3_3  and  O1_4 
REMARK    3  A    between atoms: O1_4  and  C4_5 
REMARK    4  A    between atoms: C4_5  and  O2_7 
REMARK    5  A    between atoms: C4_5  and  C6_9 
REMARK    6  A    between atoms: C17_21  and  C19_23 
REMARK    7  A    between atoms: C19_23  and  C20_24 
ROOT
HETATM    1  C6  UNL     1       1.965  -0.410   0.554  1.00  0.00     0.056 C 
HETATM    2  C7  UNL     1       2.116  -1.695  -0.141  1.00  0.00     0.011 C 
HETATM    3  C8  UNL     1       0.905  -2.449   0.363  1.00  0.00     0.007 C 
HETATM    4  C9  UNL     1      -0.137  -1.386   0.617  1.00  0.00     0.003 C 
HETATM    5  C10 UNL     1      -1.245  -1.595  -0.322  1.00  0.00     0.024 C 
HETATM    6  C11 UNL     1      -1.716  -3.027  -0.102  1.00  0.00    -0.077 C 
HETATM    7  C12 UNL     1      -1.782  -3.926  -1.050  1.00  0.00     0.015 C 
HETATM    8  C13 UNL     1      -2.115  -3.296   1.320  1.00  0.00     0.111 C 
HETATM    9  C14 UNL     1      -2.974  -2.198   1.830  1.00  0.00     0.131 C 
HETATM   10  O3  UNL     1      -3.548  -2.354   2.888  1.00  0.00    -0.298 OA
HETATM   11  C15 UNL     1      -3.184  -0.900   1.122  1.00  0.00     0.084 C 
HETATM   12  C16 UNL     1      -2.472  -0.800  -0.186  1.00  0.00     0.009 C 
HETATM   13  C17 UNL     1      -2.419   0.634  -0.708  1.00  0.00    -0.039 C 
HETATM   14  C18 UNL     1      -2.214   0.610  -2.228  1.00  0.00     0.015 C 
HETATM   15  C22 UNL     1      -1.328   1.426  -0.120  1.00  0.00     0.010 C 
HETATM   16  C23 UNL     1       0.008   0.784  -0.539  1.00  0.00     0.011 C 
HETATM   17  C24 UNL     1       0.555  -0.040   0.551  1.00  0.00    -0.031 C 
HETATM   18  C25 UNL     1       0.326   0.704   1.899  1.00  0.00     0.016 C 
ENDROOT
BRANCH   1  19
HETATM   19  C4  UNL     1       3.027   0.638   0.246  1.00  0.00     0.167 C 
HETATM   20  C5  UNL     1       3.113   0.822  -1.243  1.00  0.00     0.080 C 
BRANCH  19  21
HETATM   21  O1  UNL     1       4.203   0.089   0.692  1.00  0.00    -0.326 OA
BRANCH  21  22
HETATM   22  C3  UNL     1       5.355   0.756   0.701  1.00  0.00     0.138 C 
BRANCH  22  23
HETATM   23  C2  UNL     1       5.967   1.284  -0.518  1.00  0.00     0.014 C 
HETATM   24  C1  UNL     1       7.167   0.923  -0.946  1.00  0.00     0.013 C 
ENDBRANCH  22  23
ENDBRANCH  21  22
ENDBRANCH  19  21
BRANCH  19  25
HETATM   25  O2  UNL     1       2.792   1.778   0.989  1.00  0.00    -0.365 OA
ATOM     26  H2  UNL     1       1.978   2.158   0.680  1.00  0.00     0.213 HD
ENDBRANCH  19  25
ENDBRANCH   1  19
BRANCH  13  27
HETATM   27  C19 UNL     1      -3.779   1.187  -0.480  1.00  0.00     0.009 C 
BRANCH  27  28
HETATM   28  C20 UNL     1      -4.145   2.553  -0.864  1.00  0.00    -0.004 C 
HETATM   29  C21 UNL     1      -3.488   3.670  -0.144  1.00  0.00     0.005 C 
ENDBRANCH  27  28
ENDBRANCH  13  27
TORSDOF 7
