REMARK  5 active torsions:
REMARK  status: ('A' for Active; 'I' for Inactive)
REMARK    1  A    between atoms: C2_2  and  C3_3 
REMARK    2  A    between atoms: C7_8  and  C8_9 
REMARK    3  A    between atoms: C8_9  and  C9_10 
REMARK    4  A    between atoms: C8_9  and  C12_19 
REMARK    5  A    between atoms: C11_14  and  N2_15 
ROOT
HETATM    1  C8  UNL     1      -0.955  -0.681   0.433  1.00  0.00     0.066 C 
ENDROOT
BRANCH   1   2
HETATM    2  C7  UNL     1       0.418  -0.295   0.699  1.00  0.00    -0.009 A 
HETATM    3  C6  UNL     1       0.989  -0.583   1.928  1.00  0.00     0.014 A 
HETATM    4  C5  UNL     1       2.277  -0.261   2.266  1.00  0.00     0.043 A 
HETATM    5  C4  UNL     1       3.074   0.387   1.351  1.00  0.00     0.125 A 
HETATM    6  C3  UNL     1       2.552   0.696   0.114  1.00  0.00     0.019 A 
HETATM    7  F1  UNL     1       4.353   0.732   1.623  1.00  0.00    -0.205 F 
HETATM    8  C15 UNL     1       1.250   0.357  -0.194  1.00  0.00     0.132 A 
HETATM    9  F2  UNL     1       0.789   0.679  -1.401  1.00  0.00    -0.205 F 
BRANCH   6  10
HETATM   10  C2  UNL     1       3.388   1.394  -0.899  1.00  0.00     0.040 C 
HETATM   11  C1  UNL     1       4.336   0.362  -1.469  1.00  0.00     0.010 C 
ENDBRANCH   6  10
ENDBRANCH   1   2
BRANCH   1  12
HETATM   12  C9  UNL     1      -1.899   0.489   0.312  1.00  0.00     0.010 A 
HETATM   13  C10 UNL     1      -2.653   1.077   1.289  1.00  0.00     0.105 A 
HETATM   14  N1  UNL     1      -3.407   2.084   0.965  1.00  0.00    -0.346 N 
HETATM   15  C11 UNL     1      -3.409   2.495  -0.304  1.00  0.00     0.142 A 
ATOM     16  H1  UNL     1      -3.984   2.550   1.665  1.00  0.00     0.167 HD
HETATM   17  S1  UNL     1      -2.317   1.431  -1.061  1.00  0.00    -0.057 SA
BRANCH  15  18
HETATM   18  N2  UNL     1      -4.082   3.476  -0.849  1.00  0.00    -0.380 N 
ATOM     19  H22 UNL     1      -4.736   4.114  -0.395  1.00  0.00     0.158 HD
ATOM     20  H21 UNL     1      -4.084   3.790  -1.819  1.00  0.00     0.158 HD
ENDBRANCH  15  18
ENDBRANCH   1  12
BRANCH   1  21
HETATM   21  C12 UNL     1      -1.175  -1.536  -0.796  1.00  0.00    -0.009 C 
HETATM   22  C13 UNL     1      -2.689  -1.800  -0.841  1.00  0.00     0.010 C 
HETATM   23  C14 UNL     1      -0.506  -2.890  -0.681  1.00  0.00     0.010 C 
ENDBRANCH   1  21
TORSDOF 5
