REMARK  7 active torsions:
REMARK  status: ('A' for Active; 'I' for Inactive)
REMARK    1  A    between atoms: C2_2  and  C3_3 
REMARK    2  A    between atoms: C3_3  and  C5_5 
REMARK    3  A    between atoms: C3_3  and  N1_10 
REMARK    4  A    between atoms: C5_5  and  C6_6 
REMARK    5  A    between atoms: N1_10  and  C10_12 
REMARK    6  A    between atoms: C11_15  and  O1_16 
REMARK    7  A    between atoms: N3_20  and  C14_21 
ROOT
HETATM    1  C10 UNL     1       1.278   0.049   0.113  1.00  0.00     0.687 A 
HETATM    2  N2  UNL     1       1.538   0.625   1.283  1.00  0.00    -0.168 N 
ATOM      3  H2  UNL     1       0.950   0.562   2.114  1.00  0.00     0.186 HD
HETATM    4  C11 UNL     1       2.707   1.309   1.200  1.00  0.00     0.178 A 
HETATM    5  C12 UNL     1       3.179   1.138  -0.083  1.00  0.00     0.082 A 
HETATM    6  C13 UNL     1       4.452   1.710  -0.657  1.00  0.00     0.074 C 
HETATM    7  N3  UNL     1       2.309   0.379  -0.722  1.00  0.00    -0.124 N 
ENDROOT
BRANCH   1   8
HETATM    8  N1  UNL     1       0.331  -0.677  -0.290  1.00  0.00    -0.217 N 
ATOM      9  H1  UNL     1       0.427  -0.964  -1.264  1.00  0.00     0.178 HD
BRANCH   8  10
HETATM   10  C3  UNL     1      -0.826  -1.171   0.323  1.00  0.00     0.044 C 
HETATM   11  C4  UNL     1      -1.438  -2.211  -0.633  1.00  0.00     0.039 C 
BRANCH  10  12
HETATM   12  C2  UNL     1      -0.515  -1.995   1.587  1.00  0.00     0.026 C 
HETATM   13  C1  UNL     1       0.436  -3.100   1.318  1.00  0.00     0.007 C 
ENDBRANCH  10  12
BRANCH  10  14
HETATM   14  C5  UNL     1      -1.820  -0.161   0.733  1.00  0.00     0.039 C 
BRANCH  14  15
HETATM   15  C6  UNL     1      -2.352   0.794  -0.241  1.00  0.00    -0.049 C 
HETATM   16  C7  UNL     1      -1.419   1.715  -0.935  1.00  0.00     0.014 C 
HETATM   17  C8  UNL     1      -3.310   1.711   0.552  1.00  0.00     0.014 C 
HETATM   18  C9  UNL     1      -3.240   0.164  -1.305  1.00  0.00     0.014 C 
ENDBRANCH  14  15
ENDBRANCH  10  14
ENDBRANCH   8  10
ENDBRANCH   1   8
BRANCH   7  19
HETATM   19  C14 UNL     1       2.464  -0.022  -2.109  1.00  0.00     0.480 C 
HETATM   20  F1  UNL     1       2.199   1.034  -2.941  1.00  0.00    -0.190 F 
HETATM   21  F2  UNL     1       3.781  -0.410  -2.308  1.00  0.00    -0.190 F 
ENDBRANCH   7  19
BRANCH   4  22
HETATM   22  O1  UNL     1       3.298   2.034   2.223  1.00  0.00    -0.344 OA
ATOM     23  H1  UNL     1       4.116   2.513   2.165  1.00  0.00     0.219 HD
ENDBRANCH   4  22
TORSDOF 7
