REMARK  12 active torsions:
REMARK  status: ('A' for Active; 'I' for Inactive)
REMARK    1  A    between atoms: C1_4  and  C2_5 
REMARK    2  A    between atoms: C2_5  and  C3_6 
REMARK       I    between atoms: C3_6  and  N2_8 
REMARK    3  A    between atoms: N2_8  and  C4_10 
REMARK    4  A    between atoms: C4_10  and  C5_11 
REMARK    5  A    between atoms: C4_10  and  N4_24 
REMARK       I    between atoms: C5_11  and  N3_13 
REMARK    6  A    between atoms: N3_13  and  C6_15 
REMARK    7  A    between atoms: C6_15  and  C7_16 
REMARK    8  A    between atoms: C6_15  and  C8_19 
REMARK    9  A    between atoms: C8_19  and  C9_21 
REMARK   10  A    between atoms: C10_25  and  N5_26 
REMARK   11  A    between atoms: C12_32  and  O8_33 
REMARK   12  A    between atoms: C13_35  and  N7_36 
ROOT
HETATM    1  C4  UNL     1      -0.657   1.195  -0.363  1.00  0.00     0.306 C 
ENDROOT
BRANCH   1   2
HETATM    2  N2  UNL     1      -0.277   2.429   0.299  1.00  0.00    -0.331 N 
HETATM    3  C3  UNL     1      -0.400   3.694  -0.339  1.00  0.00     0.224 C 
HETATM    4  O1  UNL     1      -0.845   3.807  -1.507  1.00  0.00    -0.273 OA
ATOM      5  H2  UNL     1       0.089   2.388   1.250  1.00  0.00     0.165 HD
BRANCH   3   6
HETATM    6  C2  UNL     1       0.010   4.922   0.401  1.00  0.00     0.146 C 
BRANCH   6   7
HETATM    7  C1  UNL     1      -0.193   6.140  -0.429  1.00  0.00     0.062 C 
HETATM    8  N1  UNL     1      -1.256   6.816  -0.409  1.00  0.00    -0.411 N 
ATOM      9  H12 UNL     1      -2.002   6.500   0.210  1.00  0.00     0.155 HD
ATOM     10  H11 UNL     1      -1.395   7.651  -0.978  1.00  0.00     0.155 HD
ENDBRANCH   6   7
ENDBRANCH   3   6
ENDBRANCH   1   2
BRANCH   1  11
HETATM   11  C5  UNL     1      -1.712   0.495   0.412  1.00  0.00     0.262 C 
HETATM   12  O2  UNL     1      -2.140   0.984   1.484  1.00  0.00    -0.269 OA
HETATM   13  N3  UNL     1      -2.249  -0.729  -0.045  1.00  0.00    -0.337 N 
ATOM     14  H3  UNL     1      -1.900  -1.125  -0.917  1.00  0.00     0.164 HD
BRANCH  13  15
HETATM   15  C6  UNL     1      -3.305  -1.458   0.702  1.00  0.00     0.267 C 
BRANCH  15  16
HETATM   16  C7  UNL     1      -2.777  -2.803   1.021  1.00  0.00     0.205 C 
HETATM   17  O3  UNL     1      -1.631  -3.108   0.621  1.00  0.00    -0.646 OA
HETATM   18  O4  UNL     1      -3.501  -3.716   1.735  1.00  0.00    -0.646 OA
ENDBRANCH  15  16
BRANCH  15  19
HETATM   19  C8  UNL     1      -4.474  -1.589  -0.182  1.00  0.00     0.258 C 
HETATM   20  O5  UNL     1      -4.356  -1.240  -1.403  1.00  0.00    -0.283 OA
BRANCH  19  21
HETATM   21  C9  UNL     1      -5.738  -2.097   0.298  1.00  0.00     0.249 C 
HETATM   22  O6  UNL     1      -5.919  -2.407   1.495  1.00  0.00    -0.642 OA
HETATM   23  O7  UNL     1      -6.781  -2.233  -0.646  1.00  0.00    -0.642 OA
ENDBRANCH  19  21
ENDBRANCH  15  19
ENDBRANCH  13  15
ENDBRANCH   1  11
BRANCH   1  24
HETATM   24  N4  UNL     1       0.555   0.388  -0.439  1.00  0.00    -0.116 N 
HETATM   25  C10 UNL     1       1.106   0.205  -1.660  1.00  0.00     0.683 A 
HETATM   26  N6  UNL     1       2.223  -0.529  -1.755  1.00  0.00    -0.188 N 
HETATM   27  C11 UNL     1       2.832  -1.097  -0.706  1.00  0.00     0.100 A 
ATOM     28  H6  UNL     1       2.633  -0.663  -2.679  1.00  0.00     0.184 HD
HETATM   29  C12 UNL     1       3.980  -1.853  -0.789  1.00  0.00     0.127 A 
HETATM   30  C16 UNL     1       2.264  -0.909   0.554  1.00  0.00     0.063 A 
HETATM   31  C13 UNL     1       4.593  -2.434   0.327  1.00  0.00     0.138 A 
HETATM   32  C14 UNL     1       3.988  -2.215   1.543  1.00  0.00     0.040 A 
HETATM   33  C15 UNL     1       2.842  -1.467   1.669  1.00  0.00     0.022 A 
HETATM   34  C17 UNL     1       1.108  -0.148   0.640  1.00  0.00     0.276 A 
HETATM   35  O11 UNL     1       0.590   0.024   1.786  1.00  0.00    -0.266 OA
BRANCH  25  36
HETATM   36  N5  UNL     1       0.552   0.738  -2.705  1.00  0.00    -0.234 N 
ATOM     37  H52 UNL     1      -0.298   1.297  -2.633  1.00  0.00     0.174 HD
ATOM     38  H51 UNL     1       0.968   0.600  -3.626  1.00  0.00     0.174 HD
ENDBRANCH  25  36
BRANCH  29  39
HETATM   39  O8  UNL     1       4.567  -2.061  -2.003  1.00  0.00    -0.356 OA
ATOM     40  H8  UNL     1       5.359  -2.583  -2.060  1.00  0.00     0.218 HD
ENDBRANCH  29  39
BRANCH  31  41
HETATM   41  N7  UNL     1       5.778  -3.202   0.170  1.00  0.00    -0.113 N 
HETATM   42  O9  UNL     1       6.639  -2.991  -0.705  1.00  0.00    -0.532 OA
HETATM   43  O10 UNL     1       6.005  -4.249   1.028  1.00  0.00    -0.532 OA
ENDBRANCH  31  41
ENDBRANCH   1  24
TORSDOF 12
