REMARK  17 active torsions:
REMARK  status: ('A' for Active; 'I' for Inactive)
REMARK    1  A    between atoms: O1_2  and  C2_3 
REMARK    2  A    between atoms: C4_5  and  C5_6 
REMARK    3  A    between atoms: C5_6  and  N1_7 
REMARK    4  A    between atoms: C5_6  and  C8_12 
REMARK       I    between atoms: N1_7  and  C6_9 
REMARK    5  A    between atoms: C9_15  and  C10_16 
REMARK    6  A    between atoms: C10_16  and  O4_17 
REMARK    7  A    between atoms: C10_16  and  C11_19 
REMARK       I    between atoms: C11_19  and  N2_21 
REMARK    8  A    between atoms: N2_21  and  C12_23 
REMARK    9  A    between atoms: C12_23  and  C13_24 
REMARK   10  A    between atoms: C12_23  and  C14_27 
REMARK   11  A    between atoms: C14_27  and  O9_29 
REMARK   12  A    between atoms: O9_29  and  C15_30 
REMARK   13  A    between atoms: C15_30  and  C16_31 
REMARK   14  A    between atoms: C16_31  and  O10_32 
REMARK   15  A    between atoms: C16_31  and  O11_34 
REMARK   16  A    between atoms: C17_36  and  O12_37 
REMARK   17  A    between atoms: C18_39  and  O13_40 
ROOT
HETATM    1  C2  UNL     1      -3.564   2.444   1.570  1.00  0.00     0.104 A 
HETATM    2  C3  UNL     1      -3.663   1.557   0.553  1.00  0.00     0.050 A 
HETATM    3  C4  UNL     1      -2.571   0.740   0.144  1.00  0.00    -0.009 A 
HETATM    4  C9  UNL     1      -1.366   0.846   0.800  1.00  0.00     0.048 A 
HETATM    5  C17 UNL     1      -1.307   1.772   1.839  1.00  0.00     0.115 A 
HETATM    6  C18 UNL     1      -2.372   2.568   2.235  1.00  0.00     0.133 A 
ENDROOT
BRANCH   4   7
HETATM    7  C10 UNL     1      -0.259   0.036   0.448  1.00  0.00     0.147 C 
BRANCH   7   8
HETATM    8  O4  UNL     1      -0.476  -0.801  -0.538  1.00  0.00    -0.355 OA
ATOM      9  H4  UNL     1       0.267  -1.344  -0.774  1.00  0.00     0.218 HD
ENDBRANCH   7   8
BRANCH   7  10
HETATM   10  C11 UNL     1       1.083  -0.085   0.935  1.00  0.00     0.276 C 
HETATM   11  O5  UNL     1       1.597   0.552   1.840  1.00  0.00    -0.265 OA
HETATM   12  N2  UNL     1       1.990  -1.058   0.328  1.00  0.00    -0.333 N 
ATOM     13  H2  UNL     1       1.637  -1.633  -0.437  1.00  0.00     0.164 HD
BRANCH  12  14
HETATM   14  C12 UNL     1       3.335  -1.248   0.743  1.00  0.00     0.286 C 
BRANCH  14  15
HETATM   15  C13 UNL     1       3.565  -2.597   1.307  1.00  0.00     0.206 C 
HETATM   16  O6  UNL     1       2.613  -3.406   1.367  1.00  0.00    -0.646 OA
HETATM   17  O7  UNL     1       4.805  -2.989   1.772  1.00  0.00    -0.646 OA
ENDBRANCH  14  15
BRANCH  14  18
HETATM   18  C14 UNL     1       4.323  -1.056  -0.349  1.00  0.00     0.292 C 
HETATM   19  O8  UNL     1       3.882  -0.756  -1.488  1.00  0.00    -0.262 OA
BRANCH  18  20
HETATM   20  O9  UNL     1       5.674  -1.184  -0.195  1.00  0.00    -0.315 OA
BRANCH  20  21
HETATM   21  C15 UNL     1       6.636  -1.013  -1.194  1.00  0.00     0.239 C 
BRANCH  21  22
HETATM   22  C16 UNL     1       6.636   0.355  -1.807  1.00  0.00     0.278 C 
BRANCH  22  23
HETATM   23  O10 UNL     1       6.888   1.358  -0.859  1.00  0.00    -0.369 OA
ATOM     24  H10 UNL     1       6.888   2.225  -1.247  1.00  0.00     0.212 HD
ENDBRANCH  22  23
BRANCH  22  25
HETATM   25  O11 UNL     1       7.725   0.403  -2.704  1.00  0.00    -0.369 OA
ATOM     26  H11 UNL     1       7.725   1.270  -3.092  1.00  0.00     0.212 HD
ENDBRANCH  22  25
ENDBRANCH  21  22
ENDBRANCH  20  21
ENDBRANCH  18  20
ENDBRANCH  14  18
ENDBRANCH  12  14
ENDBRANCH   7  10
ENDBRANCH   4   7
BRANCH   3  27
HETATM   27  C5  UNL     1      -2.890  -0.107  -1.019  1.00  0.00     0.201 C 
BRANCH  27  28
HETATM   28  N1  UNL     1      -3.647  -1.267  -0.683  1.00  0.00    -0.345 N 
HETATM   29  C6  UNL     1      -3.504  -2.549  -1.264  1.00  0.00     0.214 C 
HETATM   30  C7  UNL     1      -4.345  -3.697  -0.841  1.00  0.00     0.117 C 
HETATM   31  O2  UNL     1      -2.658  -2.799  -2.173  1.00  0.00    -0.274 OA
ATOM     32  H1  UNL     1      -4.356  -1.163   0.042  1.00  0.00     0.163 HD
ENDBRANCH  27  28
BRANCH  27  33
HETATM   33  C8  UNL     1      -3.784   0.730  -1.969  1.00  0.00     0.224 C 
HETATM   34  O3  UNL     1      -4.860   0.286  -2.226  1.00  0.00    -0.282 OA
HETATM   35  S1  UNL     1      -3.234   2.272  -2.642  1.00  0.00    -0.009 SA
ENDBRANCH  27  33
ENDBRANCH   3  27
BRANCH   5  36
HETATM   36  O12 UNL     1      -0.162   1.973   2.568  1.00  0.00    -0.357 OA
ATOM     37  H12 UNL     1      -0.122   2.605   3.277  1.00  0.00     0.217 HD
ENDBRANCH   5  36
BRANCH   6  38
HETATM   38  O13 UNL     1      -2.308   3.478   3.260  1.00  0.00    -0.356 OA
ATOM     39  H13 UNL     1      -1.482   3.564   3.721  1.00  0.00     0.218 HD
ENDBRANCH   6  38
BRANCH   1  40
HETATM   40  O1  UNL     1      -4.663   3.218   1.930  1.00  0.00    -0.353 OA
HETATM   41  C1  UNL     1      -5.889   3.084   1.238  1.00  0.00     0.210 C 
ENDBRANCH   1  40
TORSDOF 17
