REMARK  15 active torsions:
REMARK  status: ('A' for Active; 'I' for Inactive)
REMARK    1  A    between atoms: N2_3  and  C2_5 
REMARK    2  A    between atoms: C2_5  and  N3_6 
REMARK    3  A    between atoms: C2_5  and  C3_10 
REMARK    4  A    between atoms: C2_5  and  C9_28 
REMARK    5  A    between atoms: C3_10  and  N4_11 
REMARK    6  A    between atoms: C5_17  and  C6_18 
REMARK    7  A    between atoms: C6_18  and  O1_19 
REMARK    8  A    between atoms: C6_18  and  N7_21 
REMARK    9  A    between atoms: N7_21  and  C7_24 
REMARK   10  A    between atoms: C7_24  and  C8_25 
REMARK   11  A    between atoms: C9_28  and  N9_29 
REMARK   12  A    between atoms: C12_34  and  N11_35 
REMARK   13  A    between atoms: N11_35  and  C13_37 
REMARK   14  A    between atoms: C13_37  and  C14_38 
REMARK   15  A    between atoms: C18_45  and  N13_46 
ROOT
HETATM    1  N1  UNL     1       2.766  -0.744  -2.907  1.00  0.00    -0.172 NA
HETATM    2  C1  UNL     1       2.209  -0.483  -1.926  1.00  0.00     0.179 C 
HETATM    3  N2  UNL     1       1.528  -0.150  -0.720  1.00  0.00    -0.292 N 
ATOM      4  H2  UNL     1       1.336  -0.874  -0.028  1.00  0.00     0.174 HD
ENDROOT
BRANCH   3   5
HETATM    5  C2  UNL     1       1.112   1.200  -0.476  1.00  0.00     0.236 C 
BRANCH   5   6
HETATM    6  N3  UNL     1       0.569   1.668  -1.757  1.00  0.00    -0.049 N 
ATOM      7  H33 UNL     1       1.215   1.570  -2.540  1.00  0.00     0.277 HD
ATOM      8  H32 UNL     1      -0.166   1.071  -2.137  1.00  0.00     0.277 HD
ATOM      9  H31 UNL     1       0.273   2.629  -1.583  1.00  0.00     0.277 HD
ENDBRANCH   5   6
BRANCH   5  10
HETATM   10  C3  UNL     1       2.241   2.091  -0.078  1.00  0.00     0.195 C 
BRANCH  10  11
HETATM   11  N4  UNL     1       2.932   1.760   1.132  1.00  0.00    -0.323 N 
HETATM   12  C4  UNL     1       2.464   2.176   2.354  1.00  0.00     0.201 A 
HETATM   13  N5  UNL     1       3.290   1.720   3.294  1.00  0.00    -0.295 N 
HETATM   14  N6  UNL     1       4.240   1.049   2.731  1.00  0.00    -0.284 N 
ATOM     15  H5  UNL     1       3.189   1.875   4.297  1.00  0.00     0.187 HD
HETATM   16  C5  UNL     1       4.017   1.074   1.378  1.00  0.00     0.156 A 
ATOM     17  H6  UNL     1       5.014   0.585   3.206  1.00  0.00     0.188 HD
BRANCH  16  18
HETATM   18  C6  UNL     1       4.958   0.409   0.443  1.00  0.00     0.389 C 
BRANCH  18  19
HETATM   19  O1  UNL     1       6.271   0.802   0.789  1.00  0.00    -0.364 OA
ATOM     20  H1  UNL     1       6.873   0.376   0.190  1.00  0.00     0.212 HD
ENDBRANCH  18  19
BRANCH  18  21
HETATM   21  N7  UNL     1       4.960  -1.043   0.604  1.00  0.00    -0.034 N 
ATOM     22  H72 UNL     1       5.164  -1.323   1.563  1.00  0.00     0.281 HD
ATOM     23  H71 UNL     1       4.023  -1.439   0.532  1.00  0.00     0.281 HD
BRANCH  21  24
HETATM   24  C7  UNL     1       5.887  -1.641  -0.354  1.00  0.00     0.334 C 
BRANCH  24  25
HETATM   25  C8  UNL     1       5.930  -3.113  -0.211  1.00  0.00     0.257 C 
HETATM   26  N8  UNL     1       5.150  -3.777   0.757  1.00  0.00    -0.061 NA
HETATM   27  O2  UNL     1       6.683  -3.756  -0.979  1.00  0.00    -0.275 OA
ENDBRANCH  24  25
ENDBRANCH  21  24
ENDBRANCH  18  21
ENDBRANCH  16  18
ENDBRANCH  10  11
ENDBRANCH   5  10
BRANCH   5  28
HETATM   28  C9  UNL     1       0.021   1.284   0.571  1.00  0.00     0.195 C 
BRANCH  28  29
HETATM   29  N9  UNL     1      -1.173   0.568   0.198  1.00  0.00    -0.323 N 
HETATM   30  C10 UNL     1      -1.447  -0.730   0.383  1.00  0.00     0.185 A 
HETATM   31  N10 UNL     1      -2.652  -1.026  -0.132  1.00  0.00    -0.346 N 
HETATM   32  C11 UNL     1      -3.152   0.102  -0.651  1.00  0.00     0.123 A 
ATOM     33  H10 UNL     1      -3.103  -1.941  -0.128  1.00  0.00     0.167 HD
HETATM   34  C12 UNL     1      -4.326   0.381  -1.289  1.00  0.00     0.148 A 
HETATM   35  C19 UNL     1      -2.226   1.098  -0.443  1.00  0.00     0.155 A 
HETATM   36  N12 UNL     1      -4.525   1.679  -1.697  1.00  0.00    -0.175 N 
HETATM   37  C18 UNL     1      -3.644   2.651  -1.502  1.00  0.00     0.679 A 
ATOM     38  H12 UNL     1      -5.397   1.906  -2.175  1.00  0.00     0.186 HD
HETATM   39  N14 UNL     1      -2.490   2.373  -0.876  1.00  0.00    -0.174 N 
ATOM     40  H14 UNL     1      -1.806   3.113  -0.721  1.00  0.00     0.186 HD
BRANCH  34  41
HETATM   41  N11 UNL     1      -5.267  -0.440  -1.551  1.00  0.00    -0.368 N 
ATOM     42  H11 UNL     1      -6.073  -0.046  -2.037  1.00  0.00     0.161 HD
BRANCH  41  43
HETATM   43  C13 UNL     1      -5.346  -1.828  -1.259  1.00  0.00     0.186 C 
BRANCH  43  44
HETATM   44  C14 UNL     1      -5.950  -2.036   0.102  1.00  0.00     0.070 A 
HETATM   45  C15 UNL     1      -6.093  -3.230   0.761  1.00  0.00     0.036 A 
HETATM   46  C16 UNL     1      -6.700  -2.979   1.987  1.00  0.00     0.027 A 
HETATM   47  C17 UNL     1      -6.893  -1.614   1.998  1.00  0.00     0.142 A 
HETATM   48  O3  UNL     1      -6.437  -1.104   0.872  1.00  0.00    -0.325 OA
ENDBRANCH  43  44
ENDBRANCH  41  43
ENDBRANCH  34  41
BRANCH  37  49
HETATM   49  N13 UNL     1      -3.893   3.871  -1.909  1.00  0.00    -0.234 N 
ATOM     50 2H13 UNL     1      -4.770   4.082  -2.385  1.00  0.00     0.174 HD
ATOM     51 1H13 UNL     1      -3.215   4.619  -1.759  1.00  0.00     0.174 HD
ENDBRANCH  37  49
ENDBRANCH  28  29
ENDBRANCH   5  28
ENDBRANCH   3   5
TORSDOF 15
