REMARK  2 active torsions:
REMARK  status: ('A' for Active; 'I' for Inactive)
REMARK    1  A    between atoms: C2_2  and  N1_3 
REMARK    2  A    between atoms: N1_3  and  C3_5 
REMARK       I    between atoms: N4_11  and  C5_13 
ROOT
HETATM    1  C3  UNL     1      -0.821   0.275   0.080  1.00  0.00     0.162 A 
HETATM    2  N2  UNL     1      -0.582  -0.917   0.614  1.00  0.00    -0.278 N 
ATOM      3  H2  UNL     1      -1.356  -1.531   0.869  1.00  0.00     0.189 HD
HETATM    4  N3  UNL     1       0.625  -1.289   0.806  1.00  0.00    -0.277 N 
ATOM      5  H3  UNL     1       0.824  -2.202   1.215  1.00  0.00     0.189 HD
HETATM    6  C4  UNL     1       1.622  -0.470   0.466  1.00  0.00     0.169 A 
HETATM    7  N4  UNL     1       2.915  -0.663   0.581  1.00  0.00    -0.310 N 
ATOM      8  H4  UNL     1       3.287  -1.528   0.973  1.00  0.00     0.170 HD
HETATM    9  C5  UNL     1       3.770   0.365   0.145  1.00  0.00     0.187 C 
HETATM   10  N5  UNL     1       4.877   0.051  -0.417  1.00  0.00    -0.373 N 
ATOM     11  H51 UNL     1       5.497   0.797  -0.733  1.00  0.00     0.158 HD
ATOM     12  H52 UNL     1       5.125  -0.930  -0.543  1.00  0.00     0.158 HD
HETATM   13  N6  UNL     1       3.427   1.722   0.319  1.00  0.00    -0.064 NA
HETATM   14  S1  UNL     1       0.756   0.882  -0.152  1.00  0.00    -0.015 SA
ENDROOT
BRANCH   1  15
HETATM   15  N1  UNL     1      -1.885   0.919  -0.229  1.00  0.00    -0.370 N 
ATOM     16  H1  UNL     1      -1.743   1.844  -0.635  1.00  0.00     0.161 HD
BRANCH  15  17
HETATM   17  C2  UNL     1      -3.229   0.513  -0.080  1.00  0.00     0.117 C 
HETATM   18  C1  UNL     1      -3.745  -0.425  -1.118  1.00  0.00     0.026 C 
ENDBRANCH  15  17
ENDBRANCH   1  15
TORSDOF 2
