REMARK  3 active torsions:
REMARK  status: ('A' for Active; 'I' for Inactive)
REMARK    1  A    between atoms: C2_2  and  N1_3 
REMARK       I    between atoms: N1_3  and  C3_5 
REMARK       I    between atoms: C3_5  and  N4_10 
REMARK    2  A    between atoms: N4_10  and  C5_12 
REMARK    3  A    between atoms: C7_18  and  N7_19 
ROOT
HETATM    1  N1  UNL     1       2.295  -0.544  -1.062  1.00  0.00    -0.225 N 
ATOM      2  H1  UNL     1       3.008  -0.941  -1.674  1.00  0.00     0.177 HD
HETATM    3  C3  UNL     1       1.013  -1.147  -1.066  1.00  0.00     0.701 C 
HETATM    4  N2  UNL     1       0.932  -2.432  -0.843  1.00  0.00    -0.126 N 
ATOM      5  H2  UNL     1       1.780  -2.972  -0.671  1.00  0.00     0.197 HD
HETATM    6  C4  UNL     1      -0.314  -3.071  -0.839  1.00  0.00     0.196 C 
HETATM    7  N3  UNL     1      -1.341  -3.584  -0.848  1.00  0.00    -0.171 NA
HETATM    8  N4  UNL     1      -0.112  -0.379  -1.311  1.00  0.00    -0.021 N 
ATOM      9  H4  UNL     1      -0.240  -0.126  -2.291  1.00  0.00     0.203 HD
ENDROOT
BRANCH   1  10
HETATM   10  C2  UNL     1       2.663   0.590  -0.254  1.00  0.00     0.133 C 
HETATM   11  C1  UNL     1       2.741   0.337   1.211  1.00  0.00     0.027 C 
ENDBRANCH   1  10
BRANCH   8  12
HETATM   12  C5  UNL     1      -1.011   0.066  -0.538  1.00  0.00     0.712 A 
HETATM   13  N5  UNL     1      -0.966  -0.191   0.770  1.00  0.00    -0.186 N 
HETATM   14  C6  UNL     1      -1.918   0.273   1.601  1.00  0.00     0.215 A 
ATOM     15  H5  UNL     1      -0.199  -0.748   1.146  1.00  0.00     0.185 HD
HETATM   16  N6  UNL     1      -2.916   1.002   1.079  1.00  0.00    -0.187 N 
HETATM   17  C7  UNL     1      -3.007   1.288  -0.225  1.00  0.00     0.691 A 
ATOM     18  H6  UNL     1      -3.639   1.355   1.706  1.00  0.00     0.185 HD
HETATM   19  N8  UNL     1      -2.030   0.800  -1.008  1.00  0.00    -0.022 N 
ATOM     20  H8  UNL     1      -2.065   0.997  -2.008  1.00  0.00     0.203 HD
BRANCH  17  21
HETATM   21  N7  UNL     1      -3.988   1.992  -0.666  1.00  0.00    -0.234 N 
ATOM     22  H72 UNL     1      -4.730   2.362  -0.072  1.00  0.00     0.174 HD
ATOM     23  H71 UNL     1      -4.057   2.210  -1.660  1.00  0.00     0.174 HD
ENDBRANCH  17  21
ENDBRANCH   8  12
TORSDOF 3
