REMARK  3 active torsions:
REMARK  status: ('A' for Active; 'I' for Inactive)
REMARK    1  A    between atoms: N1_2  and  N2_4 
REMARK    2  A    between atoms: N2_4  and  C3_6 
REMARK    3  A    between atoms: C4_9  and  N4_10 
ROOT
HETATM    1  C3  UNL     1       0.028   0.249  -0.007  1.00  0.00     0.166 A 
HETATM    2  N3  UNL     1      -0.196  -1.087   0.014  1.00  0.00    -0.173 N 
ATOM      3  H3  UNL     1       0.602  -1.721   0.057  1.00  0.00     0.186 HD
HETATM    4  C4  UNL     1      -1.433  -1.603  -0.020  1.00  0.00     0.679 A 
HETATM    5  N5  UNL     1      -2.530  -0.829  -0.077  1.00  0.00    -0.174 N 
ATOM      6  H5  UNL     1      -3.460  -1.247  -0.101  1.00  0.00     0.186 HD
HETATM    7  C5  UNL     1      -2.376   0.522  -0.102  1.00  0.00     0.152 A 
HETATM    8  N6  UNL     1      -3.284   1.514  -0.157  1.00  0.00    -0.336 N 
ATOM      9  H6  UNL     1      -4.298   1.411  -0.192  1.00  0.00     0.168 HD
HETATM   10  C6  UNL     1      -2.593   2.667  -0.157  1.00  0.00     0.182 A 
HETATM   11  N7  UNL     1      -1.277   2.394  -0.102  1.00  0.00    -0.346 N 
ATOM     12  H7  UNL     1      -0.534   3.092  -0.089  1.00  0.00     0.167 HD
HETATM   13  C7  UNL     1      -1.087   1.059  -0.066  1.00  0.00     0.124 A 
ENDROOT
BRANCH   1  14
HETATM   14  N2  UNL     1       1.172   0.794   0.023  1.00  0.00    -0.286 N 
ATOM     15  H2  UNL     1       1.183   1.814   0.000  1.00  0.00     0.188 HD
BRANCH  14  16
HETATM   16  N1  UNL     1       2.390   0.183   0.082  1.00  0.00    -0.335 N 
HETATM   17  C1  UNL     1       2.969  -0.176   1.353  1.00  0.00     0.170 C 
HETATM   18  C2  UNL     1       3.123  -0.116  -1.122  1.00  0.00     0.170 C 
ENDBRANCH  14  16
ENDBRANCH   1  14
BRANCH   4  19
HETATM   19  N4  UNL     1      -1.601  -2.894   0.002  1.00  0.00    -0.234 N 
ATOM     20  H42 UNL     1      -0.768  -3.482   0.045  1.00  0.00     0.174 HD
ATOM     21  H41 UNL     1      -2.542  -3.287  -0.024  1.00  0.00     0.174 HD
ENDBRANCH   4  19
TORSDOF 3
