REMARK  4 active torsions:
REMARK  status: ('A' for Active; 'I' for Inactive)
REMARK       I    between atoms: N1_2  and  C2_4 
REMARK       I    between atoms: C2_4  and  N2_6 
REMARK    1  A    between atoms: N2_6  and  N3_8 
REMARK    2  A    between atoms: N3_8  and  C3_10 
REMARK    3  A    between atoms: C3_10  and  N4_12 
REMARK    4  A    between atoms: N4_12  and  N5_14 
ROOT
HETATM    1  N3  UNL     1      -0.130   0.211  -0.540  1.00  0.00    -0.271 N 
ATOM      2  H3  UNL     1       0.397  -0.322  -1.232  1.00  0.00     0.189 HD
ENDROOT
BRANCH   1   3
HETATM    3  N2  UNL     1      -1.489   0.394  -0.759  1.00  0.00    -0.249 N 
HETATM    4  C2  UNL     1      -2.417  -0.173   0.134  1.00  0.00     0.334 C 
HETATM    5  N1  UNL     1      -3.797  -0.007  -0.063  1.00  0.00    -0.346 N 
HETATM    6  O1  UNL     1      -2.053  -0.855   1.149  1.00  0.00    -0.246 OA
HETATM    7  C1  UNL     1      -4.773  -0.574   0.837  1.00  0.00     0.151 C 
ATOM      8  H1  UNL     1      -4.120   0.531  -0.867  1.00  0.00     0.163 HD
ATOM      9  H2  UNL     1      -1.812   0.935  -1.561  1.00  0.00     0.192 HD
ENDBRANCH   1   3
BRANCH   1  10
HETATM   10  C3  UNL     1       0.571   0.715   0.579  1.00  0.00     0.201 C 
HETATM   11  S1  UNL     1      -0.193   1.595   1.741  1.00  0.00    -0.038 SA
BRANCH  10  12
HETATM   12  N4  UNL     1       1.951   0.472   0.707  1.00  0.00    -0.295 N 
ATOM     13  H4  UNL     1       2.465   0.828   1.513  1.00  0.00     0.183 HD
BRANCH  12  14
HETATM   14  N5  UNL     1       2.608  -0.261  -0.280  1.00  0.00    -0.238 NA
HETATM   15  C4  UNL     1       2.878   0.529  -1.464  1.00  0.00     0.135 C 
HETATM   16  C5  UNL     1       3.814  -0.890   0.229  1.00  0.00     0.135 C 
ENDBRANCH  12  14
ENDBRANCH  10  12
ENDBRANCH   1  10
TORSDOF 4
