REMARK  8 active torsions:
REMARK  status: ('A' for Active; 'I' for Inactive)
REMARK    1  A    between atoms: C2_2  and  C3_4 
REMARK    2  A    between atoms: C5_7  and  C6_8 
REMARK    3  A    between atoms: C6_8  and  O3_10 
REMARK    4  A    between atoms: O3_10  and  C7_11 
REMARK    5  A    between atoms: C7_11  and  C8_12 
REMARK    6  A    between atoms: C8_12  and  C9_13 
REMARK    7  A    between atoms: C10_15  and  O4_16 
REMARK    8  A    between atoms: O4_16  and  N1_17 
ROOT
HETATM    1  C3  UNL     1       2.170   0.968   0.143  1.00  0.00     0.100 A 
HETATM    2  C4  UNL     1       0.812   1.211  -0.142  1.00  0.00     0.062 A 
HETATM    3 BR1  UNL     1       0.020   2.912  -0.406  1.00  0.00    -0.047 Br
HETATM    4  C5  UNL     1       0.167   0.019  -0.195  1.00  0.00     0.112 A 
HETATM    5  C10 UNL     1       1.073  -0.978   0.047  1.00  0.00     0.190 A 
HETATM    6  N2  UNL     1       2.282  -0.356   0.249  1.00  0.00    -0.325 N 
HETATM    7  C11 UNL     1       3.452  -1.170   0.538  1.00  0.00     0.159 C 
ENDROOT
BRANCH   4   8
HETATM    8  C6  UNL     1      -1.268  -0.227  -0.465  1.00  0.00     0.299 C 
HETATM    9  O2  UNL     1      -1.738  -1.388  -0.485  1.00  0.00    -0.259 OA
BRANCH   8  10
HETATM   10  O3  UNL     1      -2.121   0.830  -0.701  1.00  0.00    -0.317 OA
BRANCH  10  11
HETATM   11  C7  UNL     1      -3.499   0.722  -0.966  1.00  0.00     0.181 C 
BRANCH  11  12
HETATM   12  C8  UNL     1      -4.294   0.084   0.136  1.00  0.00     0.058 C 
BRANCH  12  13
HETATM   13  C9  UNL     1      -5.761   0.043  -0.304  1.00  0.00     0.224 C 
HETATM   14  F1  UNL     1      -6.203   1.331  -0.531  1.00  0.00    -0.255 F 
ENDBRANCH  12  13
ENDBRANCH  11  12
ENDBRANCH  10  11
ENDBRANCH   8  10
ENDBRANCH   4   8
BRANCH   5  15
HETATM   15  O4  UNL     1       0.775  -2.333   0.073  1.00  0.00    -0.225 OA
BRANCH  15  16
HETATM   16  N1  UNL     1       1.575  -3.371   0.294  1.00  0.00    -0.304 N 
ATOM     17  H12 UNL     1       2.547  -3.116   0.468  1.00  0.00     0.184 HD
ATOM     18  H11 UNL     1       1.356  -4.367   0.313  1.00  0.00     0.184 HD
ENDBRANCH  15  16
ENDBRANCH   5  15
BRANCH   1  19
HETATM   19  C2  UNL     1       3.179   2.015   0.274  1.00  0.00     0.173 C 
HETATM   20  C1  UNL     1       4.595   1.895   0.556  1.00  0.00     0.098 C 
HETATM   21  O1  UNL     1       2.729   3.219   0.113  1.00  0.00    -0.291 OA
ENDBRANCH   1  19
TORSDOF 8
