REMARK  4 active torsions:
REMARK  status: ('A' for Active; 'I' for Inactive)
REMARK    1  A    between atoms: O1_2  and  C2_3 
REMARK    2  A    between atoms: C3_6  and  N2_7 
REMARK    3  A    between atoms: C5_9  and  N3_10 
REMARK       I    between atoms: N3_10  and  C6_12 
REMARK    4  A    between atoms: C6_12  and  C7_14 
ROOT
HETATM    1  N2  UNL     1       0.331   0.243  -0.518  1.00  0.00    -0.302 N 
HETATM    2  C4  UNL     1      -0.567  -0.344   0.460  1.00  0.00     0.155 C 
HETATM    3  C5  UNL     1      -1.689   0.655   0.635  1.00  0.00     0.110 C 
HETATM    4  C8  UNL     1      -1.493   1.745  -0.357  1.00  0.00     0.131 C 
HETATM    5  C9  UNL     1      -0.415   1.245  -1.253  1.00  0.00     0.327 C 
HETATM    6  F1  UNL     1      -0.969   0.746  -2.405  1.00  0.00    -0.182 F 
HETATM    7  F2  UNL     1       0.405   2.324  -1.602  1.00  0.00    -0.182 F 
ENDROOT
BRANCH   1   8
HETATM    8  C3  UNL     1       1.725  -0.128  -0.702  1.00  0.00     0.123 A 
HETATM    9  N1  UNL     1       2.684   0.732  -0.552  1.00  0.00    -0.316 N 
HETATM   10  C2  UNL     1       3.944   0.363  -0.726  1.00  0.00     0.188 A 
ATOM     11  H1  UNL     1       2.467   1.696  -0.299  1.00  0.00     0.170 HD
HETATM   12  S1  UNL     1       3.785  -1.287  -1.126  1.00  0.00    -0.048 SA
HETATM   13  C10 UNL     1       2.079  -1.414  -1.045  1.00  0.00     0.027 A 
HETATM   14  C11 UNL     1       1.207  -2.600  -1.282  1.00  0.00     0.060 C 
BRANCH  10  15
HETATM   15  O1  UNL     1       5.117   1.118  -0.617  1.00  0.00    -0.335 OA
HETATM   16  C1  UNL     1       5.837   1.091   0.622  1.00  0.00     0.212 C 
ENDBRANCH  10  15
ENDBRANCH   1   8
BRANCH   3  17
HETATM   17  N3  UNL     1      -2.987   0.031   0.454  1.00  0.00    -0.352 N 
HETATM   18  C6  UNL     1      -3.975   0.008   1.475  1.00  0.00     0.251 C 
HETATM   19  O2  UNL     1      -3.701   0.552   2.572  1.00  0.00    -0.271 OA
ATOM     20  H3  UNL     1      -3.198  -0.409  -0.442  1.00  0.00     0.163 HD
BRANCH  18  21
HETATM   21  C7  UNL     1      -5.288  -0.642   1.241  1.00  0.00     0.269 C 
HETATM   22 CL1  UNL     1      -6.179   0.091  -0.102  1.00  0.00    -0.098 Cl
HETATM   23 CL2  UNL     1      -6.257  -0.682   2.714  1.00  0.00    -0.098 Cl
ENDBRANCH  18  21
ENDBRANCH   3  17
TORSDOF 4
