REMARK  5 active torsions:
REMARK  status: ('A' for Active; 'I' for Inactive)
REMARK    1  A    between atoms: N1_1  and  C1_4 
REMARK    2  A    between atoms: C2_7  and  N3_8 
REMARK    3  A    between atoms: C3_11  and  C4_12 
REMARK       I    between atoms: C4_12  and  N5_14 
REMARK    4  A    between atoms: N5_14  and  N6_16 
REMARK    5  A    between atoms: C5_19  and  N7_20 
ROOT
HETATM    1  N3  UNL     1      -0.491  -0.130  -0.191  1.00  0.00    -0.017 N 
HETATM    2  N4  UNL     1       0.547  -0.085   0.621  1.00  0.00    -0.256 N 
ATOM      3  H4  UNL     1       0.480  -0.115   1.638  1.00  0.00     0.190 HD
HETATM    4  C3  UNL     1       1.705   0.006  -0.058  1.00  0.00     0.165 A 
HETATM    5  C5  UNL     1       1.343   0.019  -1.373  1.00  0.00     0.150 A 
HETATM    6  N8  UNL     1      -0.008  -0.066  -1.411  1.00  0.00    -0.247 N 
ATOM      7  H8  UNL     1      -0.569  -0.079  -2.263  1.00  0.00     0.191 HD
ENDROOT
BRANCH   1   8
HETATM    8  C2  UNL     1      -1.878  -0.228   0.183  1.00  0.00     0.734 A 
HETATM    9  N2  UNL     1      -2.654   0.865   0.315  1.00  0.00    -0.019 N 
HETATM   10  C1  UNL     1      -3.950   0.788   0.664  1.00  0.00     0.691 A 
ATOM     11  H2  UNL     1      -2.244   1.783   0.144  1.00  0.00     0.203 HD
HETATM   12  N10 UNL     1      -4.513  -0.415   0.896  1.00  0.00    -0.187 N 
HETATM   13  C6  UNL     1      -3.747  -1.509   0.767  1.00  0.00     0.215 A 
ATOM     14  H10 UNL     1      -5.495  -0.491   1.162  1.00  0.00     0.185 HD
HETATM   15  N9  UNL     1      -2.456  -1.421   0.418  1.00  0.00    -0.184 N 
ATOM     16  H9  UNL     1      -1.902  -2.273   0.329  1.00  0.00     0.185 HD
BRANCH  10  17
HETATM   17  N1  UNL     1      -4.697   1.850   0.790  1.00  0.00    -0.234 N 
ATOM     18  H12 UNL     1      -4.271   2.760   0.614  1.00  0.00     0.174 HD
ATOM     19  H11 UNL     1      -5.680   1.792   1.055  1.00  0.00     0.174 HD
ENDBRANCH  10  17
ENDBRANCH   1   8
BRANCH   4  20
HETATM   20  C4  UNL     1       3.013   0.072   0.589  1.00  0.00     0.291 C 
HETATM   21  O1  UNL     1       3.070   0.042   1.856  1.00  0.00    -0.264 OA
HETATM   22  N5  UNL     1       4.243   0.169  -0.082  1.00  0.00    -0.271 N 
ATOM     23  H5  UNL     1       4.257   0.198  -1.101  1.00  0.00     0.189 HD
BRANCH  22  24
HETATM   24  N6  UNL     1       5.442   0.226   0.621  1.00  0.00    -0.342 N 
ATOM     25  H62 UNL     1       5.410   0.196   1.640  1.00  0.00     0.176 HD
ATOM     26  H61 UNL     1       6.335   0.296   0.134  1.00  0.00     0.176 HD
ENDBRANCH  22  24
ENDBRANCH   4  20
BRANCH   5  27
HETATM   27  N7  UNL     1       2.119   0.095  -2.387  1.00  0.00    -0.382 N 
ATOM     28  H72 UNL     1       3.137   0.159  -2.358  1.00  0.00     0.157 HD
ATOM     29  H71 UNL     1       1.848   0.105  -3.370  1.00  0.00     0.157 HD
ENDBRANCH   5  27
TORSDOF 5
