REMARK  5 active torsions:
REMARK  status: ('A' for Active; 'I' for Inactive)
REMARK    1  A    between atoms: N1_1  and  C1_4 
REMARK    2  A    between atoms: C2_7  and  N3_8 
REMARK    3  A    between atoms: N3_8  and  N4_10 
REMARK    4  A    between atoms: N7_18  and  C4_19 
REMARK    5  A    between atoms: C4_19  and  C5_20 
ROOT
HETATM    1  C1  UNL     1      -1.652  -1.846   0.462  1.00  0.00     0.679 A 
HETATM    2  N2  UNL     1      -2.641  -0.931   0.440  1.00  0.00    -0.173 N 
ATOM      3  H2  UNL     1      -3.588  -1.188   0.719  1.00  0.00     0.186 HD
HETATM    4  C2  UNL     1      -2.368   0.306   0.052  1.00  0.00     0.167 A 
HETATM    5  C3  UNL     1      -1.068   0.632  -0.322  1.00  0.00     0.141 A 
HETATM    6  N5  UNL     1      -0.514   1.767  -0.746  1.00  0.00    -0.279 N 
ATOM      7  H5  UNL     1      -0.999   2.655  -0.873  1.00  0.00     0.189 HD
HETATM    8  N6  UNL     1       0.753   1.552  -0.971  1.00  0.00    -0.238 N 
ATOM      9  H6  UNL     1       1.417   2.251  -1.304  1.00  0.00     0.208 HD
HETATM   10  N7  UNL     1       1.044   0.306  -0.705  1.00  0.00    -0.251 N 
HETATM   11  C6  UNL     1      -0.057  -0.302  -0.299  1.00  0.00     0.171 A 
HETATM   12  N9  UNL     1      -0.390  -1.554   0.105  1.00  0.00    -0.173 N 
ATOM     13  H9  UNL     1       0.325  -2.281   0.138  1.00  0.00     0.186 HD
ENDROOT
BRANCH   4  14
HETATM   14  N3  UNL     1      -3.297   1.199   0.024  1.00  0.00    -0.290 N 
ATOM     15  H3  UNL     1      -4.240   0.931   0.305  1.00  0.00     0.188 HD
BRANCH  14  16
HETATM   16  N4  UNL     1      -3.069   2.517  -0.374  1.00  0.00    -0.344 N 
ATOM     17  H42 UNL     1      -2.120   2.768  -0.652  1.00  0.00     0.176 HD
ATOM     18  H41 UNL     1      -3.804   3.224  -0.396  1.00  0.00     0.176 HD
ENDBRANCH  14  16
ENDBRANCH   4  14
BRANCH   1  19
HETATM   19  N1  UNL     1      -1.952  -3.037   0.843  1.00  0.00    -0.234 N 
ATOM     20  H12 UNL     1      -2.910  -3.259   1.114  1.00  0.00     0.174 HD
ATOM     21  H11 UNL     1      -1.203  -3.730   0.860  1.00  0.00     0.174 HD
ENDBRANCH   1  19
BRANCH  10  22
HETATM   22  C4  UNL     1       2.344  -0.376  -0.810  1.00  0.00     0.251 C 
BRANCH  22  23
HETATM   23  C5  UNL     1       3.014  -0.208   0.495  1.00  0.00     0.251 C 
HETATM   24  N8  UNL     1       3.881   0.883   0.718  1.00  0.00    -0.061 NA
HETATM   25  O1  UNL     1       2.808  -1.037   1.399  1.00  0.00    -0.275 OA
ENDBRANCH  22  23
ENDBRANCH  10  22
TORSDOF 5
