REMARK  6 active torsions:
REMARK  status: ('A' for Active; 'I' for Inactive)
REMARK    1  A    between atoms: C2_3  and  N2_4 
REMARK    2  A    between atoms: N2_4  and  N3_5 
REMARK    3  A    between atoms: N2_4  and  C3_8 
REMARK    4  A    between atoms: C6_17  and  N7_18 
REMARK    5  A    between atoms: C7_23  and  N9_24 
REMARK    6  A    between atoms: N9_24  and  N10_26 
ROOT
HETATM    1  N1  UNL     1       3.940  -2.413   0.153  1.00  0.00    -0.191 NA
HETATM    2  C1  UNL     1       3.369  -1.486   0.500  1.00  0.00     0.107 C 
HETATM    3  C2  UNL     1       2.644  -0.320   0.910  1.00  0.00     0.211 C 
ENDROOT
BRANCH   3   4
HETATM    4  N2  UNL     1       1.936   0.407  -0.099  1.00  0.00    -0.246 N 
BRANCH   4   5
HETATM    5  N3  UNL     1       2.442   0.517  -1.375  1.00  0.00    -0.337 N 
ATOM      6  H32 UNL     1       3.286   0.006  -1.632  1.00  0.00     0.177 HD
ATOM      7  H31 UNL     1       1.937   1.035  -2.094  1.00  0.00     0.177 HD
ENDBRANCH   4   5
BRANCH   4   8
HETATM    8  C3  UNL     1       0.762   1.118   0.258  1.00  0.00     0.145 A 
HETATM    9  N4  UNL     1       0.946   2.375   0.781  1.00  0.00    -0.336 N 
HETATM   10  C4  UNL     1      -0.043   3.137   1.217  1.00  0.00     0.183 A 
ATOM     11  H4  UNL     1       1.897   2.740   0.836  1.00  0.00     0.168 HD
HETATM   12  N5  UNL     1      -1.290   2.662   1.147  1.00  0.00    -0.337 N 
HETATM   13  C5  UNL     1      -1.522   1.432   0.640  1.00  0.00     0.139 A 
ATOM     14  H5  UNL     1      -2.070   3.231   1.478  1.00  0.00     0.168 HD
HETATM   15  N6  UNL     1      -2.774   0.952   0.552  1.00  0.00    -0.176 N 
HETATM   16  C8  UNL     1      -0.482   0.613   0.172  1.00  0.00     0.100 A 
HETATM   17  C6  UNL     1      -3.041  -0.261   0.038  1.00  0.00     0.679 A 
ATOM     18  H6  UNL     1      -3.547   1.527   0.886  1.00  0.00     0.186 HD
HETATM   19  N8  UNL     1      -2.055  -1.048  -0.413  1.00  0.00    -0.174 N 
HETATM   20  C7  UNL     1      -0.765  -0.627  -0.355  1.00  0.00     0.153 A 
ATOM     21  H8  UNL     1      -2.274  -1.966  -0.801  1.00  0.00     0.186 HD
BRANCH  17  22
HETATM   22  N7  UNL     1      -4.278  -0.686  -0.026  1.00  0.00    -0.234 N 
ATOM     23  H72 UNL     1      -5.029  -0.087   0.317  1.00  0.00     0.174 HD
ATOM     24  H71 UNL     1      -4.481  -1.606  -0.416  1.00  0.00     0.174 HD
ENDBRANCH  17  22
BRANCH  20  25
HETATM   25  N9  UNL     1       0.172  -1.372  -0.818  1.00  0.00    -0.291 N 
ATOM     26  H9  UNL     1       1.146  -1.070  -0.782  1.00  0.00     0.188 HD
BRANCH  25  27
HETATM   27  N10 UNL     1      -0.172  -2.601  -1.370  1.00  0.00    -0.344 N 
ATOM     28 2H10 UNL     1      -1.150  -2.889  -1.399  1.00  0.00     0.176 HD
ATOM     29 1H10 UNL     1       0.573  -3.193  -1.738  1.00  0.00     0.176 HD
ENDBRANCH  25  27
ENDBRANCH  20  25
ENDBRANCH   4   8
ENDBRANCH   3   4
TORSDOF 6
