REMARK  4 active torsions:
REMARK  status: ('A' for Active; 'I' for Inactive)
REMARK    1  A    between atoms: N1_1  and  C1_4 
REMARK    2  A    between atoms: C2_7  and  C3_8 
REMARK    3  A    between atoms: C3_8  and  C4_14 
REMARK    4  A    between atoms: N3_9  and  N4_11 
ROOT
HETATM    1  C3  UNL     1       0.601   0.458   0.107  1.00  0.00     0.106 C 
HETATM    2  N3  UNL     1       0.835   1.716   0.456  1.00  0.00    -0.303 N 
ATOM      3  H3  UNL     1       0.004   2.294   0.585  1.00  0.00     0.186 HD
ENDROOT
BRANCH   1   4
HETATM    4  C2  UNL     1      -0.806   0.130  -0.026  1.00  0.00     0.109 A 
HETATM    5  N2  UNL     1      -1.692   1.001   0.584  1.00  0.00    -0.188 N 
HETATM    6  C1  UNL     1      -3.007   0.785   0.656  1.00  0.00     0.679 A 
ATOM      7  H2  UNL     1      -1.320   1.854   1.001  1.00  0.00     0.184 HD
HETATM    8  N9  UNL     1      -3.480  -0.342   0.102  1.00  0.00    -0.155 N 
HETATM    9  C7  UNL     1      -2.681  -1.226  -0.504  1.00  0.00     0.286 A 
ATOM     10  H9  UNL     1      -4.482  -0.530   0.145  1.00  0.00     0.187 HD
HETATM   11  C6  UNL     1      -1.291  -1.006  -0.588  1.00  0.00     0.144 A 
HETATM   12  O1  UNL     1      -3.142  -2.280  -1.019  1.00  0.00    -0.266 OA
HETATM   13  N8  UNL     1      -0.540  -1.944  -1.351  1.00  0.00    -0.094 NA
BRANCH   6  14
HETATM   14  N1  UNL     1      -3.809   1.634   1.241  1.00  0.00    -0.234 N 
ATOM     15  H12 UNL     1      -3.449   2.491   1.662  1.00  0.00     0.174 HD
ATOM     16  H11 UNL     1      -4.814   1.469   1.296  1.00  0.00     0.174 HD
ENDBRANCH   6  14
ENDBRANCH   1   4
BRANCH   1  17
HETATM   17  C4  UNL     1       1.743  -0.405  -0.060  1.00  0.00     0.096 A 
HETATM   18  C5  UNL     1       3.052  -0.056  -0.301  1.00  0.00     0.142 A 
HETATM   19  N5  UNL     1       3.855  -1.164  -0.235  1.00  0.00    -0.295 N 
HETATM   20  N6  UNL     1       3.045  -2.157   0.040  1.00  0.00    -0.243 N 
ATOM     21  H5  UNL     1       4.865  -1.207  -0.371  1.00  0.00     0.187 HD
HETATM   22  N7  UNL     1       1.819  -1.753   0.147  1.00  0.00    -0.283 N 
ATOM     23  H6  UNL     1       3.343  -3.126   0.155  1.00  0.00     0.208 HD
ATOM     24  H7  UNL     1       1.023  -2.356   0.356  1.00  0.00     0.188 HD
ENDBRANCH   1  17
BRANCH   2  25
HETATM   25  N4  UNL     1       2.000   2.338   0.664  1.00  0.00    -0.345 N 
ATOM     26  H42 UNL     1       2.818   1.744   0.531  1.00  0.00     0.176 HD
ATOM     27  H41 UNL     1       2.180   3.305   0.932  1.00  0.00     0.176 HD
ENDBRANCH   2  25
TORSDOF 4
