REMARK  6 active torsions:
REMARK  status: ('A' for Active; 'I' for Inactive)
REMARK    1  A    between atoms: C2_5  and  C3_6 
REMARK       I    between atoms: C3_6  and  N2_8 
REMARK    2  A    between atoms: N2_8  and  N3_10 
REMARK    3  A    between atoms: C6_15  and  C7_16 
REMARK    4  A    between atoms: C7_16  and  S1_17 
REMARK    5  A    between atoms: S1_17  and  C8_18 
REMARK    6  A    between atoms: N8_27  and  N9_28 
ROOT
HETATM    1  N1  UNL     1      -2.333  -1.634  -0.008  1.00  0.00    -0.383 N 
ATOM      2  H11 UNL     1      -2.149  -2.630   0.108  1.00  0.00     0.157 HD
ATOM      3  H12 UNL     1      -3.234  -1.274  -0.321  1.00  0.00     0.157 HD
HETATM    4  C1  UNL     1      -1.434  -0.751   0.251  1.00  0.00     0.136 A 
HETATM    5  C2  UNL     1      -1.682   0.589   0.095  1.00  0.00     0.079 A 
HETATM    6  C4  UNL     1      -0.619   1.462   0.390  1.00  0.00     0.023 A 
HETATM    7  C5  UNL     1       0.589   0.962   0.810  1.00  0.00     0.029 A 
HETATM    8  C6  UNL     1       0.785  -0.384   0.950  1.00  0.00     0.045 A 
HETATM    9  N8  UNL     1      -0.245  -1.226   0.664  1.00  0.00    -0.249 N 
ENDROOT
BRANCH   8  10
HETATM   10  C7  UNL     1       2.057  -0.966   1.391  1.00  0.00     0.141 C 
BRANCH  10  11
HETATM   11  S1  UNL     1       3.156  -1.503   0.096  1.00  0.00    -0.085 SA
BRANCH  11  12
HETATM   12  C8  UNL     1       3.835  -0.193  -0.875  1.00  0.00     0.176 A 
HETATM   13  N4  UNL     1       3.681   1.143  -0.826  1.00  0.00    -0.263 N 
HETATM   14  N5  UNL     1       4.410   1.700  -1.763  1.00  0.00    -0.226 N 
ATOM     15  H4  UNL     1       3.089   1.644  -0.163  1.00  0.00     0.190 HD
HETATM   16  N6  UNL     1       5.052   0.749  -2.440  1.00  0.00    -0.226 N 
ATOM     17  H5  UNL     1       4.475   2.702  -1.945  1.00  0.00     0.210 HD
HETATM   18  N7  UNL     1       4.696  -0.392  -1.894  1.00  0.00    -0.263 N 
ATOM     19  H6  UNL     1       5.691   0.880  -3.224  1.00  0.00     0.210 HD
ATOM     20  H7  UNL     1       5.027  -1.307  -2.200  1.00  0.00     0.190 HD
ENDBRANCH  11  12
ENDBRANCH  10  11
ENDBRANCH   8  10
BRANCH   9  21
HETATM   21  N9  UNL     1      -0.008  -2.590   0.817  1.00  0.00    -0.337 N 
ATOM     22  H92 UNL     1      -0.780  -3.221   0.603  1.00  0.00     0.177 HD
ATOM     23  H91 UNL     1       0.893  -2.950   1.130  1.00  0.00     0.177 HD
ENDBRANCH   9  21
BRANCH   5  24
HETATM   24  C3  UNL     1      -2.938   1.150  -0.309  1.00  0.00     0.273 C 
HETATM   25  O1  UNL     1      -2.919   2.395  -0.666  1.00  0.00    -0.266 OA
HETATM   26  N2  UNL     1      -4.197   0.559  -0.378  1.00  0.00    -0.272 N 
ATOM     27  H2  UNL     1      -4.291  -0.421  -0.110  1.00  0.00     0.189 HD
BRANCH  26  28
HETATM   28  N3  UNL     1      -5.359   1.263  -0.806  1.00  0.00    -0.342 N 
ATOM     29  H32 UNL     1      -5.247   2.242  -1.070  1.00  0.00     0.176 HD
ATOM     30  H31 UNL     1      -6.281   0.830  -0.857  1.00  0.00     0.176 HD
ENDBRANCH  26  28
ENDBRANCH   5  24
TORSDOF 6
