REMARK  6 active torsions:
REMARK  status: ('A' for Active; 'I' for Inactive)
REMARK    1  A    between atoms: N1_1  and  C1_4 
REMARK    2  A    between atoms: C3_8  and  C4_9 
REMARK    3  A    between atoms: C4_9  and  S1_10 
REMARK    4  A    between atoms: S1_10  and  C5_11 
REMARK    5  A    between atoms: C6_20  and  C7_21 
REMARK       I    between atoms: C7_21  and  N7_23 
REMARK    6  A    between atoms: N7_23  and  N8_25 
ROOT
HETATM    1  C1  UNL     1      -2.193  -2.654   0.437  1.00  0.00     0.115 A 
HETATM    2  C2  UNL     1      -0.935  -3.145   0.239  1.00  0.00     0.136 A 
HETATM    3  N2  UNL     1       0.031  -2.272   0.036  1.00  0.00    -0.363 N 
ATOM      4  H2  UNL     1       0.965  -2.655  -0.110  1.00  0.00     0.165 HD
HETATM    5  C3  UNL     1      -0.077  -0.942   0.000  1.00  0.00     0.051 A 
HETATM    6  C6  UNL     1      -1.373  -0.421   0.202  1.00  0.00     0.127 A 
HETATM    7  N9  UNL     1      -2.342  -1.348   0.412  1.00  0.00    -0.336 N 
ATOM      8  H9  UNL     1      -3.286  -0.994   0.567  1.00  0.00     0.168 HD
ENDROOT
BRANCH   5   9
HETATM    9  C4  UNL     1       1.033  -0.073  -0.384  1.00  0.00     0.142 C 
BRANCH   9  10
HETATM   10  S1  UNL     1       2.133   0.310   1.031  1.00  0.00    -0.085 SA
BRANCH  10  11
HETATM   11  C5  UNL     1       3.657   0.915   0.330  1.00  0.00     0.176 A 
HETATM   12  N3  UNL     1       3.944   2.132  -0.023  1.00  0.00    -0.263 N 
HETATM   13  N4  UNL     1       5.179   2.193  -0.502  1.00  0.00    -0.226 N 
ATOM     14  H3  UNL     1       3.310   2.927   0.057  1.00  0.00     0.190 HD
HETATM   15  N5  UNL     1       5.700   0.987  -0.467  1.00  0.00    -0.226 N 
ATOM     16  H4  UNL     1       5.646   3.034  -0.841  1.00  0.00     0.210 HD
HETATM   17  N6  UNL     1       4.759   0.174   0.050  1.00  0.00    -0.263 N 
ATOM     18  H5  UNL     1       6.636   0.719  -0.772  1.00  0.00     0.210 HD
ATOM     19  H6  UNL     1       4.858  -0.829   0.205  1.00  0.00     0.190 HD
ENDBRANCH  10  11
ENDBRANCH   9  10
ENDBRANCH   5   9
BRANCH   6  20
HETATM   20  C7  UNL     1      -1.620   0.987   0.193  1.00  0.00     0.288 C 
HETATM   21  O1  UNL     1      -0.730   1.842  -0.169  1.00  0.00    -0.264 OA
HETATM   22  N7  UNL     1      -2.804   1.603   0.589  1.00  0.00    -0.271 N 
ATOM     23  H7  UNL     1      -3.573   1.013   0.908  1.00  0.00     0.189 HD
BRANCH  22  24
HETATM   24  N8  UNL     1      -2.994   2.985   0.572  1.00  0.00    -0.342 N 
ATOM     25  H82 UNL     1      -2.215   3.559   0.250  1.00  0.00     0.176 HD
ATOM     26  H81 UNL     1      -3.861   3.436   0.862  1.00  0.00     0.176 HD
ENDBRANCH  22  24
ENDBRANCH   6  20
BRANCH   1  27
HETATM   27  N1  UNL     1      -3.205  -3.487   0.676  1.00  0.00    -0.384 N 
ATOM     28  H12 UNL     1      -3.089  -4.500   0.695  1.00  0.00     0.157 HD
ATOM     29  H11 UNL     1      -4.145  -3.120   0.824  1.00  0.00     0.157 HD
ENDBRANCH   1  27
TORSDOF 6
