REMARK  5 active torsions:
REMARK  status: ('A' for Active; 'I' for Inactive)
REMARK    1  A    between atoms: C2_3  and  N2_4 
REMARK    2  A    between atoms: C3_9  and  N4_10 
REMARK    3  A    between atoms: C5_16  and  S1_17 
REMARK    4  A    between atoms: S1_17  and  C6_18 
REMARK    5  A    between atoms: C6_18  and  C7_19 
ROOT
HETATM    1  C1  UNL     1      -3.320   1.776   1.066  1.00  0.00     0.177 C 
HETATM    2  N1  UNL     1      -2.867   0.609   0.338  1.00  0.00    -0.169 N 
HETATM    3  C2  UNL     1      -3.824  -0.132  -0.251  1.00  0.00     0.681 A 
HETATM    4  N3  UNL     1      -3.443  -1.256  -0.942  1.00  0.00    -0.175 N 
ATOM      5  H3  UNL     1      -4.148  -1.835  -1.398  1.00  0.00     0.186 HD
HETATM    6  C3  UNL     1      -2.161  -1.591  -1.018  1.00  0.00     0.145 A 
HETATM    7  C4  UNL     1      -1.177  -0.824  -0.408  1.00  0.00     0.125 A 
HETATM    8  N5  UNL     1       0.109  -1.129  -0.474  1.00  0.00    -0.330 N 
ATOM      9  H5  UNL     1       0.371  -1.969  -0.990  1.00  0.00     0.168 HD
HETATM   10  C5  UNL     1       1.112  -0.397   0.101  1.00  0.00     0.160 A 
HETATM   11  N7  UNL     1       0.702   0.690   0.761  1.00  0.00    -0.278 N 
ATOM     12  H7  UNL     1       1.405   1.277   1.209  1.00  0.00     0.189 HD
HETATM   13  N8  UNL     1      -0.587   1.050   0.865  1.00  0.00    -0.281 N 
ATOM     14  H8  UNL     1      -0.834   1.892   1.386  1.00  0.00     0.188 HD
HETATM   15  C8  UNL     1      -1.563   0.313   0.289  1.00  0.00     0.168 A 
ENDROOT
BRANCH  10  16
HETATM   16  S1  UNL     1       2.756  -1.014  -0.039  1.00  0.00    -0.084 SA
BRANCH  16  17
HETATM   17  C6  UNL     1       4.055  -0.011   0.618  1.00  0.00     0.181 C 
BRANCH  17  18
HETATM   18  C7  UNL     1       5.198   0.120  -0.362  1.00  0.00     0.240 C 
HETATM   19  N6  UNL     1       6.329   0.862   0.000  1.00  0.00    -0.061 NA
HETATM   20  O1  UNL     1       5.123  -0.446  -1.500  1.00  0.00    -0.276 OA
ENDBRANCH  17  18
ENDBRANCH  16  17
ENDBRANCH  10  16
BRANCH   6  21
HETATM   21  N4  UNL     1      -1.832  -2.648  -1.672  1.00  0.00    -0.383 N 
ATOM     22  H42 UNL     1      -2.555  -3.211  -2.120  1.00  0.00     0.157 HD
ATOM     23  H41 UNL     1      -0.847  -2.905  -1.730  1.00  0.00     0.157 HD
ENDBRANCH   6  21
BRANCH   3  24
HETATM   24  N2  UNL     1      -5.066   0.168  -0.187  1.00  0.00    -0.234 N 
ATOM     25  H22 UNL     1      -5.349   1.003   0.326  1.00  0.00     0.174 HD
ATOM     26  H21 UNL     1      -5.791  -0.394  -0.633  1.00  0.00     0.174 HD
ENDBRANCH   3  24
TORSDOF 5
