REMARK  8 active torsions:
REMARK  status: ('A' for Active; 'I' for Inactive)
REMARK    1  A    between atoms: O1_2  and  C2_3 
REMARK    2  A    between atoms: C2_3  and  C3_5 
REMARK    3  A    between atoms: C7_11  and  C8_12 
REMARK    4  A    between atoms: C11_18  and  C12_19 
REMARK    5  A    between atoms: C11_18  and  C17_24 
REMARK    6  A    between atoms: C12_19  and  C13_20 
REMARK    7  A    between atoms: C13_20  and  C14_21 
REMARK    8  A    between atoms: C23_30  and  N2_31 
REMARK       I    between atoms: N2_31  and  C24_33 
ROOT
HETATM    1  C3  UNL     1      -1.947  -0.475   1.373  1.00  0.00     0.196 C 
HETATM    2  N1  UNL     1      -3.143   0.089   0.736  1.00  0.00    -0.375 N 
ATOM      3  H1  UNL     1      -3.885   0.653   1.151  1.00  0.00     0.160 HD
HETATM    4  C4  UNL     1      -3.002  -0.354  -0.608  1.00  0.00     0.036 A 
HETATM    5  C5  UNL     1      -4.005  -0.641  -1.545  1.00  0.00     0.030 A 
HETATM    6  C6  UNL     1      -3.616  -1.057  -2.801  1.00  0.00     0.018 A 
HETATM    7  C7  UNL     1      -2.296  -1.194  -3.148  1.00  0.00     0.048 A 
HETATM    8  C9  UNL     1      -1.351  -0.888  -2.156  1.00  0.00     0.026 A 
HETATM    9  C10 UNL     1      -1.662  -0.478  -0.912  1.00  0.00    -0.019 A 
HETATM   10  C11 UNL     1      -0.928  -0.048   0.343  1.00  0.00     0.026 C 
ENDROOT
BRANCH  10  11
HETATM   11  C12 UNL     1      -1.064   1.457   0.232  1.00  0.00     0.018 C 
BRANCH  11  12
HETATM   12  C13 UNL     1      -0.852   2.303   1.409  1.00  0.00     0.006 C 
BRANCH  12  13
HETATM   13  C14 UNL     1      -1.134   3.753   0.902  1.00  0.00    -0.014 A 
HETATM   14  C15 UNL     1      -2.526   3.976   0.368  1.00  0.00     0.005 A 
HETATM   15  C16 UNL     1      -2.012   4.640   1.661  1.00  0.00     0.005 A 
ENDBRANCH  12  13
ENDBRANCH  11  12
ENDBRANCH  10  11
BRANCH  10  16
HETATM   16  C17 UNL     1       0.431  -0.578   0.494  1.00  0.00    -0.023 C 
HETATM   17  C18 UNL     1       0.983  -0.451   1.923  1.00  0.00     0.015 C 
HETATM   18  C19 UNL     1       2.453  -0.681   2.014  1.00  0.00    -0.011 C 
HETATM   19  C20 UNL     1       2.656  -2.177   1.714  1.00  0.00     0.009 C 
HETATM   20  C26 UNL     1       3.307   0.125   1.091  1.00  0.00     0.035 C 
HETATM   21  C21 UNL     1       2.164  -2.371   0.331  1.00  0.00    -0.011 C 
HETATM   22  C22 UNL     1       2.975  -1.575  -0.660  1.00  0.00     0.035 C 
HETATM   23  C28 UNL     1       0.705  -1.991   0.111  1.00  0.00     0.015 C 
HETATM   24  C23 UNL     1       2.809  -0.107  -0.291  1.00  0.00     0.034 C 
HETATM   25  C27 UNL     1       1.363   0.309  -0.358  1.00  0.00     0.041 C 
BRANCH  24  26
HETATM   26  N2  UNL     1       3.544   0.688  -1.229  1.00  0.00    -0.352 N 
HETATM   27  C24 UNL     1       3.662   2.093  -1.195  1.00  0.00     0.214 C 
HETATM   28  C25 UNL     1       4.474   2.785  -2.269  1.00  0.00     0.117 C 
HETATM   29  O3  UNL     1       3.147   2.837  -0.341  1.00  0.00    -0.274 OA
ATOM     30  H2  UNL     1       4.022   0.197  -1.985  1.00  0.00     0.163 HD
ENDBRANCH  24  26
ENDBRANCH  10  16
BRANCH   1  31
HETATM   31  C2  UNL     1      -2.282  -1.885   1.482  1.00  0.00     0.282 C 
HETATM   32  O2  UNL     1      -2.884  -2.555   0.621  1.00  0.00    -0.263 OA
BRANCH  31  33
HETATM   33  O1  UNL     1      -1.921  -2.568   2.632  1.00  0.00    -0.325 OA
HETATM   34  C1  UNL     1      -2.161  -3.909   2.915  1.00  0.00     0.213 C 
ENDBRANCH  31  33
ENDBRANCH   1  31
BRANCH   7  35
HETATM   35  C8  UNL     1      -1.854  -1.638  -4.488  1.00  0.00     0.417 C 
HETATM   36  F1  UNL     1      -2.898  -1.864  -5.340  1.00  0.00    -0.166 F 
HETATM   37  F2  UNL     1      -1.007  -2.745  -4.394  1.00  0.00    -0.166 F 
HETATM   38  F3  UNL     1      -1.073  -0.630  -5.067  1.00  0.00    -0.166 F 
ENDBRANCH   7  35
TORSDOF 8
