REMARK  7 active torsions:
REMARK  status: ('A' for Active; 'I' for Inactive)
REMARK    1  A    between atoms: C2_2  and  C5_5 
REMARK    2  A    between atoms: C5_5  and  C6_6 
REMARK    3  A    between atoms: C5_5  and  N2_11 
REMARK    4  A    between atoms: C6_6  and  N1_7 
REMARK       I    between atoms: N2_11  and  C7_13 
REMARK    5  A    between atoms: C7_13  and  C8_15 
REMARK    6  A    between atoms: C19_26  and  O2_27 
REMARK    7  A    between atoms: O2_27  and  C20_28 
ROOT
HETATM    1  C8  UNL     1      -1.146  -1.725   0.461  1.00  0.00     0.086 C 
HETATM    2  C9  UNL     1      -1.490  -1.897   1.905  1.00  0.00     0.015 C 
HETATM    3  C10 UNL     1      -1.053  -0.789   2.802  1.00  0.00     0.002 C 
HETATM    4  C11 UNL     1       0.139  -0.010   2.415  1.00  0.00     0.010 C 
HETATM    5  C12 UNL     1       0.933  -0.660   1.286  1.00  0.00    -0.032 C 
HETATM    6  C13 UNL     1       1.273  -2.060   1.787  1.00  0.00     0.016 C 
HETATM    7  C14 UNL     1       2.188   0.056   0.981  1.00  0.00     0.003 C 
HETATM    8  C15 UNL     1       2.304   1.477   1.377  1.00  0.00     0.010 C 
HETATM    9  C16 UNL     1       3.437   2.189   0.697  1.00  0.00     0.039 C 
HETATM   10  C17 UNL     1       4.505   1.299   0.176  1.00  0.00    -0.049 A 
HETATM   11  C18 UNL     1       5.844   1.635   0.293  1.00  0.00     0.044 A 
HETATM   12  C19 UNL     1       6.775   0.765  -0.221  1.00  0.00     0.078 A 
HETATM   13  C21 UNL     1       6.403  -0.431  -0.848  1.00  0.00     0.037 A 
HETATM   14  C22 UNL     1       5.056  -0.720  -0.938  1.00  0.00     0.011 A 
HETATM   15  C23 UNL     1       4.105   0.128  -0.436  1.00  0.00    -0.047 A 
HETATM   16  C24 UNL     1       2.643  -0.081  -0.468  1.00  0.00     0.024 C 
HETATM   17  C25 UNL     1       2.163  -1.363  -1.015  1.00  0.00     0.010 C 
HETATM   18  C26 UNL     1       0.662  -1.306  -1.123  1.00  0.00     0.011 C 
HETATM   19  C27 UNL     1      -0.032  -0.796   0.130  1.00  0.00    -0.024 C 
HETATM   20  C28 UNL     1      -0.667   0.524  -0.242  1.00  0.00     0.017 C 
ENDROOT
BRANCH   1  21
HETATM   21  C7  UNL     1      -2.357  -1.525  -0.378  1.00  0.00     0.223 C 
HETATM   22  N2  UNL     1      -3.396  -0.608  -0.021  1.00  0.00    -0.354 N 
ATOM     23  H2  UNL     1      -3.307  -0.067   0.839  1.00  0.00     0.162 HD
HETATM   24  O1  UNL     1      -2.533  -2.161  -1.461  1.00  0.00    -0.273 OA
BRANCH  22  25
HETATM   25  C5  UNL     1      -4.567  -0.429  -0.846  1.00  0.00     0.117 C 
BRANCH  25  26
HETATM   26  C2  UNL     1      -4.928   0.984  -1.141  1.00  0.00    -0.029 C 
HETATM   27  C1  UNL     1      -3.935   1.740  -1.952  1.00  0.00     0.016 C 
HETATM   28  C3  UNL     1      -5.204   1.792   0.115  1.00  0.00     0.016 C 
HETATM   29  C4  UNL     1      -6.255   0.957  -1.907  1.00  0.00     0.016 C 
ENDBRANCH  25  26
BRANCH  25  30
HETATM   30  C6  UNL     1      -5.723  -1.024  -0.010  1.00  0.00     0.255 C 
BRANCH  30  31
HETATM   31  N1  UNL     1      -5.352  -2.406   0.269  1.00  0.00    -0.077 N 
ATOM     32  H13 UNL     1      -5.137  -2.946  -0.569  1.00  0.00     0.274 HD
ATOM     33  H12 UNL     1      -4.439  -2.499   0.714  1.00  0.00     0.274 HD
ATOM     34  H11 UNL     1      -6.115  -2.799   0.821  1.00  0.00     0.274 HD
ENDBRANCH  30  31
ENDBRANCH  25  30
ENDBRANCH  22  25
ENDBRANCH   1  21
BRANCH  12  35
HETATM   35  O2  UNL     1       8.127   1.107  -0.102  1.00  0.00    -0.255 OA
BRANCH  35  36
HETATM   36  C20 UNL     1       8.673   1.869  -1.181  1.00  0.00     0.530 C 
HETATM   37  F1  UNL     1       7.991   3.080  -1.322  1.00  0.00    -0.144 F 
HETATM   38  F2  UNL     1       8.577   1.210  -2.380  1.00  0.00    -0.144 F 
HETATM   39  F3  UNL     1       9.998   2.175  -0.947  1.00  0.00    -0.144 F 
ENDBRANCH  35  36
ENDBRANCH  12  35
TORSDOF 7
