REMARK  7 active torsions:
REMARK  status: ('A' for Active; 'I' for Inactive)
REMARK    1  A    between atoms: C3_3  and  N1_4 
REMARK    2  A    between atoms: N1_4  and  C4_5 
REMARK    3  A    between atoms: N1_4  and  C10_14 
REMARK    4  A    between atoms: C4_5  and  C5_6 
REMARK       I    between atoms: C5_6  and  N2_8 
REMARK    5  A    between atoms: N2_8  and  C6_10 
REMARK    6  A    between atoms: C14_18  and  C16_20 
REMARK    7  A    between atoms: C22_30  and  C23_31 
ROOT
HETATM    1  N1  UNL     1      -0.978   0.759   0.617  1.00  0.00    -0.323 N 
ENDROOT
BRANCH   1   2
HETATM    2  C3  UNL     1       0.319   0.164   0.602  1.00  0.00     0.048 A 
HETATM    3  C2  UNL     1       0.941  -0.247  -0.563  1.00  0.00    -0.006 A 
HETATM    4  C1  UNL     1       0.309  -0.117  -1.914  1.00  0.00     0.053 C 
HETATM    5  C26 UNL     1       2.207  -0.820  -0.572  1.00  0.00     0.070 A 
HETATM    6  C21 UNL     1       2.846  -0.976   0.630  1.00  0.00     0.083 A 
HETATM    7  N4  UNL     1       3.012  -1.293  -1.552  1.00  0.00    -0.343 N 
HETATM    8  C20 UNL     1       2.240  -0.572   1.803  1.00  0.00     0.065 A 
HETATM    9  N3  UNL     1       4.044  -1.551   0.332  1.00  0.00    -0.342 N 
HETATM   10  C19 UNL     1       0.999  -0.013   1.778  1.00  0.00     0.057 A 
HETATM   11 CL2  UNL     1       3.130  -0.809   3.310  1.00  0.00    -0.082 Cl
HETATM   12  C22 UNL     1       4.153  -1.746  -0.979  1.00  0.00     0.086 A 
ATOM     13  H3  UNL     1       4.757  -1.797   1.018  1.00  0.00     0.167 HD
ATOM     14  H4  UNL     1       2.797  -1.306  -2.549  1.00  0.00     0.167 HD
BRANCH  12  15
HETATM   15  C23 UNL     1       5.332  -2.356  -1.679  1.00  0.00     0.053 A 
HETATM   16  C24 UNL     1       6.045  -3.491  -0.885  1.00  0.00     0.013 A 
HETATM   17  C25 UNL     1       6.656  -2.145  -0.969  1.00  0.00     0.013 A 
ENDBRANCH  12  15
ENDBRANCH   1   2
BRANCH   1  18
HETATM   18  C4  UNL     1      -2.036  -0.118   0.194  1.00  0.00     0.171 C 
BRANCH  18  19
HETATM   19  C5  UNL     1      -1.902  -1.535   0.253  1.00  0.00     0.257 C 
HETATM   20  O1  UNL     1      -0.919  -2.143   0.717  1.00  0.00    -0.267 OA
HETATM   21  N2  UNL     1      -2.944  -2.401  -0.246  1.00  0.00    -0.348 N 
ATOM     22  H2  UNL     1      -3.782  -1.971  -0.638  1.00  0.00     0.163 HD
BRANCH  21  23
HETATM   23  C6  UNL     1      -2.867  -3.826  -0.221  1.00  0.00     0.022 C 
HETATM   24  C7  UNL     1      -2.711  -4.408   1.167  1.00  0.00     0.037 C 
HETATM   25  C8  UNL     1      -4.164  -4.412  -0.788  1.00  0.00     0.037 C 
HETATM   26  C9  UNL     1      -1.767  -4.357  -1.098  1.00  0.00     0.037 C 
ENDBRANCH  21  23
ENDBRANCH  18  19
ENDBRANCH   1  18
BRANCH   1  27
HETATM   27  C10 UNL     1      -1.317   2.080   0.966  1.00  0.00     0.004 C 
HETATM   28  C11 UNL     1      -1.002   2.415   2.436  1.00  0.00     0.054 C 
HETATM   29  C12 UNL     1      -1.850   3.682   2.542  1.00  0.00     0.007 C 
HETATM   30  C13 UNL     1      -2.195   4.132   1.169  1.00  0.00     0.017 C 
HETATM   31  C14 UNL     1      -1.172   3.317   0.286  1.00  0.00     0.016 C 
HETATM   32  C15 UNL     1      -1.903   3.269  -1.070  1.00  0.00     0.023 C 
BRANCH  31  33
HETATM   33  C16 UNL     1      -0.039   4.189   0.139  1.00  0.00     0.042 C 
HETATM   34  C17 UNL     1       1.137   3.542  -0.544  1.00  0.00     0.033 C 
HETATM   35  C18 UNL     1      -0.351   5.349  -0.843  1.00  0.00     0.033 C 
HETATM   36 CL1  UNL     1       0.577   5.022   1.559  1.00  0.00    -0.119 Cl
ENDBRANCH  31  33
ENDBRANCH   1  27
TORSDOF 7
