REMARK  18 active torsions:
REMARK  status: ('A' for Active; 'I' for Inactive)
REMARK    1  A    between atoms: C2_2  and  O2_4 
REMARK    2  A    between atoms: O2_4  and  C3_5 
REMARK    3  A    between atoms: C6_9  and  C7_10 
REMARK    4  A    between atoms: C7_10  and  C8_11 
REMARK    5  A    between atoms: C8_11  and  N1_12 
REMARK    6  A    between atoms: C8_11  and  C19_28 
REMARK       I    between atoms: N1_12  and  C9_14 
REMARK       I    between atoms: C9_14  and  N2_16 
REMARK    7  A    between atoms: N3_19  and  C12_20 
REMARK    8  A    between atoms: C12_20  and  C13_21 
REMARK    9  A    between atoms: C19_28  and  C20_29 
REMARK   10  A    between atoms: C19_28  and  C25_34 
REMARK   11  A    between atoms: C20_29  and  C21_30 
REMARK   12  A    between atoms: C25_34  and  C26_36 
REMARK   13  A    between atoms: C26_36  and  O7_37 
REMARK   14  A    between atoms: C26_36  and  N4_39 
REMARK   15  A    between atoms: N4_39  and  C27_40 
REMARK   16  A    between atoms: N4_39  and  C34_47 
REMARK   17  A    between atoms: C27_40  and  C28_41 
REMARK   18  A    between atoms: C34_47  and  C35_48 
ROOT
HETATM    1  C8  UNL     1       0.369   1.929  -1.298  1.00  0.00     0.125 C 
ENDROOT
BRANCH   1   2
HETATM    2  C7  UNL     1       0.860   3.295  -0.812  1.00  0.00     0.064 C 
BRANCH   2   3
HETATM    3  C6  UNL     1       0.577   4.414  -1.768  1.00  0.00     0.153 C 
HETATM    4  C3  UNL     1       1.096   5.746  -1.266  1.00  0.00     0.163 C 
HETATM    5  C4  UNL     1       1.953   6.259  -2.385  1.00  0.00     0.061 C 
HETATM    6  C5  UNL     1       1.586   5.344  -3.524  1.00  0.00     0.171 C 
HETATM    7  O3  UNL     1       1.205   4.155  -2.963  1.00  0.00    -0.383 OA
BRANCH   4   8
HETATM    8  O2  UNL     1       1.780   5.670  -0.044  1.00  0.00    -0.314 OA
BRANCH   8   9
HETATM    9  C2  UNL     1       1.416   6.411   1.064  1.00  0.00     0.255 C 
HETATM   10  C1  UNL     1       2.112   6.366   2.375  1.00  0.00     0.126 C 
HETATM   11  O1  UNL     1       0.424   7.179   0.948  1.00  0.00    -0.266 OA
ENDBRANCH   8   9
ENDBRANCH   4   8
ENDBRANCH   2   3
ENDBRANCH   1   2
BRANCH   1  12
HETATM   12  N1  UNL     1       0.749   1.031  -0.245  1.00  0.00    -0.334 N 
HETATM   13  C9  UNL     1       2.003   0.355  -0.261  1.00  0.00     0.319 C 
HETATM   14  O4  UNL     1       2.775   0.581  -1.262  1.00  0.00    -0.247 OA
HETATM   15  N2  UNL     1       2.476  -0.536   0.717  1.00  0.00    -0.328 N 
HETATM   16  C10 UNL     1       1.774  -0.908   1.919  1.00  0.00     0.148 C 
HETATM   17  C18 UNL     1       3.787  -1.149   0.497  1.00  0.00     0.172 C 
HETATM   18  C11 UNL     1       2.684  -1.263   3.077  1.00  0.00     0.147 C 
HETATM   19  N3  UNL     1       3.793  -2.118   2.663  1.00  0.00    -0.370 N 
HETATM   20  C17 UNL     1       3.753  -2.438   1.303  1.00  0.00     0.083 C 
ATOM     21  H1  UNL     1       0.107   0.873   0.532  1.00  0.00     0.165 HD
BRANCH  19  22
HETATM   22  C12 UNL     1       4.936  -1.743   3.354  1.00  0.00     0.070 C 
BRANCH  22  23
HETATM   23  C13 UNL     1       6.245  -2.371   3.143  1.00  0.00     0.050 C 
HETATM   24  C14 UNL     1       6.322  -3.857   3.354  1.00  0.00     0.038 C 
HETATM   25  C15 UNL     1       7.506  -4.225   2.470  1.00  0.00     0.168 C 
HETATM   26  O5  UNL     1       8.120  -3.018   2.128  1.00  0.00    -0.390 OA
HETATM   27  C16 UNL     1       7.028  -2.122   1.922  1.00  0.00     0.177 C 
ENDBRANCH  22  23
ENDBRANCH  19  22
ENDBRANCH   1  12
BRANCH   1  28
HETATM   28  C19 UNL     1      -1.091   1.933  -1.655  1.00  0.00     0.012 C 
BRANCH  28  29
HETATM   29  C20 UNL     1      -1.994   2.262  -0.564  1.00  0.00    -0.005 C 
BRANCH  29  30
HETATM   30  C21 UNL     1      -3.433   2.424  -0.706  1.00  0.00    -0.033 C 
HETATM   31  C22 UNL     1      -3.790   3.567  -1.697  1.00  0.00     0.018 C 
HETATM   32  C23 UNL     1      -4.355   1.338  -1.019  1.00  0.00     0.018 C 
HETATM   33  C24 UNL     1      -3.938   3.029   0.644  1.00  0.00     0.018 C 
ENDBRANCH  29  30
ENDBRANCH  28  29
BRANCH  28  34
HETATM   34  C25 UNL     1      -1.310   0.793  -2.547  1.00  0.00     0.216 C 
HETATM   35  O6  UNL     1      -1.869   1.099  -3.649  1.00  0.00    -0.288 OA
BRANCH  34  36
HETATM   36  C26 UNL     1      -1.011  -0.625  -2.429  1.00  0.00     0.432 C 
BRANCH  36  37
HETATM   37  O7  UNL     1      -1.019  -1.217  -3.722  1.00  0.00    -0.362 OA
ATOM     38  H7  UNL     1      -0.824  -2.143  -3.645  1.00  0.00     0.212 HD
ENDBRANCH  36  37
BRANCH  36  39
HETATM   39  N4  UNL     1      -2.099  -1.410  -1.725  1.00  0.00     0.125 N 
BRANCH  39  40
HETATM   40  C27 UNL     1      -1.494  -2.419  -0.946  1.00  0.00     0.281 C 
BRANCH  40  41
HETATM   41  C28 UNL     1      -2.216  -2.735   0.331  1.00  0.00     0.014 C 
HETATM   42  C29 UNL     1      -2.257  -1.483   1.215  1.00  0.00     0.006 C 
HETATM   43  C30 UNL     1      -3.370  -1.735   2.220  1.00  0.00     0.000 C 
HETATM   44  C31 UNL     1      -3.536  -3.225   2.471  1.00  0.00     0.000 C 
HETATM   45  C32 UNL     1      -2.179  -3.924   2.466  1.00  0.00     0.000 C 
HETATM   46  C33 UNL     1      -1.541  -3.871   1.091  1.00  0.00     0.006 C 
ENDBRANCH  40  41
ENDBRANCH  39  40
BRANCH  39  47
HETATM   47  C34 UNL     1      -3.019  -1.791  -2.746  1.00  0.00     0.281 C 
BRANCH  47  48
HETATM   48  C35 UNL     1      -4.161  -2.635  -2.352  1.00  0.00     0.014 C 
HETATM   49  C36 UNL     1      -5.116  -2.896  -3.556  1.00  0.00     0.006 C 
HETATM   50  C37 UNL     1      -5.200  -4.316  -3.134  1.00  0.00     0.001 C 
HETATM   51  C38 UNL     1      -3.884  -4.150  -2.440  1.00  0.00     0.006 C 
ENDBRANCH  47  48
ENDBRANCH  39  47
ENDBRANCH  36  39
ENDBRANCH  34  36
ENDBRANCH  28  34
ENDBRANCH   1  28
TORSDOF 18
