REMARK  16 active torsions:
REMARK  status: ('A' for Active; 'I' for Inactive)
REMARK    1  A    between atoms: C2_2  and  C3_3 
REMARK    2  A    between atoms: C3_3  and  C4_4 
REMARK    3  A    between atoms: C4_4  and  C5_5 
REMARK    4  A    between atoms: C5_5  and  C6_6 
REMARK    5  A    between atoms: C6_6  and  C7_7 
REMARK    6  A    between atoms: C7_7  and  C8_8 
REMARK    7  A    between atoms: C8_8  and  O1_9 
REMARK    8  A    between atoms: O1_9  and  C9_10 
REMARK    9  A    between atoms: C22_25  and  C23_26 
REMARK   10  A    between atoms: C23_26  and  C24_27 
REMARK   11  A    between atoms: C24_27  and  N2_28 
REMARK   12  A    between atoms: C24_27  and  C29_36 
REMARK       I    between atoms: N2_28  and  C25_30 
REMARK   13  A    between atoms: C25_30  and  C26_32 
REMARK   14  A    between atoms: C26_32  and  N3_33 
REMARK   15  A    between atoms: C29_36  and  O5_38 
REMARK   16  A    between atoms: O5_38  and  C30_39 
ROOT
HETATM    1  C9  UNL     1       2.383  -0.394  -0.792  1.00  0.00     0.129 C 
HETATM    2  C10 UNL     1       2.858  -1.491   0.208  1.00  0.00     0.032 C 
HETATM    3  C11 UNL     1       3.344  -2.696  -0.495  1.00  0.00     0.004 C 
HETATM    4  C12 UNL     1       2.609  -3.967  -0.200  1.00  0.00     0.020 C 
HETATM    5  C13 UNL     1       2.156  -4.139   1.206  1.00  0.00     0.125 C 
HETATM    6  N1  UNL     1       1.809  -5.511   1.535  1.00  0.00    -0.356 N 
HETATM    7  C14 UNL     1       2.908  -6.466   1.541  1.00  0.00     0.152 C 
HETATM    8  C15 UNL     1       0.494  -5.954   1.842  1.00  0.00     0.219 C 
HETATM    9  O2  UNL     1       0.368  -6.798   2.780  1.00  0.00    -0.273 OA
HETATM   10  C16 UNL     1      -0.742  -5.521   1.166  1.00  0.00     0.103 C 
HETATM   11  C17 UNL     1      -1.336  -4.269   1.687  1.00  0.00     0.009 C 
HETATM   12  C18 UNL     1      -2.870  -4.277   1.642  1.00  0.00     0.000 C 
HETATM   13  C19 UNL     1      -3.425  -2.974   2.153  1.00  0.00     0.000 C 
HETATM   14  C20 UNL     1      -3.328  -1.968   1.049  1.00  0.00     0.001 C 
HETATM   15  C21 UNL     1      -3.769  -0.588   1.410  1.00  0.00     0.014 C 
HETATM   16  C22 UNL     1      -2.889   0.361   0.597  1.00  0.00     0.080 C 
HETATM   17  C32 UNL     1      -1.472   0.284   1.102  1.00  0.00     0.223 C 
HETATM   18  O6  UNL     1      -1.333  -0.155   2.276  1.00  0.00    -0.273 OA
HETATM   19  N4  UNL     1      -0.336   0.655   0.383  1.00  0.00    -0.334 N 
ATOM     20  H4  UNL     1       0.359   1.206   0.887  1.00  0.00     0.165 HD
HETATM   21  C33 UNL     1      -0.036   0.348  -0.988  1.00  0.00     0.229 C 
HETATM   22  O7  UNL     1       0.382   1.401  -1.727  1.00  0.00    -0.366 OA
HETATM   23  C34 UNL     1       0.340   1.233  -3.093  1.00  0.00     0.170 C 
HETATM   24  C35 UNL     1       0.859  -0.082  -3.582  1.00  0.00     0.027 C 
HETATM   25  C36 UNL     1       0.787  -1.191  -2.592  1.00  0.00     0.013 C 
HETATM   26  C37 UNL     1       0.961  -0.770  -1.151  1.00  0.00     0.063 C 
ENDROOT
BRANCH  16  27
HETATM   27  C23 UNL     1      -3.380   1.775   0.620  1.00  0.00     0.049 C 
BRANCH  27  28
HETATM   28  C24 UNL     1      -4.770   1.887   0.078  1.00  0.00     0.185 C 
BRANCH  28  29
HETATM   29  N2  UNL     1      -5.197   3.306   0.129  1.00  0.00    -0.346 N 
HETATM   30  C25 UNL     1      -6.296   3.686   0.901  1.00  0.00     0.246 C 
HETATM   31  O3  UNL     1      -6.929   2.829   1.557  1.00  0.00    -0.272 OA
ATOM     32  H2  UNL     1      -4.684   4.009  -0.403  1.00  0.00     0.163 HD
BRANCH  30  33
HETATM   33  C26 UNL     1      -6.708   5.106   0.941  1.00  0.00     0.373 C 
BRANCH  33  34
HETATM   34  N3  UNL     1      -7.861   5.323   1.792  1.00  0.00     0.088 N 
HETATM   35  C27 UNL     1      -8.155   6.758   1.738  1.00  0.00     0.310 C 
HETATM   36  C28 UNL     1      -7.552   4.927   3.169  1.00  0.00     0.310 C 
ENDBRANCH  33  34
ENDBRANCH  30  33
ENDBRANCH  28  29
BRANCH  28  37
HETATM   37  C29 UNL     1      -4.975   1.356  -1.282  1.00  0.00     0.281 C 
HETATM   38  O4  UNL     1      -5.408   2.195  -2.155  1.00  0.00    -0.263 OA
BRANCH  37  39
HETATM   39  O5  UNL     1      -4.768   0.093  -1.734  1.00  0.00    -0.320 OA
BRANCH  39  40
HETATM   40  C30 UNL     1      -4.982  -0.368  -3.047  1.00  0.00     0.174 C 
HETATM   41  C31 UNL     1      -4.609  -1.834  -3.063  1.00  0.00     0.034 C 
ENDBRANCH  39  40
ENDBRANCH  37  39
ENDBRANCH  28  37
ENDBRANCH  27  28
ENDBRANCH  16  27
BRANCH   1  42
HETATM   42  O1  UNL     1       2.496   0.822  -0.287  1.00  0.00    -0.385 OA
BRANCH  42  43
HETATM   43  C8  UNL     1       3.264   1.831  -0.611  1.00  0.00     0.168 C 
BRANCH  43  44
HETATM   44  C7  UNL     1       4.754   1.810  -0.480  1.00  0.00     0.026 C 
BRANCH  44  45
HETATM   45  C6  UNL     1       5.526   0.835  -1.260  1.00  0.00     0.002 C 
BRANCH  45  46
HETATM   46  C5  UNL     1       7.023   1.037  -0.959  1.00  0.00     0.000 C 
BRANCH  46  47
HETATM   47  C4  UNL     1       7.522   2.397  -1.323  1.00  0.00     0.000 C 
BRANCH  47  48
HETATM   48  C3  UNL     1       9.018   2.466  -1.005  1.00  0.00    -0.000 C 
BRANCH  48  49
HETATM   49  C2  UNL     1       9.280   2.224   0.464  1.00  0.00    -0.005 C 
HETATM   50  C1  UNL     1       8.582   3.250   1.324  1.00  0.00     0.005 C 
ENDBRANCH  48  49
ENDBRANCH  47  48
ENDBRANCH  46  47
ENDBRANCH  45  46
ENDBRANCH  44  45
ENDBRANCH  43  44
ENDBRANCH  42  43
ENDBRANCH   1  42
TORSDOF 16
