REMARK  17 active torsions:
REMARK  status: ('A' for Active; 'I' for Inactive)
REMARK    1  A    between atoms: C2_2  and  C3_3 
REMARK    2  A    between atoms: C3_3  and  C4_4 
REMARK    3  A    between atoms: C4_4  and  C5_5 
REMARK    4  A    between atoms: C5_5  and  O1_6 
REMARK    5  A    between atoms: O1_6  and  C6_7 
REMARK    6  A    between atoms: C6_7  and  C7_9 
REMARK    7  A    between atoms: C7_9  and  N1_10 
REMARK    8  A    between atoms: C7_9  and  C27_41 
REMARK       I    between atoms: N1_10  and  C8_12 
REMARK       I    between atoms: C8_12  and  N2_14 
REMARK    9  A    between atoms: C12_18  and  C13_19 
REMARK       I    between atoms: C13_19  and  N3_21 
REMARK   10  A    between atoms: C17_25  and  C18_26 
REMARK       I    between atoms: C18_26  and  N4_28 
REMARK   11  A    between atoms: N4_28  and  C19_30 
REMARK   12  A    between atoms: C19_30  and  C21_32 
REMARK   13  A    between atoms: C19_30  and  C24_36 
REMARK   14  A    between atoms: C21_32  and  C22_33 
REMARK   15  A    between atoms: C22_33  and  O6_34 
REMARK   16  A    between atoms: C24_36  and  O8_38 
REMARK   17  A    between atoms: C27_41  and  C29_43 
ROOT
HETATM    1  N1  UNL     1      -1.384  -0.165   0.651  1.00  0.00    -0.329 N 
ATOM      2  H1  UNL     1      -0.601   0.378   1.016  1.00  0.00     0.165 HD
HETATM    3  C8  UNL     1      -1.178  -1.006  -0.470  1.00  0.00     0.319 C 
HETATM    4  O3  UNL     1      -2.163  -1.670  -0.905  1.00  0.00    -0.247 OA
HETATM    5  N2  UNL     1       0.058  -1.163  -1.152  1.00  0.00    -0.333 N 
HETATM    6  C9  UNL     1       0.087  -2.053  -2.304  1.00  0.00     0.127 C 
HETATM    7  C10 UNL     1       1.097  -3.127  -2.069  1.00  0.00     0.021 C 
HETATM    8  C11 UNL     1       2.001  -2.851  -0.883  1.00  0.00     0.017 C 
HETATM    9  C12 UNL     1       2.488  -1.434  -0.874  1.00  0.00     0.096 C 
HETATM   10  C26 UNL     1       1.284  -0.494  -0.780  1.00  0.00     0.141 C 
ENDROOT
BRANCH   1  11
HETATM   11  C7  UNL     1      -2.697  -0.055   1.301  1.00  0.00     0.189 C 
BRANCH  11  12
HETATM   12  C6  UNL     1      -3.690   0.546   0.395  1.00  0.00     0.283 C 
HETATM   13  O2  UNL     1      -3.309   0.910  -0.723  1.00  0.00    -0.263 OA
BRANCH  12  14
HETATM   14  O1  UNL     1      -4.986   0.715   0.725  1.00  0.00    -0.308 OA
BRANCH  14  15
HETATM   15  C5  UNL     1      -6.032   1.266  -0.057  1.00  0.00     0.071 C 
HETATM   16  C31 UNL     1      -6.145   0.416  -1.367  1.00  0.00     0.038 C 
HETATM   17  C32 UNL     1      -6.053  -1.026  -1.081  1.00  0.00     0.003 C 
HETATM   18  C33 UNL     1      -7.280  -1.836  -1.270  1.00  0.00     0.000 C 
HETATM   19  C34 UNL     1      -8.519  -1.069  -1.632  1.00  0.00     0.000 C 
HETATM   20  C35 UNL     1      -9.060  -0.392  -0.419  1.00  0.00     0.000 C 
HETATM   21  C36 UNL     1      -8.559   0.977  -0.139  1.00  0.00     0.003 C 
HETATM   22  C37 UNL     1      -7.300   0.995   0.672  1.00  0.00     0.038 C 
BRANCH  15  23
HETATM   23  C4  UNL     1      -5.794   2.646  -0.491  1.00  0.00     0.038 C 
BRANCH  23  24
HETATM   24  C3  UNL     1      -5.544   3.725   0.465  1.00  0.00     0.002 C 
BRANCH  24  25
HETATM   25  C2  UNL     1      -6.543   4.127   1.473  1.00  0.00    -0.004 C 
HETATM   26  C1  UNL     1      -7.855   4.595   0.923  1.00  0.00     0.005 C 
ENDBRANCH  24  25
ENDBRANCH  23  24
ENDBRANCH  15  23
ENDBRANCH  14  15
ENDBRANCH  12  14
ENDBRANCH  11  12
BRANCH  11  27
HETATM   27  C27 UNL     1      -3.049  -1.363   1.902  1.00  0.00     0.014 C 
HETATM   28  C28 UNL     1      -1.914  -1.871   2.816  1.00  0.00     0.012 C 
BRANCH  27  29
HETATM   29  C29 UNL     1      -4.272  -1.353   2.798  1.00  0.00     0.002 C 
HETATM   30  C30 UNL     1      -4.521  -2.749   3.361  1.00  0.00     0.005 C 
ENDBRANCH  27  29
ENDBRANCH  11  27
ENDBRANCH   1  11
BRANCH   9  31
HETATM   31  C13 UNL     1       3.351  -1.098  -1.999  1.00  0.00     0.226 C 
HETATM   32  O4  UNL     1       2.908  -0.381  -2.974  1.00  0.00    -0.273 OA
HETATM   33  N3  UNL     1       4.697  -1.510  -2.125  1.00  0.00    -0.338 N 
HETATM   34  C14 UNL     1       5.582  -1.237  -3.278  1.00  0.00     0.127 C 
HETATM   35  C17 UNL     1       5.548  -2.243  -1.232  1.00  0.00     0.179 C 
HETATM   36  C15 UNL     1       6.283  -2.577  -3.509  1.00  0.00     0.022 C 
HETATM   37  C16 UNL     1       6.370  -3.163  -2.122  1.00  0.00     0.037 C 
BRANCH  35  38
HETATM   38  C18 UNL     1       6.517  -1.389  -0.486  1.00  0.00     0.241 C 
HETATM   39  O5  UNL     1       7.455  -1.995   0.134  1.00  0.00    -0.271 OA
HETATM   40  N4  UNL     1       6.364   0.008  -0.495  1.00  0.00    -0.341 N 
ATOM     41  H4  UNL     1       5.576   0.398  -1.012  1.00  0.00     0.163 HD
BRANCH  40  42
HETATM   42  C19 UNL     1       7.265   0.943   0.192  1.00  0.00     0.119 C 
HETATM   43  C20 UNL     1       6.685   2.348  -0.056  1.00  0.00     0.049 C 
BRANCH  42  44
HETATM   44  C21 UNL     1       8.592   0.821  -0.489  1.00  0.00     0.067 C 
BRANCH  44  45
HETATM   45  C22 UNL     1       9.674   1.708   0.061  1.00  0.00     0.170 C 
BRANCH  45  46
HETATM   46  O6  UNL     1       9.364   3.065   0.003  1.00  0.00    -0.396 OA
HETATM   47  C23 UNL     1      10.465   3.742   0.549  1.00  0.00     0.201 C 
ENDBRANCH  45  46
ENDBRANCH  44  45
ENDBRANCH  42  44
BRANCH  42  48
HETATM   48  C24 UNL     1       7.254   0.690   1.628  1.00  0.00     0.286 C 
HETATM   49  O7  UNL     1       6.541  -0.225   2.169  1.00  0.00    -0.262 OA
BRANCH  48  50
HETATM   50  O8  UNL     1       8.032   1.448   2.482  1.00  0.00    -0.325 OA
HETATM   51  C25 UNL     1       8.094   1.283   3.880  1.00  0.00     0.213 C 
ENDBRANCH  48  50
ENDBRANCH  42  48
ENDBRANCH  40  42
ENDBRANCH  35  38
ENDBRANCH   9  31
TORSDOF 17
