REMARK  16 active torsions:
REMARK  status: ('A' for Active; 'I' for Inactive)
REMARK    1  A    between atoms: N1_9  and  C9_10 
REMARK    2  A    between atoms: C9_10  and  C10_11 
REMARK    3  A    between atoms: C10_11  and  C11_12 
REMARK    4  A    between atoms: C11_12  and  N2_13 
REMARK    5  A    between atoms: C11_12  and  C18_23 
REMARK       I    between atoms: N2_13  and  C12_15 
REMARK    6  A    between atoms: C12_15  and  O2_17 
REMARK    7  A    between atoms: O2_17  and  C13_18 
REMARK       I    between atoms: C18_23  and  N3_25 
REMARK    8  A    between atoms: C22_29  and  C23_30 
REMARK       I    between atoms: C23_30  and  N4_32 
REMARK    9  A    between atoms: N4_32  and  C24_33 
REMARK   10  A    between atoms: C24_33  and  C25_34 
REMARK   11  A    between atoms: C25_34  and  S1_35 
REMARK   12  A    between atoms: S1_35  and  S2_36 
REMARK   13  A    between atoms: S2_36  and  C26_37 
REMARK   14  A    between atoms: C26_37  and  C27_38 
REMARK   15  A    between atoms: C27_38  and  C28_39 
REMARK   16  A    between atoms: C28_39  and  C29_40 
REMARK       I    between atoms: C29_40  and  N5_42 
ROOT
HETATM    1  C11 UNL     1      -1.143  -1.536   0.999  1.00  0.00     0.183 C 
ENDROOT
BRANCH   1   2
HETATM    2  C10 UNL     1      -1.645  -0.530   1.971  1.00  0.00     0.079 C 
BRANCH   2   3
HETATM    3  C9  UNL     1      -2.317   0.674   1.435  1.00  0.00     0.065 C 
BRANCH   3   4
HETATM    4  N1  UNL     1      -3.515   0.572   0.734  1.00  0.00    -0.374 N 
HETATM    5  C8  UNL     1      -4.718   0.263   1.398  1.00  0.00     0.064 C 
HETATM    6  C7  UNL     1      -5.503   1.498   1.817  1.00  0.00     0.054 C 
HETATM    7  C6  UNL     1      -5.838   2.401   0.651  1.00  0.00    -0.031 C 
HETATM    8  C5  UNL     1      -5.277   3.776   0.961  1.00  0.00     0.010 C 
HETATM    9  C33 UNL     1      -5.151   1.836  -0.574  1.00  0.00     0.030 C 
HETATM   10  C34 UNL     1      -7.314   2.444   0.371  1.00  0.00    -0.006 C 
HETATM   11  C4  UNL     1      -6.193   4.908   0.635  1.00  0.00     0.001 C 
HETATM   12  C3  UNL     1      -6.833   4.663  -0.691  1.00  0.00     0.005 C 
HETATM   13  C2  UNL     1      -7.580   3.357  -0.787  1.00  0.00    -0.014 C 
HETATM   14  C1  UNL     1      -9.055   3.637  -0.996  1.00  0.00     0.010 C 
HETATM   15  C32 UNL     1      -3.688   1.502  -0.317  1.00  0.00     0.128 C 
HETATM   16  C35 UNL     1      -8.122   2.790   1.598  1.00  0.00     0.011 C 
ENDBRANCH   3   4
ENDBRANCH   2   3
ENDBRANCH   1   2
BRANCH   1  17
HETATM   17  N2  UNL     1      -2.135  -2.138   0.171  1.00  0.00    -0.323 N 
HETATM   18  C12 UNL     1      -2.080  -3.553  -0.131  1.00  0.00     0.361 C 
HETATM   19  O1  UNL     1      -1.146  -4.274   0.274  1.00  0.00    -0.238 OA
ATOM     20  H2  UNL     1      -2.889  -1.568  -0.212  1.00  0.00     0.165 HD
BRANCH  18  21
HETATM   21  O2  UNL     1      -3.090  -4.142  -0.883  1.00  0.00    -0.299 OA
BRANCH  21  22
HETATM   22  C13 UNL     1      -2.969  -5.546  -1.150  1.00  0.00     0.133 C 
HETATM   23  C14 UNL     1      -3.914  -6.175  -0.073  1.00  0.00     0.032 C 
HETATM   24  C15 UNL     1      -4.351  -7.460  -0.726  1.00  0.00     0.002 C 
HETATM   25  C16 UNL     1      -4.299  -7.234  -2.232  1.00  0.00     0.002 C 
HETATM   26  C17 UNL     1      -3.638  -5.865  -2.431  1.00  0.00     0.032 C 
ENDBRANCH  21  22
ENDBRANCH  18  21
ENDBRANCH   1  17
BRANCH   1  27
HETATM   27  C18 UNL     1       0.049  -0.997   0.249  1.00  0.00     0.243 C 
HETATM   28  O3  UNL     1      -0.123  -0.554  -0.920  1.00  0.00    -0.271 OA
HETATM   29  N3  UNL     1       1.333  -0.973   0.811  1.00  0.00    -0.336 N 
HETATM   30  C19 UNL     1       1.582  -1.546   2.181  1.00  0.00     0.127 C 
HETATM   31  C22 UNL     1       2.642  -0.575   0.500  1.00  0.00     0.194 C 
HETATM   32  C20 UNL     1       2.718  -2.511   1.824  1.00  0.00     0.022 C 
HETATM   33  C21 UNL     1       3.311  -1.989   0.501  1.00  0.00     0.038 C 
BRANCH  31  34
HETATM   34  C23 UNL     1       3.033   0.224  -0.654  1.00  0.00     0.309 C 
HETATM   35  O4  UNL     1       2.226   0.757  -1.475  1.00  0.00    -0.255 OA
HETATM   36  N4  UNL     1       4.408   0.363  -0.793  1.00  0.00    -0.413 NA
BRANCH  36  37
HETATM   37  C24 UNL     1       5.758   0.501  -0.933  1.00  0.00     0.233 C 
BRANCH  37  38
HETATM   38  C25 UNL     1       6.225   0.030  -2.322  1.00  0.00     0.119 C 
BRANCH  38  39
HETATM   39  S1  UNL     1       8.037  -0.095  -2.405  1.00  0.00    -0.095 SA
BRANCH  39  40
HETATM   40  S2  UNL     1       8.686  -1.759  -1.232  1.00  0.00    -0.098 SA
BRANCH  40  41
HETATM   41  C26 UNL     1       9.112  -1.267   0.443  1.00  0.00     0.086 C 
BRANCH  41  42
HETATM   42  C27 UNL     1      10.433  -0.565   0.516  1.00  0.00     0.020 C 
BRANCH  42  43
HETATM   43  C28 UNL     1      10.592   0.690  -0.276  1.00  0.00     0.103 C 
BRANCH  43  44
HETATM   44  C29 UNL     1       9.704   1.801   0.105  1.00  0.00     0.219 C 
HETATM   45  O5  UNL     1       8.657   1.700   0.800  1.00  0.00    -0.273 OA
HETATM   46  N5  UNL     1      10.053   3.109  -0.352  1.00  0.00    -0.361 N 
HETATM   47  C30 UNL     1       9.233   4.268  -0.031  1.00  0.00     0.152 C 
HETATM   48  C31 UNL     1      11.280   3.308  -1.128  1.00  0.00     0.152 C 
ENDBRANCH  43  44
ENDBRANCH  42  43
ENDBRANCH  41  42
ENDBRANCH  40  41
ENDBRANCH  39  40
ENDBRANCH  38  39
ENDBRANCH  37  38
ENDBRANCH  36  37
ENDBRANCH  31  34
ENDBRANCH   1  27
TORSDOF 16
