REMARK  1 active torsions:
REMARK  status: ('A' for Active; 'I' for Inactive)
REMARK    1  A    between atoms: C5_6  and  C6_7 
ROOT
HETATM    1  N1  UNL     1      -1.495   4.069   0.909  1.00  0.00    -0.197 NA
HETATM    2  C1  UNL     1      -1.138   3.078   0.410  1.00  0.00     0.068 C 
HETATM    3  C2  UNL     1      -0.670   1.842  -0.223  1.00  0.00     0.119 C 
HETATM    4  C3  UNL     1       0.656   1.989  -0.881  1.00  0.00    -0.005 C 
HETATM    5  C4  UNL     1       1.410   1.123  -1.490  1.00  0.00     0.032 C 
HETATM    6  C5  UNL     1       1.408  -0.279  -1.834  1.00  0.00     0.083 C 
HETATM    7  O1  UNL     1       0.464  -1.173  -1.543  1.00  0.00    -0.264 OA
HETATM    8  C7  UNL     1       0.119  -2.257  -0.822  1.00  0.00     0.365 C 
HETATM    9  O2  UNL     1       0.244  -3.486  -1.220  1.00  0.00    -0.238 OA
HETATM   10  N2  UNL     1      -0.443  -2.290   0.501  1.00  0.00    -0.332 N 
ATOM     11  H2  UNL     1      -0.085  -3.008   1.131  1.00  0.00     0.165 HD
HETATM   12  C8  UNL     1      -1.452  -1.422   1.028  1.00  0.00     0.087 C 
HETATM   13  C9  UNL     1      -1.081  -0.747   2.332  1.00  0.00     0.026 C 
HETATM   14  C10 UNL     1      -1.205   0.748   2.039  1.00  0.00     0.008 C 
HETATM   15  C11 UNL     1      -0.648   0.679   0.621  1.00  0.00     0.009 C 
HETATM   16  C12 UNL     1      -1.673  -0.298   0.095  1.00  0.00     0.031 C 
ENDROOT
BRANCH   6  17
HETATM   17  C6  UNL     1       2.861  -0.800  -1.627  1.00  0.00     0.186 C 
HETATM   18 BR1  UNL     1       3.440  -0.582   0.177  1.00  0.00    -0.072 Br
HETATM   19 BR2  UNL     1       4.064   0.057  -2.852  1.00  0.00    -0.072 Br
ENDBRANCH   6  17
TORSDOF 1
