REMARK  3 active torsions:
REMARK  status: ('A' for Active; 'I' for Inactive)
REMARK    1  A    between atoms: C3_3  and  N1_5 
REMARK       I    between atoms: N2_10  and  C7_11 
REMARK    2  A    between atoms: C12_17  and  C13_18 
REMARK    3  A    between atoms: C13_18  and  O2_21 
ROOT
HETATM    1  N1  UNL     1      -0.373   1.103  -0.501  1.00  0.00    -0.350 N 
HETATM    2  C4  UNL     1       0.731   1.500   0.307  1.00  0.00     0.168 C 
HETATM    3  C5  UNL     1       2.076   0.948  -0.106  1.00  0.00     0.106 C 
HETATM    4  C6  UNL     1       3.041   1.410   0.969  1.00  0.00     0.053 C 
HETATM    5 BR1  UNL     1       2.672   1.904  -1.719  1.00  0.00    -0.060 Br
HETATM    6  N2  UNL     1       2.082  -0.468  -0.286  1.00  0.00    -0.327 N 
HETATM    7  C7  UNL     1       3.364  -1.106  -0.402  1.00  0.00     0.217 C 
HETATM    8  C8  UNL     1       4.685  -0.499  -0.393  1.00  0.00     0.117 C 
HETATM    9  O1  UNL     1       3.374  -2.397  -0.535  1.00  0.00    -0.274 OA
HETATM   10  C9  UNL     1       0.997  -1.439  -0.398  1.00  0.00     0.091 C 
HETATM   11  C10 UNL     1      -0.022  -1.117  -1.436  1.00  0.00     0.051 C 
HETATM   12  C11 UNL     1      -0.961  -0.212  -0.732  1.00  0.00     0.095 C 
HETATM   13  C12 UNL     1      -1.122  -0.935   0.594  1.00  0.00     0.044 C 
HETATM   14  C16 UNL     1       0.204  -1.593   0.855  1.00  0.00     0.035 C 
ENDROOT
BRANCH  13  15
HETATM   15  C13 UNL     1      -2.188  -1.964   0.616  1.00  0.00     0.056 C 
HETATM   16  C14 UNL     1      -3.565  -1.402   0.307  1.00  0.00     0.045 C 
HETATM   17  C15 UNL     1      -2.287  -2.476   2.067  1.00  0.00     0.045 C 
BRANCH  15  18
HETATM   18  O2  UNL     1      -1.986  -3.084  -0.149  1.00  0.00    -0.390 OA
ATOM     19  H2  UNL     1      -2.669  -3.744  -0.135  1.00  0.00     0.210 HD
ENDBRANCH  15  18
ENDBRANCH  13  15
BRANCH   1  20
HETATM   20  C3  UNL     1      -1.001   2.144  -1.190  1.00  0.00     0.182 C 
HETATM   21  C2  UNL     1      -1.486   3.169  -0.524  1.00  0.00     0.030 C 
HETATM   22  C1  UNL     1      -2.172   4.323  -1.179  1.00  0.00     0.041 C 
HETATM   23  F1  UNL     1      -1.120   2.119  -2.530  1.00  0.00    -0.187 F 
ENDBRANCH   1  20
TORSDOF 3
