REMARK  2 active torsions:
REMARK  status: ('A' for Active; 'I' for Inactive)
REMARK    1  A    between atoms: O1_2  and  C2_3 
REMARK    2  A    between atoms: C9_12  and  O3_13 
ROOT
HETATM    1  C2  UNL     1       2.642  -0.076   0.236  1.00  0.00     0.138 C 
HETATM    2  C3  UNL     1       1.620  -0.068  -0.582  1.00  0.00    -0.042 C 
HETATM    3  C4  UNL     1       1.230   0.716  -1.774  1.00  0.00     0.070 C 
HETATM    4  C5  UNL     1       0.725  -0.648  -2.306  1.00  0.00     0.026 C 
HETATM    5  C6  UNL     1       0.406  -0.829  -0.779  1.00  0.00     0.057 C 
HETATM    6  C7  UNL     1      -0.896  -0.164  -0.515  1.00  0.00     0.099 C 
HETATM    7  O2  UNL     1      -1.080   0.821  -1.514  1.00  0.00    -0.345 OA
HETATM    8  C8  UNL     1       0.055   1.620  -1.461  1.00  0.00     0.173 C 
HETATM    9 CL1  UNL     1      -0.014   2.848  -2.755  1.00  0.00    -0.084 Cl
HETATM   10  C9  UNL     1       0.341   2.308  -0.183  1.00  0.00     0.187 C 
HETATM   11  C10 UNL     1      -0.480   1.897   0.988  1.00  0.00     0.122 C 
HETATM   12 BR1  UNL     1       0.382   1.958   2.687  1.00  0.00    -0.084 Br
HETATM   13  C11 UNL     1      -1.095   0.553   0.744  1.00  0.00    -0.031 C 
HETATM   14  C12 UNL     1      -1.959   0.041   1.648  1.00  0.00    -0.015 C 
HETATM   15  C13 UNL     1      -2.661  -1.213   1.286  1.00  0.00     0.009 C 
HETATM   16  C14 UNL     1      -1.918  -2.194   0.475  1.00  0.00     0.016 C 
HETATM   17  C15 UNL     1      -2.013  -1.177  -0.681  1.00  0.00     0.027 C 
HETATM   18  C16 UNL     1      -3.310  -0.778  -0.070  1.00  0.00     0.016 C 
ENDROOT
BRANCH   1  19
HETATM   19  O1  UNL     1       2.775  -0.934   1.309  1.00  0.00    -0.368 OA
HETATM   20  C1  UNL     1       4.034  -1.352   1.733  1.00  0.00     0.208 C 
ENDBRANCH   1  19
BRANCH  10  21
HETATM   21  O3  UNL     1       0.182   3.726  -0.328  1.00  0.00    -0.390 OA
ATOM     22  H3  UNL     1       0.366   4.168   0.493  1.00  0.00     0.210 HD
ENDBRANCH  10  21
TORSDOF 2
