REMARK  12 active torsions:
REMARK  status: ('A' for Active; 'I' for Inactive)
REMARK    1  A    between atoms: O1_1  and  C1_3 
REMARK    2  A    between atoms: C1_3  and  C2_4 
REMARK    3  A    between atoms: C2_4  and  O2_5 
REMARK    4  A    between atoms: O2_5  and  C3_6 
REMARK    5  A    between atoms: C3_6  and  C4_7 
REMARK    6  A    between atoms: C4_7  and  C5_8 
REMARK    7  A    between atoms: C5_8  and  N1_9 
REMARK    8  A    between atoms: N1_9  and  C6_11 
REMARK    9  A    between atoms: C6_11  and  N2_13 
REMARK   10  A    between atoms: N2_13  and  C7_15 
REMARK   11  A    between atoms: C7_15  and  C8_16 
REMARK   12  A    between atoms: C8_16  and  O3_17 
ROOT
HETATM    1  N2  UNL     1      -0.171  -0.671   0.331  1.00  0.00    -0.363 N 
ATOM      2  H2  UNL     1       0.340  -1.553   0.302  1.00  0.00     0.162 HD
ENDROOT
BRANCH   1   3
HETATM    3  C6  UNL     1       0.415   0.353  -0.408  1.00  0.00     0.167 C 
HETATM    4  S1  UNL     1      -0.155   1.875  -0.491  1.00  0.00    -0.041 SA
BRANCH   3   5
HETATM    5  N1  UNL     1       1.636   0.105  -1.121  1.00  0.00    -0.367 N 
ATOM      6  H1  UNL     1       2.030   0.853  -1.691  1.00  0.00     0.161 HD
BRANCH   5   7
HETATM    7  C5  UNL     1       2.322  -1.148  -1.065  1.00  0.00     0.124 C 
BRANCH   7   8
HETATM    8  C4  UNL     1       3.017  -1.251   0.289  1.00  0.00     0.046 C 
BRANCH   8   9
HETATM    9  C3  UNL     1       4.026  -0.056   0.275  1.00  0.00     0.169 C 
BRANCH   9  10
HETATM   10  O2  UNL     1       4.847  -0.301  -0.777  1.00  0.00    -0.389 OA
BRANCH  10  11
HETATM   11  C2  UNL     1       5.823   0.595  -1.087  1.00  0.00     0.193 C 
BRANCH  11  12
HETATM   12  C1  UNL     1       6.841   0.857  -0.029  1.00  0.00     0.190 C 
BRANCH  12  13
HETATM   13  O1  UNL     1       6.381   1.366   1.152  1.00  0.00    -0.399 OA
ATOM     14  H1  UNL     1       7.029   1.533   1.826  1.00  0.00     0.209 HD
ENDBRANCH  12  13
ENDBRANCH  11  12
ENDBRANCH  10  11
ENDBRANCH   9  10
ENDBRANCH   8   9
ENDBRANCH   7   8
ENDBRANCH   5   7
ENDBRANCH   3   5
ENDBRANCH   1   3
BRANCH   1  15
HETATM   15  C7  UNL     1      -1.359  -0.708   1.122  1.00  0.00     0.183 C 
BRANCH  15  16
HETATM   16  C8  UNL     1      -2.625  -0.708   0.358  1.00  0.00     0.156 C 
HETATM   17  C9  UNL     1      -3.775  -1.219   1.349  1.00  0.00     0.142 C 
HETATM   18  C10 UNL     1      -4.918  -0.524   0.977  1.00  0.00    -0.178 C 
HETATM   19  C11 UNL     1      -6.009   0.263   0.549  1.00  0.00     0.085 C 
HETATM   20  C12 UNL     1      -5.404   1.273  -0.500  1.00  0.00     0.055 C 
HETATM   21  C13 UNL     1      -3.899   1.381  -0.294  1.00  0.00     0.059 C 
HETATM   22  N3  UNL     1      -3.023   0.353  -0.432  1.00  0.00    -0.370 N 
ATOM     23  H3  UNL     1      -2.545   0.368  -1.333  1.00  0.00     0.161 HD
BRANCH  16  24
HETATM   24  O3  UNL     1      -2.514  -1.850  -0.532  1.00  0.00    -0.368 OA
ATOM     25  H3  UNL     1      -3.327  -1.850  -1.023  1.00  0.00     0.212 HD
ENDBRANCH  16  24
ENDBRANCH  15  16
ENDBRANCH   1  15
TORSDOF 12
