REMARK  10 active torsions:
REMARK  status: ('A' for Active; 'I' for Inactive)
REMARK    1  A    between atoms: C4_6  and  N2_7 
REMARK    2  A    between atoms: N2_7  and  C5_9 
REMARK    3  A    between atoms: C5_9  and  C6_10 
REMARK    4  A    between atoms: C6_10  and  C7_11 
REMARK    5  A    between atoms: C7_11  and  C8_12 
REMARK    6  A    between atoms: C8_12  and  C9_13 
REMARK    7  A    between atoms: C9_13  and  N3_14 
REMARK    8  A    between atoms: N5_21  and  C11_23 
REMARK    9  A    between atoms: C11_23  and  C12_24 
REMARK   10  A    between atoms: C12_24  and  N6_25 
ROOT
HETATM    1  C1  UNL     1      -0.902   0.997   2.793  1.00  0.00     0.054 C 
HETATM    2  C2  UNL     1      -0.151   0.764   1.504  1.00  0.00    -0.001 A 
HETATM    3  C3  UNL     1       1.235   0.958   1.517  1.00  0.00     0.116 A 
HETATM    4  N1  UNL     1       1.917   0.771   0.402  1.00  0.00    -0.201 N 
ATOM      5  H1  UNL     1       2.927   0.913   0.409  1.00  0.00     0.183 HD
HETATM    6  C4  UNL     1       1.325   0.404  -0.727  1.00  0.00     0.679 A 
HETATM    7  N4  UNL     1       0.011   0.213  -0.766  1.00  0.00    -0.176 N 
ATOM      8  H4  UNL     1      -0.424  -0.068  -1.644  1.00  0.00     0.186 HD
HETATM    9  C10 UNL     1      -0.779   0.385   0.350  1.00  0.00     0.128 A 
HETATM   10  N5  UNL     1      -1.993   0.182   0.259  1.00  0.00    -0.353 N 
ATOM     11  H5  UNL     1      -2.204  -0.086  -0.702  1.00  0.00     0.166 HD
ENDROOT
BRANCH   6  12
HETATM   12  N2  UNL     1       1.976   0.212  -1.837  1.00  0.00    -0.226 N 
ATOM     13  H2  UNL     1       1.463  -0.067  -2.673  1.00  0.00     0.177 HD
BRANCH  12  14
HETATM   14  C5  UNL     1       3.415   0.386  -1.914  1.00  0.00     0.138 C 
BRANCH  14  15
HETATM   15  C6  UNL     1       4.164  -0.820  -1.472  1.00  0.00     0.020 C 
BRANCH  15  16
HETATM   16  C7  UNL     1       5.662  -0.686  -1.528  1.00  0.00     0.003 C 
BRANCH  16  17
HETATM   17  C8  UNL     1       6.119   0.415  -0.639  1.00  0.00     0.027 C 
BRANCH  17  18
HETATM   18  C9  UNL     1       7.618   0.602  -0.636  1.00  0.00     0.229 C 
BRANCH  18  19
HETATM   19  N3  UNL     1       8.365  -0.534  -0.211  1.00  0.00    -0.079 N 
ATOM     20  H33 UNL     1       8.047  -0.841   0.708  1.00  0.00     0.274 HD
ATOM     21  H32 UNL     1       8.113  -1.350  -0.769  1.00  0.00     0.274 HD
ATOM     22  H31 UNL     1       9.377  -0.408  -0.209  1.00  0.00     0.274 HD
ENDBRANCH  18  19
ENDBRANCH  17  18
ENDBRANCH  16  17
ENDBRANCH  15  16
ENDBRANCH  14  15
ENDBRANCH  12  14
ENDBRANCH   6  12
BRANCH  10  23
HETATM   23  C11 UNL     1      -3.168   0.184   0.979  1.00  0.00     0.092 C 
BRANCH  23  24
HETATM   24  C12 UNL     1      -4.241  -0.559   0.182  1.00  0.00     0.317 C 
BRANCH  24  25
HETATM   25  N6  UNL     1      -5.504  -0.610   0.864  1.00  0.00     0.093 N 
HETATM   26  C13 UNL     1      -6.190   0.633   0.994  1.00  0.00     0.273 C 
HETATM   27  C14 UNL     1      -7.451   0.511   0.144  1.00  0.00     0.032 C 
HETATM   28  C15 UNL     1      -7.221  -0.729  -0.709  1.00  0.00     0.032 C 
HETATM   29  C16 UNL     1      -6.358  -1.560   0.194  1.00  0.00     0.273 C 
ENDBRANCH  24  25
ENDBRANCH  23  24
ENDBRANCH  10  23
TORSDOF 10
