REMARK  4 active torsions:
REMARK  status: ('A' for Active; 'I' for Inactive)
REMARK    1  A    between atoms: S1_2  and  C2_3 
REMARK    2  A    between atoms: C3_6  and  N2_7 
REMARK    3  A    between atoms: N5_13  and  C4_14 
REMARK    4  A    between atoms: C5_15  and  O1_16 
ROOT
HETATM    1  C2  UNL     1      -2.537   0.022  -0.770  1.00  0.00     0.174 A 
HETATM    2  N1  UNL     1      -2.939  -1.094  -0.149  1.00  0.00    -0.168 N 
ATOM      3  H1  UNL     1      -3.917  -1.376  -0.221  1.00  0.00     0.186 HD
HETATM    4  C3  UNL     1      -2.100  -1.848   0.561  1.00  0.00     0.715 A 
HETATM    5  N3  UNL     1      -0.801  -1.436   0.633  1.00  0.00     0.107 N 
HETATM    6  N4  UNL     1       0.422  -1.631   1.081  1.00  0.00    -0.184 N 
ATOM      7  H4  UNL     1       0.860  -2.346   1.662  1.00  0.00     0.211 HD
HETATM    8  N5  UNL     1       0.857  -0.539   0.484  1.00  0.00    -0.059 N 
HETATM    9  C8  UNL     1      -0.375  -0.323   0.021  1.00  0.00     0.745 A 
HETATM   10  N7  UNL     1      -1.261   0.429  -0.700  1.00  0.00    -0.166 N 
ATOM     11  H7  UNL     1      -0.958   1.280  -1.174  1.00  0.00     0.186 HD
ENDROOT
BRANCH   8  12
HETATM   12  C4  UNL     1       2.145   0.114   0.398  1.00  0.00     0.182 A 
HETATM   13  C5  UNL     1       3.332  -0.485   0.337  1.00  0.00     0.170 A 
HETATM   14  C6  UNL     1       4.385   0.511   0.259  1.00  0.00     0.284 A 
HETATM   15  O2  UNL     1       5.616   0.286   0.189  1.00  0.00    -0.265 OA
HETATM   16  N6  UNL     1       3.749   1.780   0.276  1.00  0.00    -0.286 N 
HETATM   17  C7  UNL     1       2.344   1.554   0.363  1.00  0.00     0.280 A 
ATOM     18  H6  UNL     1       4.212   2.688   0.234  1.00  0.00     0.172 HD
HETATM   19  O3  UNL     1       1.496   2.459   0.399  1.00  0.00    -0.265 OA
BRANCH  13  20
HETATM   20  O1  UNL     1       3.488  -1.872   0.349  1.00  0.00    -0.354 OA
ATOM     21  H1  UNL     1       4.335  -2.300   0.305  1.00  0.00     0.218 HD
ENDBRANCH  13  20
ENDBRANCH   8  12
BRANCH   4  22
HETATM   22  N2  UNL     1      -2.430  -2.927   1.176  1.00  0.00    -0.232 N 
ATOM     23  H22 UNL     1      -3.401  -3.235   1.122  1.00  0.00     0.174 HD
ATOM     24  H21 UNL     1      -1.788  -3.504   1.719  1.00  0.00     0.174 HD
ENDBRANCH   4  22
BRANCH   1  25
HETATM   25  S1  UNL     1      -3.708   0.978  -1.698  1.00  0.00    -0.097 SA
HETATM   26  C1  UNL     1      -4.462   2.194  -0.583  1.00  0.00     0.099 C 
ENDBRANCH   1  25
TORSDOF 4
