REMARK  6 active torsions:
REMARK  status: ('A' for Active; 'I' for Inactive)
REMARK    1  A    between atoms: N1_2  and  C3_4 
REMARK    2  A    between atoms: C4_7  and  N3_8 
REMARK    3  A    between atoms: N3_8  and  N4_10 
REMARK    4  A    between atoms: C5_13  and  N5_14 
REMARK    5  A    between atoms: N5_14  and  N6_16 
REMARK    6  A    between atoms: C8_22  and  N8_23 
ROOT
HETATM    1  C3  UNL     1       1.296  -0.167  -0.419  1.00  0.00     0.682 C 
HETATM    2  N2  UNL     1       0.453  -1.168  -0.832  1.00  0.00    -0.173 N 
ATOM      3  H2  UNL     1       0.761  -1.764  -1.600  1.00  0.00     0.186 HD
HETATM    4  C4  UNL     1      -0.805  -1.425  -0.266  1.00  0.00     0.165 C 
HETATM    5  C5  UNL     1      -1.713  -0.434  -0.027  1.00  0.00     0.118 C 
HETATM    6  C6  UNL     1      -1.474   0.751   0.722  1.00  0.00     0.122 C 
HETATM    7  C7  UNL     1      -2.594   1.331   1.358  1.00  0.00     0.106 C 
HETATM    8  N7  UNL     1      -3.518   1.799   1.859  1.00  0.00    -0.191 NA
HETATM    9  C8  UNL     1      -0.216   1.348   0.831  1.00  0.00     0.159 C 
HETATM   10  N11 UNL     1       0.953   0.950   0.244  1.00  0.00    -0.174 N 
ATOM     11  H11 UNL     1       1.708   1.631   0.325  1.00  0.00     0.186 HD
ENDROOT
BRANCH   5  12
HETATM   12  N5  UNL     1      -2.847  -0.499  -0.542  1.00  0.00    -0.302 N 
ATOM     13  H5  UNL     1      -3.446   0.289  -0.293  1.00  0.00     0.186 HD
BRANCH  12  14
HETATM   14  N6  UNL     1      -3.454  -1.390  -1.360  1.00  0.00    -0.345 N 
ATOM     15  H62 UNL     1      -2.838  -2.168  -1.596  1.00  0.00     0.176 HD
ATOM     16  H61 UNL     1      -4.381  -1.443  -1.781  1.00  0.00     0.176 HD
ENDBRANCH  12  14
ENDBRANCH   5  12
BRANCH   9  17
HETATM   17  N8  UNL     1      -0.206   2.493   1.655  1.00  0.00    -0.275 N 
HETATM   18  N9  UNL     1      -0.871   3.505   1.242  1.00  0.00    -0.235 N 
HETATM   19  C9  UNL     1      -0.863   4.632   2.048  1.00  0.00     0.197 C 
ATOM     20  H9  UNL     1      -1.383   3.483   0.360  1.00  0.00     0.199 HD
HETATM   21  N10 UNL     1      -0.866   5.572   2.733  1.00  0.00    -0.170 NA
ATOM     22  H8  UNL     1       0.306   2.513   2.537  1.00  0.00     0.189 HD
ENDBRANCH   9  17
BRANCH   4  23
HETATM   23  N3  UNL     1      -1.074  -2.613   0.022  1.00  0.00    -0.290 N 
ATOM     24  H3  UNL     1      -0.353  -3.304  -0.185  1.00  0.00     0.188 HD
BRANCH  23  25
HETATM   25  N4  UNL     1      -2.219  -3.083   0.579  1.00  0.00    -0.344 N 
ATOM     26  H42 UNL     1      -2.928  -2.377   0.778  1.00  0.00     0.176 HD
ATOM     27  H41 UNL     1      -2.438  -4.051   0.814  1.00  0.00     0.176 HD
ENDBRANCH  23  25
ENDBRANCH   4  23
BRANCH   1  28
HETATM   28  N1  UNL     1       2.675  -0.306  -0.715  1.00  0.00    -0.226 N 
HETATM   29  C1  UNL     1       3.629  -0.950   0.149  1.00  0.00     0.168 C 
HETATM   30  C2  UNL     1       3.162   0.234  -1.970  1.00  0.00     0.168 C 
ENDBRANCH   1  28
TORSDOF 6
