REMARK  4 active torsions:
REMARK  status: ('A' for Active; 'I' for Inactive)
REMARK    1  A    between atoms: N1_1  and  O1_4 
REMARK    2  A    between atoms: O1_4  and  C1_5 
REMARK    3  A    between atoms: C1_5  and  N2_6 
REMARK    4  A    between atoms: C5_14  and  N4_15 
ROOT
HETATM    1  N2  UNL     1       1.257   0.206  -0.770  1.00  0.00    -0.259 N 
HETATM    2  C2  UNL     1       0.958   1.244  -1.572  1.00  0.00     0.330 A 
HETATM    3  O2  UNL     1       1.854   1.840  -2.238  1.00  0.00    -0.246 OA
HETATM    4  N3  UNL     1      -0.368   1.484  -1.515  1.00  0.00    -0.304 N 
ATOM      5  H3  UNL     1      -0.861   2.216  -2.026  1.00  0.00     0.171 HD
HETATM    6  C3  UNL     1      -0.944   0.586  -0.660  1.00  0.00     0.101 A 
HETATM    7  C4  UNL     1      -2.237   0.376  -0.237  1.00  0.00     0.081 A 
HETATM    8  S1  UNL     1      -3.527   1.433  -0.864  1.00  0.00    -0.047 SA
HETATM    9  C5  UNL     1      -2.534  -0.639   0.660  1.00  0.00     0.190 A 
HETATM   10  C6  UNL     1      -1.463  -1.423   1.102  1.00  0.00     0.281 A 
HETATM   11  O5  UNL     1      -1.677  -2.361   1.920  1.00  0.00    -0.265 OA
HETATM   12  N5  UNL     1      -0.219  -1.177   0.659  1.00  0.00    -0.305 N 
ATOM     13  H5  UNL     1       0.536  -1.770   1.004  1.00  0.00     0.170 HD
HETATM   14  C7  UNL     1       0.098  -0.195  -0.215  1.00  0.00     0.145 A 
ENDROOT
BRANCH   1  15
HETATM   15  C1  UNL     1       2.575  -0.394  -0.527  1.00  0.00     0.337 C 
BRANCH  15  16
HETATM   16  O1  UNL     1       3.093   0.322   0.573  1.00  0.00    -0.267 OA
BRANCH  16  17
HETATM   17  N1  UNL     1       4.305  -0.163   0.869  1.00  0.00    -0.309 N 
ATOM     18  H12 UNL     1       4.765  -0.925   0.372  1.00  0.00     0.184 HD
ATOM     19  H11 UNL     1       4.679   0.355   1.664  1.00  0.00     0.184 HD
ENDBRANCH  16  17
ENDBRANCH  15  16
ENDBRANCH   1  15
BRANCH   9  20
HETATM   20  N4  UNL     1      -3.852  -0.875   1.109  1.00  0.00    -0.108 N 
HETATM   21  O3  UNL     1      -4.674  -1.389   0.354  1.00  0.00    -0.532 OA
HETATM   22  O4  UNL     1      -4.195  -0.528   2.375  1.00  0.00    -0.532 OA
ENDBRANCH   9  20
TORSDOF 4
