REMARK  7 active torsions:
REMARK  status: ('A' for Active; 'I' for Inactive)
REMARK    1  A    between atoms: C3_3  and  C4_4 
REMARK    2  A    between atoms: C4_4  and  C5_5 
REMARK    3  A    between atoms: C5_5  and  C6_6 
REMARK    4  A    between atoms: C8_9  and  N1_10 
REMARK    5  A    between atoms: N1_10  and  C9_11 
REMARK    6  A    between atoms: N1_10  and  C15_17 
REMARK       I    between atoms: N2_20  and  C18_21 
REMARK    7  A    between atoms: C18_21  and  C19_23 
ROOT
HETATM    1  N1  UNL     1      -0.182   1.419  -0.314  1.00  0.00    -0.350 N 
ENDROOT
BRANCH   1   2
HETATM    2  C8  UNL     1       1.218   1.104  -0.118  1.00  0.00     0.147 A 
HETATM    3  S1  UNL     1       2.237   1.544   1.206  1.00  0.00    -0.064 SA
HETATM    4  C7  UNL     1       3.677   0.792   0.665  1.00  0.00     0.078 A 
HETATM    5  C6  UNL     1       3.270   0.240  -0.524  1.00  0.00     0.018 A 
HETATM    6  N3  UNL     1       2.038   0.419  -0.876  1.00  0.00    -0.340 N 
ATOM      7  H3  UNL     1       1.701   0.022  -1.753  1.00  0.00     0.168 HD
BRANCH   5   8
HETATM    8  C5  UNL     1       4.242  -0.545  -1.378  1.00  0.00     0.062 C 
BRANCH   8   9
HETATM    9  C4  UNL     1       4.232  -1.995  -1.015  1.00  0.00     0.048 C 
BRANCH   9  10
HETATM   10  C3  UNL     1       4.612  -2.235   0.401  1.00  0.00    -0.017 A 
HETATM   11  C2  UNL     1       5.854  -2.201   0.985  1.00  0.00     0.032 A 
HETATM   12  C1  UNL     1       7.134  -1.908   0.297  1.00  0.00     0.070 C 
HETATM   13  N5  UNL     1       5.707  -2.479   2.275  1.00  0.00    -0.301 N 
HETATM   14  N4  UNL     1       4.427  -2.685   2.524  1.00  0.00    -0.309 N 
HETATM   15  C26 UNL     1       6.723  -2.567   3.324  1.00  0.00     0.177 C 
HETATM   16  C25 UNL     1       3.717  -2.545   1.401  1.00  0.00     0.116 A 
ATOM     17  H4  UNL     1       4.038  -2.917   3.438  1.00  0.00     0.186 HD
ENDBRANCH   9  10
ENDBRANCH   8   9
ENDBRANCH   5   8
ENDBRANCH   1   2
BRANCH   1  18
HETATM   18  C9  UNL     1      -0.400   2.656  -1.004  1.00  0.00     0.087 C 
HETATM   19  C10 UNL     1      -1.094   3.713  -0.245  1.00  0.00     0.025 C 
HETATM   20  C11 UNL     1      -0.609   5.107  -0.381  1.00  0.00     0.002 C 
HETATM   21  C12 UNL     1       0.036   5.496  -1.659  1.00  0.00     0.000 C 
HETATM   22  C13 UNL     1       0.367   4.328  -2.560  1.00  0.00     0.002 C 
HETATM   23  C14 UNL     1       0.864   3.260  -1.572  1.00  0.00     0.025 C 
ENDBRANCH   1  18
BRANCH   1  24
HETATM   24  C15 UNL     1      -1.060   0.474   0.206  1.00  0.00     0.106 C 
HETATM   25  C16 UNL     1      -2.052   0.741   1.203  1.00  0.00     0.047 C 
HETATM   26  C17 UNL     1      -3.379   0.824   0.489  1.00  0.00     0.128 C 
HETATM   27  N2  UNL     1      -3.218  -0.277  -0.423  1.00  0.00    -0.350 N 
HETATM   28  C18 UNL     1      -4.147  -1.279  -0.740  1.00  0.00     0.224 C 
HETATM   29  C24 UNL     1      -1.879  -0.136  -0.947  1.00  0.00     0.151 C 
HETATM   30  O1  UNL     1      -3.845  -2.184  -1.594  1.00  0.00    -0.273 OA
BRANCH  28  31
HETATM   31  C19 UNL     1      -5.503  -1.388  -0.150  1.00  0.00     0.082 C 
HETATM   32  C20 UNL     1      -6.333  -2.446  -0.801  1.00  0.00     0.040 C 
HETATM   33  C21 UNL     1      -5.963  -3.854  -0.502  1.00  0.00     0.168 C 
HETATM   34  O2  UNL     1      -5.403  -3.996   0.735  1.00  0.00    -0.391 OA
HETATM   35  C22 UNL     1      -5.940  -3.078   1.632  1.00  0.00     0.168 C 
HETATM   36  C23 UNL     1      -5.422  -1.678   1.340  1.00  0.00     0.040 C 
ENDBRANCH  28  31
ENDBRANCH   1  24
TORSDOF 7
