REMARK  8 active torsions:
REMARK  status: ('A' for Active; 'I' for Inactive)
REMARK    1  A    between atoms: C2_2  and  O1_3 
REMARK    2  A    between atoms: O1_3  and  C3_4 
REMARK    3  A    between atoms: C3_4  and  C4_6 
REMARK    4  A    between atoms: N1_12  and  C10_13 
REMARK    5  A    between atoms: C10_13  and  C11_14 
REMARK    6  A    between atoms: C13_18  and  C14_19 
REMARK    7  A    between atoms: C18_25  and  C19_26 
REMARK    8  A    between atoms: C19_26  and  C20_27 
REMARK       I    between atoms: C20_27  and  N4_29 
ROOT
HETATM    1  C4  UNL     1      -0.286  -1.856  -0.603  1.00  0.00     0.090 C 
HETATM    2  C5  UNL     1      -0.129  -3.138  -1.374  1.00  0.00     0.027 C 
HETATM    3  C6  UNL     1      -1.405  -3.761  -1.816  1.00  0.00     0.005 C 
HETATM    4  C7  UNL     1      -2.507  -2.818  -2.151  1.00  0.00     0.029 C 
HETATM    5  C8  UNL     1      -2.185  -1.402  -1.979  1.00  0.00    -0.001 C 
HETATM    6  C9  UNL     1      -1.182  -0.913  -1.281  1.00  0.00     0.023 C 
HETATM    7  N1  UNL     1      -1.033   0.499  -1.237  1.00  0.00    -0.359 N 
HETATM    8  C16 UNL     1       0.273   1.013  -0.821  1.00  0.00     0.196 C 
HETATM    9  C17 UNL     1       0.546   2.246  -1.531  1.00  0.00     0.085 C 
HETATM   10  N3  UNL     1       0.773   3.242  -2.086  1.00  0.00    -0.195 NA
HETATM   11  C18 UNL     1       1.298  -0.008  -1.176  1.00  0.00     0.033 C 
HETATM   12  C26 UNL     1       1.120  -1.301  -0.412  1.00  0.00     0.034 C 
ENDROOT
BRANCH   7  13
HETATM   13  C10 UNL     1      -2.112   1.347  -1.582  1.00  0.00     0.189 C 
BRANCH  13  14
HETATM   14  C11 UNL     1      -3.284   1.193  -0.684  1.00  0.00     0.069 A 
HETATM   15  N2  UNL     1      -3.501   0.431   0.371  1.00  0.00    -0.361 N 
HETATM   16  C12 UNL     1      -4.635   0.486   0.992  1.00  0.00     0.103 A 
ATOM     17  H2  UNL     1      -2.773  -0.204   0.698  1.00  0.00     0.165 HD
HETATM   18  C13 UNL     1      -5.582   1.360   0.507  1.00  0.00    -0.001 A 
HETATM   19  S1  UNL     1      -4.756   2.044  -0.825  1.00  0.00    -0.078 SA
BRANCH  18  20
HETATM   20  C14 UNL     1      -6.968   1.605   1.049  1.00  0.00     0.043 C 
HETATM   21  C15 UNL     1      -6.869   2.709   2.062  1.00  0.00     0.010 C 
ENDBRANCH  18  20
ENDBRANCH  13  14
ENDBRANCH   7  13
BRANCH  11  22
HETATM   22  C19 UNL     1       2.708   0.443  -1.173  1.00  0.00     0.110 C 
BRANCH  22  23
HETATM   23  C20 UNL     1       3.225   0.954   0.091  1.00  0.00     0.220 C 
HETATM   24  O3  UNL     1       2.479   0.998   1.100  1.00  0.00    -0.273 OA
HETATM   25  N4  UNL     1       4.559   1.414   0.238  1.00  0.00    -0.352 N 
HETATM   26  C21 UNL     1       5.461   1.386  -0.897  1.00  0.00     0.125 C 
HETATM   27  C25 UNL     1       5.095   1.925   1.483  1.00  0.00     0.125 C 
HETATM   28  C22 UNL     1       6.862   1.797  -0.500  1.00  0.00     0.020 C 
HETATM   29  C23 UNL     1       6.917   3.047   0.311  1.00  0.00     0.003 C 
HETATM   30  C24 UNL     1       5.696   3.280   1.173  1.00  0.00     0.020 C 
ENDBRANCH  22  23
ENDBRANCH  11  22
BRANCH   1  31
HETATM   31  C3  UNL     1      -0.819  -2.205   0.739  1.00  0.00     0.273 C 
HETATM   32  O2  UNL     1      -0.170  -1.919   1.805  1.00  0.00    -0.264 OA
BRANCH  31  33
HETATM   33  O1  UNL     1      -2.025  -2.849   0.947  1.00  0.00    -0.321 OA
BRANCH  33  34
HETATM   34  C2  UNL     1      -2.509  -3.170   2.222  1.00  0.00     0.174 C 
HETATM   35  C1  UNL     1      -1.513  -4.085   2.895  1.00  0.00     0.034 C 
ENDBRANCH  33  34
ENDBRANCH  31  33
ENDBRANCH   1  31
TORSDOF 8
