REMARK  8 active torsions:
REMARK  status: ('A' for Active; 'I' for Inactive)
REMARK    1  A    between atoms: C2_2  and  O1_3 
REMARK    2  A    between atoms: O1_3  and  C3_4 
REMARK    3  A    between atoms: C5_7  and  C6_8 
REMARK    4  A    between atoms: C6_8  and  O3_9 
REMARK    5  A    between atoms: O3_9  and  C7_10 
REMARK    6  A    between atoms: C18_22  and  O5_23 
REMARK    7  A    between atoms: O5_23  and  C19_24 
REMARK    8  A    between atoms: C19_24  and  C20_26 
ROOT
HETATM    1  C3  UNL     1      -2.527  -1.709  -0.543  1.00  0.00     0.196 C 
HETATM    2  C4  UNL     1      -3.994  -1.337  -0.796  1.00  0.00     0.163 C 
HETATM    3  O2  UNL     1      -4.843  -1.891  -1.398  1.00  0.00    -0.295 OA
HETATM    4  C5  UNL     1      -4.011  -0.011  -0.017  1.00  0.00     0.091 C 
HETATM    5  C9  UNL     1      -2.839   0.684  -0.618  1.00  0.00    -0.024 C 
HETATM    6  C10 UNL     1      -3.287   1.521  -1.798  1.00  0.00     0.016 C 
HETATM    7  C11 UNL     1      -2.127   1.550   0.357  1.00  0.00     0.011 C 
HETATM    8  C12 UNL     1      -0.822   1.059   0.888  1.00  0.00     0.007 C 
HETATM    9  C13 UNL     1       0.112   0.598  -0.207  1.00  0.00     0.003 C 
HETATM   10  C14 UNL     1       1.389   0.031   0.357  1.00  0.00    -0.029 C 
HETATM   11  C15 UNL     1       1.247  -1.136   1.260  1.00  0.00     0.016 C 
HETATM   12  C16 UNL     1       2.183   1.092   1.084  1.00  0.00     0.013 C 
HETATM   13  C17 UNL     1       3.509   1.417   0.440  1.00  0.00     0.033 C 
HETATM   14  C18 UNL     1       4.377   0.205   0.344  1.00  0.00     0.132 C 
HETATM   15  C22 UNL     1       3.600  -0.940  -0.276  1.00  0.00     0.045 C 
HETATM   16  C23 UNL     1       2.289  -0.404  -0.807  1.00  0.00     0.066 C 
HETATM   17  C24 UNL     1       1.607  -1.402  -1.631  1.00  0.00     0.132 C 
HETATM   18  O7  UNL     1       2.228  -2.095  -2.405  1.00  0.00    -0.298 OA
HETATM   19  C25 UNL     1       0.145  -1.568  -1.518  1.00  0.00     0.088 C 
HETATM   20  C26 UNL     1      -0.549  -0.231  -1.253  1.00  0.00    -0.026 C 
HETATM   21  C27 UNL     1      -0.303   0.515  -2.596  1.00  0.00     0.016 C 
HETATM   22  C28 UNL     1      -1.981  -0.459  -1.140  1.00  0.00     0.040 C 
ENDROOT
BRANCH   4  23
HETATM   23  C6  UNL     1      -5.351   0.575  -0.046  1.00  0.00     0.191 C 
BRANCH  23  24
HETATM   24  O3  UNL     1      -5.637   1.680   0.590  1.00  0.00    -0.321 OA
BRANCH  24  25
HETATM   25  C7  UNL     1      -5.635   2.918   0.939  1.00  0.00     0.254 C 
HETATM   26  C8  UNL     1      -6.451   3.543   2.057  1.00  0.00     0.126 C 
HETATM   27  O4  UNL     1      -4.908   3.742   0.334  1.00  0.00    -0.266 OA
ENDBRANCH  24  25
ENDBRANCH  23  24
ENDBRANCH   4  23
BRANCH   1  28
HETATM   28  O1  UNL     1      -2.509  -1.844   0.808  1.00  0.00    -0.378 OA
BRANCH  28  29
HETATM   29  C2  UNL     1      -2.270  -3.090   1.291  1.00  0.00     0.164 C 
HETATM   30  C1  UNL     1      -3.263  -4.136   0.875  1.00  0.00     0.033 C 
ENDBRANCH  28  29
ENDBRANCH   1  28
BRANCH  14  31
HETATM   31  O5  UNL     1       5.546   0.373  -0.378  1.00  0.00    -0.316 OA
BRANCH  31  32
HETATM   32  C19 UNL     1       6.835   0.195   0.123  1.00  0.00     0.258 C 
HETATM   33  O6  UNL     1       6.867  -0.144   1.332  1.00  0.00    -0.265 OA
BRANCH  32  34
HETATM   34  C20 UNL     1       8.047   0.393  -0.713  1.00  0.00     0.106 C 
HETATM   35  C21 UNL     1       9.267   0.118   0.140  1.00  0.00     0.015 C 
ENDBRANCH  32  34
ENDBRANCH  31  32
ENDBRANCH  14  31
TORSDOF 8
