REMARK  1 active torsions:
REMARK  status: ('A' for Active; 'I' for Inactive)
REMARK       I    between atoms: C1_4  and  N2_5 
REMARK       I    between atoms: C1_4  and  N4_9 
REMARK       I    between atoms: N2_5  and  C2_6 
REMARK    1  A    between atoms: N4_9  and  N5_11 
ROOT
HETATM    1  N1  UNL     1       1.135   0.733   1.357  1.00  0.00    -0.358 N 
ATOM      2  H11 UNL     1       1.979   1.306   1.383  1.00  0.00     0.160 HD
ATOM      3  H12 UNL     1       0.676   0.233   2.118  1.00  0.00     0.160 HD
HETATM    4  C1  UNL     1       0.502   0.543   0.171  1.00  0.00     0.277 C 
HETATM    5  N2  UNL     1      -0.629  -0.225   0.136  1.00  0.00    -0.318 NA
HETATM    6  C2  UNL     1      -1.732  -0.973   0.101  1.00  0.00     0.408 C 
HETATM    7  N3  UNL     1      -2.274  -1.584   1.321  1.00  0.00    -0.025 NA
HETATM    8  O1  UNL     1      -2.438  -1.253  -0.910  1.00  0.00    -0.234 OA
HETATM    9  N4  UNL     1       1.136   1.234  -0.880  1.00  0.00    -0.199 N 
ATOM     10  H4  UNL     1       0.589   1.949  -1.360  1.00  0.00     0.197 HD
ENDROOT
BRANCH   9  11
HETATM   11  N5  UNL     1       2.431   1.033  -1.321  1.00  0.00    -0.035 N 
HETATM   12  O2  UNL     1       2.829   1.581  -2.388  1.00  0.00    -0.516 OA
HETATM   13  O3  UNL     1       3.353   0.253  -0.656  1.00  0.00    -0.516 OA
ENDBRANCH   9  11
TORSDOF 1
