REMARK  3 active torsions:
REMARK  status: ('A' for Active; 'I' for Inactive)
REMARK    1  A    between atoms: N1_1  and  N2_4 
REMARK    2  A    between atoms: N2_4  and  O1_5 
REMARK    3  A    between atoms: N2_4  and  C1_7 
REMARK       I    between atoms: N5_13  and  C3_15 
ROOT
HETATM    1  C1  UNL     1       1.785  -0.082   0.010  1.00  0.00     0.265 A 
HETATM    2  N3  UNL     1       2.017  -0.090  -1.314  1.00  0.00    -0.263 N 
ATOM      3  H3  UNL     1       2.937  -0.066  -1.755  1.00  0.00     0.190 HD
HETATM    4  N4  UNL     1       0.847  -0.135  -1.960  1.00  0.00    -0.262 N 
ATOM      5  H4  UNL     1       0.713  -0.150  -2.971  1.00  0.00     0.190 HD
HETATM    6  C2  UNL     1      -0.112  -0.156  -1.031  1.00  0.00     0.248 A 
HETATM    7  N5  UNL     1      -1.400  -0.201  -1.264  1.00  0.00    -0.295 N 
ATOM      8  H5  UNL     1      -1.760  -0.224  -2.218  1.00  0.00     0.172 HD
HETATM    9  C3  UNL     1      -2.291  -0.217  -0.136  1.00  0.00     0.189 C 
HETATM   10  N6  UNL     1      -2.853  -1.306   0.264  1.00  0.00    -0.373 N 
ATOM     11  H61 UNL     1      -3.485  -1.317   1.064  1.00  0.00     0.158 HD
ATOM     12  H62 UNL     1      -2.647  -2.164  -0.247  1.00  0.00     0.158 HD
HETATM   13  N7  UNL     1      -2.578   0.981   0.578  1.00  0.00    -0.064 NA
HETATM   14  O2  UNL     1       0.484  -0.123   0.137  1.00  0.00    -0.246 OA
ENDROOT
BRANCH   1  15
HETATM   15  N2  UNL     1       2.785  -0.038   1.042  1.00  0.00    -0.033 NA
BRANCH  15  16
HETATM   16  N1  UNL     1       3.777   0.882   0.665  1.00  0.00    -0.333 NA
ATOM     17  H12 UNL     1       4.486   0.913   1.397  1.00  0.00     0.173 HD
ATOM     18  H11 UNL     1       3.406   1.811   0.467  1.00  0.00     0.173 HD
ENDBRANCH  15  16
BRANCH  15  19
HETATM   19  O1  UNL     1       3.269  -1.250   1.300  1.00  0.00    -0.287 OA
ATOM     20  H1  UNL     1       2.598  -1.872   1.555  1.00  0.00     0.239 HD
ENDBRANCH  15  19
ENDBRANCH   1  15
TORSDOF 3
