REMARK  2 active torsions:
REMARK  status: ('A' for Active; 'I' for Inactive)
REMARK       I    between atoms: C2_2  and  N1_4 
REMARK       I    between atoms: C3_6  and  N3_8 
REMARK    1  A    between atoms: N3_8  and  O2_10 
REMARK    2  A    between atoms: O2_10  and  C4_11 
ROOT
HETATM    1  C1  UNL     1       3.474  -0.946   0.440  1.00  0.00     0.117 C 
HETATM    2  C2  UNL     1       2.495  -0.428  -0.525  1.00  0.00     0.220 C 
HETATM    3  O1  UNL     1       2.286  -1.046  -1.582  1.00  0.00    -0.274 OA
HETATM    4  N1  UNL     1       1.802   0.762  -0.247  1.00  0.00    -0.300 N 
ATOM      5  H1  UNL     1       2.344   1.618  -0.133  1.00  0.00     0.171 HD
HETATM    6  C3  UNL     1       0.529   0.834  -0.128  1.00  0.00     0.215 C 
HETATM    7  N2  UNL     1      -0.115   2.059   0.152  1.00  0.00    -0.061 NA
HETATM    8  N3  UNL     1      -0.233  -0.344  -0.284  1.00  0.00    -0.229 N 
ATOM      9  H3  UNL     1       0.140  -1.251  -0.004  1.00  0.00     0.197 HD
ENDROOT
BRANCH   8  10
HETATM   10  O2  UNL     1      -1.508  -0.233  -0.831  1.00  0.00    -0.202 OA
BRANCH  10  11
HETATM   11  C4  UNL     1      -2.640  -0.335  -0.042  1.00  0.00     0.249 C 
HETATM   12  N4  UNL     1      -2.591  -1.098   0.983  1.00  0.00    -0.366 N 
ATOM     13  H42 UNL     1      -1.747  -1.620   1.219  1.00  0.00     0.159 HD
ATOM     14  H41 UNL     1      -3.426  -1.173   1.565  1.00  0.00     0.159 HD
HETATM   15  N5  UNL     1      -3.820   0.394  -0.372  1.00  0.00    -0.055 NA
ENDBRANCH  10  11
ENDBRANCH   8  10
TORSDOF 2
