REMARK  4 active torsions:
REMARK  status: ('A' for Active; 'I' for Inactive)
REMARK       I    between atoms: C2_2  and  N1_4 
REMARK    1  A    between atoms: N1_4  and  N2_6 
REMARK    2  A    between atoms: N2_6  and  C3_8 
REMARK    3  A    between atoms: C3_8  and  N3_10 
REMARK    4  A    between atoms: N3_10  and  N4_12 
ROOT
HETATM    1  N2  UNL     1       0.277  -0.488  -0.997  1.00  0.00    -0.273 N 
ATOM      2  H2  UNL     1       0.478  -0.653  -1.983  1.00  0.00     0.189 HD
ENDROOT
BRANCH   1   3
HETATM    3  N1  UNL     1      -0.984  -0.755  -0.487  1.00  0.00    -0.268 N 
HETATM    4  C2  UNL     1      -1.918   0.277  -0.242  1.00  0.00     0.232 C 
HETATM    5  C1  UNL     1      -3.252  -0.101   0.308  1.00  0.00     0.119 C 
HETATM    6  O1  UNL     1      -1.583   1.455  -0.496  1.00  0.00    -0.272 OA
ATOM      7  H1  UNL     1      -1.244  -1.720  -0.284  1.00  0.00     0.190 HD
ENDBRANCH   1   3
BRANCH   1   8
HETATM    8  C3  UNL     1       1.283   0.016  -0.138  1.00  0.00     0.205 C 
HETATM    9  S1  UNL     1       0.935   0.271   1.436  1.00  0.00    -0.038 SA
BRANCH   8  10
HETATM   10  N3  UNL     1       2.595   0.313  -0.586  1.00  0.00    -0.282 N 
ATOM     11  H3  UNL     1       2.853   0.168  -1.562  1.00  0.00     0.189 HD
BRANCH  10  12
HETATM   12  N4  UNL     1       3.524   0.804   0.322  1.00  0.00    -0.343 N 
ATOM     13  H42 UNL     1       3.250   0.943   1.295  1.00  0.00     0.176 HD
ATOM     14  H41 UNL     1       4.468   1.018  -0.000  1.00  0.00     0.176 HD
ENDBRANCH  10  12
ENDBRANCH   8  10
ENDBRANCH   1   8
TORSDOF 4
