REMARK  7 active torsions:
REMARK  status: ('A' for Active; 'I' for Inactive)
REMARK    1  A    between atoms: C2_2  and  O1_3 
REMARK    2  A    between atoms: O1_3  and  C3_4 
REMARK    3  A    between atoms: C3_4  and  C4_5 
REMARK    4  A    between atoms: C7_10  and  C8_11 
REMARK    5  A    between atoms: C11_18  and  N4_19 
REMARK    6  A    between atoms: N6_25  and  C13_27 
REMARK    7  A    between atoms: C13_27  and  C14_28 
ROOT
HETATM    1  C4  UNL     1      -1.444   0.105  -1.015  1.00  0.00     0.009 A 
HETATM    2  C5  UNL     1      -1.470  -0.208  -2.381  1.00  0.00     0.099 A 
HETATM    3  N1  UNL     1      -0.366  -0.521  -3.068  1.00  0.00    -0.374 N 
ATOM      4  H1  UNL     1      -0.423  -0.743  -4.062  1.00  0.00     0.164 HD
HETATM    5  C6  UNL     1       0.817  -0.539  -2.435  1.00  0.00     0.105 A 
HETATM    6  C7  UNL     1       0.924  -0.241  -1.090  1.00  0.00     0.051 A 
HETATM    7  C12 UNL     1      -0.241   0.088  -0.374  1.00  0.00     0.057 A 
HETATM    8  N6  UNL     1      -0.081   0.376   0.817  1.00  0.00    -0.360 N 
ATOM      9  H6  UNL     1       0.891   0.303   1.117  1.00  0.00     0.165 HD
ENDROOT
BRANCH   6  10
HETATM   10  C8  UNL     1       2.204  -0.284  -0.453  1.00  0.00     0.136 A 
HETATM   11  N2  UNL     1       3.341  -0.564  -1.178  1.00  0.00    -0.331 N 
HETATM   12  C9  UNL     1       4.554  -0.628  -0.629  1.00  0.00     0.095 A 
ATOM     13  H2  UNL     1       3.251  -0.730  -2.180  1.00  0.00     0.168 HD
HETATM   14  C10 UNL     1       5.785  -0.930  -1.410  1.00  0.00     0.089 C 
HETATM   15  N3  UNL     1       4.692  -0.416   0.674  1.00  0.00    -0.181 N 
HETATM   16  C11 UNL     1       3.607  -0.136   1.442  1.00  0.00     0.678 A 
ATOM     17  H3  UNL     1       5.617  -0.464   1.101  1.00  0.00     0.185 HD
HETATM   18  N5  UNL     1       2.407  -0.083   0.835  1.00  0.00    -0.176 N 
ATOM     19  H5  UNL     1       1.594   0.128   1.414  1.00  0.00     0.186 HD
BRANCH  16  20
HETATM   20  N4  UNL     1       3.807   0.059   2.698  1.00  0.00    -0.234 N 
ATOM     21  H42 UNL     1       4.716   0.019   3.158  1.00  0.00     0.174 HD
ATOM     22  H41 UNL     1       2.992   0.269   3.275  1.00  0.00     0.174 HD
ENDBRANCH  16  20
ENDBRANCH   6  10
BRANCH   1  23
HETATM   23  C3  UNL     1      -2.734   0.392  -0.403  1.00  0.00     0.210 C 
BRANCH  23  24
HETATM   24  O1  UNL     1      -3.777   0.328  -1.375  1.00  0.00    -0.387 OA
BRANCH  24  25
HETATM   25  C2  UNL     1      -4.997   0.607  -0.759  1.00  0.00     0.163 C 
HETATM   26  C1  UNL     1      -5.298  -0.389   0.346  1.00  0.00     0.033 C 
ENDBRANCH  24  25
ENDBRANCH  23  24
ENDBRANCH   1  23
BRANCH   8  27
HETATM   27  C13 UNL     1      -0.937   0.778   1.838  1.00  0.00     0.177 C 
BRANCH  27  28
HETATM   28  C14 UNL     1      -0.284   0.919   3.227  1.00  0.00     0.422 C 
HETATM   29  F1  UNL     1       0.688   1.880   3.119  1.00  0.00    -0.166 F 
HETATM   30  F2  UNL     1      -1.271   1.427   4.081  1.00  0.00    -0.166 F 
HETATM   31  F3  UNL     1       0.250  -0.239   3.681  1.00  0.00    -0.166 F 
ENDBRANCH  27  28
ENDBRANCH   8  27
TORSDOF 7
