REMARK  7 active torsions:
REMARK  status: ('A' for Active; 'I' for Inactive)
REMARK    1  A    between atoms: N1_1  and  C1_4 
REMARK    2  A    between atoms: N3_8  and  C3_10 
REMARK    3  A    between atoms: C3_10  and  C4_11 
REMARK    4  A    between atoms: N5_18  and  C7_19 
REMARK    5  A    between atoms: C7_19  and  C8_20 
REMARK    6  A    between atoms: C8_20  and  C9_21 
REMARK    7  A    between atoms: C9_21  and  N6_22 
ROOT
HETATM    1  C1  UNL     1       2.872  -1.148  -1.713  1.00  0.00     0.679 A 
HETATM    2  N2  UNL     1       3.928  -1.024  -0.909  1.00  0.00    -0.175 N 
ATOM      3  H2  UNL     1       4.860  -1.158  -1.300  1.00  0.00     0.186 HD
HETATM    4  C2  UNL     1       3.812  -0.730   0.396  1.00  0.00     0.147 A 
HETATM    5  N3  UNL     1       4.826  -0.600   1.184  1.00  0.00    -0.369 N 
ATOM      6  H3  UNL     1       4.646  -0.376   2.163  1.00  0.00     0.161 HD
HETATM    7  C5  UNL     1       2.539  -0.549   0.922  1.00  0.00     0.123 A 
HETATM    8  N4  UNL     1       2.094  -0.248   2.161  1.00  0.00    -0.346 N 
ATOM      9  H4  UNL     1       2.664  -0.093   2.992  1.00  0.00     0.167 HD
HETATM   10  C6  UNL     1       0.756  -0.193   2.085  1.00  0.00     0.185 A 
HETATM   11  N5  UNL     1       0.357  -0.454   0.829  1.00  0.00    -0.327 N 
HETATM   12  C14 UNL     1       1.426  -0.679   0.082  1.00  0.00     0.155 A 
HETATM   13  N7  UNL     1       1.646  -0.977  -1.216  1.00  0.00    -0.174 N 
ATOM     14  H7  UNL     1       0.845  -1.075  -1.840  1.00  0.00     0.186 HD
ENDROOT
BRANCH  11  15
HETATM   15  C7  UNL     1      -1.048  -0.500   0.321  1.00  0.00     0.133 C 
BRANCH  15  16
HETATM   16  C8  UNL     1      -1.429   0.845  -0.179  1.00  0.00     0.050 C 
BRANCH  16  17
HETATM   17  C9  UNL     1      -2.769   1.049  -0.775  1.00  0.00     0.274 C 
BRANCH  17  18
HETATM   18  N6  UNL     1      -3.865   0.860   0.067  1.00  0.00     0.088 N 
HETATM   19  C10 UNL     1      -4.292  -0.369   0.539  1.00  0.00     0.272 C 
HETATM   20  C11 UNL     1      -5.720  -0.121   1.060  1.00  0.00     0.032 C 
HETATM   21  C12 UNL     1      -6.008   1.346   0.737  1.00  0.00     0.032 C 
HETATM   22  C13 UNL     1      -5.072   1.523  -0.438  1.00  0.00     0.272 C 
ENDBRANCH  17  18
ENDBRANCH  16  17
ENDBRANCH  15  16
ENDBRANCH  11  15
BRANCH   1  23
HETATM   23  N1  UNL     1       3.012  -1.434  -2.984  1.00  0.00    -0.234 N 
ATOM     24  H12 UNL     1       3.949  -1.565  -3.364  1.00  0.00     0.174 HD
ATOM     25  H11 UNL     1       2.204  -1.529  -3.599  1.00  0.00     0.174 HD
ENDBRANCH   1  23
BRANCH   5  26
HETATM   26  C3  UNL     1       6.197  -0.752   0.765  1.00  0.00     0.192 C 
BRANCH  26  27
HETATM   27  C4  UNL     1       6.724   0.546   0.147  1.00  0.00     0.370 C 
HETATM   28  F1  UNL     1       6.644   1.539   1.093  1.00  0.00    -0.213 F 
HETATM   29  F2  UNL     1       8.003   0.312  -0.292  1.00  0.00    -0.213 F 
ENDBRANCH  26  27
ENDBRANCH   5  26
TORSDOF 7
