REMARK  8 active torsions:
REMARK  status: ('A' for Active; 'I' for Inactive)
REMARK    1  A    between atoms: N1_1  and  C1_4 
REMARK    2  A    between atoms: C2_7  and  O1_8 
REMARK    3  A    between atoms: O1_8  and  C3_9 
REMARK    4  A    between atoms: C3_9  and  C4_10 
REMARK    5  A    between atoms: C8_14  and  N3_15 
REMARK    6  A    between atoms: C11_18  and  C12_19 
REMARK    7  A    between atoms: C12_19  and  C13_20 
REMARK    8  A    between atoms: C13_20  and  N4_21 
ROOT
HETATM    1  C1  UNL     1       1.942   1.583   1.719  1.00  0.00     0.679 A 
HETATM    2  N2  UNL     1       2.945   0.948   1.069  1.00  0.00    -0.171 N 
ATOM      3  H2  UNL     1       3.910   1.116   1.353  1.00  0.00     0.186 HD
HETATM    4  C2  UNL     1       2.692   0.092   0.046  1.00  0.00     0.161 A 
HETATM    5  C7  UNL     1       1.376  -0.104  -0.301  1.00  0.00     0.105 A 
HETATM    6  C8  UNL     1       0.334   0.519   0.331  1.00  0.00     0.123 A 
HETATM    7  N5  UNL     1       0.673   1.358   1.341  1.00  0.00    -0.177 N 
ATOM      8  H5  UNL     1      -0.074   1.843   1.839  1.00  0.00     0.185 HD
ENDROOT
BRANCH   6   9
HETATM    9  N3  UNL     1      -1.037   0.362   0.037  1.00  0.00    -0.361 N 
HETATM   10  C9  UNL     1      -1.887  -0.534   0.834  1.00  0.00     0.125 C 
HETATM   11  C10 UNL     1      -3.072   0.357   1.228  1.00  0.00     0.030 C 
HETATM   12  C11 UNL     1      -3.972   0.440  -0.003  1.00  0.00     0.063 C 
HETATM   13  C14 UNL     1      -3.118   0.489  -1.220  1.00  0.00     0.263 C 
HETATM   14  F1  UNL     1      -3.774   1.313  -2.139  1.00  0.00    -0.204 F 
HETATM   15  F2  UNL     1      -2.980  -0.723  -1.865  1.00  0.00    -0.204 F 
HETATM   16  C15 UNL     1      -1.736   1.047  -1.031  1.00  0.00     0.203 C 
BRANCH  12  17
HETATM   17  C12 UNL     1      -4.910  -0.716   0.088  1.00  0.00     0.038 C 
BRANCH  17  18
HETATM   18  C13 UNL     1      -5.905  -0.844  -1.011  1.00  0.00     0.230 C 
BRANCH  18  19
HETATM   19  N4  UNL     1      -6.794   0.256  -1.159  1.00  0.00    -0.079 N 
ATOM     20  H43 UNL     1      -7.270   0.443  -0.276  1.00  0.00     0.274 HD
ATOM     21  H42 UNL     1      -6.265   1.122  -1.265  1.00  0.00     0.274 HD
ATOM     22  H41 UNL     1      -7.476   0.168  -1.912  1.00  0.00     0.274 HD
ENDBRANCH  18  19
ENDBRANCH  17  18
ENDBRANCH  12  17
ENDBRANCH   6   9
BRANCH   4  23
HETATM   23  O1  UNL     1       3.755  -0.547  -0.610  1.00  0.00    -0.335 OA
BRANCH  23  24
HETATM   24  C3  UNL     1       5.079  -0.288  -0.182  1.00  0.00     0.182 C 
BRANCH  24  25
HETATM   25  C4  UNL     1       6.096  -1.025  -1.001  1.00  0.00     0.010 A 
HETATM   26  C5  UNL     1       7.570  -0.764  -0.551  1.00  0.00     0.007 A 
HETATM   27  C6  UNL     1       6.936  -2.105  -0.487  1.00  0.00     0.007 A 
ENDBRANCH  24  25
ENDBRANCH  23  24
ENDBRANCH   4  23
BRANCH   1  28
HETATM   28  N1  UNL     1       2.131   2.403   2.695  1.00  0.00    -0.234 N 
ATOM     29  H12 UNL     1       3.095   2.574   2.982  1.00  0.00     0.174 HD
ATOM     30  H11 UNL     1       1.375   2.882   3.185  1.00  0.00     0.174 HD
ENDBRANCH   1  28
TORSDOF 8
