REMARK  9 active torsions:
REMARK  status: ('A' for Active; 'I' for Inactive)
REMARK    1  A    between atoms: O1_1  and  C1_3 
REMARK    2  A    between atoms: N1_5  and  C3_6 
REMARK    3  A    between atoms: C3_6  and  C4_7 
REMARK    4  A    between atoms: C4_7  and  C5_8 
REMARK    5  A    between atoms: C5_8  and  C6_9 
REMARK    6  A    between atoms: C7_14  and  C8_15 
REMARK    7  A    between atoms: C8_15  and  N2_16 
REMARK    8  A    between atoms: N2_16  and  C9_18 
REMARK    9  A    between atoms: C15_24  and  O3_25 
ROOT
HETATM    1  C1  UNL     1       1.462  -0.918  -1.991  1.00  0.00     0.190 C 
HETATM    2  C2  UNL     1       2.559  -0.201  -1.209  1.00  0.00     0.129 C 
HETATM    3  N1  UNL     1       2.335  -0.271   0.139  1.00  0.00    -0.245 N 
HETATM    4  O2  UNL     1       1.132   0.108   0.635  1.00  0.00    -0.261 OA
HETATM    5  C7  UNL     1       0.291   0.510  -0.439  1.00  0.00     0.222 C 
HETATM    6  C15 UNL     1       0.116  -0.736  -1.233  1.00  0.00     0.188 C 
ENDROOT
BRANCH   5   7
HETATM    7  C8  UNL     1      -0.877   1.286  -0.026  1.00  0.00     0.093 C 
BRANCH   7   8
HETATM    8  N2  UNL     1      -1.909   0.787   0.763  1.00  0.00    -0.395 N 
ATOM      9  H2  UNL     1      -1.965   1.051   1.747  1.00  0.00     0.159 HD
BRANCH   8  10
HETATM   10  C9  UNL     1      -2.887  -0.088   0.211  1.00  0.00     0.080 C 
HETATM   11  C10 UNL     1      -3.706   0.609  -0.873  1.00  0.00     0.025 C 
HETATM   12  C11 UNL     1      -4.825  -0.312  -1.296  1.00  0.00     0.002 C 
HETATM   13  C12 UNL     1      -5.819  -0.551  -0.201  1.00  0.00     0.000 C 
HETATM   14  C13 UNL     1      -5.245  -0.105   1.108  1.00  0.00     0.002 C 
HETATM   15  C14 UNL     1      -3.823  -0.531   1.311  1.00  0.00     0.025 C 
ENDBRANCH   8  10
ENDBRANCH   7   8
ENDBRANCH   5   7
BRANCH   6  16
HETATM   16  O3  UNL     1       0.062  -1.821  -0.304  1.00  0.00    -0.390 OA
ATOM     17  H3  UNL     1      -0.760  -1.710   0.159  1.00  0.00     0.210 HD
ENDBRANCH   6  16
BRANCH   3  18
HETATM   18  C3  UNL     1       3.291  -0.698   1.037  1.00  0.00     0.122 C 
BRANCH  18  19
HETATM   19  C4  UNL     1       4.455  -0.037   1.559  1.00  0.00     0.024 C 
BRANCH  19  20
HETATM   20  C5  UNL     1       5.678   0.465   1.003  1.00  0.00     0.090 C 
BRANCH  20  21
HETATM   21  C6  UNL     1       5.904   1.528   0.039  1.00  0.00     0.408 C 
HETATM   22  F1  UNL     1       5.430   1.446  -1.216  1.00  0.00    -0.167 F 
HETATM   23  F2  UNL     1       5.509   2.800   0.582  1.00  0.00    -0.167 F 
HETATM   24  F3  UNL     1       7.313   1.742  -0.116  1.00  0.00    -0.167 F 
ENDBRANCH  20  21
ENDBRANCH  19  20
ENDBRANCH  18  19
ENDBRANCH   3  18
BRANCH   1  25
HETATM   25  O1  UNL     1       1.368  -0.525  -3.310  1.00  0.00    -0.388 OA
ATOM     26  H1  UNL     1       0.685  -0.971  -3.797  1.00  0.00     0.210 HD
ENDBRANCH   1  25
TORSDOF 9
