REMARK  5 active torsions:
REMARK  status: ('A' for Active; 'I' for Inactive)
REMARK    1  A    between atoms: C2_3  and  C3_4 
REMARK    2  A    between atoms: C7_9  and  O1_10 
REMARK    3  A    between atoms: O1_10  and  C8_11 
REMARK    4  A    between atoms: C8_11  and  C9_12 
REMARK    5  A    between atoms: C9_12  and  C10_13 
ROOT
HETATM    1  C3  UNL     1       3.969   0.215   0.392  1.00  0.00     0.034 A 
HETATM    2  C4  UNL     1       4.382   1.005  -0.654  1.00  0.00     0.019 A 
HETATM    3  C5  UNL     1       3.558   2.008  -1.186  1.00  0.00     0.030 A 
HETATM    4  C6  UNL     1       2.313   2.204  -0.651  1.00  0.00     0.081 A 
HETATM    5  N2  UNL     1       1.447   3.203  -1.154  1.00  0.00    -0.099 NA
HETATM    6  C7  UNL     1       1.841   1.432   0.409  1.00  0.00     0.115 A 
HETATM    7  C19 UNL     1       2.675   0.469   0.898  1.00  0.00     0.083 A 
HETATM    8 CL1  UNL     1       2.204  -0.537   2.279  1.00  0.00    -0.080 Cl
ENDROOT
BRANCH   6   9
HETATM    9  O1  UNL     1       0.613   1.678   0.886  1.00  0.00    -0.347 OA
BRANCH   9  10
HETATM   10  C8  UNL     1      -0.651   1.234   0.489  1.00  0.00     0.176 C 
BRANCH  10  11
HETATM   11  C9  UNL     1      -0.834  -0.223   0.553  1.00  0.00     0.032 C 
BRANCH  11  12
HETATM   12  C10 UNL     1      -2.161  -0.739   0.083  1.00  0.00    -0.006 C 
HETATM   13  C11 UNL     1      -2.530  -0.452  -1.323  1.00  0.00     0.042 C 
HETATM   14  C12 UNL     1      -3.770  -1.195  -1.693  1.00  0.00     0.174 C 
HETATM   15  F1  UNL     1      -4.305  -0.541  -2.814  1.00  0.00    -0.249 F 
HETATM   16  C13 UNL     1      -4.841  -1.288  -0.684  1.00  0.00     0.020 C 
HETATM   17  C14 UNL     1      -5.761  -0.117  -0.597  1.00  0.00     0.007 C 
HETATM   18  C18 UNL     1      -4.350  -1.524   0.742  1.00  0.00     0.012 C 
HETATM   19  C15 UNL     1      -5.351   0.970   0.319  1.00  0.00     0.001 C 
HETATM   20  C16 UNL     1      -3.926   0.943   0.771  1.00  0.00     0.005 C 
HETATM   21  C17 UNL     1      -3.328  -0.398   0.965  1.00  0.00    -0.010 C 
ENDBRANCH  11  12
ENDBRANCH  10  11
ENDBRANCH   9  10
ENDBRANCH   6   9
BRANCH   1  22
HETATM   22  C2  UNL     1       4.763  -0.816   1.028  1.00  0.00     0.136 A 
HETATM   23  N1  UNL     1       6.068  -1.067   0.953  1.00  0.00    -0.311 N 
HETATM   24  C1  UNL     1       7.111  -0.404   0.214  1.00  0.00     0.160 C 
HETATM   25  C20 UNL     1       6.351  -2.136   1.769  1.00  0.00     0.194 A 
HETATM   26  N4  UNL     1       5.214  -2.526   2.334  1.00  0.00    -0.274 N 
HETATM   27  S1  UNL     1       7.786  -2.850   2.043  1.00  0.00    -0.039 SA
HETATM   28  N3  UNL     1       4.286  -1.739   1.890  1.00  0.00    -0.282 N 
ATOM     29  H4  UNL     1       5.095  -3.297   2.991  1.00  0.00     0.189 HD
ATOM     30  H3  UNL     1       3.305  -1.809   2.161  1.00  0.00     0.188 HD
ENDBRANCH   1  22
TORSDOF 5
