REMARK  6 active torsions:
REMARK  status: ('A' for Active; 'I' for Inactive)
REMARK    1  A    between atoms: C4_5  and  N1_6 
REMARK    2  A    between atoms: N1_6  and  C5_8 
REMARK    3  A    between atoms: C9_13  and  N3_14 
REMARK    4  A    between atoms: N3_14  and  C10_16 
REMARK    5  A    between atoms: C16_24  and  O1_25 
REMARK    6  A    between atoms: O1_25  and  C17_26 
ROOT
HETATM    1  C5  UNL     1       2.258  -0.112   1.702  1.00  0.00     0.038 A 
HETATM    2  C6  UNL     1       1.408  -1.067   2.187  1.00  0.00     0.054 A 
HETATM    3  C7  UNL     1       0.049  -1.037   1.976  1.00  0.00     0.075 A 
HETATM    4  C8  UNL     1      -0.775  -2.102   2.554  1.00  0.00     0.102 C 
HETATM    5  N2  UNL     1      -1.411  -2.947   3.032  1.00  0.00    -0.191 NA
HETATM    6  C9  UNL     1      -0.507  -0.010   1.246  1.00  0.00     0.083 A 
HETATM    7  C16 UNL     1       0.307   0.978   0.738  1.00  0.00     0.099 A 
HETATM    8  C22 UNL     1       1.708   0.907   0.980  1.00  0.00     0.068 A 
ENDROOT
BRANCH   6   9
HETATM    9  N3  UNL     1      -1.910  -0.006   1.041  1.00  0.00    -0.382 N 
ATOM     10  H3  UNL     1      -2.454   0.634   1.620  1.00  0.00     0.160 HD
BRANCH   9  11
HETATM   11  C10 UNL     1      -2.640  -0.800   0.113  1.00  0.00     0.082 C 
HETATM   12  C11 UNL     1      -4.120  -0.393   0.114  1.00  0.00     0.031 C 
HETATM   13  C12 UNL     1      -4.871  -1.158  -0.937  1.00  0.00     0.081 C 
HETATM   14  C13 UNL     1      -4.159  -2.363  -1.455  1.00  0.00     0.243 C 
HETATM   15  F1  UNL     1      -4.875  -2.803  -2.577  1.00  0.00    -0.206 F 
HETATM   16  F2  UNL     1      -4.205  -3.432  -0.561  1.00  0.00    -0.206 F 
HETATM   17  C14 UNL     1      -2.758  -2.094  -1.929  1.00  0.00     0.081 C 
HETATM   18  C15 UNL     1      -2.179  -0.837  -1.293  1.00  0.00     0.031 C 
ENDBRANCH   9  11
ENDBRANCH   6   9
BRANCH   1  19
HETATM   19  N1  UNL     1       3.653  -0.220   1.966  1.00  0.00    -0.336 N 
ATOM     20  H1  UNL     1       4.134   0.403   2.615  1.00  0.00     0.168 HD
BRANCH  19  21
HETATM   21  C4  UNL     1       4.281  -1.177   1.316  1.00  0.00     0.149 A 
HETATM   22  S1  UNL     1       3.664  -2.308   0.199  1.00  0.00    -0.064 SA
HETATM   23  C3  UNL     1       5.117  -3.142  -0.137  1.00  0.00     0.077 A 
HETATM   24  C2  UNL     1       6.015  -2.478   0.655  1.00  0.00     0.014 A 
HETATM   25  C1  UNL     1       7.468  -2.918   0.656  1.00  0.00     0.068 C 
HETATM   26  N4  UNL     1       5.576  -1.492   1.379  1.00  0.00    -0.340 N 
ATOM     27  H4  UNL     1       6.209  -0.969   1.984  1.00  0.00     0.167 HD
ENDBRANCH  19  21
ENDBRANCH   1  19
BRANCH   7  28
HETATM   28  O1  UNL     1      -0.053   2.056   0.017  1.00  0.00    -0.344 OA
BRANCH  28  29
HETATM   29  C17 UNL     1      -1.106   2.707  -0.490  1.00  0.00     0.129 C 
HETATM   30  C18 UNL     1      -1.123   2.836  -2.007  1.00  0.00     0.032 C 
HETATM   31  C19 UNL     1      -0.682   4.245  -2.329  1.00  0.00     0.002 C 
HETATM   32  C20 UNL     1      -0.280   4.831  -1.017  1.00  0.00     0.002 C 
HETATM   33  C21 UNL     1      -1.214   4.169  -0.037  1.00  0.00     0.032 C 
ENDBRANCH  28  29
ENDBRANCH   7  28
TORSDOF 6
