REMARK  7 active torsions:
REMARK  status: ('A' for Active; 'I' for Inactive)
REMARK    1  A    between atoms: N1_2  and  C2_4 
REMARK    2  A    between atoms: C7_10  and  C8_11 
REMARK    3  A    between atoms: C8_11  and  C11_15 
REMARK    4  A    between atoms: C13_17  and  O1_18 
REMARK    5  A    between atoms: C16_21  and  O2_22 
REMARK    6  A    between atoms: N3_26  and  C20_27 
REMARK    7  A    between atoms: C23_30  and  O3_31 
ROOT
HETATM    1  C8  UNL     1      -0.490  -1.554   0.017  1.00  0.00    -0.003 C 
HETATM    2  C9  UNL     1      -0.108  -2.731  -0.391  1.00  0.00     0.106 C 
HETATM    3  C10 UNL     1       1.279  -3.105  -0.510  1.00  0.00     0.088 C 
HETATM    4  N2  UNL     1       2.403  -3.430  -0.599  1.00  0.00    -0.192 NA
ENDROOT
BRANCH   1   5
HETATM    5  C7  UNL     1       0.459  -0.518   0.373  1.00  0.00     0.006 A 
HETATM    6  C6  UNL     1       1.461   0.121  -0.312  1.00  0.00     0.039 A 
HETATM    7  C5  UNL     1       2.220   0.885   0.570  1.00  0.00     0.051 A 
HETATM    8  C23 UNL     1       1.780   0.146  -1.652  1.00  0.00     0.108 A 
HETATM    9  C4  UNL     1       3.263   1.634   0.089  1.00  0.00     0.075 A 
HETATM   10  N3  UNL     1       1.670   0.715   1.801  1.00  0.00    -0.350 N 
HETATM   11  C3  UNL     1       3.617   1.683  -1.238  1.00  0.00     0.147 A 
HETATM   12  C2  UNL     1       2.855   0.925  -2.099  1.00  0.00     0.101 A 
HETATM   13  F1  UNL     1       4.659   2.434  -1.696  1.00  0.00    -0.204 F 
HETATM   14  C19 UNL     1       0.633  -0.103   1.714  1.00  0.00     0.105 A 
BRANCH  12  15
HETATM   15  N1  UNL     1       3.188   0.950  -3.478  1.00  0.00    -0.390 N 
HETATM   16  C1  UNL     1       4.120   0.031  -4.091  1.00  0.00     0.146 C 
ATOM     17  H1  UNL     1       2.746   1.654  -4.069  1.00  0.00     0.159 HD
ENDBRANCH  12  15
BRANCH  10  18
HETATM   18  C20 UNL     1       2.220   1.382   2.975  1.00  0.00     0.090 A 
HETATM   19  C21 UNL     1       2.278   2.876   2.854  1.00  0.00     0.028 A 
HETATM   20  C22 UNL     1       1.363   2.224   3.829  1.00  0.00     0.028 A 
ENDBRANCH  10  18
BRANCH   8  21
HETATM   21  O3  UNL     1       1.055  -0.576  -2.570  1.00  0.00    -0.357 OA
ATOM     22  H3  UNL     1       0.326  -1.104  -2.267  1.00  0.00     0.217 HD
ENDBRANCH   8  21
ENDBRANCH   1   5
BRANCH   1  23
HETATM   23  C11 UNL     1      -1.902  -1.246   0.129  1.00  0.00    -0.019 A 
HETATM   24  C12 UNL     1      -2.891  -2.150  -0.132  1.00  0.00     0.049 A 
HETATM   25  C13 UNL     1      -4.236  -1.856  -0.038  1.00  0.00     0.071 A 
HETATM   26  C15 UNL     1      -4.599  -0.582   0.339  1.00  0.00     0.073 A 
HETATM   27  C16 UNL     1      -3.648   0.385   0.619  1.00  0.00     0.071 A 
HETATM   28  C18 UNL     1      -2.307   0.024   0.505  1.00  0.00     0.049 A 
BRANCH  25  29
HETATM   29  O1  UNL     1      -5.187  -2.813  -0.314  1.00  0.00    -0.356 OA
HETATM   30  C14 UNL     1      -4.766  -4.104  -0.697  1.00  0.00     0.210 C 
ENDBRANCH  25  29
BRANCH  27  31
HETATM   31  O2  UNL     1      -4.078   1.629   0.988  1.00  0.00    -0.356 OA
HETATM   32  C17 UNL     1      -3.279   2.726   1.306  1.00  0.00     0.210 C 
ENDBRANCH  27  31
ENDBRANCH   1  23
TORSDOF 7
