REMARK  13 active torsions:
REMARK  status: ('A' for Active; 'I' for Inactive)
REMARK    1  A    between atoms: C3_4  and  N2_5 
REMARK    2  A    between atoms: N2_5  and  C4_7 
REMARK    3  A    between atoms: C6_11  and  C7_12 
REMARK    4  A    between atoms: C7_12  and  O1_13 
REMARK    5  A    between atoms: C10_20  and  N6_21 
REMARK    6  A    between atoms: C11_26  and  N8_27 
REMARK    7  A    between atoms: N10_33  and  C13_34 
REMARK    8  A    between atoms: C13_34  and  C14_35 
REMARK       I    between atoms: C14_35  and  N11_37 
REMARK    9  A    between atoms: N11_37  and  C15_39 
REMARK   10  A    between atoms: C15_39  and  C16_40 
REMARK   11  A    between atoms: C19_43  and  N12_44 
REMARK   12  A    between atoms: N13_47  and  O5_48 
REMARK   13  A    between atoms: O5_48  and  O6_49 
ROOT
HETATM    1  C1  UNL     1      -0.474  -1.662   2.493  1.00  0.00     0.231 C 
HETATM    2  N1  UNL     1      -0.678  -1.735   1.355  1.00  0.00    -0.407 NA
HETATM    3  C2  UNL     1      -0.943  -1.837  -0.013  1.00  0.00     0.226 A 
HETATM    4  C3  UNL     1      -2.201  -1.435  -0.413  1.00  0.00     0.180 A 
HETATM    5  N5  UNL     1      -2.538  -1.502  -1.717  1.00  0.00    -0.332 N 
ATOM      6  H5  UNL     1      -3.465  -1.208  -2.025  1.00  0.00     0.168 HD
HETATM    7  C9  UNL     1      -1.640  -1.960  -2.607  1.00  0.00     0.124 A 
HETATM    8  C10 UNL     1      -1.908  -2.058  -3.956  1.00  0.00     0.145 A 
HETATM    9  N7  UNL     1      -0.978  -2.525  -4.832  1.00  0.00    -0.175 N 
ATOM     10  H7  UNL     1      -1.212  -2.583  -5.823  1.00  0.00     0.186 HD
HETATM   11  C11 UNL     1       0.243  -2.912  -4.421  1.00  0.00     0.679 A 
HETATM   12  N9  UNL     1       0.554  -2.836  -3.113  1.00  0.00    -0.174 N 
ATOM     13  H9  UNL     1       1.483  -3.134  -2.816  1.00  0.00     0.186 HD
HETATM   14  C12 UNL     1      -0.307  -2.384  -2.177  1.00  0.00     0.157 A 
HETATM   15  N10 UNL     1      -0.026  -2.299  -0.882  1.00  0.00    -0.294 N 
ENDROOT
BRANCH   4  16
HETATM   16  N2  UNL     1      -3.176  -0.946   0.495  1.00  0.00    -0.171 N 
ATOM     17  H2  UNL     1      -3.825  -1.574   0.970  1.00  0.00     0.186 HD
BRANCH  16  18
HETATM   18  C4  UNL     1      -3.206   0.344   0.696  1.00  0.00     0.686 A 
HETATM   19  N3  UNL     1      -2.424   1.294   0.152  1.00  0.00    -0.200 N 
HETATM   20  C5  UNL     1      -2.794   2.479   0.633  1.00  0.00     0.134 A 
ATOM     21  H3  UNL     1      -1.672   1.133  -0.518  1.00  0.00     0.183 HD
HETATM   22  C6  UNL     1      -3.843   2.300   1.512  1.00  0.00     0.068 A 
HETATM   23  N4  UNL     1      -4.072   0.975   1.529  1.00  0.00    -0.188 N 
HETATM   24  C8  UNL     1      -5.108   0.352   2.338  1.00  0.00     0.175 C 
BRANCH  22  25
HETATM   25  C7  UNL     1      -4.553   3.360   2.270  1.00  0.00     0.223 C 
BRANCH  25  26
HETATM   26  O1  UNL     1      -5.637   3.848   1.542  1.00  0.00    -0.395 OA
ATOM     27  H1  UNL     1      -6.092   4.527   2.027  1.00  0.00     0.209 HD
ENDBRANCH  25  26
ENDBRANCH  22  25
ENDBRANCH  16  18
ENDBRANCH   4  16
BRANCH  15  28
HETATM   28  C13 UNL     1       1.270  -2.702  -0.398  1.00  0.00     0.236 C 
BRANCH  28  29
HETATM   29  C14 UNL     1       2.226  -1.558  -0.407  1.00  0.00     0.236 C 
HETATM   30  O2  UNL     1       1.808  -0.444  -0.812  1.00  0.00    -0.272 OA
HETATM   31  N11 UNL     1       3.556  -1.704   0.022  1.00  0.00    -0.354 N 
ATOM     32  H11 UNL     1       3.857  -2.625   0.341  1.00  0.00     0.162 HD
BRANCH  31  33
HETATM   33  C15 UNL     1       4.513  -0.644   0.039  1.00  0.00     0.182 C 
BRANCH  33  34
HETATM   34  C16 UNL     1       4.081   0.469   0.952  1.00  0.00     0.063 A 
HETATM   35  C17 UNL     1       3.034   0.494   1.849  1.00  0.00     0.033 A 
HETATM   36  C18 UNL     1       3.007   1.721   2.476  1.00  0.00     0.059 A 
HETATM   37  C19 UNL     1       4.050   2.457   1.958  1.00  0.00     0.203 A 
HETATM   38  N13 UNL     1       4.669   1.680   1.053  1.00  0.00    -0.171 N 
BRANCH  37  39
HETATM   39  N12 UNL     1       4.405   3.807   2.323  1.00  0.00    -0.096 N 
HETATM   40  O3  UNL     1       3.741   4.393   3.172  1.00  0.00    -0.530 OA
HETATM   41  O4  UNL     1       5.462   4.426   1.735  1.00  0.00    -0.530 OA
ENDBRANCH  37  39
BRANCH  38  42
HETATM   42  O5  UNL     1       5.763   2.075   0.323  1.00  0.00    -0.106 OA
BRANCH  42  43
HETATM   43  O6  UNL     1       6.736   1.228  -0.037  1.00  0.00    -0.226 OA
ATOM     44  H6  UNL     1       7.493   1.501  -0.542  1.00  0.00     0.256 HD
ENDBRANCH  42  43
ENDBRANCH  38  42
ENDBRANCH  33  34
ENDBRANCH  31  33
ENDBRANCH  28  29
ENDBRANCH  15  28
BRANCH   8  45
HETATM   45  N6  UNL     1      -3.064  -1.696  -4.375  1.00  0.00    -0.383 N 
ATOM     46  H62 UNL     1      -3.761  -1.346  -3.718  1.00  0.00     0.157 HD
ATOM     47  H61 UNL     1      -3.262  -1.768  -5.373  1.00  0.00     0.157 HD
ENDBRANCH   8  45
BRANCH  11  48
HETATM   48  N8  UNL     1       1.129  -3.361  -5.278  1.00  0.00    -0.234 N 
ATOM     49  H82 UNL     1       0.893  -3.419  -6.269  1.00  0.00     0.174 HD
ATOM     50  H81 UNL     1       2.055  -3.654  -4.966  1.00  0.00     0.174 HD
ENDBRANCH  11  48
TORSDOF 13
