REMARK  11 active torsions:
REMARK  status: ('A' for Active; 'I' for Inactive)
REMARK    1  A    between atoms: O1_2  and  C2_3 
REMARK    2  A    between atoms: C4_5  and  C5_6 
REMARK       I    between atoms: C5_6  and  N1_8 
REMARK    3  A    between atoms: N1_8  and  N2_10 
REMARK    4  A    between atoms: N2_10  and  C6_12 
REMARK    5  A    between atoms: C7_13  and  O3_14 
REMARK    6  A    between atoms: N3_16  and  O4_17 
REMARK    7  A    between atoms: O4_17  and  C8_18 
REMARK    8  A    between atoms: C14_28  and  N5_29 
REMARK    9  A    between atoms: N5_29  and  C15_31 
REMARK   10  A    between atoms: C15_31  and  C16_32 
REMARK   11  A    between atoms: C20_42  and  O10_43 
ROOT
HETATM    1  C2  UNL     1      -1.399   0.589   3.012  1.00  0.00     0.104 A 
HETATM    2  C3  UNL     1      -0.646   0.737   1.848  1.00  0.00     0.057 A 
HETATM    3  C4  UNL     1      -1.095   0.224   0.654  1.00  0.00     0.038 A 
HETATM    4  C13 UNL     1      -2.307  -0.431   0.668  1.00  0.00     0.049 A 
HETATM    5  C14 UNL     1      -3.069  -0.587   1.821  1.00  0.00     0.065 A 
HETATM    6  C20 UNL     1      -2.608  -0.069   3.009  1.00  0.00     0.125 A 
ENDROOT
BRANCH   3   7
HETATM    7  C5  UNL     1      -0.341   0.352  -0.603  1.00  0.00     0.270 C 
HETATM    8  O2  UNL     1      -0.797  -0.225  -1.613  1.00  0.00    -0.266 OA
HETATM    9  N1  UNL     1       0.856   1.096  -0.690  1.00  0.00    -0.265 N 
ATOM     10  H1  UNL     1       1.232   1.571   0.130  1.00  0.00     0.190 HD
BRANCH   9  11
HETATM   11  N2  UNL     1       1.515   1.170  -1.916  1.00  0.00    -0.289 N 
ATOM     12  H2  UNL     1       1.066   1.689  -2.671  1.00  0.00     0.187 HD
BRANCH  11  13
HETATM   13  C6  UNL     1       2.766   0.570  -2.176  1.00  0.00     0.170 A 
HETATM   14  C7  UNL     1       3.421  -0.159  -1.177  1.00  0.00     0.207 A 
HETATM   15  N3  UNL     1       4.613  -0.740  -1.392  1.00  0.00    -0.135 N 
HETATM   16  C10 UNL     1       5.174  -0.606  -2.607  1.00  0.00     0.358 A 
HETATM   17  O6  UNL     1       6.294  -1.145  -2.830  1.00  0.00    -0.244 OA
HETATM   18  N4  UNL     1       4.554   0.098  -3.592  1.00  0.00    -0.267 N 
HETATM   19  C11 UNL     1       5.199   0.211  -4.880  1.00  0.00     0.165 C 
HETATM   20  C12 UNL     1       3.362   0.692  -3.411  1.00  0.00     0.283 A 
HETATM   21  O7  UNL     1       2.797   1.349  -4.351  1.00  0.00    -0.265 OA
BRANCH  14  22
HETATM   22  O3  UNL     1       2.832  -0.287   0.061  1.00  0.00    -0.343 OA
ATOM     23  H3  UNL     1       3.277  -0.782   0.739  1.00  0.00     0.219 HD
ENDBRANCH  14  22
BRANCH  15  24
HETATM   24  O4  UNL     1       5.185  -1.435  -0.356  1.00  0.00    -0.187 OA
BRANCH  24  25
HETATM   25  C8  UNL     1       6.254  -0.880   0.350  1.00  0.00     0.278 C 
HETATM   26  C9  UNL     1       6.910  -1.594   1.482  1.00  0.00     0.128 C 
HETATM   27  O5  UNL     1       6.641   0.254  -0.016  1.00  0.00    -0.264 OA
ENDBRANCH  24  25
ENDBRANCH  15  24
ENDBRANCH  11  13
ENDBRANCH   9  11
ENDBRANCH   3   7
BRANCH   1  28
HETATM   28  O1  UNL     1      -0.947   1.107   4.224  1.00  0.00    -0.353 OA
HETATM   29  C1  UNL     1       0.283   1.781   4.248  1.00  0.00     0.210 C 
ENDBRANCH   1  28
BRANCH   5  30
HETATM   30  N5  UNL     1      -4.309  -1.283   1.817  1.00  0.00    -0.383 N 
ATOM     31  H5  UNL     1      -4.787  -1.420   2.708  1.00  0.00     0.160 HD
BRANCH  30  32
HETATM   32  C15 UNL     1      -4.923  -1.801   0.639  1.00  0.00     0.165 C 
BRANCH  32  33
HETATM   33  C16 UNL     1      -5.494  -0.813  -0.279  1.00  0.00     0.043 A 
HETATM   34  C17 UNL     1      -5.485   0.527   0.017  1.00  0.00     0.107 A 
HETATM   35  N6  UNL     1      -6.047   1.422  -0.853  1.00  0.00    -0.318 N 
HETATM   36  C18 UNL     1      -6.602   0.988  -1.985  1.00  0.00     0.326 A 
ATOM     37  H6  UNL     1      -6.041   2.419  -0.636  1.00  0.00     0.170 HD
HETATM   38  O8  UNL     1      -7.107   1.863  -2.753  1.00  0.00    -0.247 OA
HETATM   39  N7  UNL     1      -6.639  -0.315  -2.324  1.00  0.00    -0.275 N 
HETATM   40  C19 UNL     1      -6.092  -1.199  -1.481  1.00  0.00     0.258 A 
ATOM     41  H7  UNL     1      -7.071  -0.619  -3.197  1.00  0.00     0.173 HD
HETATM   42  O9  UNL     1      -6.099  -2.439  -1.753  1.00  0.00    -0.267 OA
ENDBRANCH  32  33
ENDBRANCH  30  32
ENDBRANCH   5  30
BRANCH   6  43
HETATM   43  O10 UNL     1      -3.340  -0.199   4.200  1.00  0.00    -0.356 OA
ATOM     44  H10 UNL     1      -4.174  -0.653   4.198  1.00  0.00     0.218 HD
ENDBRANCH   6  43
TORSDOF 11
