REMARK  12 active torsions:
REMARK  status: ('A' for Active; 'I' for Inactive)
REMARK    1  A    between atoms: C2_2  and  C3_3 
REMARK    2  A    between atoms: C3_3  and  N1_4 
REMARK    3  A    between atoms: C5_10  and  N3_11 
REMARK    4  A    between atoms: N3_11  and  N4_13 
REMARK    5  A    between atoms: N6_20  and  C7_21 
REMARK    6  A    between atoms: C7_21  and  O3_22 
REMARK    7  A    between atoms: C7_21  and  C8_24 
REMARK    8  A    between atoms: C8_24  and  S2_25 
REMARK    9  A    between atoms: S2_25  and  C9_26 
REMARK   10  A    between atoms: C10_31  and  C11_32 
REMARK   11  A    between atoms: C11_32  and  C12_33 
REMARK   12  A    between atoms: C13_35  and  N9_36 
ROOT
HETATM    1  C7  UNL     1      -1.148   0.481  -0.163  1.00  0.00     0.134 C 
ENDROOT
BRANCH   1   2
HETATM    2  N6  UNL     1      -2.173  -0.172   0.479  1.00  0.00    -0.289 N 
HETATM    3  C2  UNL     1      -3.081  -1.199   0.182  1.00  0.00     0.087 C 
HETATM    4  C1  UNL     1      -2.689  -2.419   1.005  1.00  0.00     0.044 C 
HETATM    5  C4  UNL     1      -4.449  -0.775   0.622  1.00  0.00     0.165 A 
HETATM    6  N2  UNL     1      -5.080   0.152  -0.248  1.00  0.00    -0.215 N 
HETATM    7  C6  UNL     1      -4.429  -0.114   1.948  1.00  0.00     0.209 A 
HETATM    8  C5  UNL     1      -5.547   1.241   0.535  1.00  0.00     0.689 A 
ATOM      9  H2  UNL     1      -5.180   0.053  -1.258  1.00  0.00     0.178 HD
HETATM   10  N5  UNL     1      -5.180   1.092   1.775  1.00  0.00    -0.208 N 
ATOM     11  H5  UNL     1      -5.399   1.748   2.525  1.00  0.00     0.179 HD
HETATM   12  S1  UNL     1      -2.668   0.274   2.175  1.00  0.00    -0.022 SA
BRANCH   3  13
HETATM   13  C3  UNL     1      -3.081  -1.582  -1.248  1.00  0.00     0.235 C 
BRANCH  13  14
HETATM   14  N1  UNL     1      -3.980  -2.646  -1.635  1.00  0.00    -0.153 N 
HETATM   15  O1  UNL     1      -4.642  -3.311  -0.853  1.00  0.00    -0.536 OA
HETATM   16  O2  UNL     1      -4.062  -2.922  -2.979  1.00  0.00    -0.536 OA
ENDBRANCH  13  14
ENDBRANCH   3  13
BRANCH   8  17
HETATM   17  N3  UNL     1      -6.309   2.374   0.111  1.00  0.00    -0.139 N 
ATOM     18  H3  UNL     1      -5.812   3.213  -0.188  1.00  0.00     0.205 HD
BRANCH  17  19
HETATM   19  N4  UNL     1      -7.701   2.379   0.089  1.00  0.00    -0.331 N 
ATOM     20  H42 UNL     1      -8.182   1.531   0.391  1.00  0.00     0.177 HD
ATOM     21  H41 UNL     1      -8.245   3.187  -0.213  1.00  0.00     0.177 HD
ENDBRANCH  17  19
ENDBRANCH   8  17
ENDBRANCH   1   2
BRANCH   1  22
HETATM   22  O3  UNL     1      -0.556   1.406   0.551  1.00  0.00    -0.348 OA
ATOM     23  H3  UNL     1       0.152   1.857   0.107  1.00  0.00     0.219 HD
ENDBRANCH   1  22
BRANCH   1  24
HETATM   24  C8  UNL     1      -0.573   0.355  -1.500  1.00  0.00     0.167 C 
BRANCH  24  25
HETATM   25  S2  UNL     1       0.873  -0.774  -1.476  1.00  0.00    -0.084 SA
BRANCH  25  26
HETATM   26  C9  UNL     1       2.206  -0.096  -0.532  1.00  0.00     0.160 A 
HETATM   27  N7  UNL     1       2.396  -0.296   0.794  1.00  0.00    -0.278 N 
HETATM   28  N8  UNL     1       3.467   0.335   1.195  1.00  0.00    -0.287 N 
ATOM     29  H7  UNL     1       1.791  -0.858   1.393  1.00  0.00     0.189 HD
HETATM   30  C10 UNL     1       4.019   0.978   0.126  1.00  0.00     0.102 A 
ATOM     31  H8  UNL     1       3.830   0.345   2.148  1.00  0.00     0.188 HD
HETATM   32  N12 UNL     1       3.229   0.695  -0.906  1.00  0.00    -0.324 N 
ATOM     33  H12 UNL     1       3.379   1.033  -1.857  1.00  0.00     0.169 HD
BRANCH  30  34
HETATM   34  C11 UNL     1       5.241   1.792   0.207  1.00  0.00     0.127 C 
BRANCH  34  35
HETATM   35  C12 UNL     1       6.409   0.879  -0.087  1.00  0.00     0.034 A 
HETATM   36  S3  UNL     1       7.355   0.736  -1.499  1.00  0.00    -0.055 SA
HETATM   37  C13 UNL     1       8.409  -0.492  -0.968  1.00  0.00     0.143 A 
HETATM   38  N10 UNL     1       7.987  -0.739   0.275  1.00  0.00    -0.325 N 
HETATM   39  C14 UNL     1       6.977  -0.055   0.736  1.00  0.00     0.132 A 
ATOM     40  H10 UNL     1       8.444  -1.446   0.850  1.00  0.00     0.169 HD
HETATM   41  N11 UNL     1       6.430  -0.241   2.080  1.00  0.00    -0.082 NA
BRANCH  37  42
HETATM   42  N9  UNL     1       9.408  -1.079  -1.598  1.00  0.00    -0.380 N 
ATOM     43  H92 UNL     1       9.730  -0.890  -2.547  1.00  0.00     0.158 HD
ATOM     44  H91 UNL     1      10.039  -1.814  -1.280  1.00  0.00     0.158 HD
ENDBRANCH  37  42
ENDBRANCH  34  35
ENDBRANCH  30  34
ENDBRANCH  25  26
ENDBRANCH  24  25
ENDBRANCH   1  24
TORSDOF 12
