REMARK  12 active torsions:
REMARK  status: ('A' for Active; 'I' for Inactive)
REMARK    1  A    between atoms: C2_2  and  C3_3 
REMARK    2  A    between atoms: C3_3  and  N1_4 
REMARK    3  A    between atoms: N1_4  and  C4_5 
REMARK    4  A    between atoms: C6_15  and  C7_16 
REMARK       I    between atoms: C7_16  and  N5_18 
REMARK    5  A    between atoms: N5_18  and  C8_20 
REMARK    6  A    between atoms: C8_20  and  C9_21 
REMARK    7  A    between atoms: C9_21  and  C10_22 
REMARK    8  A    between atoms: C11_25  and  C12_26 
REMARK    9  A    between atoms: C14_28  and  C15_29 
REMARK   10  A    between atoms: C15_29  and  O4_31 
REMARK   11  A    between atoms: C18_36  and  N8_37 
REMARK   12  A    between atoms: C19_43  and  N11_44 
ROOT
HETATM    1  C10 UNL     1      -0.030   0.615   1.940  1.00  0.00     0.099 A 
HETATM    2  N6  UNL     1       1.258   0.838   1.539  1.00  0.00    -0.328 N 
ATOM      3  H6  UNL     1       1.549   1.135   0.608  1.00  0.00     0.169 HD
HETATM    4  C11 UNL     1       2.076   0.600   2.579  1.00  0.00     0.149 A 
HETATM    5  N13 UNL     1       1.288   0.237   3.595  1.00  0.00    -0.282 N 
ATOM      6  H13 UNL     1       1.619  -0.010   4.528  1.00  0.00     0.188 HD
HETATM    7  N14 UNL     1       0.013   0.243   3.221  1.00  0.00    -0.287 N 
ATOM      8  H14 UNL     1      -0.788   0.006   3.807  1.00  0.00     0.188 HD
ENDROOT
BRANCH   4   9
HETATM    9  C12 UNL     1       3.524   0.729   2.527  1.00  0.00     0.095 C 
HETATM   10  C13 UNL     1       4.078   1.129   1.312  1.00  0.00     0.055 C 
HETATM   11  C14 UNL     1       5.328   0.863   0.791  1.00  0.00     0.088 C 
HETATM   12  C17 UNL     1       6.275  -0.013   1.329  1.00  0.00     0.177 A 
HETATM   13  N7  UNL     1       7.236  -0.578   0.605  1.00  0.00    -0.172 N 
HETATM   14  N10 UNL     1       6.332  -0.392   2.612  1.00  0.00    -0.054 N 
HETATM   15  C18 UNL     1       7.935  -1.353   1.473  1.00  0.00     0.693 A 
ATOM     16  H7  UNL     1       7.411  -0.455  -0.392  1.00  0.00     0.186 HD
HETATM   17  N9  UNL     1       7.375  -1.233   2.692  1.00  0.00    -0.110 N 
ATOM     18  H9  UNL     1       7.692  -1.705   3.539  1.00  0.00     0.207 HD
HETATM   19  C19 UNL     1       5.539  -0.043   3.660  1.00  0.00     0.700 C 
HETATM   20  N12 UNL     1       4.267   0.469   3.617  1.00  0.00    -0.186 N 
ATOM     21  H12 UNL     1       3.834   0.677   4.517  1.00  0.00     0.184 HD
BRANCH  11  22
HETATM   22  C15 UNL     1       5.694   1.554  -0.433  1.00  0.00     0.296 C 
HETATM   23  O3  UNL     1       4.868   2.361  -0.926  1.00  0.00    -0.259 OA
BRANCH  22  24
HETATM   24  O4  UNL     1       6.890   1.357  -1.057  1.00  0.00    -0.322 OA
HETATM   25  C16 UNL     1       7.232   2.049  -2.267  1.00  0.00     0.213 C 
ENDBRANCH  22  24
ENDBRANCH  11  22
BRANCH  15  26
HETATM   26  N8  UNL     1       8.970  -2.104   1.232  1.00  0.00    -0.233 N 
ATOM     27  H82 UNL     1       9.394  -2.195   0.309  1.00  0.00     0.174 HD
ATOM     28  H81 UNL     1       9.495  -2.686   1.884  1.00  0.00     0.174 HD
ENDBRANCH  15  26
BRANCH  19  29
HETATM   29  N11 UNL     1       6.056  -0.215   4.821  1.00  0.00    -0.233 N 
ATOM     30 2H11 UNL     1       7.002  -0.596   4.853  1.00  0.00     0.174 HD
ATOM     31 1H11 UNL     1       5.461   0.047   5.607  1.00  0.00     0.174 HD
ENDBRANCH  19  29
ENDBRANCH   4   9
BRANCH   1  32
HETATM   32  C9  UNL     1      -1.221   0.766   1.043  1.00  0.00     0.097 C 
BRANCH  32  33
HETATM   33  C8  UNL     1      -1.459  -0.572   0.396  1.00  0.00     0.130 C 
BRANCH  33  34
HETATM   34  N5  UNL     1      -2.617  -0.467  -0.535  1.00  0.00    -0.355 N 
HETATM   35  C7  UNL     1      -3.012  -1.609  -1.222  1.00  0.00     0.275 C 
HETATM   36  O2  UNL     1      -2.299  -2.668  -0.977  1.00  0.00    -0.266 OA
ATOM     37  H5  UNL     1      -3.107   0.418  -0.665  1.00  0.00     0.162 HD
BRANCH  35  38
HETATM   38  C6  UNL     1      -4.081  -1.820  -2.171  1.00  0.00     0.180 A 
HETATM   39  C4  UNL     1      -5.189  -1.014  -2.243  1.00  0.00     0.215 A 
HETATM   40  N2  UNL     1      -6.091  -1.319  -3.261  1.00  0.00    -0.294 N 
HETATM   41  C5  UNL     1      -5.922  -2.303  -4.108  1.00  0.00     0.243 A 
ATOM     42  H2  UNL     1      -6.929  -0.744  -3.351  1.00  0.00     0.172 HD
HETATM   43  N3  UNL     1      -6.789  -2.568  -5.058  1.00  0.00    -0.364 N 
HETATM   44  O1  UNL     1      -4.838  -3.046  -3.988  1.00  0.00    -0.200 OA
ATOM     45  H32 UNL     1      -7.627  -1.994  -5.151  1.00  0.00     0.159 HD
ATOM     46  H31 UNL     1      -6.657  -3.335  -5.718  1.00  0.00     0.159 HD
HETATM   47  N4  UNL     1      -3.966  -2.828  -3.082  1.00  0.00    -0.248 N 
ATOM     48  H4  UNL     1      -3.147  -3.434  -3.037  1.00  0.00     0.195 HD
BRANCH  39  49
HETATM   49  N1  UNL     1      -5.515  -0.102  -1.526  1.00  0.00    -0.401 NA
BRANCH  49  50
HETATM   50  C3  UNL     1      -5.876   0.908  -0.732  1.00  0.00     0.157 C 
BRANCH  50  51
HETATM   51  C2  UNL     1      -7.324   1.420  -0.908  1.00  0.00     0.055 C 
HETATM   52  C1  UNL     1      -8.324   0.338  -0.638  1.00  0.00     0.011 C 
ENDBRANCH  50  51
ENDBRANCH  49  50
ENDBRANCH  39  49
ENDBRANCH  35  38
ENDBRANCH  33  34
ENDBRANCH  32  33
ENDBRANCH   1  32
TORSDOF 12
