REMARK  13 active torsions:
REMARK  status: ('A' for Active; 'I' for Inactive)
REMARK    1  A    between atoms: O1_2  and  C2_3 
REMARK    2  A    between atoms: C2_3  and  C3_5 
REMARK    3  A    between atoms: C3_5  and  C16_39 
REMARK    4  A    between atoms: N1_6  and  N2_8 
REMARK    5  A    between atoms: N2_8  and  C4_10 
REMARK    6  A    between atoms: C4_10  and  C5_15 
REMARK    7  A    between atoms: N3_11  and  O3_13 
REMARK    8  A    between atoms: C7_21  and  N6_22 
REMARK    9  A    between atoms: C11_29  and  N8_30 
REMARK   10  A    between atoms: N8_30  and  C12_32 
REMARK   11  A    between atoms: C12_32  and  C13_33 
REMARK   12  A    between atoms: C13_33  and  N9_34 
REMARK       I    between atoms: N9_34  and  C14_36 
REMARK   13  A    between atoms: C16_39  and  S1_43 
ROOT
HETATM    1  C5  UNL     1      -0.070   1.555  -0.826  1.00  0.00     0.141 A 
HETATM    2  N4  UNL     1       0.023   2.770  -1.347  1.00  0.00    -0.183 N 
ATOM      3  H4  UNL     1       0.877   3.174  -1.731  1.00  0.00     0.184 HD
HETATM    4  C6  UNL     1      -1.158   3.390  -1.299  1.00  0.00     0.693 A 
HETATM    5  N5  UNL     1      -1.464   4.625  -1.734  1.00  0.00    -0.176 N 
ATOM      6  H5  UNL     1      -0.731   5.198  -2.152  1.00  0.00     0.186 HD
HETATM    7  C7  UNL     1      -2.700   5.125  -1.635  1.00  0.00     0.116 A 
HETATM    8  C8  UNL     1      -3.619   4.284  -1.061  1.00  0.00     0.074 A 
HETATM    9  C9  UNL     1      -3.331   3.003  -0.603  1.00  0.00     0.036 A 
HETATM   10  C10 UNL     1      -4.408   2.158  -0.052  1.00  0.00     0.069 C 
HETATM   11  N7  UNL     1      -2.068   2.552  -0.725  1.00  0.00    -0.134 N 
HETATM   12  C11 UNL     1      -1.440   1.408  -0.416  1.00  0.00     0.156 A 
ENDROOT
BRANCH   1  13
HETATM   13  C4  UNL     1       1.004   0.606  -0.709  1.00  0.00     0.171 C 
HETATM   14  N3  UNL     1       1.721   0.287  -1.760  1.00  0.00    -0.250 N 
ATOM     15  H3  UNL     1       2.509  -0.357  -1.691  1.00  0.00     0.196 HD
BRANCH  13  16
HETATM   16  N2  UNL     1       1.427  -0.023   0.505  1.00  0.00    -0.281 N 
ATOM     17  H2  UNL     1       0.702  -0.346   1.146  1.00  0.00     0.188 HD
BRANCH  16  18
HETATM   18  N1  UNL     1       2.708  -0.220   0.864  1.00  0.00    -0.291 N 
HETATM   19  C3  UNL     1       3.487  -1.190   1.046  1.00  0.00     0.164 C 
ATOM     20  H1  UNL     1       3.181   0.667   1.037  1.00  0.00     0.187 HD
BRANCH  19  21
HETATM   21  C2  UNL     1       4.860  -0.786   1.458  1.00  0.00     0.314 C 
HETATM   22  O2  UNL     1       5.799  -1.561   1.676  1.00  0.00    -0.257 OA
BRANCH  21  23
HETATM   23  O1  UNL     1       5.165   0.579   1.628  1.00  0.00    -0.321 OA
HETATM   24  C1  UNL     1       6.458   0.953   2.016  1.00  0.00     0.213 C 
ENDBRANCH  21  23
ENDBRANCH  19  21
BRANCH  19  25
HETATM   25  C16 UNL     1       3.160  -2.594   0.837  1.00  0.00     0.178 C 
HETATM   26  N10 UNL     1       2.007  -2.901   0.381  1.00  0.00    -0.386 N 
ATOM     27 2H10 UNL     1       1.404  -2.111   0.149  1.00  0.00     0.157 HD
ATOM     28 1H10 UNL     1       1.778  -3.884   0.235  1.00  0.00     0.157 HD
BRANCH  25  29
HETATM   29  S1  UNL     1       4.189  -3.942   1.233  1.00  0.00     0.156 S 
HETATM   30  O5  UNL     1       3.316  -5.220   1.163  1.00  0.00    -0.590 OA
HETATM   31  O6  UNL     1       4.849  -3.890   2.544  1.00  0.00    -0.590 OA
HETATM   32  O7  UNL     1       5.321  -4.162   0.019  1.00  0.00    -0.590 OA
ENDBRANCH  25  29
ENDBRANCH  19  25
ENDBRANCH  16  18
ENDBRANCH  13  16
BRANCH  14  33
HETATM   33  O3  UNL     1       1.367   0.856  -2.954  1.00  0.00    -0.288 OA
ATOM     34  H3  UNL     1       1.886   0.625  -3.715  1.00  0.00     0.244 HD
ENDBRANCH  14  33
ENDBRANCH   1  13
BRANCH  12  35
HETATM   35  N8  UNL     1      -1.867   0.227   0.130  1.00  0.00    -0.372 N 
ATOM     36  H8  UNL     1      -1.158  -0.473  -0.090  1.00  0.00     0.161 HD
BRANCH  35  37
HETATM   37  C12 UNL     1      -2.870  -0.428   0.866  1.00  0.00     0.141 C 
BRANCH  37  38
HETATM   38  C13 UNL     1      -2.424  -1.838   1.340  1.00  0.00     0.142 C 
BRANCH  38  39
HETATM   39  N9  UNL     1      -2.098  -2.663   0.218  1.00  0.00    -0.360 N 
HETATM   40  C14 UNL     1      -2.995  -3.033  -0.797  1.00  0.00     0.213 C 
HETATM   41  C15 UNL     1      -2.557  -3.904  -1.944  1.00  0.00     0.117 C 
HETATM   42  O4  UNL     1      -4.194  -2.681  -0.830  1.00  0.00    -0.274 OA
ATOM     43  H9  UNL     1      -1.141  -3.009   0.150  1.00  0.00     0.162 HD
ENDBRANCH  38  39
ENDBRANCH  37  38
ENDBRANCH  35  37
ENDBRANCH  12  35
BRANCH   7  44
HETATM   44  N6  UNL     1      -2.973   6.309  -2.054  1.00  0.00    -0.385 N 
ATOM     45  H62 UNL     1      -2.290   6.934  -2.481  1.00  0.00     0.157 HD
ATOM     46  H61 UNL     1      -3.916   6.690  -1.978  1.00  0.00     0.157 HD
ENDBRANCH   7  44
TORSDOF 13
