REMARK  13 active torsions:
REMARK  status: ('A' for Active; 'I' for Inactive)
REMARK    1  A    between atoms: C1_4  and  C2_6 
REMARK    2  A    between atoms: C3_7  and  C4_8 
REMARK    3  A    between atoms: C4_8  and  N3_9 
REMARK    4  A    between atoms: N3_9  and  O1_11 
REMARK    5  A    between atoms: O1_11  and  C5_12 
REMARK    6  A    between atoms: C5_12  and  C6_13 
REMARK    7  A    between atoms: C5_12  and  C12_33 
REMARK       I    between atoms: C6_13  and  N4_15 
REMARK    8  A    between atoms: N4_15  and  C7_17 
REMARK    9  A    between atoms: C9_24  and  N7_25 
REMARK   10  A    between atoms: C11_29  and  N8_30 
REMARK   11  A    between atoms: C15_36  and  O7_37 
REMARK   12  A    between atoms: C16_39  and  O8_40 
REMARK   13  A    between atoms: N10_46  and  O10_47 
ROOT
HETATM    1  C5  UNL     1      -0.106   0.848   0.687  1.00  0.00     0.277 C 
ENDROOT
BRANCH   1   2
HETATM    2  O1  UNL     1      -0.774  -0.062  -0.129  1.00  0.00    -0.261 OA
BRANCH   2   3
HETATM    3  N3  UNL     1      -1.628  -1.035   0.243  1.00  0.00    -0.274 N 
ATOM      4  H3  UNL     1      -1.226  -1.955   0.421  1.00  0.00     0.193 HD
BRANCH   3   5
HETATM    5  C4  UNL     1      -2.913  -0.917   0.397  1.00  0.00     0.148 C 
BRANCH   5   6
HETATM    6  C3  UNL     1      -3.653  -2.097   0.805  1.00  0.00     0.108 A 
HETATM    7  C2  UNL     1      -4.980  -2.231   1.029  1.00  0.00     0.160 A 
HETATM    8  N10 UNL     1      -5.179  -3.526   1.390  1.00  0.00    -0.096 N 
HETATM    9  O9  UNL     1      -4.036  -4.141   1.385  1.00  0.00    -0.127 OA
HETATM   10  N9  UNL     1      -3.091  -3.323   1.040  1.00  0.00    -0.236 N 
ATOM     11  H9  UNL     1      -2.101  -3.553   0.958  1.00  0.00     0.197 HD
BRANCH   7  12
HETATM   12  C1  UNL     1      -6.017  -1.224   0.918  1.00  0.00     0.144 C 
HETATM   13  N1  UNL     1      -5.800  -0.020   0.579  1.00  0.00    -0.386 N 
ATOM     14  H12 UNL     1      -6.530   0.689   0.501  1.00  0.00     0.157 HD
ATOM     15  H11 UNL     1      -4.840   0.257   0.372  1.00  0.00     0.157 HD
HETATM   16  N2  UNL     1      -7.351  -1.609   1.206  1.00  0.00    -0.081 NA
ENDBRANCH   7  12
BRANCH   8  17
HETATM   17  O10 UNL     1      -6.387  -4.100   1.709  1.00  0.00    -0.261 OA
ATOM     18  H10 UNL     1      -6.526  -5.005   1.961  1.00  0.00     0.247 HD
ENDBRANCH   8  17
ENDBRANCH   5   6
ENDBRANCH   3   5
ENDBRANCH   2   3
ENDBRANCH   1   2
BRANCH   1  19
HETATM   19  C6  UNL     1       1.397   0.573   0.623  1.00  0.00     0.259 C 
HETATM   20  O2  UNL     1       2.106   1.326   1.297  1.00  0.00    -0.270 OA
HETATM   21  N4  UNL     1       1.860  -0.477  -0.165  1.00  0.00    -0.308 N 
ATOM     22  H4  UNL     1       1.154  -0.994  -0.688  1.00  0.00     0.170 HD
BRANCH  21  23
HETATM   23  C7  UNL     1       3.187  -0.906  -0.322  1.00  0.00     0.143 A 
HETATM   24  N5  UNL     1       4.226  -0.394   0.360  1.00  0.00    -0.325 N 
HETATM   25  C8  UNL     1       5.509  -0.820   0.273  1.00  0.00     0.134 A 
ATOM     26  H5  UNL     1       4.032   0.380   0.996  1.00  0.00     0.169 HD
HETATM   27  N6  UNL     1       6.450  -0.247   0.986  1.00  0.00    -0.383 N 
HETATM   28  C9  UNL     1       5.809  -1.861  -0.572  1.00  0.00     0.148 A 
ATOM     29  H62 UNL     1       6.227   0.526   1.613  1.00  0.00     0.157 HD
ATOM     30  H61 UNL     1       7.416  -0.568   0.920  1.00  0.00     0.157 HD
HETATM   31  C10 UNL     1       4.800  -2.422  -1.290  1.00  0.00     0.080 A 
HETATM   32  C11 UNL     1       3.465  -1.968  -1.192  1.00  0.00     0.149 A 
BRANCH  28  33
HETATM   33  N7  UNL     1       7.131  -2.364  -0.715  1.00  0.00    -0.112 N 
HETATM   34  O3  UNL     1       8.077  -1.562  -0.580  1.00  0.00    -0.532 OA
HETATM   35  O4  UNL     1       7.337  -3.696  -0.994  1.00  0.00    -0.532 OA
ENDBRANCH  28  33
BRANCH  32  36
HETATM   36  N8  UNL     1       2.490  -2.612  -1.978  1.00  0.00    -0.112 N 
HETATM   37  O5  UNL     1       2.715  -3.852  -2.216  1.00  0.00    -0.532 OA
HETATM   38  O6  UNL     1       1.347  -2.146  -2.523  1.00  0.00    -0.532 OA
ENDBRANCH  32  36
ENDBRANCH  21  23
ENDBRANCH   1  19
BRANCH   1  39
HETATM   39  C12 UNL     1      -0.296   2.239   0.234  1.00  0.00    -0.015 A 
HETATM   40  C13 UNL     1      -0.613   3.225   1.151  1.00  0.00     0.013 A 
HETATM   41  C14 UNL     1      -0.793   4.533   0.754  1.00  0.00     0.040 A 
HETATM   42  C15 UNL     1      -0.668   4.924  -0.564  1.00  0.00     0.098 A 
HETATM   43  C16 UNL     1      -0.350   3.922  -1.476  1.00  0.00     0.099 A 
HETATM   44  C17 UNL     1      -0.170   2.621  -1.084  1.00  0.00     0.049 A 
BRANCH  42  45
HETATM   45  O7  UNL     1      -0.850   6.241  -0.966  1.00  0.00    -0.358 OA
ATOM     46  H7  UNL     1      -0.764   6.510  -1.873  1.00  0.00     0.217 HD
ENDBRANCH  42  45
BRANCH  43  47
HETATM   47  O8  UNL     1      -0.224   4.318  -2.808  1.00  0.00    -0.358 OA
ATOM     48  H8  UNL     1      -0.007   3.634  -3.431  1.00  0.00     0.217 HD
ENDBRANCH  43  47
ENDBRANCH   1  39
TORSDOF 13
