REMARK  13 active torsions:
REMARK  status: ('A' for Active; 'I' for Inactive)
REMARK    1  A    between atoms: N1_2  and  N2_3 
REMARK    2  A    between atoms: N1_2  and  C2_6 
REMARK    3  A    between atoms: C2_6  and  O1_7 
REMARK    4  A    between atoms: C2_6  and  N3_9 
REMARK    5  A    between atoms: N3_9  and  N4_10 
REMARK       I    between atoms: N4_10  and  C3_11 
REMARK    6  A    between atoms: C3_11  and  C4_13 
REMARK    7  A    between atoms: N7_17  and  C5_18 
REMARK    8  A    between atoms: C7_28  and  C8_29 
REMARK    9  A    between atoms: C8_29  and  S1_30 
REMARK   10  A    between atoms: S1_30  and  C9_31 
REMARK   11  A    between atoms: C9_31  and  C10_32 
REMARK   12  A    between atoms: C11_37  and  C12_38 
REMARK   13  A    between atoms: C15_41  and  O4_42 
ROOT
HETATM    1  C4  UNL     1      -1.707  -0.402   0.615  1.00  0.00     0.157 A 
HETATM    2  N5  UNL     1      -1.859  -0.056  -0.706  1.00  0.00    -0.276 N 
ATOM      3  H5  UNL     1      -2.244   0.828  -1.039  1.00  0.00     0.184 HD
HETATM    4  N6  UNL     1      -1.430  -1.042  -1.485  1.00  0.00    -0.013 NA
HETATM    5  N7  UNL     1      -1.007  -2.029  -0.668  1.00  0.00    -0.220 N 
HETATM    6  C7  UNL     1      -1.171  -1.595   0.619  1.00  0.00     0.078 A 
ENDROOT
BRANCH   6   7
HETATM    7  C8  UNL     1      -0.801  -2.363   1.837  1.00  0.00     0.140 C 
BRANCH   7   8
HETATM    8  S1  UNL     1       1.061  -2.641   1.776  1.00  0.00    -0.132 SA
BRANCH   8   9
HETATM    9  C9  UNL     1       1.838  -1.495   0.682  1.00  0.00     0.095 C 
BRANCH   9  10
HETATM   10  C10 UNL     1       2.545  -0.288   1.163  1.00  0.00     0.127 A 
HETATM   11  N11 UNL     1       2.342   0.771   1.904  1.00  0.00    -0.283 N 
HETATM   12  N12 UNL     1       3.396   1.622   1.793  1.00  0.00    -0.283 N 
ATOM     13  H11 UNL     1       1.516   0.934   2.479  1.00  0.00     0.188 HD
HETATM   14  C11 UNL     1       4.306   1.110   0.965  1.00  0.00     0.132 A 
ATOM     15  H12 UNL     1       3.478   2.519   2.272  1.00  0.00     0.188 HD
HETATM   16  N13 UNL     1       3.784  -0.050   0.586  1.00  0.00    -0.325 N 
ATOM     17  H13 UNL     1       4.243  -0.695  -0.058  1.00  0.00     0.169 HD
BRANCH  14  18
HETATM   18  C12 UNL     1       5.645   1.613   0.597  1.00  0.00     0.009 A 
HETATM   19  C13 UNL     1       6.140   2.824   0.885  1.00  0.00     0.018 A 
HETATM   20  C14 UNL     1       7.486   3.124   0.625  1.00  0.00     0.037 A 
HETATM   21  C15 UNL     1       8.354   2.201   0.076  1.00  0.00     0.065 A 
HETATM   22  C16 UNL     1       7.835   0.960  -0.223  1.00  0.00     0.037 A 
HETATM   23  C17 UNL     1       6.535   0.683   0.026  1.00  0.00     0.018 A 
BRANCH  21  24
HETATM   24  O4  UNL     1       9.684   2.448  -0.173  1.00  0.00    -0.361 OA
ATOM     25  H4  UNL     1      10.281   1.813  -0.551  1.00  0.00     0.217 HD
ENDBRANCH  21  24
ENDBRANCH  14  18
ENDBRANCH   9  10
ENDBRANCH   8   9
ENDBRANCH   7   8
ENDBRANCH   6   7
BRANCH   1  26
HETATM   26  C3  UNL     1      -2.459   0.469   1.698  1.00  0.00     0.380 C 
HETATM   27  N4  UNL     1      -3.569   0.871   0.925  1.00  0.00    -0.198 NA
HETATM   28  O2  UNL     1      -2.020   0.564   2.731  1.00  0.00    -0.246 OA
BRANCH  27  29
HETATM   29  N3  UNL     1      -4.551   1.253   0.313  1.00  0.00    -0.197 NA
BRANCH  29  30
HETATM   30  C2  UNL     1      -5.644   1.652  -0.452  1.00  0.00     0.350 C 
BRANCH  30  31
HETATM   31  N1  UNL     1      -6.825   2.295  -0.244  1.00  0.00    -0.253 N 
HETATM   32  C1  UNL     1      -7.550   2.808  -1.465  1.00  0.00     0.182 C 
BRANCH  31  33
HETATM   33  N2  UNL     1      -7.498   2.503   0.940  1.00  0.00    -0.339 N 
ATOM     34  H22 UNL     1      -8.383   2.985   1.096  1.00  0.00     0.177 HD
ATOM     35  H21 UNL     1      -7.008   2.156   1.765  1.00  0.00     0.177 HD
ENDBRANCH  31  33
ENDBRANCH  30  31
BRANCH  30  36
HETATM   36  O1  UNL     1      -5.456   1.316  -1.757  1.00  0.00    -0.318 OA
ATOM     37  H1  UNL     1      -4.631   0.867  -1.902  1.00  0.00     0.222 HD
ENDBRANCH  30  36
ENDBRANCH  29  30
ENDBRANCH  27  29
ENDBRANCH   1  26
BRANCH   5  38
HETATM   38  C5  UNL     1      -0.897  -3.348  -1.138  1.00  0.00     0.193 A 
HETATM   39  N8  UNL     1       0.006  -4.276  -1.365  1.00  0.00    -0.221 N 
HETATM   40  O3  UNL     1      -0.588  -5.363  -1.852  1.00  0.00    -0.153 OA
ATOM     41  H8  UNL     1       1.007  -4.178  -1.194  1.00  0.00     0.198 HD
HETATM   42  N9  UNL     1      -1.868  -5.221  -1.969  1.00  0.00    -0.222 N 
HETATM   43  C6  UNL     1      -2.113  -4.003  -1.541  1.00  0.00     0.169 A 
ATOM     44  H9  UNL     1      -2.540  -5.905  -2.317  1.00  0.00     0.198 HD
HETATM   45  N10 UNL     1      -3.266  -3.399  -1.475  1.00  0.00    -0.381 N 
ATOM     46 2H10 UNL     1      -3.456  -2.454  -1.143  1.00  0.00     0.157 HD
ATOM     47 1H10 UNL     1      -4.128  -3.863  -1.761  1.00  0.00     0.157 HD
ENDBRANCH   5  38
TORSDOF 13
