REMARK  0 active torsions:
REMARK  status: ('A' for Active; 'I' for Inactive)
REMARK       I    between atoms: C2_4  and  N3_6 
REMARK       I    between atoms: C3_8  and  N5_10 
ROOT
HETATM    1  C1  UNL     1      -3.048  -0.570   0.645  1.00  0.00     0.148 C 
HETATM    2  N1  UNL     1      -1.631  -0.353   0.480  1.00  0.00    -0.369 N 
ATOM      3  H1  UNL     1      -0.963  -1.029   0.851  1.00  0.00     0.161 HD
HETATM    4  C2  UNL     1      -1.214   0.691  -0.134  1.00  0.00     0.190 C 
HETATM    5  N2  UNL     1      -2.132   1.626  -0.647  1.00  0.00    -0.063 NA
HETATM    6  N3  UNL     1       0.179   0.917  -0.304  1.00  0.00    -0.305 N 
ATOM      7  H3  UNL     1       0.476   1.828  -0.654  1.00  0.00     0.171 HD
HETATM    8  C3  UNL     1       1.086   0.049  -0.045  1.00  0.00     0.190 C 
HETATM    9  N4  UNL     1       0.800  -1.246   0.444  1.00  0.00    -0.063 NA
HETATM   10  N5  UNL     1       2.438   0.430  -0.269  1.00  0.00    -0.369 N 
ATOM     11  H5  UNL     1       2.666   1.139  -0.966  1.00  0.00     0.161 HD
HETATM   12  C4  UNL     1       3.488  -0.203   0.507  1.00  0.00     0.148 C 
ENDROOT
TORSDOF 0
