REMARK  6 active torsions:
REMARK  status: ('A' for Active; 'I' for Inactive)
REMARK    1  A    between atoms: C2_2  and  C3_3 
REMARK    2  A    between atoms: C2_2  and  N2_19 
REMARK    3  A    between atoms: C3_3  and  N1_4 
REMARK    4  A    between atoms: N1_4  and  C4_6 
REMARK    5  A    between atoms: C10_12  and  C11_13 
REMARK       I    between atoms: N2_19  and  C15_21 
REMARK       I    between atoms: C15_21  and  N3_23 
REMARK    6  A    between atoms: N3_23  and  C16_25 
ROOT
HETATM    1  C1  UNL     1       0.834  -0.027  -3.564  1.00  0.00     0.034 C 
HETATM    2  C2  UNL     1       0.435   0.632  -2.270  1.00  0.00     0.099 C 
ENDROOT
BRANCH   2   3
HETATM    3  C3  UNL     1       1.638   0.903  -1.363  1.00  0.00     0.139 C 
BRANCH   3   4
HETATM    4  N1  UNL     1       2.261  -0.327  -1.071  1.00  0.00    -0.415 N 
ATOM      5  H1  UNL     1       1.897  -1.193  -1.468  1.00  0.00     0.153 HD
BRANCH   4   6
HETATM    6  C4  UNL     1       3.385  -0.355  -0.231  1.00  0.00     0.085 C 
HETATM    7  C5  UNL     1       3.032   0.150   1.179  1.00  0.00     0.064 C 
HETATM    8  C6  UNL     1       4.425   0.195   1.751  1.00  0.00    -0.049 A 
HETATM    9  C7  UNL     1       4.901   0.024   3.022  1.00  0.00     0.008 A 
HETATM   10  C13 UNL     1       5.320   0.466   0.724  1.00  0.00    -0.038 A 
HETATM   11  C8  UNL     1       6.259   0.120   3.287  1.00  0.00     0.001 A 
HETATM   12  C9  UNL     1       7.149   0.389   2.271  1.00  0.00     0.014 A 
HETATM   13  C10 UNL     1       6.667   0.560   0.995  1.00  0.00     0.019 A 
HETATM   14  C14 UNL     1       4.505   0.595  -0.544  1.00  0.00     0.065 C 
BRANCH  13  15
HETATM   15  C11 UNL     1       7.580   0.854  -0.142  1.00  0.00     0.268 C 
HETATM   16  C12 UNL     1       8.996   0.911   0.378  1.00  0.00     0.096 C 
HETATM   17  F1  UNL     1       7.493  -0.157  -1.074  1.00  0.00    -0.201 F 
HETATM   18  F2  UNL     1       7.259   2.095  -0.705  1.00  0.00    -0.201 F 
ENDBRANCH  13  15
ENDBRANCH   4   6
ENDBRANCH   3   4
ENDBRANCH   2   3
BRANCH   2  19
HETATM   19  N2  UNL     1      -0.584  -0.105  -1.552  1.00  0.00    -0.337 N 
HETATM   20  C15 UNL     1      -1.881   0.431  -1.341  1.00  0.00     0.316 C 
HETATM   21  O1  UNL     1      -2.176   1.556  -1.782  1.00  0.00    -0.247 OA
HETATM   22  N3  UNL     1      -2.850  -0.351  -0.605  1.00  0.00    -0.336 N 
ATOM     23  H3  UNL     1      -2.566  -1.267  -0.259  1.00  0.00     0.164 HD
ATOM     24  H2  UNL     1      -0.364  -1.032  -1.189  1.00  0.00     0.164 HD
BRANCH  22  25
HETATM   25  C16 UNL     1      -4.173   0.085  -0.338  1.00  0.00     0.120 C 
HETATM   26  C17 UNL     1      -4.487   0.318   1.154  1.00  0.00     0.298 C 
HETATM   27  N4  UNL     1      -5.675  -0.235   1.809  1.00  0.00     0.096 N 
HETATM   28  C18 UNL     1      -5.179  -1.551   2.201  1.00  0.00     0.274 C 
HETATM   29  C24 UNL     1      -6.863  -0.666   1.022  1.00  0.00     0.241 C 
HETATM   30  C19 UNL     1      -5.282  -1.908   0.730  1.00  0.00     0.043 C 
HETATM   31  C20 UNL     1      -5.771  -0.750  -0.173  1.00  0.00     0.004 A 
HETATM   32  C21 UNL     1      -6.569   0.539  -0.391  1.00  0.00     0.009 A 
HETATM   33  C23 UNL     1      -6.673  -1.095  -0.514  1.00  0.00     0.003 A 
HETATM   34  C25 UNL     1      -5.176  -0.827  -1.134  1.00  0.00     0.032 C 
HETATM   35  C22 UNL     1      -7.554  -0.177  -1.310  1.00  0.00     0.019 A 
ENDBRANCH  22  25
ENDBRANCH   2  19
TORSDOF 6
