REMARK  9 active torsions:
REMARK  status: ('A' for Active; 'I' for Inactive)
REMARK    1  A    between atoms: C3_3  and  C5_5 
REMARK    2  A    between atoms: C5_5  and  N1_6 
REMARK    3  A    between atoms: C5_5  and  N3_15 
REMARK    4  A    between atoms: N1_6  and  C6_7 
REMARK    5  A    between atoms: N3_15  and  C11_18 
REMARK    6  A    between atoms: C11_18  and  C12_19 
REMARK    7  A    between atoms: C11_18  and  C18_31 
REMARK       I    between atoms: C12_19  and  N4_21 
REMARK    8  A    between atoms: N4_21  and  C13_23 
REMARK    9  A    between atoms: C17_28  and  O2_29 
ROOT
HETATM    1  C1  UNL     1      -3.347  -0.650   3.795  1.00  0.00     0.012 C 
HETATM    2  C2  UNL     1      -2.436  -0.054   3.273  1.00  0.00    -0.108 C 
HETATM    3  C3  UNL     1      -1.321   0.642   2.645  1.00  0.00     0.123 C 
HETATM    4  C4  UNL     1      -1.374   2.130   2.923  1.00  0.00     0.028 C 
ENDROOT
BRANCH   3   5
HETATM    5  C5  UNL     1      -1.317   0.417   1.109  1.00  0.00     0.378 C 
BRANCH   5   6
HETATM    6  N1  UNL     1      -2.384   0.847   0.456  1.00  0.00    -0.396 NA
BRANCH   6   7
HETATM    7  C6  UNL     1      -3.306   1.203  -0.268  1.00  0.00     0.175 A 
HETATM    8  C7  UNL     1      -4.475   1.798   0.235  1.00  0.00     0.065 A 
HETATM    9  C8  UNL     1      -5.454   2.161  -0.639  1.00  0.00     0.030 A 
HETATM   10  C9  UNL     1      -5.321   1.957  -1.999  1.00  0.00     0.049 A 
HETATM   11 CL1  UNL     1      -6.559   2.415  -3.125  1.00  0.00    -0.083 Cl
HETATM   12  C10 UNL     1      -4.179   1.374  -2.499  1.00  0.00     0.114 A 
HETATM   13  N2  UNL     1      -3.238   1.030  -1.624  1.00  0.00    -0.340 N 
ATOM     14  H2  UNL     1      -2.392   0.600  -1.996  1.00  0.00     0.167 HD
ENDBRANCH   6   7
ENDBRANCH   5   6
BRANCH   5  15
HETATM   15  N3  UNL     1      -0.995  -1.017   0.979  1.00  0.00    -0.028 N 
ATOM     16  H32 UNL     1      -0.668  -1.407   1.863  1.00  0.00     0.282 HD
ATOM     17  H31 UNL     1      -1.838  -1.579   0.860  1.00  0.00     0.282 HD
BRANCH  15  18
HETATM   18  C11 UNL     1      -0.054  -1.253  -0.078  1.00  0.00     0.288 C 
BRANCH  18  19
HETATM   19  C12 UNL     1       1.251  -0.642   0.097  1.00  0.00     0.249 C 
HETATM   20  O1  UNL     1       1.751  -0.719   1.281  1.00  0.00    -0.271 OA
HETATM   21  N4  UNL     1       2.058   0.025  -0.833  1.00  0.00    -0.352 N 
ATOM     22  H4  UNL     1       1.701   0.120  -1.784  1.00  0.00     0.163 HD
BRANCH  21  23
HETATM   23  C13 UNL     1       3.347   0.584  -0.552  1.00  0.00     0.114 C 
HETATM   24  C14 UNL     1       3.304   2.076  -0.210  1.00  0.00     0.048 C 
HETATM   25  C15 UNL     1       4.816   2.253   0.036  1.00  0.00     0.086 C 
HETATM   26 CL2  UNL     1       5.264   3.931   0.260  1.00  0.00    -0.125 Cl
HETATM   27  C16 UNL     1       5.371   1.624  -1.226  1.00  0.00     0.054 C 
HETATM   28  C17 UNL     1       4.340   0.573  -1.650  1.00  0.00     0.142 C 
BRANCH  28  29
HETATM   29  O2  UNL     1       4.931  -0.699  -1.694  1.00  0.00    -0.393 OA
ATOM     30  H2  UNL     1       5.568  -0.706  -2.399  1.00  0.00     0.210 HD
ENDBRANCH  28  29
ENDBRANCH  21  23
ENDBRANCH  18  19
BRANCH  18  31
HETATM   31  C18 UNL     1       0.032  -2.766  -0.299  1.00  0.00    -0.014 C 
HETATM   32  C19 UNL     1       0.973  -3.141  -1.412  1.00  0.00     0.017 C 
HETATM   33  C20 UNL     1       0.399  -3.499   0.976  1.00  0.00     0.017 C 
HETATM   34  C21 UNL     1      -1.355  -3.204  -0.691  1.00  0.00     0.017 C 
ENDBRANCH  18  31
ENDBRANCH  15  18
ENDBRANCH   5  15
ENDBRANCH   3   5
TORSDOF 9
