REMARK  4 active torsions:
REMARK  status: ('A' for Active; 'I' for Inactive)
REMARK    1  A    between atoms: C9_12  and  C10_13 
REMARK    2  A    between atoms: C13_20  and  C14_21 
REMARK    3  A    between atoms: C14_21  and  C15_22 
REMARK    4  A    between atoms: C15_22  and  C16_23 
ROOT
HETATM    1  N1  UNL     1      -0.634   3.211  -1.725  1.00  0.00    -0.191 NA
HETATM    2  C1  UNL     1      -1.335   2.430  -1.222  1.00  0.00     0.100 C 
HETATM    3  C2  UNL     1      -2.223   1.475  -0.602  1.00  0.00     0.057 A 
HETATM    4  C3  UNL     1      -3.593   1.590  -0.694  1.00  0.00     0.053 A 
HETATM    5  C4  UNL     1      -4.403   0.662  -0.093  1.00  0.00     0.043 A 
HETATM    6  N2  UNL     1      -5.747   0.557  -0.041  1.00  0.00    -0.365 N 
ATOM      7  H2  UNL     1      -6.428   1.187  -0.465  1.00  0.00     0.165 HD
HETATM    8  C5  UNL     1      -6.007  -0.540   0.678  1.00  0.00     0.089 A 
HETATM    9  C6  UNL     1      -4.846  -1.150   1.095  1.00  0.00     0.030 A 
HETATM   10  C7  UNL     1      -3.826  -0.376   0.599  1.00  0.00    -0.007 A 
HETATM   11  C8  UNL     1      -2.434  -0.482   0.686  1.00  0.00     0.026 A 
HETATM   12  C9  UNL     1      -1.598   0.432   0.094  1.00  0.00    -0.013 A 
ENDROOT
BRANCH  12  13
HETATM   13  C10 UNL     1      -0.154   0.356   0.183  1.00  0.00     0.029 C 
HETATM   14  C11 UNL     1       0.474  -0.740  -0.003  1.00  0.00     0.009 C 
HETATM   15  S1  UNL     1      -0.214  -2.340  -0.393  1.00  0.00    -0.063 SA
HETATM   16  C13 UNL     1       1.922  -1.014   0.049  1.00  0.00     0.123 C 
HETATM   17  C12 UNL     1       1.335  -3.047  -0.987  1.00  0.00     0.139 C 
HETATM   18  S2  UNL     1       1.541  -4.600  -1.367  1.00  0.00    -0.053 SA
HETATM   19  N3  UNL     1       2.236  -1.952  -1.025  1.00  0.00    -0.366 N 
ATOM     20  H3  UNL     1       2.991  -1.837  -1.702  1.00  0.00     0.161 HD
BRANCH  16  21
HETATM   21  C14 UNL     1       2.791   0.197   0.032  1.00  0.00     0.031 C 
BRANCH  21  22
HETATM   22  C15 UNL     1       4.257  -0.230   0.093  1.00  0.00     0.013 C 
BRANCH  22  23
HETATM   23  C16 UNL     1       5.178   0.974   0.085  1.00  0.00     0.086 C 
HETATM   24  S3  UNL     1       4.831   2.031   1.524  1.00  0.00    -0.098 SA
ENDBRANCH  22  23
ENDBRANCH  21  22
ENDBRANCH  16  21
ENDBRANCH  12  13
TORSDOF 4
