REMARK  6 active torsions:
REMARK  status: ('A' for Active; 'I' for Inactive)
REMARK    1  A    between atoms: C3_6  and  C4_7 
REMARK    2  A    between atoms: C6_9  and  C7_10 
REMARK    3  A    between atoms: C8_11  and  C9_12 
REMARK    4  A    between atoms: N2_14  and  C11_15 
REMARK    5  A    between atoms: C13_17  and  O2_18 
REMARK    6  A    between atoms: C14_20  and  O3_21 
ROOT
HETATM    1  C9  UNL     1      -0.552  -1.180   0.351  1.00  0.00     0.020 A 
HETATM    2  C10 UNL     1      -1.323  -0.117  -0.075  1.00  0.00     0.125 A 
HETATM    3  N2  UNL     1      -2.622  -0.383   0.178  1.00  0.00    -0.296 N 
HETATM    4  N3  UNL     1      -2.672  -1.562   0.740  1.00  0.00    -0.287 N 
ATOM      5  H3  UNL     1      -3.530  -2.023   1.042  1.00  0.00     0.188 HD
HETATM    6  C16 UNL     1      -1.449  -2.082   0.866  1.00  0.00     0.127 A 
HETATM    7  S1  UNL     1      -1.089  -3.550   1.524  1.00  0.00    -0.058 SA
ENDROOT
BRANCH   1   8
HETATM    8  C8  UNL     1       0.892  -1.342   0.286  1.00  0.00     0.012 C 
HETATM    9  C7  UNL     1       1.688  -0.429  -0.224  1.00  0.00    -0.020 C 
BRANCH   9  10
HETATM   10  C6  UNL     1       3.141  -0.517  -0.325  1.00  0.00     0.021 A 
HETATM   11  C4  UNL     1       4.025  -0.351   0.856  1.00  0.00     0.071 A 
HETATM   12  C5  UNL     1       3.835  -1.704   0.173  1.00  0.00     0.023 A 
BRANCH  11  13
HETATM   13  C3  UNL     1       5.390   0.227   0.648  1.00  0.00     0.153 A 
HETATM   14  O1  UNL     1       6.128   0.860   1.545  1.00  0.00    -0.222 OA
HETATM   15  N1  UNL     1       7.260   1.230   1.029  1.00  0.00    -0.248 N 
HETATM   16  C2  UNL     1       7.296   0.843  -0.238  1.00  0.00     0.100 A 
ATOM     17  H1  UNL     1       7.999   1.735   1.518  1.00  0.00     0.196 HD
HETATM   18  C1  UNL     1       8.391   1.037  -1.253  1.00  0.00     0.091 C 
HETATM   19  N4  UNL     1       6.129   0.218  -0.474  1.00  0.00    -0.327 N 
ATOM     20  H4  UNL     1       5.849  -0.197  -1.363  1.00  0.00     0.169 HD
ENDBRANCH  11  13
ENDBRANCH   9  10
ENDBRANCH   1   8
BRANCH   3  21
HETATM   21  C11 UNL     1      -3.746   0.483  -0.120  1.00  0.00     0.112 C 
HETATM   22  C12 UNL     1      -4.294   1.164   1.110  1.00  0.00     0.061 C 
HETATM   23  C13 UNL     1      -5.667   1.596   0.637  1.00  0.00     0.148 C 
HETATM   24  C14 UNL     1      -6.165   0.364  -0.089  1.00  0.00     0.148 C 
HETATM   25  C15 UNL     1      -4.921  -0.315  -0.633  1.00  0.00     0.061 C 
BRANCH  23  26
HETATM   26  O2  UNL     1      -5.562   2.676  -0.253  1.00  0.00    -0.393 OA
ATOM     27  H2  UNL     1      -6.423   2.947  -0.550  1.00  0.00     0.210 HD
ENDBRANCH  23  26
BRANCH  24  28
HETATM   28  O3  UNL     1      -6.994   0.808  -1.132  1.00  0.00    -0.393 OA
ATOM     29  H3  UNL     1      -7.306   0.035  -1.587  1.00  0.00     0.210 HD
ENDBRANCH  24  28
ENDBRANCH   3  21
TORSDOF 6
