REMARK  6 active torsions:
REMARK  status: ('A' for Active; 'I' for Inactive)
REMARK    1  A    between atoms: C2_2  and  C3_3 
REMARK    2  A    between atoms: C4_6  and  N2_7 
REMARK    3  A    between atoms: N2_7  and  C5_9 
REMARK    4  A    between atoms: C11_17  and  O1_18 
REMARK    5  A    between atoms: C16_25  and  C17_26 
REMARK    6  A    between atoms: C17_26  and  O3_27 
ROOT
HETATM    1  C5  UNL     1       0.622  -0.702  -1.304  1.00  0.00     0.139 C 
HETATM    2  C6  UNL     1       1.244  -0.951  -2.663  1.00  0.00     0.150 C 
HETATM    3  N3  UNL     1       2.208   0.128  -2.741  1.00  0.00    -0.387 N 
ATOM      4  H3  UNL     1       2.478   0.660  -3.569  1.00  0.00     0.159 HD
HETATM    5  C7  UNL     1       2.702   0.288  -1.402  1.00  0.00     0.048 A 
HETATM    6  C8  UNL     1       3.867   0.813  -0.890  1.00  0.00     0.004 A 
HETATM    7  C9  UNL     1       4.126   0.857   0.470  1.00  0.00     0.080 A 
HETATM    8  C10 UNL     1       3.180   0.356   1.339  1.00  0.00     0.074 A 
HETATM    9  C11 UNL     1       1.996  -0.180   0.849  1.00  0.00     0.081 A 
HETATM   10  C13 UNL     1       1.772  -0.206  -0.513  1.00  0.00     0.026 A 
HETATM   11  O2  UNL     1       5.373   1.438   0.683  1.00  0.00    -0.350 OA
HETATM   12  C14 UNL     1       5.806   2.090  -0.499  1.00  0.00     0.180 C 
HETATM   13  C15 UNL     1       5.030   1.411  -1.610  1.00  0.00     0.070 C 
ENDROOT
BRANCH   1  14
HETATM   14  N2  UNL     1      -0.406   0.271  -1.480  1.00  0.00    -0.360 N 
ATOM     15  H2  UNL     1      -0.225   1.046  -2.118  1.00  0.00     0.162 HD
BRANCH  14  16
HETATM   16  C4  UNL     1      -1.566   0.235  -0.877  1.00  0.00     0.145 A 
HETATM   17  N1  UNL     1      -2.061  -0.642  -0.010  1.00  0.00    -0.339 N 
HETATM   18  C3  UNL     1      -3.272  -0.447   0.455  1.00  0.00     0.026 A 
ATOM     19  H1  UNL     1      -1.512  -1.448   0.287  1.00  0.00     0.168 HD
HETATM   20  C16 UNL     1      -3.951   0.656   0.011  1.00  0.00     0.032 A 
HETATM   21  S1  UNL     1      -2.822   1.366  -1.053  1.00  0.00    -0.055 SA
BRANCH  18  22
HETATM   22  C2  UNL     1      -3.924  -1.399   1.454  1.00  0.00     0.054 C 
HETATM   23  C1  UNL     1      -4.941  -2.268   0.784  1.00  0.00     0.011 C 
ENDBRANCH  18  22
BRANCH  20  24
HETATM   24  C17 UNL     1      -5.344   1.095   0.395  1.00  0.00     0.212 C 
BRANCH  24  25
HETATM   25  O3  UNL     1      -5.600   2.268  -0.309  1.00  0.00    -0.396 OA
ATOM     26  H3  UNL     1      -6.476   2.544  -0.067  1.00  0.00     0.209 HD
ENDBRANCH  24  25
ENDBRANCH  20  24
ENDBRANCH  14  16
ENDBRANCH   1  14
BRANCH   9  27
HETATM   27  O1  UNL     1       1.034  -0.689   1.724  1.00  0.00    -0.355 OA
HETATM   28  C12 UNL     1       1.217  -0.683   3.108  1.00  0.00     0.210 C 
ENDBRANCH   9  27
TORSDOF 6
