REMARK  6 active torsions:
REMARK  status: ('A' for Active; 'I' for Inactive)
REMARK    1  A    between atoms: C5_7  and  C6_8 
REMARK    2  A    between atoms: C6_8  and  C7_9 
REMARK    3  A    between atoms: C7_9  and  N2_10 
REMARK    4  A    between atoms: C8_12  and  C9_13 
REMARK    5  A    between atoms: C8_12  and  C18_29 
REMARK    6  A    between atoms: C11_16  and  C12_17 
ROOT
HETATM    1  C9  UNL     1      -1.088   0.145  -0.012  1.00  0.00     0.009 A 
HETATM    2  C10 UNL     1      -0.954  -1.199   0.403  1.00  0.00     0.064 A 
HETATM    3  S1  UNL     1      -2.530  -1.799   0.353  1.00  0.00    -0.102 SA
HETATM    4  C11 UNL     1      -3.360  -0.417  -0.174  1.00  0.00     0.020 A 
HETATM    5  C16 UNL     1      -2.341   0.524  -0.312  1.00  0.00    -0.033 A 
HETATM    6  C17 UNL     1      -2.757   1.855  -0.934  1.00  0.00     0.050 C 
ENDROOT
BRANCH   1   7
HETATM    7  C8  UNL     1       0.203   0.927  -0.006  1.00  0.00     0.123 C 
HETATM    8  N2  UNL     1       1.264   0.264   0.282  1.00  0.00    -0.385 N 
ATOM      9  H2  UNL     1       1.018  -0.709   0.463  1.00  0.00     0.159 HD
BRANCH   8  10
HETATM   10  C7  UNL     1       2.611   0.428   0.427  1.00  0.00     0.124 C 
BRANCH  10  11
HETATM   11  C6  UNL     1       3.285  -0.962   0.437  1.00  0.00     0.060 C 
BRANCH  11  12
HETATM   12  C5  UNL     1       4.748  -0.818   0.590  1.00  0.00    -0.034 A 
HETATM   13  C2  UNL     1       5.658  -0.435  -0.365  1.00  0.00    -0.039 A 
HETATM   14  C1  UNL     1       5.377  -0.071  -1.793  1.00  0.00     0.050 C 
HETATM   15  C3  UNL     1       6.884  -0.454   0.268  1.00  0.00     0.095 A 
HETATM   16  N1  UNL     1       6.723  -0.833   1.546  1.00  0.00    -0.374 N 
HETATM   17  C4  UNL     1       5.421  -1.062   1.768  1.00  0.00     0.095 A 
ATOM     18  H1  UNL     1       7.469  -0.931   2.235  1.00  0.00     0.164 HD
ENDBRANCH  11  12
ENDBRANCH  10  11
ENDBRANCH   8  10
BRANCH   7  19
HETATM   19  C18 UNL     1       0.402   2.354  -0.216  1.00  0.00     0.433 C 
HETATM   20  F1  UNL     1       0.484   2.791  -1.493  1.00  0.00    -0.165 F 
HETATM   21  F2  UNL     1       1.626   2.718   0.450  1.00  0.00    -0.165 F 
HETATM   22  F3  UNL     1      -0.487   3.149   0.536  1.00  0.00    -0.165 F 
ENDBRANCH   7  19
ENDBRANCH   1   7
BRANCH   4  23
HETATM   23  C12 UNL     1      -4.832  -0.328  -0.298  1.00  0.00     0.097 A 
HETATM   24  C13 UNL     1      -5.695   0.718  -0.752  1.00  0.00     0.075 A 
HETATM   25  C14 UNL     1      -5.580   0.470   0.715  1.00  0.00     0.168 A 
HETATM   26  O1  UNL     1      -6.545  -0.330   1.345  1.00  0.00    -0.314 OA
HETATM   27  C15 UNL     1      -6.370  -1.648   0.967  1.00  0.00     0.214 C 
HETATM   28  N3  UNL     1      -6.982  -2.618   1.570  1.00  0.00    -0.365 N 
HETATM   29  N4  UNL     1      -5.475  -1.654  -0.097  1.00  0.00    -0.340 N 
ATOM     30  H32 UNL     1      -7.639  -2.614   2.351  1.00  0.00     0.159 HD
ATOM     31  H31 UNL     1      -6.853  -3.591   1.291  1.00  0.00     0.159 HD
ATOM     32  H4  UNL     1      -5.282  -2.473  -0.673  1.00  0.00     0.164 HD
ENDBRANCH   4  23
TORSDOF 6
