REMARK  8 active torsions:
REMARK  status: ('A' for Active; 'I' for Inactive)
REMARK    1  A    between atoms: N1_4  and  C4_5 
REMARK    2  A    between atoms: C4_5  and  C5_6 
REMARK    3  A    between atoms: C5_6  and  C6_7 
REMARK    4  A    between atoms: C6_7  and  C7_8 
REMARK    5  A    between atoms: C7_8  and  N2_9 
REMARK       I    between atoms: N2_9  and  C8_11 
REMARK    6  A    between atoms: C9_16  and  O1_17 
REMARK    7  A    between atoms: C16_25  and  O2_26 
REMARK    8  A    between atoms: C19_30  and  O3_31 
ROOT
HETATM    1  C1  UNL     1       0.309  -2.380   0.359  1.00  0.00     0.041 C 
HETATM    2  C2  UNL     1      -0.029  -1.413   1.462  1.00  0.00     0.146 C 
HETATM    3  C3  UNL     1       0.711  -0.102   1.380  1.00  0.00     0.307 C 
HETATM    4  N1  UNL     1       1.216   0.241   0.069  1.00  0.00     0.126 N 
HETATM    5  C9  UNL     1       0.361   1.092  -0.699  1.00  0.00     0.259 C 
HETATM    6  C10 UNL     1      -0.192   0.438  -1.948  1.00  0.00     0.072 C 
HETATM    7  C11 UNL     1      -1.691   0.276  -1.730  1.00  0.00     0.010 C 
HETATM    8  C12 UNL     1      -2.034   1.494  -0.972  1.00  0.00    -0.004 C 
HETATM    9  C13 UNL     1      -0.803   1.739  -0.082  1.00  0.00     0.076 C 
HETATM   10  C14 UNL     1      -3.256   1.482  -0.126  1.00  0.00     0.014 C 
HETATM   11  C15 UNL     1      -3.646   2.971   0.038  1.00  0.00     0.013 C 
HETATM   12  C16 UNL     1      -4.448   0.786  -0.603  1.00  0.00     0.122 C 
HETATM   13  C17 UNL     1      -4.614  -0.650  -0.283  1.00  0.00     0.034 C 
HETATM   14  C18 UNL     1      -4.260  -1.124   1.070  1.00  0.00     0.036 C 
HETATM   15  C19 UNL     1      -3.402  -2.375   0.921  1.00  0.00     0.142 C 
HETATM   16  C20 UNL     1      -2.147  -2.326   1.771  1.00  0.00     0.199 C 
HETATM   17  O4  UNL     1      -1.391  -1.208   1.600  1.00  0.00    -0.382 OA
ENDROOT
BRANCH   4  18
HETATM   18  C4  UNL     1       2.532   0.856   0.290  1.00  0.00     0.276 C 
BRANCH  18  19
HETATM   19  C5  UNL     1       3.467   0.886  -0.847  1.00  0.00     0.032 C 
BRANCH  19  20
HETATM   20  C6  UNL     1       3.865  -0.494  -1.291  1.00  0.00     0.021 C 
BRANCH  20  21
HETATM   21  C7  UNL     1       4.606  -1.303  -0.290  1.00  0.00     0.122 C 
BRANCH  21  22
HETATM   22  N2  UNL     1       5.889  -0.866   0.117  1.00  0.00    -0.365 N 
HETATM   23  C8  UNL     1       6.235   0.224   0.928  1.00  0.00     0.181 C 
HETATM   24  N3  UNL     1       5.782   0.398   2.115  1.00  0.00    -0.374 N 
HETATM   25  N4  UNL     1       7.169   1.181   0.413  1.00  0.00    -0.064 NA
ATOM     26  H32 UNL     1       5.117  -0.283   2.482  1.00  0.00     0.158 HD
ATOM     27  H31 UNL     1       6.034   1.191   2.705  1.00  0.00     0.158 HD
ATOM     28  H2  UNL     1       6.672  -1.422  -0.228  1.00  0.00     0.162 HD
ENDBRANCH  21  22
ENDBRANCH  20  21
ENDBRANCH  19  20
ENDBRANCH  18  19
ENDBRANCH   4  18
BRANCH   5  29
HETATM   29  O1  UNL     1       1.146   2.165  -1.174  1.00  0.00    -0.363 OA
ATOM     30  H1  UNL     1       0.578   2.730  -1.684  1.00  0.00     0.212 HD
ENDBRANCH   5  29
BRANCH  15  31
HETATM   31  O3  UNL     1      -4.119  -3.519   1.210  1.00  0.00    -0.393 OA
ATOM     32  H3  UNL     1      -3.584  -4.299   1.117  1.00  0.00     0.210 HD
ENDBRANCH  15  31
BRANCH  12  33
HETATM   33  O2  UNL     1      -5.588   1.443  -0.071  1.00  0.00    -0.395 OA
ATOM     34  H2  UNL     1      -6.363   0.990  -0.381  1.00  0.00     0.210 HD
ENDBRANCH  12  33
TORSDOF 8
