REMARK  9 active torsions:
REMARK  status: ('A' for Active; 'I' for Inactive)
REMARK    1  A    between atoms: C2_2  and  C3_3 
REMARK    2  A    between atoms: C4_6  and  N2_7 
REMARK    3  A    between atoms: N2_7  and  C5_9 
REMARK    4  A    between atoms: C5_9  and  C6_10 
REMARK    5  A    between atoms: C6_10  and  N3_11 
REMARK    6  A    between atoms: N3_11  and  C7_13 
REMARK    7  A    between atoms: C10_18  and  N5_19 
REMARK    8  A    between atoms: C11_24  and  C13_26 
REMARK    9  A    between atoms: C19_34  and  N8_35 
ROOT
HETATM    1  C3  UNL     1       6.025   0.056   0.816  1.00  0.00     0.050 A 
HETATM    2  N1  UNL     1       4.701  -0.191   0.814  1.00  0.00    -0.194 N 
ATOM      3  H1  UNL     1       4.073   0.569   1.075  1.00  0.00     0.184 HD
HETATM    4  C4  UNL     1       4.157  -1.374   0.490  1.00  0.00     0.680 A 
HETATM    5  N7  UNL     1       5.024  -2.371   0.145  1.00  0.00    -0.176 N 
ATOM      6  H7  UNL     1       4.658  -3.289  -0.109  1.00  0.00     0.186 HD
HETATM    7  C19 UNL     1       6.349  -2.163   0.135  1.00  0.00     0.137 A 
HETATM    8  C20 UNL     1       6.908  -0.942   0.470  1.00  0.00     0.111 A 
HETATM    9  C21 UNL     1       8.316  -0.709   0.462  1.00  0.00     0.105 C 
HETATM   10  N9  UNL     1       9.460  -0.535   0.446  1.00  0.00    -0.191 NA
ENDROOT
BRANCH   1  11
HETATM   11  C2  UNL     1       6.590   1.379   1.180  1.00  0.00     0.055 C 
HETATM   12  C1  UNL     1       7.042   2.150  -0.040  1.00  0.00     0.011 C 
ENDBRANCH   1  11
BRANCH   7  13
HETATM   13  N8  UNL     1       7.181  -3.107  -0.192  1.00  0.00    -0.384 N 
ATOM     14  H82 UNL     1       6.769  -4.007  -0.439  1.00  0.00     0.157 HD
ATOM     15  H81 UNL     1       8.189  -2.949  -0.200  1.00  0.00     0.157 HD
ENDBRANCH   7  13
BRANCH   4  16
HETATM   16  N2  UNL     1       2.892  -1.621   0.481  1.00  0.00    -0.224 N 
ATOM     17  H2  UNL     1       2.577  -2.555   0.220  1.00  0.00     0.177 HD
BRANCH  16  18
HETATM   18  C5  UNL     1       1.916  -0.640   0.822  1.00  0.00     0.158 C 
BRANCH  18  19
HETATM   19  C6  UNL     1       1.617   0.150  -0.458  1.00  0.00     0.158 C 
BRANCH  19  20
HETATM   20  N3  UNL     1       0.639   1.139  -0.136  1.00  0.00    -0.224 N 
ATOM     21  H3  UNL     1       0.945   2.077   0.124  1.00  0.00     0.177 HD
BRANCH  20  22
HETATM   22  C7  UNL     1      -0.616   0.875  -0.166  1.00  0.00     0.679 A 
HETATM   23  N4  UNL     1      -1.167  -0.304  -0.487  1.00  0.00    -0.195 N 
HETATM   24  C8  UNL     1      -2.488  -0.540  -0.514  1.00  0.00     0.037 A 
ATOM     25  H4  UNL     1      -0.541  -1.073  -0.727  1.00  0.00     0.184 HD
HETATM   26  C9  UNL     1      -3.331   0.526  -0.184  1.00  0.00     0.018 A 
HETATM   27  C18 UNL     1      -2.965  -1.887  -0.883  1.00  0.00     0.058 C 
HETATM   28  C10 UNL     1      -2.808   1.745   0.148  1.00  0.00     0.123 A 
HETATM   29  C11 UNL     1      -4.772   0.240  -0.218  1.00  0.00    -0.008 C 
HETATM   30  N6  UNL     1      -1.475   1.892   0.151  1.00  0.00    -0.177 N 
ATOM     31  H6  UNL     1      -1.085   2.801   0.400  1.00  0.00     0.186 HD
HETATM   32  C12 UNL     1      -5.183   0.026  -1.653  1.00  0.00     0.021 C 
HETATM   33  C16 UNL     1      -4.939  -1.126   0.481  1.00  0.00     0.015 C 
HETATM   34  C17 UNL     1      -4.264  -2.237  -0.223  1.00  0.00     0.007 C 
BRANCH  28  35
HETATM   35  N5  UNL     1      -3.588   2.736   0.436  1.00  0.00    -0.385 N 
ATOM     36  H52 UNL     1      -4.602   2.624   0.434  1.00  0.00     0.157 HD
ATOM     37  H51 UNL     1      -3.198   3.645   0.684  1.00  0.00     0.157 HD
ENDBRANCH  28  35
BRANCH  29  38
HETATM   38  C13 UNL     1      -5.652   1.235   0.465  1.00  0.00    -0.002 A 
HETATM   39  C14 UNL     1      -7.149   0.849   0.329  1.00  0.00     0.006 A 
HETATM   40  C15 UNL     1      -6.620   2.111  -0.197  1.00  0.00     0.006 A 
ENDBRANCH  29  38
ENDBRANCH  20  22
ENDBRANCH  19  20
ENDBRANCH  18  19
ENDBRANCH  16  18
ENDBRANCH   4  16
TORSDOF 9
