REMARK  7 active torsions:
REMARK  status: ('A' for Active; 'I' for Inactive)
REMARK    1  A    between atoms: C2_2  and  O1_3 
REMARK    2  A    between atoms: O1_3  and  C3_4 
REMARK    3  A    between atoms: C5_6  and  N1_7 
REMARK       I    between atoms: N1_7  and  C6_9 
REMARK    4  A    between atoms: C10_17  and  O3_18 
REMARK    5  A    between atoms: C11_20  and  C12_21 
REMARK    6  A    between atoms: C13_22  and  C14_23 
REMARK    7  A    between atoms: C20_29  and  C21_30 
ROOT
HETATM    1  C3  UNL     1      -1.924   0.405   0.662  1.00  0.00     0.120 C 
HETATM    2  C4  UNL     1      -2.240  -0.628   1.637  1.00  0.00     0.039 C 
HETATM    3  C5  UNL     1      -1.859  -2.044   1.437  1.00  0.00     0.014 C 
HETATM    4  C7  UNL     1      -0.444  -2.324   1.065  1.00  0.00     0.083 C 
HETATM    5  C8  UNL     1       0.076  -1.556  -0.113  1.00  0.00     0.098 C 
HETATM    6  N3  UNL     1      -0.830  -1.603  -1.170  1.00  0.00    -0.413 N 
ATOM      7  H3  UNL     1      -1.114  -2.496  -1.573  1.00  0.00     0.153 HD
HETATM    8  C9  UNL     1      -1.346  -0.393  -1.670  1.00  0.00     0.149 C 
HETATM    9  C10 UNL     1      -2.406   0.228  -0.749  1.00  0.00     0.174 C 
HETATM   10  C11 UNL     1       0.524  -0.233   0.376  1.00  0.00     0.103 C 
HETATM   11  C20 UNL     1      -0.471   0.803   0.596  1.00  0.00     0.134 C 
ENDROOT
BRANCH  10  12
HETATM   12  C12 UNL     1       1.603   0.271  -0.496  1.00  0.00    -0.098 C 
HETATM   13  C13 UNL     1       2.490   0.672  -1.220  1.00  0.00    -0.101 C 
BRANCH  13  14
HETATM   14  C14 UNL     1       3.557   1.164  -2.071  1.00  0.00     0.065 C 
HETATM   15  C15 UNL     1       4.438   2.168  -1.408  1.00  0.00     0.017 C 
HETATM   16  C16 UNL     1       5.880   1.708  -1.372  1.00  0.00     0.001 C 
HETATM   17  C17 UNL     1       5.995   0.362  -0.700  1.00  0.00     0.000 C 
HETATM   18  C18 UNL     1       5.221  -0.635  -1.512  1.00  0.00     0.001 C 
HETATM   19  C19 UNL     1       4.424   0.040  -2.603  1.00  0.00     0.017 C 
ENDBRANCH  13  14
ENDBRANCH  10  12
BRANCH  11  20
HETATM   20  C21 UNL     1      -0.142   1.596   1.802  1.00  0.00     0.239 C 
HETATM   21  N4  UNL     1      -0.637   2.859   2.137  1.00  0.00    -0.062 NA
HETATM   22  O4  UNL     1       0.682   1.078   2.631  1.00  0.00    -0.276 OA
ENDBRANCH  11  20
BRANCH   1  23
HETATM   23  O1  UNL     1      -2.554   1.609   1.063  1.00  0.00    -0.373 OA
BRANCH  23  24
HETATM   24  C2  UNL     1      -3.885   1.603   1.187  1.00  0.00     0.165 C 
HETATM   25  C1  UNL     1      -4.321   3.034   1.566  1.00  0.00     0.033 C 
ENDBRANCH  23  24
ENDBRANCH   1  23
BRANCH   3  26
HETATM   26  N1  UNL     1      -2.820  -2.826   0.709  1.00  0.00    -0.315 N 
HETATM   27  C6  UNL     1      -3.519  -3.866   1.337  1.00  0.00     0.333 C 
HETATM   28  N2  UNL     1      -4.474  -4.659   0.651  1.00  0.00    -0.040 NA
HETATM   29  O2  UNL     1      -3.301  -4.116   2.547  1.00  0.00    -0.251 OA
ATOM     30  H1  UNL     1      -2.995  -2.622  -0.275  1.00  0.00     0.170 HD
ENDBRANCH   3  26
BRANCH   9  31
HETATM   31  O3  UNL     1      -2.583   1.506  -1.356  1.00  0.00    -0.391 OA
ATOM     32  H3  UNL     1      -2.888   1.394  -2.249  1.00  0.00     0.210 HD
ENDBRANCH   9  31
TORSDOF 7
