REMARK  10 active torsions:
REMARK  status: ('A' for Active; 'I' for Inactive)
REMARK    1  A    between atoms: C2_2  and  C3_3 
REMARK    2  A    between atoms: C3_3  and  N1_4 
REMARK    3  A    between atoms: N1_4  and  C4_6 
REMARK    4  A    between atoms: C5_9  and  N3_10 
REMARK    5  A    between atoms: N3_10  and  C6_12 
REMARK    6  A    between atoms: C6_12  and  C7_13 
REMARK    7  A    between atoms: C9_17  and  N5_18 
REMARK    8  A    between atoms: C11_28  and  N9_29 
REMARK    9  A    between atoms: N9_29  and  C12_31 
REMARK   10  A    between atoms: C15_34  and  O1_35 
ROOT
HETATM    1  C4  UNL     1       1.195   2.106  -0.438  1.00  0.00     0.132 A 
HETATM    2  N2  UNL     1       2.329   1.470  -0.757  1.00  0.00    -0.176 N 
ATOM      3  H2  UNL     1       3.132   2.026  -1.051  1.00  0.00     0.186 HD
HETATM    4  C5  UNL     1       2.462   0.112  -0.707  1.00  0.00     0.681 A 
HETATM    5  N7  UNL     1       1.397  -0.585  -0.319  1.00  0.00    -0.175 N 
ATOM      6  H7  UNL     1       1.470  -1.601  -0.274  1.00  0.00     0.186 HD
HETATM    7  C10 UNL     1       0.216  -0.003   0.020  1.00  0.00     0.152 A 
HETATM    8  N8  UNL     1      -0.835  -0.726   0.406  1.00  0.00    -0.175 N 
ATOM      9  H8  UNL     1      -0.753  -1.742   0.448  1.00  0.00     0.186 HD
HETATM   10  C11 UNL     1      -2.011  -0.142   0.744  1.00  0.00     0.679 A 
HETATM   11  N10 UNL     1      -2.123   1.190   0.690  1.00  0.00    -0.201 N 
ATOM     12  H10 UNL     1      -3.007   1.630   0.945  1.00  0.00     0.183 HD
HETATM   13  C18 UNL     1      -1.094   1.953   0.307  1.00  0.00     0.125 A 
HETATM   14  C19 UNL     1       0.093   1.363  -0.034  1.00  0.00     0.069 A 
ENDROOT
BRANCH   4  15
HETATM   15  N3  UNL     1       3.603  -0.412  -1.036  1.00  0.00    -0.220 N 
ATOM     16  H3  UNL     1       4.365   0.203  -1.320  1.00  0.00     0.178 HD
BRANCH  15  17
HETATM   17  C6  UNL     1       3.826  -1.823  -1.013  1.00  0.00     0.197 C 
BRANCH  17  18
HETATM   18  C7  UNL     1       5.278  -2.146  -0.991  1.00  0.00     0.060 A 
HETATM   19  C8  UNL     1       6.318  -1.274  -0.829  1.00  0.00     0.133 A 
HETATM   20  N4  UNL     1       7.491  -1.906  -0.866  1.00  0.00    -0.200 N 
HETATM   21  C9  UNL     1       7.183  -3.214  -1.057  1.00  0.00     0.676 A 
ATOM     22  H4  UNL     1       8.420  -1.495  -0.771  1.00  0.00     0.183 HD
HETATM   23  N6  UNL     1       5.843  -3.358  -1.132  1.00  0.00    -0.193 N 
ATOM     24  H6  UNL     1       5.344  -4.237  -1.272  1.00  0.00     0.184 HD
BRANCH  21  25
HETATM   25  N5  UNL     1       8.113  -4.110  -1.144  1.00  0.00    -0.234 N 
ATOM     26  H52 UNL     1       9.126  -4.001  -1.087  1.00  0.00     0.174 HD
ATOM     27  H51 UNL     1       7.882  -5.093  -1.288  1.00  0.00     0.174 HD
ENDBRANCH  21  25
ENDBRANCH  17  18
ENDBRANCH  15  17
ENDBRANCH   4  15
BRANCH   1  28
HETATM   28  N1  UNL     1       1.021   3.379  -0.472  1.00  0.00    -0.372 N 
ATOM     29  H1  UNL     1       0.100   3.723  -0.201  1.00  0.00     0.161 HD
BRANCH  28  30
HETATM   30  C3  UNL     1       1.983   4.357  -0.849  1.00  0.00     0.147 C 
BRANCH  30  31
HETATM   31  C2  UNL     1       2.668   4.974   0.322  1.00  0.00    -0.018 C 
HETATM   32  C1  UNL     1       2.570   6.277   0.513  1.00  0.00     0.008 C 
ENDBRANCH  30  31
ENDBRANCH  28  30
ENDBRANCH   1  28
BRANCH  10  33
HETATM   33  N9  UNL     1      -2.982  -0.867   1.110  1.00  0.00    -0.221 N 
ATOM     34  H9  UNL     1      -2.790  -1.869   1.122  1.00  0.00     0.178 HD
BRANCH  33  35
HETATM   35  C12 UNL     1      -4.306  -0.503   1.509  1.00  0.00     0.099 C 
HETATM   36  C13 UNL     1      -5.029   0.043   0.308  1.00  0.00     0.028 C 
HETATM   37  C14 UNL     1      -6.299  -0.603  -0.070  1.00  0.00     0.034 C 
HETATM   38  C15 UNL     1      -6.461  -2.054   0.150  1.00  0.00     0.118 C 
HETATM   39  C16 UNL     1      -5.254  -2.691   0.811  1.00  0.00     0.034 C 
HETATM   40  C17 UNL     1      -4.951  -1.798   1.996  1.00  0.00     0.028 C 
BRANCH  38  41
HETATM   41  O1  UNL     1      -7.568  -2.317   0.994  1.00  0.00    -0.396 OA
ATOM     42  H1  UNL     1      -7.672  -3.251   1.136  1.00  0.00     0.210 HD
ENDBRANCH  38  41
ENDBRANCH  33  35
ENDBRANCH  10  33
TORSDOF 10
