REMARK  17 active torsions:
REMARK  status: ('A' for Active; 'I' for Inactive)
REMARK    1  A    between atoms: N1_2  and  C2_3 
REMARK    2  A    between atoms: N1_2  and  C21_41 
REMARK    3  A    between atoms: C2_3  and  C3_4 
REMARK    4  A    between atoms: C3_4  and  O1_5 
REMARK    5  A    between atoms: O1_5  and  N2_6 
REMARK    6  A    between atoms: N2_6  and  C4_8 
REMARK    7  A    between atoms: C4_8  and  N3_9 
REMARK    8  A    between atoms: C7_12  and  N4_13 
REMARK    9  A    between atoms: N5_16  and  C10_17 
REMARK   10  A    between atoms: C13_23  and  N7_24 
REMARK   11  A    between atoms: C16_27  and  C17_28 
REMARK   12  A    between atoms: C17_28  and  N8_29 
REMARK   13  A    between atoms: C20_36  and  N11_37 
REMARK   14  A    between atoms: C21_41  and  C22_42 
REMARK   15  A    between atoms: C22_42  and  O3_43 
REMARK   16  A    between atoms: C22_42  and  C23_45 
REMARK   17  A    between atoms: C23_45  and  N12_46 
ROOT
HETATM    1  N3  UNL     1      -0.816   0.434  -0.291  1.00  0.00    -0.152 N 
HETATM    2  C5  UNL     1      -0.429   1.661  -0.637  1.00  0.00     0.119 A 
HETATM    3  C6  UNL     1      -1.379   2.682  -0.676  1.00  0.00     0.067 A 
HETATM    4  C7  UNL     1      -2.683   2.374  -0.348  1.00  0.00     0.120 A 
HETATM    5  N6  UNL     1      -2.984   1.122  -0.019  1.00  0.00    -0.176 N 
ATOM      6  H6  UNL     1      -3.952   0.904   0.215  1.00  0.00     0.186 HD
HETATM    7  C13 UNL     1      -2.085   0.133   0.021  1.00  0.00     0.690 A 
ENDROOT
BRANCH   1   8
HETATM    8  C4  UNL     1       0.113  -0.635  -0.295  1.00  0.00     0.229 C 
BRANCH   8   9
HETATM    9  N2  UNL     1       1.159  -0.818   0.131  1.00  0.00    -0.261 N 
ATOM     10  H2  UNL     1       1.408  -1.770  -0.139  1.00  0.00     0.195 HD
BRANCH   9  11
HETATM   11  O1  UNL     1       2.205  -0.348   0.824  1.00  0.00    -0.278 OA
BRANCH  11  12
HETATM   12  C3  UNL     1       3.162   0.340  -0.097  1.00  0.00     0.231 C 
BRANCH  12  13
HETATM   13  C2  UNL     1       4.345  -0.594   0.030  1.00  0.00     0.300 C 
BRANCH  13  14
HETATM   14  N1  UNL     1       5.407  -0.163  -0.844  1.00  0.00     0.088 N 
HETATM   15  C1  UNL     1       4.917  -0.290  -2.219  1.00  0.00     0.310 C 
BRANCH  14  16
HETATM   16  C21 UNL     1       5.949   1.099  -0.488  1.00  0.00     0.305 C 
BRANCH  16  17
HETATM   17  C22 UNL     1       7.247   1.215  -1.317  1.00  0.00     0.166 C 
BRANCH  17  18
HETATM   18  O3  UNL     1       6.913   1.266  -2.671  1.00  0.00    -0.392 OA
ATOM     19  H3  UNL     1       7.711   1.337  -3.181  1.00  0.00     0.210 HD
ENDBRANCH  17  18
BRANCH  17  20
HETATM   20  C23 UNL     1       8.128   0.014  -1.058  1.00  0.00     0.183 C 
BRANCH  20  21
HETATM   21  N12 UNL     1       8.529  -0.065   0.326  1.00  0.00    -0.285 N 
HETATM   22  C24 UNL     1       7.921  -0.732   1.335  1.00  0.00     0.130 A 
HETATM   23  C25 UNL     1       8.672  -0.485   2.520  1.00  0.00     0.127 A 
HETATM   24  N13 UNL     1       9.667   0.301   2.137  1.00  0.00    -0.296 N 
HETATM   25  N14 UNL     1       9.575   0.539   0.858  1.00  0.00    -0.241 N 
ATOM     26  H13 UNL     1      10.396   0.665   2.750  1.00  0.00     0.187 HD
ATOM     27  H14 UNL     1      10.230   1.120   0.334  1.00  0.00     0.208 HD
ENDBRANCH  20  21
ENDBRANCH  17  20
ENDBRANCH  16  17
ENDBRANCH  14  16
ENDBRANCH  13  14
ENDBRANCH  12  13
ENDBRANCH  11  12
ENDBRANCH   9  11
ENDBRANCH   8   9
ENDBRANCH   1   8
BRANCH   7  28
HETATM   28  N7  UNL     1      -2.518  -1.173   0.321  1.00  0.00    -0.187 N 
HETATM   29  C14 UNL     1      -3.213  -1.920  -0.745  1.00  0.00     0.144 C 
HETATM   30  C15 UNL     1      -3.567  -3.240  -0.137  1.00  0.00     0.030 C 
HETATM   31  C16 UNL     1      -2.709  -3.425   1.064  1.00  0.00     0.058 C 
HETATM   32  C20 UNL     1      -2.428  -1.941   1.479  1.00  0.00     0.305 C 
BRANCH  31  33
HETATM   33  C17 UNL     1      -3.394  -4.036   2.246  1.00  0.00     0.158 C 
BRANCH  33  34
HETATM   34  N8  UNL     1      -3.978  -5.304   1.949  1.00  0.00    -0.287 N 
HETATM   35  C18 UNL     1      -5.340  -5.379   1.615  1.00  0.00     0.130 A 
HETATM   36  C19 UNL     1      -5.567  -6.702   1.367  1.00  0.00     0.127 A 
HETATM   37  N9  UNL     1      -4.406  -7.405   1.535  1.00  0.00    -0.296 N 
HETATM   38  N10 UNL     1      -3.484  -6.531   1.884  1.00  0.00    -0.241 N 
ATOM     39  H9  UNL     1      -4.279  -8.410   1.414  1.00  0.00     0.187 HD
ATOM     40  H10 UNL     1      -2.512  -6.769   2.080  1.00  0.00     0.208 HD
ENDBRANCH  33  34
ENDBRANCH  31  33
BRANCH  32  41
HETATM   41  N11 UNL     1      -1.224  -1.989   2.241  1.00  0.00    -0.057 N 
ATOM     42 3H11 UNL     1      -0.467  -2.268   1.617  1.00  0.00     0.276 HD
ATOM     43 2H11 UNL     1      -0.961  -1.032   2.476  1.00  0.00     0.276 HD
ATOM     44 1H11 UNL     1      -1.158  -2.552   3.089  1.00  0.00     0.276 HD
ENDBRANCH  32  41
ENDBRANCH   7  28
BRANCH   4  45
HETATM   45  N4  UNL     1      -3.759   3.356  -0.423  1.00  0.00    -0.364 N 
HETATM   46  C8  UNL     1      -3.523   4.568  -1.112  1.00  0.00     0.144 C 
HETATM   47  C9  UNL     1      -4.806   4.868  -1.927  1.00  0.00     0.145 C 
HETATM   48  N5  UNL     1      -5.827   4.903  -0.908  1.00  0.00    -0.356 N 
HETATM   49  C11 UNL     1      -6.196   3.667  -0.313  1.00  0.00     0.145 C 
HETATM   50  C12 UNL     1      -4.977   2.941   0.227  1.00  0.00     0.144 C 
BRANCH  48  51
HETATM   51  C10 UNL     1      -6.385   6.117  -0.485  1.00  0.00     0.350 C 
HETATM   52  O2  UNL     1      -6.032   7.266  -0.908  1.00  0.00    -0.284 OA
ENDBRANCH  48  51
ENDBRANCH   4  45
TORSDOF 17
