REMARK  16 active torsions:
REMARK  status: ('A' for Active; 'I' for Inactive)
REMARK    1  A    between atoms: C2_2  and  N1_3 
REMARK    2  A    between atoms: N1_3  and  C3_4 
REMARK    3  A    between atoms: N1_3  and  C9_12 
REMARK    4  A    between atoms: C3_4  and  C4_5 
REMARK    5  A    between atoms: C4_5  and  N2_6 
REMARK    6  A    between atoms: C10_15  and  N4_16 
REMARK       I    between atoms: N5_19  and  C13_20 
REMARK    7  A    between atoms: C13_20  and  C14_22 
REMARK    8  A    between atoms: C14_22  and  N6_23 
REMARK    9  A    between atoms: N6_23  and  C15_24 
REMARK   10  A    between atoms: N6_23  and  C17_28 
REMARK   11  A    between atoms: C15_24  and  C16_25 
REMARK   12  A    between atoms: C16_25  and  O3_26 
REMARK   13  A    between atoms: C17_28  and  C18_29 
REMARK   14  A    between atoms: C18_29  and  O4_30 
REMARK   15  A    between atoms: C20_33  and  N7_34 
REMARK   16  A    between atoms: C25_45  and  O5_46 
ROOT
HETATM    1  N4  UNL     1       1.119  -0.622  -0.894  1.00  0.00    -0.191 N 
HETATM    2  C11 UNL     1       1.926  -1.007  -2.036  1.00  0.00     0.163 C 
HETATM    3  C12 UNL     1       3.347  -1.263  -1.681  1.00  0.00     0.146 C 
HETATM    4  N5  UNL     1       3.856  -0.424  -0.615  1.00  0.00    -0.345 N 
HETATM    5  C13 UNL     1       5.163  -0.675  -0.073  1.00  0.00     0.238 C 
HETATM    6  O2  UNL     1       5.806  -1.633  -0.589  1.00  0.00    -0.272 OA
HETATM    7  C19 UNL     1       3.057   0.651  -0.132  1.00  0.00     0.175 C 
HETATM    8  C20 UNL     1       1.604   0.319   0.085  1.00  0.00     0.244 C 
ENDROOT
BRANCH   1   9
HETATM    9  C10 UNL     1      -0.165  -1.208  -0.730  1.00  0.00     0.683 A 
HETATM   10  N3  UNL     1      -1.328  -0.551  -0.867  1.00  0.00    -0.174 N 
HETATM   11  C9  UNL     1      -2.531  -1.131  -0.701  1.00  0.00     0.154 A 
ATOM     12  H3  UNL     1      -1.298   0.439  -1.110  1.00  0.00     0.186 HD
HETATM   13  C25 UNL     1      -2.622  -2.471  -0.370  1.00  0.00     0.128 A 
HETATM   14  C24 UNL     1      -1.432  -3.157  -0.226  1.00  0.00     0.146 A 
HETATM   15  N10 UNL     1      -0.257  -2.531  -0.403  1.00  0.00    -0.199 N 
ATOM     16  H10 UNL     1       0.604  -3.066  -0.288  1.00  0.00     0.183 HD
BRANCH  11  17
HETATM   17  N1  UNL     1      -3.766  -0.411  -0.881  1.00  0.00    -0.363 N 
BRANCH  17  18
HETATM   18  C2  UNL     1      -4.606  -0.882  -1.948  1.00  0.00     0.120 C 
HETATM   19  C1  UNL     1      -4.698   0.061  -3.103  1.00  0.00     0.026 C 
ENDBRANCH  17  18
BRANCH  17  20
HETATM   20  C3  UNL     1      -4.054   0.677  -0.014  1.00  0.00     0.154 C 
BRANCH  20  21
HETATM   21  C4  UNL     1      -5.163   0.483   0.956  1.00  0.00     0.292 C 
BRANCH  21  22
HETATM   22  N2  UNL     1      -6.467   0.261   0.451  1.00  0.00     0.094 N 
HETATM   23  C5  UNL     1      -7.341  -0.116   1.523  1.00  0.00     0.298 C 
HETATM   24  C6  UNL     1      -8.183   0.978   2.086  1.00  0.00     0.198 C 
HETATM   25  O1  UNL     1      -8.841   1.666   1.052  1.00  0.00    -0.388 OA
HETATM   26  C7  UNL     1      -7.791   2.363   0.404  1.00  0.00     0.198 C 
HETATM   27  C8  UNL     1      -6.995   1.354  -0.331  1.00  0.00     0.298 C 
ENDBRANCH  21  22
ENDBRANCH  20  21
ENDBRANCH  17  20
ENDBRANCH  11  17
BRANCH  13  28
HETATM   28  O5  UNL     1      -3.853  -3.076  -0.197  1.00  0.00    -0.351 OA
HETATM   29  C26 UNL     1      -4.015  -4.429   0.140  1.00  0.00     0.210 C 
ENDBRANCH  13  28
ENDBRANCH   1   9
BRANCH   8  30
HETATM   30  N7  UNL     1       0.809   1.538   0.106  1.00  0.00    -0.260 N 
HETATM   31  C21 UNL     1      -0.165   1.794   0.990  1.00  0.00     0.204 A 
HETATM   32  N8  UNL     1      -0.642   3.010   0.680  1.00  0.00    -0.340 N 
HETATM   33  C22 UNL     1       0.012   3.517  -0.378  1.00  0.00     0.092 A 
ATOM     34  H8  UNL     1      -1.396   3.483   1.178  1.00  0.00     0.168 HD
HETATM   35  C23 UNL     1      -0.220   4.836  -1.020  1.00  0.00     0.090 C 
HETATM   36  N9  UNL     1       0.917   2.564  -0.712  1.00  0.00    -0.284 N 
ATOM     37  H9  UNL     1       1.582   2.632  -1.482  1.00  0.00     0.188 HD
ENDBRANCH   8  30
BRANCH   5  38
HETATM   38  C14 UNL     1       5.769   0.101   1.012  1.00  0.00     0.230 C 
BRANCH  38  39
HETATM   39  N6  UNL     1       7.075  -0.306   1.376  1.00  0.00    -0.361 N 
BRANCH  39  40
HETATM   40  C15 UNL     1       7.290  -1.527   1.989  1.00  0.00     0.089 C 
BRANCH  40  41
HETATM   41  C16 UNL     1       8.669  -1.914   2.395  1.00  0.00     0.208 C 
BRANCH  41  42
HETATM   42  O3  UNL     1       9.291  -1.093   3.308  1.00  0.00    -0.396 OA
ATOM     43  H3  UNL     1      10.171  -1.340   3.567  1.00  0.00     0.209 HD
ENDBRANCH  41  42
ENDBRANCH  40  41
ENDBRANCH  39  40
BRANCH  39  44
HETATM   44  C17 UNL     1       8.046   0.662   1.152  1.00  0.00     0.089 C 
BRANCH  44  45
HETATM   45  C18 UNL     1       8.331   0.995  -0.307  1.00  0.00     0.208 C 
BRANCH  45  46
HETATM   46  O4  UNL     1       8.771  -0.074  -1.043  1.00  0.00    -0.396 OA
ATOM     47  H4  UNL     1       8.949   0.134  -1.953  1.00  0.00     0.209 HD
ENDBRANCH  45  46
ENDBRANCH  44  45
ENDBRANCH  39  44
ENDBRANCH  38  39
ENDBRANCH   5  38
TORSDOF 16
