REMARK  9 active torsions:
REMARK  status: ('A' for Active; 'I' for Inactive)
REMARK    1  A    between atoms: C4_8  and  N3_9 
REMARK       I    between atoms: N5_18  and  C10_20 
REMARK    2  A    between atoms: C10_20  and  C11_22 
REMARK    3  A    between atoms: C11_22  and  N6_23 
REMARK       I    between atoms: N6_23  and  C12_25 
REMARK    4  A    between atoms: C12_25  and  C13_27 
REMARK    5  A    between atoms: C13_27  and  N7_28 
REMARK    6  A    between atoms: C13_27  and  C14_32 
REMARK    7  A    between atoms: C14_32  and  C15_33 
REMARK    8  A    between atoms: C15_33  and  N8_34 
REMARK    9  A    between atoms: C15_33  and  O4_38 
ROOT
HETATM    1  N3  UNL     1      -2.277  -2.193   0.555  1.00  0.00    -0.170 N 
HETATM    2  C5  UNL     1      -3.047  -3.405   0.711  1.00  0.00     0.176 C 
HETATM    3  C6  UNL     1      -2.398  -4.475  -0.178  1.00  0.00     0.253 C 
HETATM    4  N4  UNL     1      -1.218  -5.008   0.427  1.00  0.00    -0.073 N 
ATOM      5  H41 UNL     1      -1.103  -5.990   0.178  1.00  0.00     0.277 HD
ATOM      6  H42 UNL     1      -1.344  -5.098   1.435  1.00  0.00     0.277 HD
HETATM    7  C7  UNL     1      -0.008  -4.265   0.132  1.00  0.00     0.240 C 
HETATM    8  C8  UNL     1       0.063  -3.094   1.100  1.00  0.00     0.104 C 
HETATM    9  C9  UNL     1      -0.825  -2.046   0.532  1.00  0.00     0.104 C 
HETATM   10  N5  UNL     1      -0.409  -0.999   0.004  1.00  0.00    -0.315 N 
ATOM     11  H5  UNL     1      -1.189  -0.427  -0.320  1.00  0.00     0.170 HD
HETATM   12  C10 UNL     1       0.782  -0.387  -0.271  1.00  0.00     0.240 C 
HETATM   13  O2  UNL     1       0.720   0.656  -1.041  1.00  0.00    -0.271 OA
ENDROOT
BRANCH   1  14
HETATM   14  C4  UNL     1      -3.015  -0.977   0.401  1.00  0.00     0.688 A 
HETATM   15  N2  UNL     1      -2.517   0.271   0.244  1.00  0.00    -0.182 N 
HETATM   16  C3  UNL     1      -3.520   1.163   0.135  1.00  0.00     0.162 A 
ATOM     17  H2  UNL     1      -1.524   0.503   0.213  1.00  0.00     0.184 HD
HETATM   18  C2  UNL     1      -3.621   2.533  -0.036  1.00  0.00     0.282 A 
HETATM   19  C16 UNL     1      -4.705   0.469   0.224  1.00  0.00     0.160 A 
HETATM   20  N1  UNL     1      -4.792   3.188  -0.116  1.00  0.00    -0.269 N 
HETATM   21  O1  UNL     1      -2.549   3.183  -0.120  1.00  0.00    -0.265 OA
HETATM   22  C1  UNL     1      -4.871   4.630  -0.296  1.00  0.00     0.164 C 
HETATM   23  C18 UNL     1      -5.927   2.467  -0.024  1.00  0.00     0.332 A 
HETATM   24  N10 UNL     1      -5.868   1.137   0.142  1.00  0.00    -0.287 N 
HETATM   25  O5  UNL     1      -7.029   3.059  -0.096  1.00  0.00    -0.246 OA
HETATM   26  C17 UNL     1      -7.100   0.406   0.236  1.00  0.00     0.163 C 
HETATM   27  N9  UNL     1      -4.348  -0.837   0.386  1.00  0.00    -0.173 N 
ATOM     28  H9  UNL     1      -5.009  -1.607   0.483  1.00  0.00     0.186 HD
ENDBRANCH   1  14
BRANCH  12  29
HETATM   29  C11 UNL     1       2.144  -0.714   0.166  1.00  0.00     0.225 C 
BRANCH  29  30
HETATM   30  N6  UNL     1       3.145   0.195  -0.342  1.00  0.00    -0.351 N 
HETATM   31  C12 UNL     1       4.497  -0.023   0.014  1.00  0.00     0.248 C 
HETATM   32  O3  UNL     1       4.791  -0.993   0.757  1.00  0.00    -0.271 OA
ATOM     33  H6  UNL     1       2.883   0.976  -0.944  1.00  0.00     0.163 HD
BRANCH  31  34
HETATM   34  C13 UNL     1       5.593   0.879  -0.474  1.00  0.00     0.278 C 
BRANCH  34  35
HETATM   35  N7  UNL     1       4.992   1.895  -1.296  1.00  0.00    -0.066 N 
ATOM     36  H73 UNL     1       4.429   1.509  -2.054  1.00  0.00     0.275 HD
ATOM     37  H72 UNL     1       4.246   2.401  -0.818  1.00  0.00     0.275 HD
ATOM     38  H71 UNL     1       5.737   2.508  -1.628  1.00  0.00     0.275 HD
ENDBRANCH  34  35
BRANCH  34  39
HETATM   39  C14 UNL     1       6.264   1.442   0.742  1.00  0.00     0.103 C 
BRANCH  39  40
HETATM   40  C15 UNL     1       7.398   2.377   0.420  1.00  0.00     0.318 C 
BRANCH  40  41
HETATM   41  N8  UNL     1       7.940   2.834   1.707  1.00  0.00    -0.053 N 
ATOM     42  H83 UNL     1       7.236   3.248   2.318  1.00  0.00     0.277 HD
ATOM     43  H82 UNL     1       8.210   2.069   2.326  1.00  0.00     0.277 HD
ATOM     44  H81 UNL     1       8.709   3.468   1.489  1.00  0.00     0.277 HD
ENDBRANCH  40  41
BRANCH  40  45
HETATM   45  O4  UNL     1       8.396   1.702  -0.273  1.00  0.00    -0.370 OA
ATOM     46  H4  UNL     1       9.112   2.292  -0.476  1.00  0.00     0.212 HD
ENDBRANCH  40  45
ENDBRANCH  39  40
ENDBRANCH  34  39
ENDBRANCH  31  34
ENDBRANCH  29  30
ENDBRANCH  12  29
TORSDOF 9
