REMARK  10 active torsions:
REMARK  status: ('A' for Active; 'I' for Inactive)
REMARK    1  A    between atoms: C2_3  and  N2_4 
REMARK    2  A    between atoms: N2_4  and  N3_6 
REMARK    3  A    between atoms: N6_21  and  C9_22 
REMARK    4  A    between atoms: C9_22  and  C10_23 
REMARK    5  A    between atoms: C10_23  and  C11_24 
REMARK    6  A    between atoms: C11_24  and  N7_25 
REMARK       I    between atoms: N8_28  and  C14_29 
REMARK    7  A    between atoms: C14_29  and  C15_31 
REMARK    8  A    between atoms: C15_31  and  O5_32 
REMARK    9  A    between atoms: C15_31  and  C16_34 
REMARK   10  A    between atoms: C16_34  and  O6_35 
ROOT
HETATM    1  C1  UNL     1      -5.358  -2.674  -0.762  1.00  0.00     0.161 C 
HETATM    2  N1  UNL     1      -4.924  -1.420  -0.237  1.00  0.00    -0.297 N 
HETATM    3  C2  UNL     1      -4.831  -1.281   1.091  1.00  0.00     0.194 C 
HETATM    4  C3  UNL     1      -3.811  -0.541   1.729  1.00  0.00     0.292 C 
HETATM    5  O1  UNL     1      -3.510  -0.975   2.847  1.00  0.00    -0.264 OA
HETATM    6  N4  UNL     1      -3.165   0.538   1.264  1.00  0.00    -0.304 N 
ATOM      7  H4  UNL     1      -2.741   1.124   1.983  1.00  0.00     0.171 HD
HETATM    8  C4  UNL     1      -2.986   0.972   0.011  1.00  0.00     0.147 A 
HETATM    9  C5  UNL     1      -3.664   0.515  -1.118  1.00  0.00     0.152 A 
HETATM   10  C6  UNL     1      -4.638  -0.484  -1.200  1.00  0.00     0.280 C 
HETATM   11  O2  UNL     1      -5.306  -0.524  -2.251  1.00  0.00    -0.265 OA
HETATM   12  N5  UNL     1      -3.224   1.203  -2.193  1.00  0.00    -0.296 N 
HETATM   13  C7  UNL     1      -3.703   1.004  -3.565  1.00  0.00     0.161 C 
HETATM   14  C8  UNL     1      -2.315   2.044  -1.739  1.00  0.00     0.330 A 
HETATM   15  O3  UNL     1      -1.681   2.857  -2.467  1.00  0.00    -0.246 OA
HETATM   16  N6  UNL     1      -2.143   1.931  -0.400  1.00  0.00    -0.283 N 
ENDROOT
BRANCH  16  17
HETATM   17  C9  UNL     1      -1.239   2.659   0.439  1.00  0.00     0.137 C 
BRANCH  17  18
HETATM   18  C10 UNL     1       0.135   2.108   0.565  1.00  0.00     0.050 C 
BRANCH  18  19
HETATM   19  C11 UNL     1       0.241   0.734   1.111  1.00  0.00     0.274 C 
BRANCH  19  20
HETATM   20  N7  UNL     1       1.591   0.246   1.219  1.00  0.00     0.091 N 
HETATM   21  C12 UNL     1       2.154   0.045  -0.078  1.00  0.00     0.292 C 
HETATM   22  C13 UNL     1       3.494  -0.687  -0.008  1.00  0.00     0.156 C 
HETATM   23  N8  UNL     1       4.322  -0.085   0.996  1.00  0.00    -0.347 N 
HETATM   24  C14 UNL     1       5.699   0.184   0.781  1.00  0.00     0.250 C 
HETATM   25  C17 UNL     1       3.747   0.267   2.273  1.00  0.00     0.156 C 
HETATM   26  O4  UNL     1       6.382   0.761   1.716  1.00  0.00    -0.270 OA
HETATM   27  C18 UNL     1       2.410   0.953   2.142  1.00  0.00     0.292 C 
BRANCH  24  28
HETATM   28  C15 UNL     1       6.471  -0.123  -0.427  1.00  0.00     0.233 C 
BRANCH  28  29
HETATM   29  O5  UNL     1       7.679   0.629  -0.411  1.00  0.00    -0.384 OA
ATOM     30  H5  UNL     1       8.179   0.430  -1.194  1.00  0.00     0.210 HD
ENDBRANCH  28  29
BRANCH  28  31
HETATM   31  C16 UNL     1       6.969  -1.577  -0.383  1.00  0.00     0.205 C 
BRANCH  31  32
HETATM   32  O6  UNL     1       5.948  -2.499  -0.396  1.00  0.00    -0.398 OA
ATOM     33  H6  UNL     1       6.256  -3.397  -0.369  1.00  0.00     0.209 HD
ENDBRANCH  31  32
ENDBRANCH  28  31
ENDBRANCH  24  28
ENDBRANCH  19  20
ENDBRANCH  18  19
ENDBRANCH  17  18
ENDBRANCH  16  17
BRANCH   3  34
HETATM   34  N2  UNL     1      -5.701  -1.810   1.808  1.00  0.00    -0.287 N 
ATOM     35  H2  UNL     1      -5.584  -1.677   2.812  1.00  0.00     0.188 HD
BRANCH  34  36
HETATM   36  N3  UNL     1      -6.779  -2.536   1.439  1.00  0.00    -0.343 N 
ATOM     37  H32 UNL     1      -6.879  -2.658   0.431  1.00  0.00     0.176 HD
ATOM     38  H31 UNL     1      -7.492  -2.969   2.026  1.00  0.00     0.176 HD
ENDBRANCH  34  36
ENDBRANCH   3  34
TORSDOF 10
