REMARK  12 active torsions:
REMARK  status: ('A' for Active; 'I' for Inactive)
REMARK    1  A    between atoms: N2_7  and  C3_8 
REMARK    2  A    between atoms: C4_10  and  C5_11 
REMARK    3  A    between atoms: C4_10  and  C6_14 
REMARK    4  A    between atoms: C5_11  and  O4_12 
REMARK    5  A    between atoms: C6_14  and  O5_15 
REMARK    6  A    between atoms: C8_23  and  C9_24 
REMARK    7  A    between atoms: C9_24  and  C10_25 
REMARK    8  A    between atoms: C10_25  and  C11_26 
REMARK    9  A    between atoms: C11_26  and  N4_27 
REMARK   10  A    between atoms: N5_30  and  C14_31 
REMARK   11  A    between atoms: C14_31  and  C15_32 
REMARK   12  A    between atoms: C15_32  and  O8_33 
ROOT
HETATM    1  O1  UNL     1       0.574   0.151   2.269  1.00  0.00    -0.266 OA
HETATM    2  C1  UNL     1      -0.533   0.084   1.686  1.00  0.00     0.269 A 
HETATM    3  N1  UNL     1      -1.644   0.623   2.211  1.00  0.00    -0.274 N 
ATOM      4  H1  UNL     1      -1.601   1.104   3.110  1.00  0.00     0.173 HD
HETATM    5  C2  UNL     1      -2.821   0.530   1.551  1.00  0.00     0.332 A 
HETATM    6  O2  UNL     1      -3.823   1.071   2.120  1.00  0.00    -0.246 OA
HETATM    7  N2  UNL     1      -2.926  -0.094   0.369  1.00  0.00    -0.266 N 
HETATM    8  C7  UNL     1      -1.804  -0.630  -0.145  1.00  0.00     0.125 A 
HETATM    9  C8  UNL     1      -0.566  -0.577   0.465  1.00  0.00     0.101 A 
ENDROOT
BRANCH   7  10
HETATM   10  C3  UNL     1      -4.201  -0.161  -0.276  1.00  0.00     0.380 C 
HETATM   11  O3  UNL     1      -4.989   0.903   0.173  1.00  0.00    -0.315 OA
HETATM   12  C4  UNL     1      -6.305   0.601  -0.043  1.00  0.00     0.189 C 
HETATM   13  N3  UNL     1      -6.631  -0.613   0.705  1.00  0.00    -0.279 N 
HETATM   14  S1  UNL     1      -5.179  -1.532   0.374  1.00  0.00     0.276 S 
ATOM     15  H3  UNL     1      -7.456  -0.852   1.254  1.00  0.00     0.175 HD
HETATM   16  O6  UNL     1      -5.452  -2.558  -0.660  1.00  0.00    -0.201 OA
HETATM   17  O7  UNL     1      -4.583  -2.087   1.622  1.00  0.00    -0.201 OA
BRANCH  12  18
HETATM   18  C5  UNL     1      -6.669   0.427  -1.496  1.00  0.00     0.228 C 
BRANCH  18  19
HETATM   19  O4  UNL     1      -8.049   0.179  -1.541  1.00  0.00    -0.396 OA
ATOM     20  H4  UNL     1      -8.278   0.069  -2.456  1.00  0.00     0.209 HD
ENDBRANCH  18  19
ENDBRANCH  12  18
BRANCH  12  21
HETATM   21  C6  UNL     1      -7.152   1.699   0.535  1.00  0.00     0.228 C 
BRANCH  21  22
HETATM   22  O5  UNL     1      -6.943   2.923  -0.093  1.00  0.00    -0.396 OA
ATOM     23  H5  UNL     1      -7.479   3.617   0.272  1.00  0.00     0.209 HD
ENDBRANCH  21  22
ENDBRANCH  12  21
ENDBRANCH   7  10
BRANCH   9  24
HETATM   24  C9  UNL     1       0.611  -1.172  -0.111  1.00  0.00    -0.058 C 
BRANCH  24  25
HETATM   25  C10 UNL     1       1.605  -1.707  -0.595  1.00  0.00    -0.070 C 
BRANCH  25  26
HETATM   26  C11 UNL     1       2.765  -2.370  -1.153  1.00  0.00     0.366 C 
BRANCH  26  27
HETATM   27  N4  UNL     1       3.981  -1.698  -0.892  1.00  0.00     0.102 N 
HETATM   28  C12 UNL     1       4.178  -0.434  -1.564  1.00  0.00     0.293 C 
HETATM   29  C13 UNL     1       5.712  -0.280  -1.632  1.00  0.00     0.147 C 
HETATM   30  N5  UNL     1       6.192  -0.148  -0.303  1.00  0.00    -0.407 N 
HETATM   31  C16 UNL     1       5.727  -1.136   0.627  1.00  0.00     0.147 C 
HETATM   32  C17 UNL     1       4.248  -1.441   0.510  1.00  0.00     0.293 C 
BRANCH  30  33
HETATM   33  C14 UNL     1       6.325   1.169   0.217  1.00  0.00     0.143 C 
BRANCH  33  34
HETATM   34  C15 UNL     1       7.450   1.896  -0.470  1.00  0.00     0.183 C 
BRANCH  34  35
HETATM   35  O8  UNL     1       7.526   3.172   0.089  1.00  0.00    -0.399 OA
ATOM     36  H8  UNL     1       8.236   3.631  -0.345  1.00  0.00     0.209 HD
ENDBRANCH  34  35
ENDBRANCH  33  34
ENDBRANCH  30  33
ENDBRANCH  26  27
ENDBRANCH  25  26
ENDBRANCH  24  25
ENDBRANCH   9  24
TORSDOF 12
