REMARK  7 active torsions:
REMARK  status: ('A' for Active; 'I' for Inactive)
REMARK    1  A    between atoms: C10_19  and  O5_20 
REMARK    2  A    between atoms: N3_22  and  O6_23 
REMARK    3  A    between atoms: O6_23  and  S1_24 
REMARK    4  A    between atoms: S1_24  and  N4_26 
REMARK    5  A    between atoms: N4_26  and  C11_28 
REMARK    6  A    between atoms: C11_28  and  C12_29 
REMARK    7  A    between atoms: C12_29  and  N5_30 
REMARK       I    between atoms: N6_33  and  C15_34 
ROOT
HETATM    1  N1  UNL     1      -0.276  -1.373   2.659  1.00  0.00    -0.233 N 
ATOM      2  H11 UNL     1       0.648  -1.678   2.354  1.00  0.00     0.174 HD
ATOM      3  H12 UNL     1      -0.758  -1.727   3.485  1.00  0.00     0.174 HD
HETATM    4  C1  UNL     1      -0.897  -0.462   1.944  1.00  0.00     0.699 C 
HETATM    5  N2  UNL     1      -2.194  -0.034   2.372  1.00  0.00    -0.223 N 
ATOM      6  H2  UNL     1      -2.842  -0.744   2.712  1.00  0.00     0.177 HD
HETATM    7  C2  UNL     1      -2.643   1.331   2.354  1.00  0.00     0.164 C 
HETATM    8  C3  UNL     1      -4.147   1.347   2.508  1.00  0.00     0.188 C 
HETATM    9  O1  UNL     1      -4.653   0.345   1.687  1.00  0.00    -0.387 OA
HETATM   10  C4  UNL     1      -5.760  -0.289   2.191  1.00  0.00     0.193 C 
HETATM   11  C5  UNL     1      -6.892  -0.129   1.192  1.00  0.00     0.193 C 
HETATM   12  O2  UNL     1      -6.356   0.175  -0.058  1.00  0.00    -0.387 OA
HETATM   13  C6  UNL     1      -6.779  -0.744  -0.997  1.00  0.00     0.193 C 
HETATM   14  C7  UNL     1      -6.359  -0.365  -2.380  1.00  0.00     0.193 C 
HETATM   15  O3  UNL     1      -5.120   0.259  -2.441  1.00  0.00    -0.387 OA
HETATM   16  C8  UNL     1      -4.103  -0.515  -1.909  1.00  0.00     0.194 C 
HETATM   17  C9  UNL     1      -2.919   0.368  -1.523  1.00  0.00     0.199 C 
HETATM   18  O4  UNL     1      -2.147  -0.188  -0.545  1.00  0.00    -0.340 OA
HETATM   19  C10 UNL     1      -0.846   0.224  -0.508  1.00  0.00     0.416 C 
HETATM   20  N3  UNL     1      -0.229   0.028   0.800  1.00  0.00    -0.018 N 
ENDROOT
BRANCH  20  21
HETATM   21  O6  UNL     1       1.102   0.342   0.920  1.00  0.00    -0.133 OA
BRANCH  21  22
HETATM   22  S1  UNL     1       2.074  -1.018   0.645  1.00  0.00     0.282 S 
HETATM   23  O7  UNL     1       1.266  -2.200   0.177  1.00  0.00    -0.203 OA
BRANCH  22  24
HETATM   24  N4  UNL     1       3.359  -0.585  -0.434  1.00  0.00    -0.315 N 
ATOM     25  H4  UNL     1       4.019  -1.251  -0.835  1.00  0.00     0.172 HD
BRANCH  24  26
HETATM   26  C11 UNL     1       3.379   0.820  -0.692  1.00  0.00     0.149 C 
BRANCH  26  27
HETATM   27  C12 UNL     1       4.475   1.247  -1.622  1.00  0.00     0.144 C 
BRANCH  27  28
HETATM   28  N5  UNL     1       5.755   0.893  -1.036  1.00  0.00    -0.159 NA
HETATM   29  C13 UNL     1       6.766   1.356  -2.003  1.00  0.00     0.146 C 
HETATM   30  C14 UNL     1       8.113   1.083  -1.316  1.00  0.00     0.181 C 
HETATM   31  N6  UNL     1       7.879  -0.090  -0.519  1.00  0.00    -0.175 N 
HETATM   32  C15 UNL     1       8.592  -0.292   0.680  1.00  0.00     0.356 C 
HETATM   33  O9  UNL     1       6.973  -0.976  -0.944  1.00  0.00    -0.087 OA
HETATM   34  N7  UNL     1       8.417  -1.422   1.520  1.00  0.00    -0.038 NA
HETATM   35  O8  UNL     1       9.459   0.546   1.097  1.00  0.00    -0.248 OA
HETATM   36  O10 UNL     1       5.787  -0.421  -0.848  1.00  0.00    -0.115 OA
ENDBRANCH  27  28
ENDBRANCH  26  27
ENDBRANCH  24  26
ENDBRANCH  22  24
ENDBRANCH  21  22
ENDBRANCH  20  21
BRANCH  19  37
HETATM   37  O5  UNL     1      -0.651   1.551  -0.877  1.00  0.00    -0.352 OA
ATOM     38  H5  UNL     1       0.254   1.838  -0.851  1.00  0.00     0.214 HD
ENDBRANCH  19  37
TORSDOF 7
