REMARK  11 active torsions:
REMARK  status: ('A' for Active; 'I' for Inactive)
REMARK    1  A    between atoms: C2_2  and  O1_3 
REMARK    2  A    between atoms: C2_2  and  C3_5 
REMARK    3  A    between atoms: C5_8  and  N2_9 
REMARK    4  A    between atoms: N3_13  and  C9_14 
REMARK    5  A    between atoms: C9_14  and  O2_15 
REMARK    6  A    between atoms: C12_19  and  N4_20 
REMARK    7  A    between atoms: N4_20  and  C13_22 
REMARK    8  A    between atoms: C13_22  and  O3_23 
REMARK    9  A    between atoms: C13_22  and  C14_25 
REMARK   10  A    between atoms: C14_25  and  N5_28 
REMARK   11  A    between atoms: C19_33  and  N7_34 
ROOT
HETATM    1  N7  UNL     1       5.308   0.186  -1.965  1.00  0.00    -0.126 N 
ATOM      2  H7  UNL     1       5.726  -0.606  -2.454  1.00  0.00     0.197 HD
HETATM    3  C20 UNL     1       5.178   1.440  -2.622  1.00  0.00     0.196 C 
HETATM    4  N8  UNL     1       5.089   2.461  -3.159  1.00  0.00    -0.171 NA
ENDROOT
BRANCH   1   5
HETATM    5  C19 UNL     1       4.851   0.036  -0.616  1.00  0.00     0.686 A 
HETATM    6  N5  UNL     1       3.864  -0.768  -0.033  1.00  0.00    -0.203 N 
HETATM    7  C17 UNL     1       3.863  -0.480   1.414  1.00  0.00     0.162 A 
HETATM    8  C18 UNL     1       4.920   0.554   1.587  1.00  0.00     0.158 A 
HETATM    9  N6  UNL     1       5.449   0.783   0.293  1.00  0.00    -0.224 N 
ATOM     10  H6  UNL     1       6.199   1.443   0.089  1.00  0.00     0.177 HD
BRANCH   6  11
HETATM   11  C14 UNL     1       3.008  -1.697  -0.698  1.00  0.00     0.086 C 
HETATM   12  C15 UNL     1       3.125  -3.047  -0.008  1.00  0.00     0.043 C 
HETATM   13  C16 UNL     1       3.235  -1.809  -2.171  1.00  0.00     0.043 C 
BRANCH  11  14
HETATM   14  C13 UNL     1       1.523  -1.308  -0.510  1.00  0.00     0.242 C 
BRANCH  14  15
HETATM   15  N4  UNL     1       1.372  -0.031  -1.057  1.00  0.00    -0.376 N 
ATOM     16  H4  UNL     1       2.140   0.330  -1.623  1.00  0.00     0.157 HD
BRANCH  15  17
HETATM   17  C12 UNL     1       0.285   0.770  -0.896  1.00  0.00     0.242 C 
HETATM   18  C11 UNL     1      -1.070   0.426  -1.354  1.00  0.00     0.287 C 
HETATM   19  N1  UNL     1      -1.806   1.667  -1.120  1.00  0.00     0.127 N 
HETATM   20  C10 UNL     1      -1.844  -0.490  -0.469  1.00  0.00     0.040 C 
HETATM   21  C3  UNL     1      -1.747   1.961   0.300  1.00  0.00     0.375 C 
HETATM   22  C4  UNL     1      -3.165   1.141  -1.353  1.00  0.00     0.334 C 
HETATM   23  S1  UNL     1      -0.140   1.286   0.776  1.00  0.00     0.202 S 
HETATM   24  O4  UNL     1       0.765   2.334   1.281  1.00  0.00    -0.223 OA
HETATM   25  O5  UNL     1      -0.300   0.139   1.697  1.00  0.00    -0.223 OA
HETATM   26  C5  UNL     1      -3.088  -0.084  -0.454  1.00  0.00     0.060 C 
BRANCH  21  27
HETATM   27  C2  UNL     1      -1.708   3.483   0.407  1.00  0.00     0.162 C 
HETATM   28  C1  UNL     1      -1.670   3.934   1.840  1.00  0.00     0.042 C 
BRANCH  27  29
HETATM   29  O1  UNL     1      -0.583   3.986  -0.253  1.00  0.00    -0.393 OA
ATOM     30  H1  UNL     1      -0.607   3.701  -1.159  1.00  0.00     0.210 HD
ENDBRANCH  27  29
ENDBRANCH  21  27
BRANCH  26  31
HETATM   31  N2  UNL     1      -4.260  -0.560   0.235  1.00  0.00    -0.267 N 
HETATM   32  C6  UNL     1      -5.503  -0.041   0.023  1.00  0.00     0.118 A 
HETATM   33  C7  UNL     1      -6.412  -0.690   0.818  1.00  0.00     0.038 A 
HETATM   34  C8  UNL     1      -5.702  -1.618   1.524  1.00  0.00     0.114 A 
HETATM   35  N3  UNL     1      -4.411  -1.500   1.138  1.00  0.00    -0.274 N 
BRANCH  35  36
HETATM   36  C9  UNL     1      -3.371  -2.318   1.718  1.00  0.00     0.313 C 
BRANCH  36  37
HETATM   37  O2  UNL     1      -3.109  -3.479   1.004  1.00  0.00    -0.380 OA
ATOM     38  H2  UNL     1      -2.425  -4.017   1.385  1.00  0.00     0.211 HD
ENDBRANCH  36  37
ENDBRANCH  35  36
ENDBRANCH  26  31
ENDBRANCH  15  17
ENDBRANCH  14  15
BRANCH  14  39
HETATM   39  O3  UNL     1       0.878  -2.342  -1.241  1.00  0.00    -0.375 OA
ATOM     40  H3  UNL     1       0.981  -3.210  -0.869  1.00  0.00     0.212 HD
ENDBRANCH  14  39
ENDBRANCH  11  14
ENDBRANCH   6  11
ENDBRANCH   1   5
TORSDOF 11
