REMARK  8 active torsions:
REMARK  status: ('A' for Active; 'I' for Inactive)
REMARK    1  A    between atoms: C2_2  and  N1_3 
REMARK    2  A    between atoms: C5_9  and  N3_10 
REMARK    3  A    between atoms: N3_10  and  C6_12 
REMARK    4  A    between atoms: C6_12  and  C7_13 
REMARK    5  A    between atoms: C7_13  and  S1_14 
REMARK    6  A    between atoms: S1_14  and  C8_15 
REMARK    7  A    between atoms: N7_21  and  N8_22 
REMARK       I    between atoms: N8_22  and  C9_24 
REMARK    8  A    between atoms: C9_24  and  C10_26 
REMARK       I    between atoms: C10_26  and  N9_28 
ROOT
HETATM    1  C7  UNL     1       1.322  -1.460   0.091  1.00  0.00     0.103 C 
ENDROOT
BRANCH   1   2
HETATM    2  C6  UNL     1       0.166  -0.515  -0.246  1.00  0.00     0.148 C 
BRANCH   2   3
HETATM    3  N3  UNL     1      -0.925  -0.732   0.686  1.00  0.00    -0.225 N 
ATOM      4  H3  UNL     1      -0.734  -1.087   1.623  1.00  0.00     0.177 HD
BRANCH   3   5
HETATM    5  C5  UNL     1      -2.137  -0.475   0.327  1.00  0.00     0.680 A 
HETATM    6  N2  UNL     1      -3.208  -0.653   1.142  1.00  0.00    -0.182 N 
HETATM    7  C4  UNL     1      -4.308  -0.290   0.455  1.00  0.00     0.162 A 
ATOM      8  H2  UNL     1      -3.184  -0.999   2.101  1.00  0.00     0.184 HD
HETATM    9  C3  UNL     1      -5.657  -0.261   0.774  1.00  0.00     0.282 A 
HETATM   10  C12 UNL     1      -3.928   0.126  -0.823  1.00  0.00     0.160 A 
HETATM   11  N1  UNL     1      -6.564   0.157  -0.126  1.00  0.00    -0.264 N 
HETATM   12  O1  UNL     1      -6.040  -0.629   1.915  1.00  0.00    -0.265 OA
HETATM   13  C14 UNL     1      -6.145   0.548  -1.344  1.00  0.00     0.332 A 
HETATM   14  N13 UNL     1      -4.855   0.540  -1.705  1.00  0.00    -0.287 N 
HETATM   15  O4  UNL     1      -7.006   0.937  -2.176  1.00  0.00    -0.246 OA
HETATM   16  C13 UNL     1      -4.465   0.974  -3.032  1.00  0.00     0.163 C 
HETATM   17  N12 UNL     1      -2.583  -0.006  -0.853  1.00  0.00    -0.174 N 
ATOM     18  H12 UNL     1      -1.992   0.217  -1.654  1.00  0.00     0.186 HD
BRANCH  11  19
HETATM   19  C2  UNL     1      -7.968   0.177   0.236  1.00  0.00     0.133 C 
HETATM   20  C1  UNL     1      -8.587  -1.155  -0.119  1.00  0.00     0.027 C 
ENDBRANCH  11  19
ENDBRANCH   3   5
ENDBRANCH   2   3
ENDBRANCH   1   2
BRANCH   1  21
HETATM   21  S1  UNL     1       1.839  -1.075   1.782  1.00  0.00    -0.088 SA
BRANCH  21  22
HETATM   22  C8  UNL     1       2.544   0.560   1.894  1.00  0.00     0.197 A 
HETATM   23  N4  UNL     1       1.874   1.679   2.142  1.00  0.00    -0.264 N 
HETATM   24  N5  UNL     1       2.736   2.671   2.147  1.00  0.00    -0.223 N 
ATOM     25  H4  UNL     1       0.869   1.755   2.300  1.00  0.00     0.190 HD
HETATM   26  N6  UNL     1       3.934   2.156   1.902  1.00  0.00     0.019 NA
ATOM     27  H5  UNL     1       2.523   3.655   2.309  1.00  0.00     0.205 HD
HETATM   28  N7  UNL     1       3.856   0.848   1.739  1.00  0.00    -0.151 N 
BRANCH  28  29
HETATM   29  N8  UNL     1       4.888  -0.051   1.467  1.00  0.00    -0.240 N 
HETATM   30  C9  UNL     1       6.203   0.441   1.339  1.00  0.00     0.329 C 
HETATM   31  O2  UNL     1       6.468   1.664   1.464  1.00  0.00    -0.261 OA
ATOM     32  H8  UNL     1       4.694  -1.047   1.363  1.00  0.00     0.192 HD
BRANCH  30  33
HETATM   33  C10 UNL     1       7.280  -0.490   1.056  1.00  0.00     0.317 C 
HETATM   34  O3  UNL     1       7.066  -1.724   0.922  1.00  0.00    -0.262 OA
HETATM   35  N9  UNL     1       8.612  -0.050   0.920  1.00  0.00    -0.295 N 
HETATM   36  C11 UNL     1       9.341  -0.531  -0.016  1.00  0.00     0.203 C 
ATOM     37  H9  UNL     1       8.992   0.646   1.562  1.00  0.00     0.171 HD
HETATM   38  N10 UNL     1      10.679  -0.071  -0.132  1.00  0.00    -0.066 NA
HETATM   39  N11 UNL     1       8.808  -1.491  -0.897  1.00  0.00    -0.066 NA
ENDBRANCH  30  33
ENDBRANCH  28  29
ENDBRANCH  21  22
ENDBRANCH   1  21
TORSDOF 8
