REMARK  9 active torsions:
REMARK  status: ('A' for Active; 'I' for Inactive)
REMARK    1  A    between atoms: C3_5  and  N2_6 
REMARK    2  A    between atoms: N4_11  and  C4_12 
REMARK    3  A    between atoms: C4_12  and  C5_13 
REMARK    4  A    between atoms: C5_13  and  C6_14 
REMARK    5  A    between atoms: C6_14  and  C7_15 
REMARK    6  A    between atoms: C7_15  and  N5_16 
REMARK    7  A    between atoms: N5_16  and  C8_18 
REMARK    8  A    between atoms: C9_21  and  N7_22 
REMARK    9  A    between atoms: N7_22  and  C10_24 
ROOT
HETATM    1  C8  UNL     1      -0.945  -0.125   1.227  1.00  0.00     0.681 A 
HETATM    2  N6  UNL     1      -1.544  -0.963   0.348  1.00  0.00    -0.176 N 
ATOM      3  H6  UNL     1      -1.125  -1.878   0.185  1.00  0.00     0.186 HD
HETATM    4  C9  UNL     1      -2.666  -0.644  -0.320  1.00  0.00     0.137 A 
HETATM    5  C13 UNL     1      -3.197   0.614  -0.064  1.00  0.00     0.121 A 
HETATM    6  C14 UNL     1      -4.348   1.001  -0.719  1.00  0.00     0.269 A 
HETATM    7  O2  UNL     1      -4.901   0.203  -1.543  1.00  0.00    -0.267 OA
HETATM    8  N8  UNL     1      -4.849   2.217  -0.462  1.00  0.00    -0.270 N 
HETATM    9  C15 UNL     1      -6.060   2.595  -1.166  1.00  0.00     0.164 C 
HETATM   10  C16 UNL     1      -4.237   3.039   0.417  1.00  0.00     0.332 A 
HETATM   11  O3  UNL     1      -4.760   4.181   0.620  1.00  0.00    -0.246 OA
HETATM   12  N9  UNL     1      -3.113   2.697   1.076  1.00  0.00    -0.288 N 
HETATM   13  C17 UNL     1      -2.470   3.606   2.024  1.00  0.00     0.163 C 
HETATM   14  C18 UNL     1      -2.591   1.480   0.834  1.00  0.00     0.146 A 
HETATM   15  N10 UNL     1      -1.463   1.097   1.474  1.00  0.00    -0.175 N 
ATOM     16  H10 UNL     1      -1.008   1.725   2.137  1.00  0.00     0.186 HD
ENDROOT
BRANCH   1  17
HETATM   17  N5  UNL     1       0.137  -0.524   1.824  1.00  0.00    -0.226 N 
ATOM     18  H5  UNL     1       0.486  -1.456   1.600  1.00  0.00     0.177 HD
BRANCH  17  19
HETATM   19  C7  UNL     1       0.876   0.253   2.775  1.00  0.00     0.138 C 
BRANCH  19  20
HETATM   20  C6  UNL     1       1.832   1.246   2.231  1.00  0.00     0.022 C 
BRANCH  20  21
HETATM   21  C5  UNL     1       2.966   0.777   1.415  1.00  0.00     0.024 C 
BRANCH  21  22
HETATM   22  C4  UNL     1       2.596   0.043   0.157  1.00  0.00     0.154 C 
BRANCH  22  23
HETATM   23  N4  UNL     1       3.811  -0.329  -0.591  1.00  0.00    -0.241 N 
HETATM   24  N3  UNL     1       4.339   0.469  -1.498  1.00  0.00    -0.275 N 
HETATM   25  C3  UNL     1       5.457   0.130  -2.190  1.00  0.00     0.183 A 
ATOM     26  H3  UNL     1       3.894   1.368  -1.685  1.00  0.00     0.189 HD
HETATM   27  C2  UNL     1       6.068  -1.088  -1.941  1.00  0.00     0.296 A 
HETATM   28  N1  UNL     1       5.532  -1.899  -1.020  1.00  0.00    -0.266 N 
HETATM   29  O1  UNL     1       7.102  -1.421  -2.568  1.00  0.00    -0.264 OA
HETATM   30  C1  UNL     1       6.150  -3.199  -0.728  1.00  0.00     0.165 C 
HETATM   31  C19 UNL     1       4.420  -1.507  -0.366  1.00  0.00     0.345 A 
HETATM   32  O4  UNL     1       3.908  -2.274   0.509  1.00  0.00    -0.245 OA
BRANCH  25  33
HETATM   33  N2  UNL     1       5.969   0.917  -3.077  1.00  0.00    -0.380 N 
ATOM     34  H22 UNL     1       6.809   0.662  -3.597  1.00  0.00     0.158 HD
ATOM     35  H21 UNL     1       5.519   1.814  -3.260  1.00  0.00     0.158 HD
ENDBRANCH  25  33
ENDBRANCH  22  23
ENDBRANCH  21  22
ENDBRANCH  20  21
ENDBRANCH  19  20
ENDBRANCH  17  19
ENDBRANCH   1  17
BRANCH   4  36
HETATM   36  N7  UNL     1      -3.265  -1.389  -1.151  1.00  0.00    -0.370 N 
ATOM     37  H7  UNL     1      -4.108  -1.008  -1.581  1.00  0.00     0.161 HD
BRANCH  36  38
HETATM   38  C10 UNL     1      -2.884  -2.706  -1.549  1.00  0.00     0.083 A 
HETATM   39  C11 UNL     1      -3.447  -3.812  -0.650  1.00  0.00     0.027 A 
HETATM   40  C12 UNL     1      -3.841  -3.691  -2.074  1.00  0.00     0.027 A 
ENDBRANCH  36  38
ENDBRANCH   4  36
TORSDOF 9
