REMARK  6 active torsions:
REMARK  status: ('A' for Active; 'I' for Inactive)
REMARK    1  A    between atoms: N1_1  and  C1_5 
REMARK    2  A    between atoms: C4_8  and  C5_9 
REMARK    3  A    between atoms: C5_9  and  N2_10 
REMARK    4  A    between atoms: N2_10  and  C6_12 
REMARK    5  A    between atoms: C7_15  and  N4_16 
REMARK    6  A    between atoms: N4_16  and  C8_18 
ROOT
HETATM    1  C6  UNL     1       0.549   0.660  -1.662  1.00  0.00     0.157 A 
HETATM    2  N3  UNL     1      -0.416   0.609  -0.731  1.00  0.00    -0.174 N 
ATOM      3  H3  UNL     1      -0.146   0.492   0.246  1.00  0.00     0.186 HD
HETATM    4  C7  UNL     1      -1.745   0.707  -1.035  1.00  0.00     0.679 A 
HETATM    5  N5  UNL     1      -2.068   0.861  -2.330  1.00  0.00    -0.199 N 
ATOM      6  H5  UNL     1      -3.051   0.938  -2.592  1.00  0.00     0.183 HD
HETATM    7  C15 UNL     1      -1.122   0.916  -3.294  1.00  0.00     0.152 A 
HETATM    8  C16 UNL     1       0.206   0.818  -2.984  1.00  0.00     0.176 A 
HETATM    9  F1  UNL     1       1.199   0.868  -3.914  1.00  0.00    -0.201 F 
ENDROOT
BRANCH   1  10
HETATM   10  N2  UNL     1       1.792   0.561  -1.301  1.00  0.00    -0.373 N 
ATOM     11  H2  UNL     1       2.529   0.601  -2.005  1.00  0.00     0.161 HD
BRANCH  10  12
HETATM   12  C5  UNL     1       2.135   0.396   0.085  1.00  0.00     0.126 C 
BRANCH  12  13
HETATM   13  C4  UNL     1       3.660   0.419   0.171  1.00  0.00     0.003 C 
HETATM   14  C3  UNL     1       4.228  -0.697  -0.648  1.00  0.00     0.008 C 
HETATM   15  C2  UNL     1       4.671  -1.871   0.197  1.00  0.00     0.033 C 
HETATM   16  C1  UNL     1       5.638  -1.487   1.277  1.00  0.00     0.183 C 
HETATM   17  C18 UNL     1       5.477  -0.050   1.726  1.00  0.00     0.033 C 
HETATM   18  C17 UNL     1       4.028   0.319   1.630  1.00  0.00     0.008 C 
BRANCH  16  19
HETATM   19  N1  UNL     1       6.992  -1.608   0.730  1.00  0.00    -0.075 N 
ATOM     20  H13 UNL     1       7.180  -2.532   0.340  1.00  0.00     0.274 HD
ATOM     21  H12 UNL     1       7.122  -1.070  -0.127  1.00  0.00     0.274 HD
ATOM     22  H11 UNL     1       7.650  -1.347   1.465  1.00  0.00     0.274 HD
ENDBRANCH  16  19
ENDBRANCH  12  13
ENDBRANCH  10  12
ENDBRANCH   1  10
BRANCH   4  23
HETATM   23  N4  UNL     1      -2.610   0.649  -0.084  1.00  0.00    -0.221 N 
ATOM     24  H4  UNL     1      -2.296   0.531   0.879  1.00  0.00     0.178 HD
BRANCH  23  25
HETATM   25  C8  UNL     1      -4.002   0.748  -0.367  1.00  0.00     0.103 C 
HETATM   26  C9  UNL     1      -4.599  -0.561  -0.854  1.00  0.00     0.030 C 
HETATM   27  C10 UNL     1      -5.784  -0.863   0.036  1.00  0.00    -0.012 C 
HETATM   28  C11 UNL     1      -5.271  -1.335   1.354  1.00  0.00     0.005 C 
HETATM   29  C14 UNL     1      -6.202   0.575   0.392  1.00  0.00     0.011 C 
HETATM   30  C12 UNL     1      -4.505  -0.100   1.854  1.00  0.00     0.007 C 
HETATM   31  C13 UNL     1      -4.812   1.002   0.891  1.00  0.00     0.009 C 
ENDBRANCH  23  25
ENDBRANCH   4  23
TORSDOF 6
