REMARK  4 active torsions:
REMARK  status: ('A' for Active; 'I' for Inactive)
REMARK    1  A    between atoms: N2_7  and  C5_9 
REMARK    2  A    between atoms: C7_11  and  N3_12 
REMARK    3  A    between atoms: N3_12  and  C8_14 
REMARK    4  A    between atoms: C8_14  and  C9_15 
ROOT
HETATM    1  C5  UNL     1       0.962  -1.123  -0.695  1.00  0.00     0.125 A 
HETATM    2  C6  UNL     1      -0.029  -0.165  -0.827  1.00  0.00     0.099 A 
HETATM    3  C7  UNL     1      -1.209  -0.672  -0.373  1.00  0.00     0.119 A 
HETATM    4  N4  UNL     1      -0.944  -1.931   0.034  1.00  0.00    -0.284 N 
ATOM      5  H4  UNL     1      -1.624  -2.581   0.428  1.00  0.00     0.188 HD
HETATM    6  N5  UNL     1       0.353  -2.189  -0.162  1.00  0.00    -0.284 N 
ATOM      7  H5  UNL     1       0.813  -3.072   0.062  1.00  0.00     0.188 HD
ENDROOT
BRANCH   1   8
HETATM    8  N2  UNL     1       2.337  -1.018  -1.044  1.00  0.00    -0.327 N 
HETATM    9  C4  UNL     1       3.161  -0.355  -0.301  1.00  0.00     0.114 A 
HETATM   10  N1  UNL     1       2.776   0.267   0.827  1.00  0.00    -0.351 N 
HETATM   11  C13 UNL     1       4.484  -0.271  -0.663  1.00  0.00     0.004 A 
HETATM   12  C3  UNL     1       3.650   0.946   1.574  1.00  0.00     0.098 A 
ATOM     13  H1  UNL     1       1.799   0.219   1.117  1.00  0.00     0.166 HD
HETATM   14  C2  UNL     1       4.990   1.053   1.244  1.00  0.00    -0.024 A 
HETATM   15  C1  UNL     1       5.967   1.797   2.055  1.00  0.00     0.051 C 
HETATM   16  C15 UNL     1       5.397   0.425   0.097  1.00  0.00     0.051 A 
HETATM   17 CL1  UNL     1       7.071   0.480  -0.442  1.00  0.00    -0.083 Cl
HETATM   18  C14 UNL     1       4.930  -0.961  -1.922  1.00  0.00     0.054 C 
ATOM     19  H2  UNL     1       2.677  -1.472  -1.892  1.00  0.00     0.169 HD
ENDBRANCH   1   8
BRANCH   3  20
HETATM   20  N3  UNL     1      -2.335  -0.046  -0.352  1.00  0.00    -0.375 N 
ATOM     21  H3  UNL     1      -2.370   0.912  -0.700  1.00  0.00     0.161 HD
BRANCH  20  22
HETATM   22  C8  UNL     1      -3.555  -0.653   0.148  1.00  0.00     0.128 C 
BRANCH  22  23
HETATM   23  C9  UNL     1      -4.570   0.456   0.297  1.00  0.00     0.029 C 
HETATM   24  C10 UNL     1      -5.898  -0.052   0.816  1.00  0.00     0.034 C 
HETATM   25  C11 UNL     1      -6.866   0.866   0.135  1.00  0.00     0.168 C 
HETATM   26  O1  UNL     1      -6.219   1.524  -0.872  1.00  0.00    -0.391 OA
HETATM   27  C12 UNL     1      -4.997   0.933  -1.090  1.00  0.00     0.173 C 
ENDBRANCH  22  23
ENDBRANCH  20  22
ENDBRANCH   3  20
TORSDOF 4
