REMARK  2 active torsions:
REMARK  status: ('A' for Active; 'I' for Inactive)
REMARK    1  A    between atoms: C3_4  and  C4_5 
REMARK    2  A    between atoms: C6_9  and  N2_10 
ROOT
HETATM    1  F1  UNL     1      -2.440   1.259  -3.291  1.00  0.00    -0.249 F 
HETATM    2  C1  UNL     1      -1.554   1.404  -2.255  1.00  0.00     0.174 C 
HETATM    3  C2  UNL     1      -0.513   0.283  -2.231  1.00  0.00     0.076 C 
HETATM    4  C3  UNL     1      -0.054   0.246  -0.767  1.00  0.00     0.240 C 
HETATM    5  N4  UNL     1      -1.087  -0.407  -0.032  1.00  0.00    -0.056 N 
ATOM      6  H41 UNL     1      -0.810  -0.577   0.935  1.00  0.00     0.279 HD
ATOM      7  H42 UNL     1      -1.207  -1.374  -0.332  1.00  0.00     0.279 HD
HETATM    8  C11 UNL     1      -2.343   0.340  -0.108  1.00  0.00     0.133 C 
HETATM    9  C12 UNL     1      -2.172   1.616  -0.926  1.00  0.00     0.076 C 
HETATM   10  C13 UNL     1      -3.339  -0.511  -0.792  1.00  0.00     0.072 C 
HETATM   11  C14 UNL     1      -4.431  -1.064   0.056  1.00  0.00     0.189 C 
HETATM   12  C15 UNL     1      -5.531   0.005   0.128  1.00  0.00     0.035 C 
HETATM   13  C16 UNL     1      -5.124   0.870   1.300  1.00  0.00     0.035 C 
HETATM   14  C17 UNL     1      -3.922   0.150   1.848  1.00  0.00     0.189 C 
HETATM   15  C18 UNL     1      -2.683   0.758   1.288  1.00  0.00     0.072 C 
HETATM   16  N5  UNL     1      -4.066  -1.254   1.440  1.00  0.00    -0.067 N 
ATOM     17  H51 UNL     1      -3.260  -1.855   1.612  1.00  0.00     0.278 HD
ATOM     18  H52 UNL     1      -4.706  -1.819   1.998  1.00  0.00     0.278 HD
ENDROOT
BRANCH   4  19
HETATM   19  C4  UNL     1       1.229  -0.439  -0.623  1.00  0.00     0.073 A 
HETATM   20  C5  UNL     1       1.465  -1.800  -0.697  1.00  0.00     0.134 A 
HETATM   21  N1  UNL     1       2.782  -1.989  -0.507  1.00  0.00    -0.200 N 
HETATM   22  C6  UNL     1       3.402  -0.790  -0.314  1.00  0.00     0.680 A 
ATOM     23  H1  UNL     1       3.249  -2.896  -0.507  1.00  0.00     0.183 HD
HETATM   24  N3  UNL     1       2.426   0.125  -0.391  1.00  0.00    -0.192 N 
ATOM     25  H3  UNL     1       2.574   1.129  -0.286  1.00  0.00     0.184 HD
BRANCH  22  26
HETATM   26  N2  UNL     1       4.796  -0.594  -0.081  1.00  0.00    -0.218 N 
HETATM   27  C7  UNL     1       5.380   0.719   0.114  1.00  0.00     0.141 C 
HETATM   28  C8  UNL     1       6.460   0.400   1.151  1.00  0.00     0.022 C 
HETATM   29  C9  UNL     1       7.030  -0.887   0.540  1.00  0.00     0.022 C 
HETATM   30  C10 UNL     1       5.821  -1.602  -0.001  1.00  0.00     0.141 C 
ENDBRANCH  22  26
ENDBRANCH   4  19
TORSDOF 2
