REMARK  4 active torsions:
REMARK  status: ('A' for Active; 'I' for Inactive)
REMARK    1  A    between atoms: C1_2  and  C2_4 
REMARK    2  A    between atoms: C2_4  and  C3_5 
REMARK    3  A    between atoms: C3_5  and  C4_6 
REMARK    4  A    between atoms: C4_6  and  C5_7 
ROOT
HETATM    1  C5  UNL     1       1.434  -0.690  -0.155  1.00  0.00    -0.011 A 
HETATM    2  C6  UNL     1       1.815  -1.874   0.471  1.00  0.00     0.039 A 
HETATM    3  C7  UNL     1       0.872  -2.848   0.713  1.00  0.00     0.057 A 
HETATM    4 CL1  UNL     1       1.395  -4.321   1.502  1.00  0.00    -0.083 Cl
HETATM    5  C8  UNL     1      -0.443  -2.722   0.370  1.00  0.00     0.064 A 
HETATM    6 CL2  UNL     1      -1.624  -3.996   0.700  1.00  0.00    -0.082 Cl
HETATM    7  C9  UNL     1      -0.837  -1.542  -0.257  1.00  0.00    -0.003 A 
HETATM    8  C10 UNL     1       0.094  -0.555  -0.508  1.00  0.00     0.052 A 
HETATM    9  N2  UNL     1      -0.375   0.619  -1.159  1.00  0.00    -0.341 N 
ATOM     10  H2  UNL     1       0.284   1.371  -1.361  1.00  0.00     0.167 HD
HETATM   11  C11 UNL     1      -1.749   0.775  -1.539  1.00  0.00     0.115 A 
HETATM   12  N3  UNL     1      -2.180   1.891  -2.158  1.00  0.00    -0.308 N 
ATOM     13  H3  UNL     1      -1.510   2.635  -2.354  1.00  0.00     0.170 HD
HETATM   14  C12 UNL     1      -3.465   2.060  -2.527  1.00  0.00     0.268 A 
HETATM   15  O2  UNL     1      -3.866   3.102  -3.106  1.00  0.00    -0.266 OA
HETATM   16  C13 UNL     1      -4.383   1.068  -2.269  1.00  0.00     0.102 A 
HETATM   17 CL3  UNL     1      -6.075   1.229  -2.728  1.00  0.00    -0.078 Cl
HETATM   18  C14 UNL     1      -3.997  -0.084  -1.643  1.00  0.00     0.040 A 
HETATM   19  C15 UNL     1      -2.651  -0.209  -1.281  1.00  0.00    -0.008 A 
HETATM   20  C16 UNL     1      -2.273  -1.451  -0.612  1.00  0.00     0.085 A 
ENDROOT
BRANCH   1  21
HETATM   21  C4  UNL     1       2.406   0.350  -0.438  1.00  0.00    -0.013 C 
BRANCH  21  22
HETATM   22  C3  UNL     1       2.554   1.538   0.415  1.00  0.00     0.037 C 
BRANCH  22  23
HETATM   23  C2  UNL     1       2.973   1.389   1.826  1.00  0.00     0.103 C 
BRANCH  23  24
HETATM   24  C1  UNL     1       2.016   0.711   2.686  1.00  0.00     0.231 C 
HETATM   25  N1  UNL     1       2.570  -0.113   3.740  1.00  0.00    -0.062 NA
HETATM   26  O1  UNL     1       0.769   0.770   2.617  1.00  0.00    -0.277 OA
ENDBRANCH  23  24
ENDBRANCH  22  23
ENDBRANCH  21  22
ENDBRANCH   1  21
TORSDOF 4
