REMARK  8 active torsions:
REMARK  status: ('A' for Active; 'I' for Inactive)
REMARK    1  A    between atoms: C7_7  and  C8_8 
REMARK       I    between atoms: C8_8  and  N1_10 
REMARK    2  A    between atoms: N1_10  and  C10_12 
REMARK    3  A    between atoms: C10_12  and  C11_13 
REMARK    4  A    between atoms: C11_13  and  N2_14 
REMARK       I    between atoms: N3_24  and  C20_25 
REMARK    5  A    between atoms: C20_25  and  C21_27 
REMARK    6  A    between atoms: C26_32  and  C27_33 
REMARK       I    between atoms: C27_33  and  N4_35 
REMARK    7  A    between atoms: N4_35  and  C28_37 
REMARK    8  A    between atoms: C28_37  and  C29_38 
ROOT
HETATM    1  C1  UNL     1       1.541  -4.984   1.890  1.00  0.00     0.011 C 
HETATM    2  C2  UNL     1       1.057  -4.112   0.782  1.00  0.00    -0.000 C 
HETATM    3  C3  UNL     1      -0.364  -3.589   0.997  1.00  0.00     0.013 C 
HETATM    4  C4  UNL     1      -0.705  -2.971  -0.373  1.00  0.00     0.013 C 
HETATM    5  C5  UNL     1      -2.176  -2.963  -0.486  1.00  0.00    -0.004 C 
HETATM    6  C6  UNL     1      -2.929  -2.143   0.469  1.00  0.00     0.019 C 
HETATM    7  C7  UNL     1      -3.838  -1.099  -0.171  1.00  0.00     0.079 C 
HETATM    8  C16 UNL     1      -3.079   0.019  -0.782  1.00  0.00     0.022 C 
HETATM    9  C17 UNL     1      -1.844  -0.406  -1.592  1.00  0.00     0.028 C 
HETATM   10  C18 UNL     1      -0.627  -0.476  -0.741  1.00  0.00     0.033 C 
HETATM   11  C19 UNL     1       0.068  -1.741  -0.589  1.00  0.00     0.092 C 
HETATM   12  N3  UNL     1       1.183  -1.695   0.326  1.00  0.00    -0.343 N 
HETATM   13  C20 UNL     1       1.642  -0.602   1.068  1.00  0.00     0.247 C 
HETATM   14  O3  UNL     1       1.019   0.507   0.961  1.00  0.00    -0.268 OA
HETATM   15  C35 UNL     1       1.933  -2.961   0.445  1.00  0.00     0.130 C 
HETATM   16  C36 UNL     1      -2.177  -1.487  -2.530  1.00  0.00     0.104 C 
HETATM   17  C37 UNL     1      -1.247  -1.596  -3.719  1.00  0.00     0.052 C 
HETATM   18  F1  UNL     1      -3.397  -1.053  -3.111  1.00  0.00    -0.243 F 
HETATM   19  C38 UNL     1      -2.522  -2.810  -1.941  1.00  0.00     0.048 C 
ENDROOT
BRANCH  13  20
HETATM   20  C21 UNL     1       2.800  -0.530   2.005  1.00  0.00     0.001 C 
HETATM   21  C22 UNL     1       2.668  -1.363   3.220  1.00  0.00     0.041 C 
HETATM   22  C23 UNL     1       3.846  -2.013   3.798  1.00  0.00     0.004 C 
HETATM   23  C24 UNL     1       5.104  -1.978   2.973  1.00  0.00     0.001 C 
HETATM   24  C25 UNL     1       5.241  -0.723   2.187  1.00  0.00     0.019 C 
HETATM   25  C26 UNL     1       4.063  -0.522   1.243  1.00  0.00     0.112 C 
BRANCH  25  26
HETATM   26  C27 UNL     1       4.296   0.886   0.712  1.00  0.00     0.226 C 
HETATM   27  O4  UNL     1       3.534   1.791   1.056  1.00  0.00    -0.273 OA
HETATM   28  N4  UNL     1       5.404   1.090  -0.171  1.00  0.00    -0.360 N 
ATOM     29  H4  UNL     1       6.021   0.324  -0.442  1.00  0.00     0.162 HD
BRANCH  28  30
HETATM   30  C28 UNL     1       5.607   2.441  -0.662  1.00  0.00     0.127 C 
BRANCH  30  31
HETATM   31  C29 UNL     1       6.798   2.498  -1.579  1.00  0.00     0.003 C 
HETATM   32  C30 UNL     1       8.041   2.064  -0.852  1.00  0.00     0.006 C 
HETATM   33  C31 UNL     1       9.205   2.763  -1.570  1.00  0.00     0.000 C 
HETATM   34  C32 UNL     1       9.143   4.205  -1.117  1.00  0.00     0.000 C 
HETATM   35  C33 UNL     1       7.787   4.805  -1.406  1.00  0.00     0.000 C 
HETATM   36  C34 UNL     1       6.895   3.874  -2.165  1.00  0.00     0.006 C 
ENDBRANCH  30  31
ENDBRANCH  28  30
ENDBRANCH  25  26
ENDBRANCH  13  20
BRANCH   7  37
HETATM   37  C8  UNL     1      -4.671  -0.581   0.941  1.00  0.00     0.223 C 
HETATM   38  O1  UNL     1      -4.065  -0.549   2.089  1.00  0.00    -0.273 OA
HETATM   39  N1  UNL     1      -5.994  -0.140   0.898  1.00  0.00    -0.354 N 
HETATM   40  C9  UNL     1      -6.623   0.295   2.144  1.00  0.00     0.152 C 
BRANCH  39  41
HETATM   41  C10 UNL     1      -6.770  -0.066  -0.294  1.00  0.00     0.155 C 
BRANCH  41  42
HETATM   42  C11 UNL     1      -6.789   1.238  -1.004  1.00  0.00     0.292 C 
BRANCH  42  43
HETATM   43  N2  UNL     1      -7.322   2.350  -0.248  1.00  0.00     0.094 N 
HETATM   44  C12 UNL     1      -7.120   3.527  -1.071  1.00  0.00     0.298 C 
HETATM   45  C13 UNL     1      -8.185   3.721  -2.121  1.00  0.00     0.198 C 
HETATM   46  O2  UNL     1      -9.371   3.963  -1.392  1.00  0.00    -0.388 OA
HETATM   47  C14 UNL     1      -9.702   2.768  -0.811  1.00  0.00     0.198 C 
HETATM   48  C15 UNL     1      -8.702   2.198   0.139  1.00  0.00     0.298 C 
ENDBRANCH  42  43
ENDBRANCH  41  42
ENDBRANCH  39  41
ENDBRANCH   7  37
TORSDOF 8
