REMARK  13 active torsions:
REMARK  status: ('A' for Active; 'I' for Inactive)
REMARK    1  A    between atoms: N1_5  and  C5_6 
REMARK    2  A    between atoms: C5_6  and  O1_7 
REMARK    3  A    between atoms: C5_6  and  C6_9 
REMARK    4  A    between atoms: C15_19  and  C20_25 
REMARK    5  A    between atoms: N4_26  and  C21_27 
REMARK    6  A    between atoms: C21_27  and  C22_28 
REMARK    7  A    between atoms: C22_28  and  C23_29 
REMARK    8  A    between atoms: C23_29  and  N5_30 
REMARK    9  A    between atoms: N5_30  and  C26_33 
REMARK   10  A    between atoms: C26_33  and  C27_34 
REMARK   11  A    between atoms: C27_34  and  C28_35 
REMARK   12  A    between atoms: C28_35  and  N6_36 
REMARK       I    between atoms: N6_36  and  C29_38 
REMARK   13  A    between atoms: C29_38  and  C30_40 
ROOT
HETATM    1  C6  UNL     1      -1.562   0.178  -0.595  1.00  0.00     0.177 C 
HETATM    2  C7  UNL     1      -2.392  -1.084  -0.456  1.00  0.00     0.105 C 
HETATM    3  N2  UNL     1      -3.373  -1.586  -1.198  1.00  0.00    -0.272 NA
HETATM    4  C8  UNL     1      -2.848  -2.330  -2.291  1.00  0.00     0.096 C 
HETATM    5  C9  UNL     1      -1.372  -2.208  -2.550  1.00  0.00     0.016 C 
HETATM    6  C10 UNL     1      -0.458  -2.076  -1.355  1.00  0.00     0.014 C 
HETATM    7  C11 UNL     1      -1.337  -2.035  -0.144  1.00  0.00    -0.001 C 
HETATM    8  C12 UNL     1      -1.470  -3.475   0.103  1.00  0.00     0.015 C 
HETATM    9  C13 UNL     1      -2.382  -4.020   1.098  1.00  0.00     0.026 C 
HETATM   10  C14 UNL     1      -2.900  -2.831   1.785  1.00  0.00     0.090 C 
HETATM   11  C15 UNL     1      -1.792  -1.828   2.172  1.00  0.00     0.032 C 
HETATM   12  C16 UNL     1      -2.483  -0.947   3.130  1.00  0.00     0.010 C 
HETATM   13  C17 UNL     1      -3.979  -1.175   3.281  1.00  0.00     0.020 C 
HETATM   14  C18 UNL     1      -4.734  -1.539   2.026  1.00  0.00     0.123 C 
HETATM   15  N3  UNL     1      -3.961  -2.269   1.091  1.00  0.00    -0.376 N 
HETATM   16  C19 UNL     1      -4.204  -2.385  -0.246  1.00  0.00     0.149 C 
HETATM   17  C20 UNL     1      -0.933  -1.325   1.091  1.00  0.00     0.100 C 
HETATM   18  N4  UNL     1      -1.009   0.064   0.695  1.00  0.00    -0.374 N 
ENDROOT
BRANCH  18  19
HETATM   19  C21 UNL     1      -0.001   0.902   1.132  1.00  0.00     0.061 C 
BRANCH  19  20
HETATM   20  C22 UNL     1       1.361   0.832   0.487  1.00  0.00     0.072 C 
BRANCH  20  21
HETATM   21  C23 UNL     1       2.303   1.789   1.117  1.00  0.00     0.241 C 
BRANCH  21  22
HETATM   22  N5  UNL     1       3.594   1.875   0.553  1.00  0.00    -0.074 N 
HETATM   23  C24 UNL     1       3.589   2.512  -0.761  1.00  0.00     0.272 C 
HETATM   24  C25 UNL     1       4.327   2.854   1.403  1.00  0.00     0.272 C 
BRANCH  22  25
HETATM   25  C26 UNL     1       4.305   0.645   0.584  1.00  0.00     0.238 C 
BRANCH  25  26
HETATM   26  C27 UNL     1       5.322   0.535  -0.548  1.00  0.00     0.048 C 
BRANCH  26  27
HETATM   27  C28 UNL     1       6.002  -0.808  -0.416  1.00  0.00     0.124 C 
BRANCH  27  28
HETATM   28  N6  UNL     1       6.976  -0.932  -1.477  1.00  0.00    -0.356 N 
HETATM   29  C29 UNL     1       6.600  -0.912  -2.831  1.00  0.00     0.258 C 
HETATM   30  O2  UNL     1       5.411  -0.793  -3.179  1.00  0.00    -0.267 OA
ATOM     31  H6  UNL     1       7.962  -1.037  -1.237  1.00  0.00     0.162 HD
BRANCH  29  32
HETATM   32  C30 UNL     1       7.676  -1.038  -3.847  1.00  0.00     0.074 A 
HETATM   33  C31 UNL     1       9.016  -1.202  -3.638  1.00  0.00     0.027 A 
HETATM   34  C32 UNL     1       9.798  -1.301  -4.725  1.00  0.00     0.033 A 
HETATM   35  C33 UNL     1       9.186  -1.228  -5.947  1.00  0.00     0.075 A 
HETATM   36 CL1  UNL     1       9.966  -1.325  -7.541  1.00  0.00    -0.076 Cl
HETATM   37  S1  UNL     1       7.547  -1.026  -5.548  1.00  0.00    -0.072 SA
ENDBRANCH  29  32
ENDBRANCH  27  28
ENDBRANCH  26  27
ENDBRANCH  25  26
ENDBRANCH  22  25
ENDBRANCH  21  22
ENDBRANCH  20  21
ENDBRANCH  19  20
ENDBRANCH  18  19
BRANCH   1  38
HETATM   38  C5  UNL     1      -2.374   1.343  -0.911  1.00  0.00     0.138 C 
BRANCH  38  39
HETATM   39  N1  UNL     1      -3.116   2.271  -0.198  1.00  0.00    -0.364 N 
HETATM   40  C4  UNL     1      -3.758   3.354  -0.970  1.00  0.00     0.125 C 
HETATM   41  C3  UNL     1      -5.228   3.441  -0.632  1.00  0.00     0.024 C 
HETATM   42  C2  UNL     1      -5.421   3.563   0.871  1.00  0.00    -0.015 C 
HETATM   43  C1  UNL     1      -6.150   2.324   1.337  1.00  0.00     0.010 C 
HETATM   44  C35 UNL     1      -4.079   3.592   1.564  1.00  0.00     0.024 C 
HETATM   45  C34 UNL     1      -3.375   2.269   1.188  1.00  0.00     0.125 C 
ENDBRANCH  38  39
BRANCH  38  46
HETATM   46  O1  UNL     1      -2.430   1.590  -2.218  1.00  0.00    -0.348 OA
ATOM     47  H1  UNL     1      -1.921   0.954  -2.707  1.00  0.00     0.219 HD
ENDBRANCH  38  46
ENDBRANCH   1  38
TORSDOF 13
