REMARK  10 active torsions:
REMARK  status: ('A' for Active; 'I' for Inactive)
REMARK    1  A    between atoms: C2_2  and  O1_3 
REMARK    2  A    between atoms: C3_5  and  C4_6 
REMARK    3  A    between atoms: C4_6  and  O2_7 
REMARK    4  A    between atoms: C5_10  and  O4_11 
REMARK    5  A    between atoms: O4_11  and  C6_12 
REMARK    6  A    between atoms: C8_15  and  O6_16 
REMARK    7  A    between atoms: C10_19  and  N1_20 
REMARK    8  A    between atoms: C11_24  and  O7_25 
REMARK    9  A    between atoms: C12_27  and  O8_28 
REMARK   10  A    between atoms: O8_28  and  C13_29 
ROOT
HETATM    1  C1  UNL     1      -2.358   2.660   1.454  1.00  0.00     0.051 C 
HETATM    2  C2  UNL     1      -1.093   1.850   1.147  1.00  0.00     0.111 C 
HETATM    3  C3  UNL     1      -0.162   2.727   0.408  1.00  0.00     0.184 C 
HETATM    4  O3  UNL     1       0.884   2.108  -0.220  1.00  0.00    -0.348 OA
HETATM    5  C5  UNL     1       0.921   0.734  -0.072  1.00  0.00     0.294 C 
HETATM    6  C11 UNL     1      -0.345   0.056  -0.468  1.00  0.00     0.205 C 
HETATM    7  C12 UNL     1      -1.448   0.561   0.474  1.00  0.00     0.192 C 
ENDROOT
BRANCH   5   8
HETATM    8  O4  UNL     1       1.948   0.230  -0.877  1.00  0.00    -0.327 OA
BRANCH   8   9
HETATM    9  C6  UNL     1       2.949  -0.387  -0.175  1.00  0.00     0.293 C 
HETATM   10  O5  UNL     1       4.098   0.417  -0.328  1.00  0.00    -0.357 OA
HETATM   11  C7  UNL     1       4.339   0.722  -1.658  1.00  0.00     0.202 C 
HETATM   12  C8  UNL     1       4.718  -0.520  -2.437  1.00  0.00     0.144 C 
HETATM   13  C9  UNL     1       4.597  -1.712  -1.508  1.00  0.00     0.071 C 
HETATM   14  C10 UNL     1       3.267  -1.710  -0.781  1.00  0.00     0.240 C 
BRANCH  12  15
HETATM   15  O6  UNL     1       6.040  -0.475  -2.878  1.00  0.00    -0.393 OA
ATOM     16  H6  UNL     1       6.278  -1.254  -3.367  1.00  0.00     0.210 HD
ENDBRANCH  12  15
BRANCH  14  17
HETATM   17  N1  UNL     1       2.267  -2.094  -1.760  1.00  0.00    -0.070 N 
ATOM     18  H13 UNL     1       1.328  -2.080  -1.362  1.00  0.00     0.274 HD
ATOM     19  H12 UNL     1       2.145  -1.375  -2.473  1.00  0.00     0.274 HD
ATOM     20  H11 UNL     1       2.485  -3.000  -2.175  1.00  0.00     0.274 HD
ENDBRANCH  14  17
ENDBRANCH   8   9
ENDBRANCH   5   8
BRANCH   6  21
HETATM   21  O7  UNL     1      -0.675   0.208  -1.798  1.00  0.00    -0.388 OA
ATOM     22  H7  UNL     1      -1.482  -0.224  -2.051  1.00  0.00     0.210 HD
ENDBRANCH   6  21
BRANCH   3  23
HETATM   23  C4  UNL     1      -0.855   3.614  -0.619  1.00  0.00     0.199 C 
BRANCH  23  24
HETATM   24  O2  UNL     1       0.041   4.577  -1.122  1.00  0.00    -0.398 OA
ATOM     25  H2  UNL     1      -0.391   5.130  -1.762  1.00  0.00     0.209 HD
ENDBRANCH  23  24
ENDBRANCH   3  23
BRANCH   7  26
HETATM   26  O8  UNL     1      -1.623  -0.394   1.426  1.00  0.00    -0.375 OA
BRANCH  26  27
HETATM   27  C13 UNL     1      -2.783  -1.056   1.510  1.00  0.00     0.122 C 
HETATM   28  C14 UNL     1      -2.767  -2.534   1.323  1.00  0.00     0.032 C 
HETATM   29  C15 UNL     1      -4.061  -3.025   1.941  1.00  0.00     0.002 C 
HETATM   30  C16 UNL     1      -4.784  -1.786   2.428  1.00  0.00     0.002 C 
HETATM   31  C17 UNL     1      -3.578  -0.900   2.787  1.00  0.00     0.032 C 
ENDBRANCH  26  27
ENDBRANCH   7  26
BRANCH   2  32
HETATM   32  O1  UNL     1      -0.518   1.605   2.418  1.00  0.00    -0.385 OA
ATOM     33  H1  UNL     1       0.266   1.103   2.228  1.00  0.00     0.210 HD
ENDBRANCH   2  32
TORSDOF 10
