REMARK  10 active torsions:
REMARK  status: ('A' for Active; 'I' for Inactive)
REMARK    1  A    between atoms: O1_1  and  C1_3 
REMARK    2  A    between atoms: C1_3  and  C2_4 
REMARK    3  A    between atoms: C3_6  and  O3_7 
REMARK    4  A    between atoms: O3_7  and  C4_8 
REMARK    5  A    between atoms: C4_8  and  C5_9 
REMARK    6  A    between atoms: C6_11  and  C7_12 
REMARK    7  A    between atoms: C14_20  and  O6_21 
REMARK    8  A    between atoms: C15_23  and  O7_24 
REMARK    9  A    between atoms: C16_26  and  O8_27 
REMARK   10  A    between atoms: C17_29  and  O9_30 
ROOT
HETATM    1  O3  UNL     1       1.334  -0.668   0.086  1.00  0.00    -0.356 OA
ENDROOT
BRANCH   1   2
HETATM    2  C3  UNL     1       2.666  -0.494  -0.198  1.00  0.00     0.291 C 
HETATM    3  O2  UNL     1       3.142   0.747   0.272  1.00  0.00    -0.348 OA
HETATM    4  C2  UNL     1       4.359   0.999  -0.396  1.00  0.00     0.179 C 
HETATM    5  C17 UNL     1       5.399  -0.049  -0.065  1.00  0.00     0.180 C 
HETATM    6  C16 UNL     1       4.778  -0.997   0.933  1.00  0.00     0.183 C 
HETATM    7  C15 UNL     1       3.542  -1.601   0.305  1.00  0.00     0.204 C 
BRANCH   4   8
HETATM    8  C1  UNL     1       4.893   2.347  -0.042  1.00  0.00     0.198 C 
BRANCH   8   9
HETATM    9  O1  UNL     1       6.088   2.560  -0.718  1.00  0.00    -0.398 OA
ATOM     10  H1  UNL     1       6.428   3.418  -0.493  1.00  0.00     0.209 HD
ENDBRANCH   8   9
ENDBRANCH   4   8
BRANCH   5  11
HETATM   11  O9  UNL     1       6.563   0.533   0.427  1.00  0.00    -0.390 OA
ATOM     12  H9  UNL     1       7.216  -0.125   0.635  1.00  0.00     0.210 HD
ENDBRANCH   5  11
BRANCH   6  13
HETATM   13  O8  UNL     1       4.457  -0.237   2.064  1.00  0.00    -0.390 OA
ATOM     14  H8  UNL     1       5.233   0.142   2.459  1.00  0.00     0.210 HD
ENDBRANCH   6  13
BRANCH   7  15
HETATM   15  O7  UNL     1       3.982  -2.404  -0.757  1.00  0.00    -0.388 OA
ATOM     16  H7  UNL     1       4.537  -3.106  -0.438  1.00  0.00     0.210 HD
ENDBRANCH   7  15
ENDBRANCH   1   2
BRANCH   1  17
HETATM   17  C4  UNL     1       0.592  -0.716  -1.073  1.00  0.00     0.208 C 
BRANCH  17  18
HETATM   18  C5  UNL     1      -0.885  -0.907  -0.792  1.00  0.00     0.200 C 
HETATM   19  O4  UNL     1      -1.404   0.107  -0.034  1.00  0.00    -0.371 OA
HETATM   20  C6  UNL     1      -2.529  -0.189   0.688  1.00  0.00     0.150 C 
HETATM   21  C13 UNL     1      -2.610  -1.585   1.201  1.00  0.00     0.203 C 
HETATM   22  O5  UNL     1      -1.370  -2.195   1.176  1.00  0.00    -0.356 OA
HETATM   23  C14 UNL     1      -1.042  -2.277  -0.197  1.00  0.00     0.287 C 
BRANCH  20  24
HETATM   24  C7  UNL     1      -3.812   0.101  -0.104  1.00  0.00     0.017 C 
HETATM   25  C8  UNL     1      -5.006  -0.247   0.749  1.00  0.00     0.007 C 
HETATM   26  C9  UNL     1      -6.034   0.858   0.779  1.00  0.00     0.000 C 
HETATM   27  C10 UNL     1      -5.330   2.110   1.249  1.00  0.00     0.000 C 
HETATM   28  C11 UNL     1      -4.368   2.535   0.198  1.00  0.00     0.000 C 
HETATM   29  C12 UNL     1      -3.842   1.464  -0.677  1.00  0.00     0.007 C 
ENDBRANCH  20  24
BRANCH  23  30
HETATM   30  O6  UNL     1      -2.030  -2.999  -0.863  1.00  0.00    -0.369 OA
ATOM     31  H6  UNL     1      -2.129  -3.866  -0.487  1.00  0.00     0.212 HD
ENDBRANCH  23  30
ENDBRANCH  17  18
ENDBRANCH   1  17
TORSDOF 10
