REMARK  10 active torsions:
REMARK  status: ('A' for Active; 'I' for Inactive)
REMARK    1  A    between atoms: N1_1  and  C1_5 
REMARK    2  A    between atoms: C1_5  and  C2_6 
REMARK    3  A    between atoms: C5_9  and  N2_10 
REMARK    4  A    between atoms: C6_14  and  O1_15 
REMARK    5  A    between atoms: O1_15  and  C7_16 
REMARK    6  A    between atoms: C8_17  and  N3_18 
REMARK    7  A    between atoms: C10_23  and  N4_24 
REMARK    8  A    between atoms: C11_28  and  O2_29 
REMARK    9  A    between atoms: C12_31  and  O3_32 
REMARK   10  A    between atoms: O3_32  and  C13_33 
ROOT
HETATM    1  C7  UNL     1       0.563  -0.671  -0.859  1.00  0.00     0.186 C 
HETATM    2  C8  UNL     1       0.663  -1.900  -1.739  1.00  0.00     0.217 C 
HETATM    3  C9  UNL     1       2.094  -2.384  -1.854  1.00  0.00     0.071 C 
HETATM    4  C10 UNL     1       2.612  -2.780  -0.508  1.00  0.00     0.216 C 
HETATM    5  C11 UNL     1       2.259  -1.741   0.514  1.00  0.00     0.180 C 
HETATM    6  C12 UNL     1       1.897  -0.407  -0.154  1.00  0.00     0.183 C 
ENDROOT
BRANCH   1   7
HETATM    7  O1  UNL     1      -0.468  -0.937   0.041  1.00  0.00    -0.349 OA
BRANCH   7   8
HETATM    8  C6  UNL     1      -1.543  -0.113  -0.088  1.00  0.00     0.291 C 
HETATM    9  C5  UNL     1      -1.796   0.621   1.207  1.00  0.00     0.238 C 
HETATM   10  C4  UNL     1      -3.277   0.840   1.432  1.00  0.00     0.040 C 
HETATM   11  C3  UNL     1      -4.067   1.092   0.199  1.00  0.00     0.036 C 
HETATM   12  C2  UNL     1      -3.568   0.255  -0.936  1.00  0.00     0.150 C 
HETATM   13  O5  UNL     1      -2.740  -0.745  -0.444  1.00  0.00    -0.352 OA
BRANCH   9  14
HETATM   14  N2  UNL     1      -1.344  -0.174   2.350  1.00  0.00    -0.070 N 
ATOM     15  H23 UNL     1      -1.565   0.243   3.254  1.00  0.00     0.274 HD
ATOM     16  H22 UNL     1      -1.871  -1.037   2.485  1.00  0.00     0.274 HD
ATOM     17  H21 UNL     1      -0.346  -0.322   2.198  1.00  0.00     0.274 HD
ENDBRANCH   9  14
BRANCH  12  18
HETATM   18  C1  UNL     1      -4.697  -0.300  -1.773  1.00  0.00     0.261 C 
BRANCH  18  19
HETATM   19  N1  UNL     1      -5.491   0.841  -2.229  1.00  0.00    -0.077 N 
ATOM     20  H13 UNL     1      -5.813   1.436  -1.466  1.00  0.00     0.274 HD
ATOM     21  H12 UNL     1      -4.938   1.545  -2.718  1.00  0.00     0.274 HD
ATOM     22  H11 UNL     1      -6.253   0.466  -2.794  1.00  0.00     0.274 HD
ENDBRANCH  18  19
ENDBRANCH  12  18
ENDBRANCH   7   8
ENDBRANCH   1   7
BRANCH   2  23
HETATM   23  N3  UNL     1       0.240  -1.533  -3.076  1.00  0.00    -0.072 N 
ATOM     24  H33 UNL     1      -0.688  -1.111  -3.093  1.00  0.00     0.274 HD
ATOM     25  H32 UNL     1       0.759  -0.738  -3.449  1.00  0.00     0.274 HD
ATOM     26  H31 UNL     1       0.307  -2.361  -3.669  1.00  0.00     0.274 HD
ENDBRANCH   2  23
BRANCH   6  27
HETATM   27  O3  UNL     1       1.738   0.512   0.786  1.00  0.00    -0.373 OA
BRANCH  27  28
HETATM   28  C13 UNL     1       2.429   1.672   0.796  1.00  0.00     0.149 C 
HETATM   29  C14 UNL     1       3.381   1.655   1.967  1.00  0.00     0.063 C 
HETATM   30  C15 UNL     1       3.638   2.956   2.583  1.00  0.00    -0.000 C 
HETATM   31  C16 UNL     1       3.242   4.083   2.045  1.00  0.00     0.130 C 
HETATM   32  O4  UNL     1       2.554   4.039   0.847  1.00  0.00    -0.361 OA
HETATM   33  C17 UNL     1       1.664   2.941   0.657  1.00  0.00     0.206 C 
ENDBRANCH  27  28
ENDBRANCH   6  27
BRANCH   5  34
HETATM   34  O2  UNL     1       3.350  -1.589   1.361  1.00  0.00    -0.391 OA
ATOM     35  H2  UNL     1       3.126  -0.931   2.008  1.00  0.00     0.210 HD
ENDBRANCH   5  34
BRANCH   4  36
HETATM   36  N4  UNL     1       1.937  -4.019  -0.121  1.00  0.00    -0.072 N 
ATOM     37  H43 UNL     1       0.920  -3.942  -0.148  1.00  0.00     0.274 HD
ATOM     38  H42 UNL     1       2.034  -4.758  -0.817  1.00  0.00     0.274 HD
ATOM     39  H41 UNL     1       2.290  -4.289   0.797  1.00  0.00     0.274 HD
ENDBRANCH   4  36
TORSDOF 10
