REMARK  2 active torsions:
REMARK  status: ('A' for Active; 'I' for Inactive)
REMARK    1  A    between atoms: C4_11  and  C5_12 
REMARK    2  A    between atoms: C5_12  and  C6_13 
ROOT
HETATM    1 BR1  UNL     1       3.668   3.209   0.639  1.00  0.00    -0.010 Br
HETATM    2  C1  UNL     1       2.851   1.488   0.505  1.00  0.00     0.155 A 
HETATM    3  N1  UNL     1       1.566   1.192   0.287  1.00  0.00    -0.332 N 
ATOM      4  H1  UNL     1       0.824   1.880   0.160  1.00  0.00     0.168 HD
HETATM    5  C2  UNL     1       1.389  -0.148   0.259  1.00  0.00     0.102 A 
HETATM    6  C3  UNL     1       2.630  -0.706   0.470  1.00  0.00     0.137 A 
HETATM    7  N2  UNL     1       3.498   0.321   0.617  1.00  0.00    -0.321 N 
ATOM      8  H2  UNL     1       4.499   0.221   0.788  1.00  0.00     0.169 HD
HETATM    9  N3  UNL     1       2.103  -1.872   0.383  1.00  0.00    -0.342 N 
ATOM     10  H3  UNL     1       2.474  -2.820   0.449  1.00  0.00     0.167 HD
HETATM   11  C4  UNL     1       0.814  -1.344   0.162  1.00  0.00     0.047 A 
ENDROOT
BRANCH  11  12
HETATM   12  C5  UNL     1      -0.548  -1.863  -0.075  1.00  0.00     0.118 C 
BRANCH  12  13
HETATM   13  C6  UNL     1      -1.463  -0.677  -0.183  1.00  0.00     0.033 A 
HETATM   14  N4  UNL     1      -1.984  -0.118  -1.275  1.00  0.00    -0.366 N 
HETATM   15  C7  UNL     1      -2.753   0.941  -0.941  1.00  0.00     0.108 A 
ATOM     16  H4  UNL     1      -1.825  -0.444  -2.228  1.00  0.00     0.165 HD
HETATM   17  C8  UNL     1      -2.714   1.052   0.430  1.00  0.00     0.045 A 
HETATM   18 BR2  UNL     1      -3.614   2.372   1.504  1.00  0.00    -0.048 Br
HETATM   19  C9  UNL     1      -1.907   0.041   0.906  1.00  0.00     0.052 A 
HETATM   20 BR3  UNL     1      -1.516  -0.265   2.747  1.00  0.00    -0.048 Br
ENDBRANCH  12  13
ENDBRANCH  11  12
TORSDOF 2
