REMARK  3 active torsions:
REMARK  status: ('A' for Active; 'I' for Inactive)
REMARK    1  A    between atoms: C4_4  and  C5_5 
REMARK       I    between atoms: C5_5  and  N1_7 
REMARK    2  A    between atoms: N1_7  and  N2_9 
REMARK       I    between atoms: N2_9  and  C6_11 
REMARK    3  A    between atoms: C6_11  and  C7_13 
ROOT
HETATM    1  C5  UNL     1       0.251   0.080   0.260  1.00  0.00     0.243 C 
HETATM    2  O1  UNL     1       0.425  -0.553  -0.792  1.00  0.00    -0.271 OA
HETATM    3  N1  UNL     1       1.303   0.581   1.012  1.00  0.00    -0.267 N 
ATOM      4  H1  UNL     1       0.988   1.095   1.835  1.00  0.00     0.190 HD
ENDROOT
BRANCH   1   5
HETATM    5  C4  UNL     1      -1.158   0.300   0.737  1.00  0.00     0.120 A 
HETATM    6  C2  UNL     1      -2.380  -0.091   0.089  1.00  0.00    -0.005 A 
HETATM    7  C1  UNL     1      -3.723   0.420   0.666  1.00  0.00     0.018 C 
HETATM    8  C3  UNL     1      -2.531  -0.439  -1.365  1.00  0.00     0.018 C 
HETATM    9  C8  UNL     1      -1.791  -1.115   1.023  1.00  0.00     0.096 A 
HETATM   10 BR2  UNL     1      -2.497  -1.354   2.792  1.00  0.00    -0.071 Br
HETATM   11 BR3  UNL     1      -0.901  -2.648   0.300  1.00  0.00    -0.071 Br
ENDBRANCH   1   5
BRANCH   3  12
HETATM   12  N2  UNL     1       2.651   0.545   0.906  1.00  0.00    -0.267 N 
HETATM   13  C6  UNL     1       3.414   0.183  -0.217  1.00  0.00     0.245 C 
HETATM   14  O2  UNL     1       2.947  -0.134  -1.307  1.00  0.00    -0.271 OA
ATOM     15  H2  UNL     1       3.175   0.812   1.739  1.00  0.00     0.190 HD
BRANCH  13  16
HETATM   16  C7  UNL     1       4.914   0.165  -0.106  1.00  0.00     0.189 C 
HETATM   17 BR1  UNL     1       5.495   1.996   0.049  1.00  0.00    -0.087 Br
ENDBRANCH  13  16
ENDBRANCH   3  12
TORSDOF 3
