REMARK  5 active torsions:
REMARK  status: ('A' for Active; 'I' for Inactive)
REMARK    1  A    between atoms: C2_2  and  C3_3 
REMARK    2  A    between atoms: C3_3  and  N1_4 
REMARK    3  A    between atoms: C7_8  and  C8_9 
REMARK       I    between atoms: C8_9  and  N2_11 
REMARK    4  A    between atoms: N2_11  and  C9_13 
REMARK    5  A    between atoms: C9_13  and  C10_14 
ROOT
HETATM    1  C8  UNL     1       0.579  -0.043  -0.475  1.00  0.00     0.251 C 
HETATM    2  O1  UNL     1       0.891   0.837  -1.297  1.00  0.00    -0.271 OA
HETATM    3  N2  UNL     1      -0.689   0.004   0.155  1.00  0.00    -0.359 N 
ATOM      4  H2  UNL     1      -0.966  -0.703   0.836  1.00  0.00     0.162 HD
ENDROOT
BRANCH   1   5
HETATM    5  C7  UNL     1       1.481  -1.127  -0.135  1.00  0.00     0.314 C 
HETATM    6  N1  UNL     1       2.861  -0.997  -0.574  1.00  0.00     0.105 N 
HETATM    7  C4  UNL     1       3.393  -2.237   0.014  1.00  0.00     0.274 C 
HETATM    8  C5  UNL     1       2.901  -2.188   1.419  1.00  0.00     0.033 C 
HETATM    9  C6  UNL     1       1.571  -1.441   1.324  1.00  0.00     0.047 C 
BRANCH   6  10
HETATM   10  C3  UNL     1       3.520   0.147   0.029  1.00  0.00     0.300 C 
BRANCH  10  11
HETATM   11  C2  UNL     1       4.960   0.212  -0.355  1.00  0.00    -0.007 C 
HETATM   12  C1  UNL     1       5.482   1.239  -1.002  1.00  0.00     0.008 C 
ENDBRANCH  10  11
ENDBRANCH   6  10
ENDBRANCH   1   5
BRANCH   3  13
HETATM   13  C9  UNL     1      -1.578   1.091  -0.201  1.00  0.00     0.127 C 
BRANCH  13  14
HETATM   14  C10 UNL     1      -2.882   1.055   0.525  1.00  0.00     0.007 C 
HETATM   15  C11 UNL     1      -3.693   2.234   0.046  1.00  0.00     0.032 C 
HETATM   16  C12 UNL     1      -5.092   1.774  -0.296  1.00  0.00     0.168 C 
HETATM   17  O2  UNL     1      -5.121   0.767  -1.242  1.00  0.00    -0.391 OA
HETATM   18  C13 UNL     1      -4.415  -0.364  -0.891  1.00  0.00     0.168 C 
HETATM   19  C14 UNL     1      -3.641  -0.220   0.390  1.00  0.00     0.032 C 
ENDBRANCH  13  14
ENDBRANCH   3  13
TORSDOF 5
