REMARK  6 active torsions:
REMARK  status: ('A' for Active; 'I' for Inactive)
REMARK    1  A    between atoms: C4_4  and  C5_5 
REMARK    2  A    between atoms: C5_5  and  O1_6 
REMARK    3  A    between atoms: C5_5  and  C6_8 
REMARK    4  A    between atoms: C6_8  and  N1_9 
REMARK    5  A    between atoms: N2_12  and  C9_13 
REMARK    6  A    between atoms: C9_13  and  C10_14 
ROOT
HETATM    1  N1  UNL     1      -0.220  -0.927   0.528  1.00  0.00    -0.385 N 
HETATM    2  C7  UNL     1       0.702  -0.811   1.628  1.00  0.00     0.142 C 
HETATM    3  C8  UNL     1       1.887   0.076   1.304  1.00  0.00     0.147 C 
HETATM    4  N2  UNL     1       2.482  -0.476   0.150  1.00  0.00    -0.367 N 
HETATM    5  C13 UNL     1       1.670  -0.346  -0.973  1.00  0.00     0.107 C 
HETATM    6  C14 UNL     1       0.331  -1.012  -0.748  1.00  0.00     0.102 C 
ENDROOT
BRANCH   1   7
HETATM    7  C6  UNL     1      -1.419  -0.224   0.773  1.00  0.00     0.154 C 
BRANCH   7   8
HETATM    8  C5  UNL     1      -2.466  -0.349  -0.297  1.00  0.00     0.140 C 
BRANCH   8   9
HETATM    9  C4  UNL     1      -3.718   0.402   0.223  1.00  0.00     0.020 A 
HETATM   10  C2  UNL     1      -4.885   0.324  -0.736  1.00  0.00    -0.012 A 
HETATM   11  C1  UNL     1      -5.648   1.608  -0.902  1.00  0.00     0.010 C 
HETATM   12  C3  UNL     1      -4.929  -0.411   0.572  1.00  0.00     0.012 A 
ENDBRANCH   8   9
BRANCH   8  13
HETATM   13  O1  UNL     1      -2.803  -1.691  -0.478  1.00  0.00    -0.394 OA
ATOM     14  H1  UNL     1      -2.036  -2.151  -0.797  1.00  0.00     0.210 HD
ENDBRANCH   8  13
ENDBRANCH   7   8
ENDBRANCH   1   7
BRANCH   4  15
HETATM   15  C9  UNL     1       3.832  -0.770   0.100  1.00  0.00     0.068 C 
BRANCH  15  16
HETATM   16  C10 UNL     1       4.782   0.403   0.116  1.00  0.00     0.024 A 
HETATM   17  C11 UNL     1       4.650   1.399  -1.023  1.00  0.00     0.010 A 
HETATM   18  C12 UNL     1       5.874   0.529  -0.885  1.00  0.00     0.010 A 
ENDBRANCH  15  16
ENDBRANCH   4  15
TORSDOF 6
