REMARK  8 active torsions:
REMARK  status: ('A' for Active; 'I' for Inactive)
REMARK    1  A    between atoms: C3_4  and  N2_5 
REMARK    2  A    between atoms: N2_5  and  C4_7 
REMARK    3  A    between atoms: C4_7  and  C5_8 
REMARK    4  A    between atoms: C4_7  and  C7_18 
REMARK    5  A    between atoms: C5_8  and  C6_9 
REMARK    6  A    between atoms: C9_22  and  O1_23 
REMARK    7  A    between atoms: N8_25  and  C10_26 
REMARK    8  A    between atoms: C14_32  and  N10_33 
ROOT
HETATM    1  C4  UNL     1      -0.500   0.531   0.019  1.00  0.00     0.158 C 
ENDROOT
BRANCH   1   2
HETATM    2  N2  UNL     1       0.748   0.246   0.515  1.00  0.00    -0.363 N 
ATOM      3  H2  UNL     1       0.584  -0.154   1.439  1.00  0.00     0.162 HD
BRANCH   2   4
HETATM    4  C3  UNL     1       1.961   0.244   0.376  1.00  0.00     0.134 A 
HETATM    5  C2  UNL     1       2.784  -0.261   1.419  1.00  0.00     0.158 A 
HETATM    6  N1  UNL     1       4.113  -0.283   1.311  1.00  0.00    -0.290 N 
HETATM    7  C1  UNL     1       4.961  -0.803   2.387  1.00  0.00     0.177 C 
HETATM    8  N11 UNL     1       4.694   0.165   0.229  1.00  0.00    -0.131 N 
HETATM    9  C14 UNL     1       3.930   0.647  -0.767  1.00  0.00     0.692 A 
ATOM     10  H11 UNL     1       5.710   0.149   0.142  1.00  0.00     0.205 HD
HETATM   11  N9  UNL     1       2.589   0.696  -0.719  1.00  0.00    -0.175 N 
ATOM     12  H9  UNL     1       2.056   1.071  -1.504  1.00  0.00     0.186 HD
BRANCH   9  13
HETATM   13  N10 UNL     1       4.533   1.089  -1.839  1.00  0.00    -0.233 N 
ATOM     14 2H10 UNL     1       3.953   1.455  -2.595  1.00  0.00     0.174 HD
ATOM     15 1H10 UNL     1       5.552   1.052  -1.875  1.00  0.00     0.174 HD
ENDBRANCH   9  13
ENDBRANCH   2   4
ENDBRANCH   1   2
BRANCH   1  16
HETATM   16  C5  UNL     1      -0.497   1.843  -0.763  1.00  0.00     0.112 C 
BRANCH  16  17
HETATM   17  C6  UNL     1      -0.069   2.988   0.060  1.00  0.00     0.115 A 
HETATM   18  N3  UNL     1       0.028   4.242  -0.357  1.00  0.00    -0.272 N 
HETATM   19  N4  UNL     1       0.438   5.020   0.625  1.00  0.00    -0.227 N 
ATOM     20  H3  UNL     1      -0.184   4.560  -1.303  1.00  0.00     0.190 HD
HETATM   21  N5  UNL     1       0.597   4.241   1.661  1.00  0.00    -0.227 N 
ATOM     22  H4  UNL     1       0.599   6.026   0.584  1.00  0.00     0.210 HD
HETATM   23  N6  UNL     1       0.298   2.989   1.360  1.00  0.00    -0.272 N 
ATOM     24  H5  UNL     1       0.910   4.556   2.579  1.00  0.00     0.210 HD
ATOM     25  H6  UNL     1       0.337   2.184   1.985  1.00  0.00     0.190 HD
ENDBRANCH  16  17
ENDBRANCH   1  16
BRANCH   1  26
HETATM   26  C7  UNL     1      -0.921  -0.511  -0.964  1.00  0.00     0.109 A 
HETATM   27  N7  UNL     1      -0.162  -0.846  -1.994  1.00  0.00    -0.350 N 
HETATM   28  C8  UNL     1      -0.734  -1.797  -2.720  1.00  0.00     0.145 A 
ATOM     29  H7  UNL     1       0.745  -0.428  -2.203  1.00  0.00     0.166 HD
HETATM   30  C9  UNL     1      -1.944  -2.054  -2.064  1.00  0.00     0.160 A 
HETATM   31  N8  UNL     1      -2.030  -1.256  -0.997  1.00  0.00    -0.305 N 
BRANCH  30  32
HETATM   32  O1  UNL     1      -2.846  -3.026  -2.550  1.00  0.00    -0.345 OA
ATOM     33  H1  UNL     1      -3.667  -3.200  -2.105  1.00  0.00     0.219 HD
ENDBRANCH  30  32
BRANCH  31  34
HETATM   34  C10 UNL     1      -3.101  -1.212  -0.047  1.00  0.00     0.030 C 
HETATM   35  C11 UNL     1      -2.637  -1.588   1.353  1.00  0.00     0.038 C 
HETATM   36  C12 UNL     1      -4.142  -2.240  -0.426  1.00  0.00     0.038 C 
HETATM   37  C13 UNL     1      -3.826   0.101   0.051  1.00  0.00     0.038 C 
ENDBRANCH  31  34
ENDBRANCH   1  26
TORSDOF 8
