REMARK  5 active torsions:
REMARK  status: ('A' for Active; 'I' for Inactive)
REMARK    1  A    between atoms: C3_3  and  N1_4 
REMARK    2  A    between atoms: C7_13  and  C8_14 
REMARK    3  A    between atoms: C8_14  and  C9_15 
REMARK    4  A    between atoms: C9_15  and  C10_16 
REMARK    5  A    between atoms: C13_23  and  N6_24 
ROOT
HETATM    1  C1  UNL     1      -3.714  -2.420   3.700  1.00  0.00     0.014 C 
HETATM    2  C2  UNL     1      -3.926  -2.736   2.551  1.00  0.00    -0.097 C 
HETATM    3  C3  UNL     1      -4.175  -3.098   1.151  1.00  0.00     0.224 C 
ENDROOT
BRANCH   3   4
HETATM    4  N1  UNL     1      -4.655  -1.953   0.408  1.00  0.00    -0.316 N 
HETATM    5  C4  UNL     1      -5.915  -1.564   0.230  1.00  0.00     0.186 A 
HETATM    6  N2  UNL     1      -5.956  -0.437  -0.530  1.00  0.00    -0.345 N 
HETATM    7  C5  UNL     1      -4.702  -0.111  -0.837  1.00  0.00     0.146 A 
ATOM      8  H2  UNL     1      -6.796   0.068  -0.814  1.00  0.00     0.167 HD
HETATM    9  C6  UNL     1      -4.161   0.934  -1.582  1.00  0.00     0.277 A 
HETATM   10  C16 UNL     1      -3.881  -1.063  -0.248  1.00  0.00     0.143 A 
HETATM   11  O1  UNL     1      -4.930   1.775  -2.099  1.00  0.00    -0.266 OA
HETATM   12  N3  UNL     1      -2.821   0.962  -1.693  1.00  0.00    -0.311 N 
HETATM   13  C7  UNL     1      -2.017   0.048  -1.128  1.00  0.00     0.085 A 
ATOM     14  H3  UNL     1      -2.395   1.715  -2.233  1.00  0.00     0.170 HD
HETATM   15  N10 UNL     1      -2.551  -0.954  -0.413  1.00  0.00    -0.330 N 
ATOM     16  H10 UNL     1      -1.936  -1.647   0.014  1.00  0.00     0.168 HD
BRANCH  13  17
HETATM   17  C8  UNL     1      -0.553   0.203  -1.334  1.00  0.00     0.083 C 
BRANCH  17  18
HETATM   18  C9  UNL     1      -0.037   1.060  -0.197  1.00  0.00     0.066 C 
BRANCH  18  19
HETATM   19  C10 UNL     1       1.432   1.288  -0.295  1.00  0.00     0.025 A 
HETATM   20  C11 UNL     1       1.947   2.367  -0.987  1.00  0.00     0.114 A 
HETATM   21  N4  UNL     1       3.273   2.585  -1.084  1.00  0.00    -0.348 N 
HETATM   22  C12 UNL     1       4.163   1.756  -0.508  1.00  0.00     0.151 A 
ATOM     23  H4  UNL     1       3.609   3.395  -1.605  1.00  0.00     0.167 HD
HETATM   24  N5  UNL     1       5.497   1.956  -0.593  1.00  0.00    -0.174 N 
HETATM   25  C15 UNL     1       3.656   0.676   0.184  1.00  0.00     0.122 A 
HETATM   26  C13 UNL     1       6.388   1.130  -0.019  1.00  0.00     0.679 A 
ATOM     27  H5  UNL     1       5.840   2.764  -1.112  1.00  0.00     0.186 HD
HETATM   28  N7  UNL     1       5.900   0.074   0.657  1.00  0.00    -0.175 N 
HETATM   29  C14 UNL     1       4.581  -0.166   0.769  1.00  0.00     0.145 A 
ATOM     30  H7  UNL     1       6.555  -0.569   1.102  1.00  0.00     0.186 HD
HETATM   31  N8  UNL     1       4.146  -1.188   1.425  1.00  0.00    -0.383 N 
ATOM     32  H82 UNL     1       4.829  -1.810   1.857  1.00  0.00     0.157 HD
ATOM     33  H81 UNL     1       3.146  -1.370   1.510  1.00  0.00     0.157 HD
HETATM   34  N9  UNL     1       2.329   0.463   0.278  1.00  0.00    -0.352 N 
ATOM     35  H9  UNL     1       1.994  -0.347   0.799  1.00  0.00     0.166 HD
BRANCH  26  36
HETATM   36  N6  UNL     1       7.671   1.334  -0.109  1.00  0.00    -0.234 N 
ATOM     37  H62 UNL     1       8.041   2.135  -0.621  1.00  0.00     0.174 HD
ATOM     38  H61 UNL     1       8.347   0.707   0.327  1.00  0.00     0.174 HD
ENDBRANCH  26  36
ENDBRANCH  18  19
ENDBRANCH  17  18
ENDBRANCH  13  17
ENDBRANCH   3   4
TORSDOF 5
