REMARK  8 active torsions:
REMARK  status: ('A' for Active; 'I' for Inactive)
REMARK    1  A    between atoms: C2_2  and  O1_3 
REMARK    2  A    between atoms: C2_2  and  C3_5 
REMARK    3  A    between atoms: C3_5  and  N1_6 
REMARK    4  A    between atoms: C3_5  and  C14_30 
REMARK    5  A    between atoms: N1_6  and  C4_8 
REMARK    6  A    between atoms: C7_17  and  N5_18 
REMARK    7  A    between atoms: C12_25  and  N7_26 
REMARK    8  A    between atoms: C14_30  and  O2_32 
ROOT
HETATM    1  C14 UNL     1      -4.390   0.969  -0.180  1.00  0.00     0.165 C 
HETATM    2  C15 UNL     1      -5.474   0.834  -1.288  1.00  0.00     0.065 C 
HETATM    3  C16 UNL     1      -5.007   0.513   1.016  1.00  0.00     0.099 C 
HETATM    4  N8  UNL     1      -5.492   0.157   1.996  1.00  0.00    -0.194 NA
ENDROOT
BRANCH   1   5
HETATM    5  C3  UNL     1      -3.178   0.201  -0.652  1.00  0.00     0.160 C 
BRANCH   5   6
HETATM    6  C2  UNL     1      -3.495  -1.297  -0.716  1.00  0.00     0.140 C 
HETATM    7  C1  UNL     1      -3.283  -2.013   0.570  1.00  0.00     0.041 C 
BRANCH   6   8
HETATM    8  O1  UNL     1      -4.694  -1.603  -1.283  1.00  0.00    -0.394 OA
ATOM      9  H1  UNL     1      -4.829  -1.146  -2.105  1.00  0.00     0.210 HD
ENDBRANCH   6   8
ENDBRANCH   5   6
BRANCH   5  10
HETATM   10  N1  UNL     1      -1.973   0.380  -0.055  1.00  0.00    -0.364 N 
ATOM     11  H1  UNL     1      -1.353   0.045  -0.792  1.00  0.00     0.161 HD
BRANCH  10  12
HETATM   12  C4  UNL     1      -1.165   0.680   0.786  1.00  0.00     0.120 A 
HETATM   13  N2  UNL     1      -1.496   1.190   1.999  1.00  0.00    -0.338 N 
HETATM   14  C5  UNL     1      -0.582   1.496   2.936  1.00  0.00     0.183 A 
ATOM     15  H2  UNL     1      -2.482   1.348   2.209  1.00  0.00     0.168 HD
HETATM   16  N3  UNL     1       0.718   1.299   2.685  1.00  0.00    -0.337 N 
HETATM   17  C6  UNL     1       1.132   0.805   1.520  1.00  0.00     0.139 A 
ATOM     18  H3  UNL     1       1.406   1.532   3.401  1.00  0.00     0.168 HD
HETATM   19  N4  UNL     1       2.452   0.608   1.265  1.00  0.00    -0.175 N 
HETATM   20  C13 UNL     1       0.206   0.491   0.560  1.00  0.00     0.096 A 
HETATM   21  C7  UNL     1       2.918   0.114   0.107  1.00  0.00     0.683 A 
ATOM     22  H4  UNL     1       3.125   0.848   1.993  1.00  0.00     0.186 HD
HETATM   23  N6  UNL     1       2.030  -0.199  -0.848  1.00  0.00    -0.176 N 
HETATM   24  C12 UNL     1       0.717  -0.013  -0.623  1.00  0.00     0.132 A 
ATOM     25  H6  UNL     1       2.349  -0.576  -1.740  1.00  0.00     0.186 HD
BRANCH  21  26
HETATM   26  N5  UNL     1       4.329  -0.060  -0.085  1.00  0.00    -0.217 N 
HETATM   27  C8  UNL     1       5.136   0.862  -0.819  1.00  0.00     0.141 C 
HETATM   28  C9  UNL     1       6.547   0.383  -0.685  1.00  0.00     0.022 C 
HETATM   29  C10 UNL     1       6.470  -1.042  -0.207  1.00  0.00     0.022 C 
HETATM   30  C11 UNL     1       5.118  -1.129   0.417  1.00  0.00     0.141 C 
ENDBRANCH  21  26
BRANCH  24  31
HETATM   31  N7  UNL     1      -0.077  -0.297  -1.584  1.00  0.00    -0.384 N 
ATOM     32  H72 UNL     1       0.300  -0.669  -2.456  1.00  0.00     0.157 HD
ATOM     33  H71 UNL     1      -1.073  -0.156  -1.413  1.00  0.00     0.157 HD
ENDBRANCH  24  31
ENDBRANCH  10  12
ENDBRANCH   5  10
ENDBRANCH   1   5
BRANCH   1  34
HETATM   34  O2  UNL     1      -4.056   2.321  -0.247  1.00  0.00    -0.374 OA
ATOM     35  H2  UNL     1      -4.818   2.804   0.050  1.00  0.00     0.212 HD
ENDBRANCH   1  34
TORSDOF 8
