REMARK  6 active torsions:
REMARK  status: ('A' for Active; 'I' for Inactive)
REMARK    1  A    between atoms: C2_2  and  C3_3 
REMARK    2  A    between atoms: C3_3  and  N1_4 
REMARK    3  A    between atoms: C3_3  and  O4_33 
REMARK    4  A    between atoms: N1_4  and  C4_6 
REMARK    5  A    between atoms: C7_14  and  O2_15 
REMARK    6  A    between atoms: O2_15  and  C8_16 
ROOT
HETATM    1  C4  UNL     1      -2.507   0.302   0.029  1.00  0.00     0.683 A 
HETATM    2  N2  UNL     1      -2.164  -0.934  -0.313  1.00  0.00    -0.154 N 
ATOM      3  H2  UNL     1      -2.880  -1.635  -0.506  1.00  0.00     0.187 HD
HETATM    4  C5  UNL     1      -0.860  -1.250  -0.402  1.00  0.00     0.288 A 
HETATM    5  O1  UNL     1      -0.488  -2.405  -0.722  1.00  0.00    -0.265 OA
HETATM    6  C6  UNL     1       0.114  -0.312  -0.145  1.00  0.00     0.136 A 
HETATM    7  N3  UNL     1       1.424  -0.586  -0.223  1.00  0.00    -0.315 N 
ATOM      8  H3  UNL     1       1.705  -1.531  -0.485  1.00  0.00     0.169 HD
HETATM    9  C7  UNL     1       2.388   0.319   0.026  1.00  0.00     0.228 A 
HETATM   10  N5  UNL     1       2.049   1.563   0.370  1.00  0.00    -0.306 N 
ATOM     11  H5  UNL     1       2.766   2.263   0.562  1.00  0.00     0.171 HD
HETATM   12  C12 UNL     1       0.731   1.879   0.460  1.00  0.00     0.132 A 
HETATM   13  N6  UNL     1       0.470   3.083   0.792  1.00  0.00    -0.383 N 
ATOM     14  H61 UNL     1      -0.520   3.320   0.860  1.00  0.00     0.157 HD
ATOM     15  H62 UNL     1       1.211   3.759   0.978  1.00  0.00     0.157 HD
HETATM   16  C13 UNL     1      -0.261   0.975   0.211  1.00  0.00     0.125 A 
HETATM   17  N7  UNL     1      -1.557   1.229   0.284  1.00  0.00    -0.186 N 
ATOM     18  H7  UNL     1      -1.854   2.169   0.545  1.00  0.00     0.184 HD
ENDROOT
BRANCH   9  19
HETATM   19  O2  UNL     1       3.690  -0.112  -0.096  1.00  0.00    -0.290 OA
BRANCH  19  20
HETATM   20  C8  UNL     1       4.851   0.653   0.112  1.00  0.00     0.273 C 
HETATM   21  C9  UNL     1       5.653   0.559  -1.194  1.00  0.00     0.089 C 
HETATM   22  C10 UNL     1       5.586  -0.895  -1.627  1.00  0.00     0.239 C 
HETATM   23  N4  UNL     1       5.898  -1.738  -0.496  1.00  0.00    -0.054 N 
HETATM   24  C11 UNL     1       6.469  -0.944   0.570  1.00  0.00     0.402 C 
ATOM     25  H42 UNL     1       5.088  -2.273  -0.183  1.00  0.00     0.279 HD
ATOM     26  H41 UNL     1       6.500  -2.519  -0.756  1.00  0.00     0.279 HD
HETATM   27  O3  UNL     1       5.604  -0.011   1.093  1.00  0.00    -0.334 OA
ENDBRANCH  19  20
ENDBRANCH   9  19
BRANCH   1  28
HETATM   28  N1  UNL     1      -3.702   0.665   0.131  1.00  0.00    -0.199 N 
ATOM     29  H1  UNL     1      -3.812   1.642   0.401  1.00  0.00     0.180 HD
BRANCH  28  30
HETATM   30  C3  UNL     1      -4.938  -0.021  -0.057  1.00  0.00     0.236 C 
BRANCH  30  31
HETATM   31  C2  UNL     1      -5.278  -0.962   1.086  1.00  0.00     0.050 C 
HETATM   32  C1  UNL     1      -5.395  -0.222   2.396  1.00  0.00     0.009 C 
ENDBRANCH  30  31
BRANCH  30  33
HETATM   33  O4  UNL     1      -4.896  -0.717  -1.257  1.00  0.00    -0.371 OA
HETATM   34  C14 UNL     1      -5.890  -0.337  -2.144  1.00  0.00     0.204 C 
ENDBRANCH  30  33
ENDBRANCH  28  30
ENDBRANCH   1  28
TORSDOF 6
