REMARK  8 active torsions:
REMARK  status: ('A' for Active; 'I' for Inactive)
REMARK    1  A    between atoms: C2_2  and  O1_3 
REMARK    2  A    between atoms: O1_3  and  C3_4 
REMARK    3  A    between atoms: C4_5  and  N1_6 
REMARK    4  A    between atoms: C6_8  and  N2_9 
REMARK    5  A    between atoms: C8_14  and  N3_15 
REMARK    6  A    between atoms: C10_22  and  N5_23 
REMARK    7  A    between atoms: C13_26  and  N6_27 
REMARK    8  A    between atoms: C16_35  and  N8_36 
ROOT
HETATM    1  C3  UNL     1      -0.938  -1.334   1.261  1.00  0.00     0.157 A 
HETATM    2  C4  UNL     1      -0.746  -0.368   0.307  1.00  0.00     0.156 A 
HETATM    3  N4  UNL     1       0.550  -0.031   0.007  1.00  0.00    -0.173 N 
ATOM      4  H4  UNL     1       0.707   0.686  -0.701  1.00  0.00     0.186 HD
HETATM    5  C10 UNL     1       1.613  -0.583   0.584  1.00  0.00     0.687 A 
HETATM    6  N7  UNL     1       1.403  -1.521   1.509  1.00  0.00    -0.174 N 
ATOM      7  H7  UNL     1       2.210  -1.953   1.959  1.00  0.00     0.186 HD
HETATM    8  C16 UNL     1       0.181  -1.918   1.871  1.00  0.00     0.152 A 
ENDROOT
BRANCH   2   9
HETATM    9  N1  UNL     1      -1.753   0.352  -0.385  1.00  0.00    -0.360 N 
HETATM   10  C5  UNL     1      -2.738  -0.151  -1.279  1.00  0.00     0.157 C 
HETATM   11  C6  UNL     1      -3.328   1.047  -2.045  1.00  0.00     0.203 C 
HETATM   12  C7  UNL     1      -4.076   1.952  -1.063  1.00  0.00     0.068 C 
HETATM   13  C8  UNL     1      -3.235   2.146   0.178  1.00  0.00     0.203 C 
HETATM   14  C9  UNL     1      -1.809   1.824  -0.188  1.00  0.00     0.157 C 
BRANCH  11  15
HETATM   15  N2  UNL     1      -4.351   0.566  -2.973  1.00  0.00    -0.073 N 
ATOM     16  H23 UNL     1      -3.997  -0.158  -3.599  1.00  0.00     0.274 HD
ATOM     17  H22 UNL     1      -5.069   0.013  -2.505  1.00  0.00     0.274 HD
ATOM     18  H21 UNL     1      -4.742   1.360  -3.481  1.00  0.00     0.274 HD
ENDBRANCH  11  15
BRANCH  13  19
HETATM   19  N3  UNL     1      -3.243   3.522   0.630  1.00  0.00    -0.073 N 
ATOM     20  H33 UNL     1      -2.956   4.158  -0.114  1.00  0.00     0.274 HD
ATOM     21  H32 UNL     1      -4.195   3.859   0.772  1.00  0.00     0.274 HD
ATOM     22  H31 UNL     1      -2.676   3.653   1.467  1.00  0.00     0.274 HD
ENDBRANCH  13  19
ENDBRANCH   2   9
BRANCH   1  23
HETATM   23  O1  UNL     1      -2.148  -1.768   1.657  1.00  0.00    -0.345 OA
BRANCH  23  24
HETATM   24  C2  UNL     1      -3.008  -2.767   1.345  1.00  0.00     0.171 C 
HETATM   25  C1  UNL     1      -2.549  -4.191   1.529  1.00  0.00     0.034 C 
ENDBRANCH  23  24
ENDBRANCH   1  23
BRANCH   8  26
HETATM   26  N8  UNL     1       0.046  -2.828   2.793  1.00  0.00    -0.383 N 
ATOM     27  H82 UNL     1      -0.888  -3.131   3.070  1.00  0.00     0.157 HD
ATOM     28  H81 UNL     1       0.860  -3.253   3.237  1.00  0.00     0.157 HD
ENDBRANCH   8  26
BRANCH   5  29
HETATM   29  N5  UNL     1       2.912  -0.138   0.222  1.00  0.00    -0.197 N 
HETATM   30  C11 UNL     1       3.391  -0.374  -1.081  1.00  0.00     0.084 C 
HETATM   31  C12 UNL     1       4.856  -0.260  -1.314  1.00  0.00     0.078 C 
HETATM   32  C13 UNL     1       5.587   0.664  -0.404  1.00  0.00     0.189 C 
HETATM   33  C14 UNL     1       4.717   1.376   0.590  1.00  0.00     0.053 C 
HETATM   34  C15 UNL     1       3.685   0.529   1.225  1.00  0.00     0.148 C 
BRANCH  32  35
HETATM   35  N6  UNL     1       6.319   1.680  -1.141  1.00  0.00    -0.075 N 
ATOM     36  H63 UNL     1       6.947   1.261  -1.827  1.00  0.00     0.274 HD
ATOM     37  H62 UNL     1       5.706   2.192  -1.776  1.00  0.00     0.274 HD
ATOM     38  H61 UNL     1       6.820   2.313  -0.518  1.00  0.00     0.274 HD
ENDBRANCH  32  35
ENDBRANCH   5  29
TORSDOF 8
