REMARK  6 active torsions:
REMARK  status: ('A' for Active; 'I' for Inactive)
REMARK    1  A    between atoms: C2_2  and  C4_4 
REMARK    2  A    between atoms: C4_4  and  N1_5 
REMARK    3  A    between atoms: N1_5  and  C5_7 
REMARK    4  A    between atoms: C8_14  and  C9_15 
REMARK    5  A    between atoms: C11_19  and  N5_20 
REMARK    6  A    between atoms: C14_29  and  N8_30 
REMARK       I    between atoms: N8_30  and  C16_32 
ROOT
HETATM    1  C5  UNL     1       2.278  -0.004   0.746  1.00  0.00     0.681 A 
HETATM    2  N2  UNL     1       1.745   1.164   0.356  1.00  0.00    -0.174 N 
ATOM      3  H2  UNL     1       2.341   1.981   0.222  1.00  0.00     0.186 HD
HETATM    4  C6  UNL     1       0.420   1.252   0.143  1.00  0.00     0.151 A 
HETATM    5  N3  UNL     1      -0.154   2.417  -0.253  1.00  0.00    -0.348 N 
ATOM      6  H3  UNL     1       0.412   3.253  -0.397  1.00  0.00     0.167 HD
HETATM    7  C7  UNL     1      -1.499   2.445  -0.453  1.00  0.00     0.120 A 
HETATM    8  C8  UNL     1      -2.309   1.352  -0.273  1.00  0.00     0.061 A 
HETATM    9  N7  UNL     1      -1.699   0.215   0.120  1.00  0.00    -0.348 N 
ATOM     10  H7  UNL     1      -2.267  -0.620   0.264  1.00  0.00     0.166 HD
HETATM   11  C13 UNL     1      -0.373   0.138   0.330  1.00  0.00     0.123 A 
HETATM   12  C14 UNL     1       0.175  -1.072   0.735  1.00  0.00     0.156 A 
HETATM   13  N11 UNL     1       1.505  -1.085   0.928  1.00  0.00    -0.174 N 
ATOM     14  H11 UNL     1       1.946  -1.955   1.226  1.00  0.00     0.186 HD
ENDROOT
BRANCH   8  15
HETATM   15  C9  UNL     1      -3.744   1.419  -0.497  1.00  0.00     0.024 A 
HETATM   16  C10 UNL     1      -4.424   2.539  -0.897  1.00  0.00     0.121 A 
HETATM   17  N4  UNL     1      -5.779   2.510  -1.083  1.00  0.00    -0.201 N 
HETATM   18  C11 UNL     1      -6.495   1.391  -0.883  1.00  0.00     0.675 A 
ATOM     19  H4  UNL     1      -6.258   3.360  -1.381  1.00  0.00     0.183 HD
HETATM   20  N6  UNL     1      -5.847   0.280  -0.490  1.00  0.00    -0.201 N 
HETATM   21  C12 UNL     1      -4.510   0.266  -0.294  1.00  0.00     0.121 A 
ATOM     22  H6  UNL     1      -6.380  -0.576  -0.336  1.00  0.00     0.183 HD
BRANCH  18  23
HETATM   23  N5  UNL     1      -7.771   1.329  -1.049  1.00  0.00    -0.234 N 
ATOM     24  H52 UNL     1      -8.262   2.172  -1.347  1.00  0.00     0.174 HD
ATOM     25  H51 UNL     1      -8.315   0.479  -0.897  1.00  0.00     0.174 HD
ENDBRANCH  18  23
ENDBRANCH   8  15
BRANCH  12  26
HETATM   26  N8  UNL     1      -0.609  -2.239   0.938  1.00  0.00    -0.310 N 
HETATM   27  C15 UNL     1      -1.146  -2.469   2.265  1.00  0.00     0.160 C 
HETATM   28  C16 UNL     1      -0.893  -3.179  -0.069  1.00  0.00     0.189 C 
HETATM   29  N9  UNL     1      -0.062  -3.419  -1.017  1.00  0.00    -0.373 N 
HETATM   30  N10 UNL     1      -2.117  -3.879  -0.045  1.00  0.00    -0.064 NA
ATOM     31  H92 UNL     1       0.823  -2.913  -1.034  1.00  0.00     0.158 HD
ATOM     32  H91 UNL     1      -0.268  -4.101  -1.747  1.00  0.00     0.158 HD
ENDBRANCH  12  26
BRANCH   1  33
HETATM   33  N1  UNL     1       3.553  -0.119   0.959  1.00  0.00    -0.226 N 
ATOM     34  H1  UNL     1       3.926  -1.021   1.256  1.00  0.00     0.177 HD
BRANCH  33  35
HETATM   35  C4  UNL     1       4.463   0.996   0.788  1.00  0.00     0.142 C 
BRANCH  35  36
HETATM   36  C2  UNL     1       5.014   0.901  -0.632  1.00  0.00    -0.004 C 
HETATM   37  C1  UNL     1       5.974   2.016  -0.919  1.00  0.00     0.011 C 
HETATM   38  C3  UNL     1       5.664  -0.455  -0.776  1.00  0.00     0.011 C 
ENDBRANCH  35  36
ENDBRANCH  33  35
ENDBRANCH   1  33
TORSDOF 6
