REMARK  6 active torsions:
REMARK  status: ('A' for Active; 'I' for Inactive)
REMARK    1  A    between atoms: S1_2  and  C2_3 
REMARK    2  A    between atoms: C4_7  and  N2_8 
REMARK    3  A    between atoms: N2_8  and  C5_10 
REMARK    4  A    between atoms: C5_10  and  C6_11 
REMARK    5  A    between atoms: C9_17  and  N5_18 
REMARK    6  A    between atoms: C12_23  and  N7_24 
ROOT
HETATM    1  C2  UNL     1      -3.932   0.361   1.850  1.00  0.00     0.146 A 
HETATM    2  N1  UNL     1      -2.752   0.407   1.168  1.00  0.00    -0.332 N 
ATOM      3  H1  UNL     1      -2.042   1.080   1.455  1.00  0.00     0.168 HD
HETATM    4  C3  UNL     1      -2.497  -0.401   0.137  1.00  0.00     0.110 A 
HETATM    5  C4  UNL     1      -1.282  -0.351  -0.561  1.00  0.00     0.146 A 
HETATM    6  N6  UNL     1      -1.110  -1.199  -1.584  1.00  0.00    -0.175 N 
ATOM      7  H6  UNL     1      -0.223  -1.155  -2.086  1.00  0.00     0.186 HD
HETATM    8  C12 UNL     1      -2.013  -2.102  -2.001  1.00  0.00     0.678 A 
HETATM    9  N8  UNL     1      -3.186  -2.145  -1.321  1.00  0.00    -0.186 N 
ATOM     10  H8  UNL     1      -3.901  -2.816  -1.602  1.00  0.00     0.184 HD
HETATM   11  C13 UNL     1      -3.428  -1.323  -0.284  1.00  0.00     0.123 A 
HETATM   12  C14 UNL     1      -4.625  -1.361   0.417  1.00  0.00     0.131 A 
HETATM   13  N9  UNL     1      -5.492  -2.227   0.017  1.00  0.00    -0.383 N 
ATOM     14  H91 UNL     1      -6.372  -2.255   0.532  1.00  0.00     0.157 HD
ATOM     15  H92 UNL     1      -5.311  -2.851  -0.769  1.00  0.00     0.157 HD
HETATM   16  N10 UNL     1      -4.866  -0.528   1.467  1.00  0.00    -0.321 N 
ATOM     17  H10 UNL     1      -5.756  -0.578   1.964  1.00  0.00     0.169 HD
ENDROOT
BRANCH   5  18
HETATM   18  N2  UNL     1      -0.447   0.506  -0.147  1.00  0.00    -0.369 N 
ATOM     19  H2  UNL     1      -0.732   1.075   0.650  1.00  0.00     0.161 HD
BRANCH  18  20
HETATM   20  C5  UNL     1       0.879   0.762  -0.692  1.00  0.00     0.165 C 
BRANCH  20  21
HETATM   21  C6  UNL     1       1.935   0.249   0.208  1.00  0.00     0.022 A 
HETATM   22  C7  UNL     1       1.616  -0.362   1.436  1.00  0.00     0.120 A 
HETATM   23  N3  UNL     1       2.770  -0.677   1.989  1.00  0.00    -0.308 N 
HETATM   24  N4  UNL     1       3.804  -0.313   1.206  1.00  0.00    -0.281 N 
ATOM     25  H3  UNL     1       2.868  -1.137   2.894  1.00  0.00     0.186 HD
HETATM   26  C8  UNL     1       5.201  -0.533   1.537  1.00  0.00     0.179 C 
HETATM   27  C9  UNL     1       3.305   0.263   0.096  1.00  0.00     0.128 A 
BRANCH  27  28
HETATM   28  N5  UNL     1       4.059   0.762  -1.007  1.00  0.00    -0.374 N 
HETATM   29  C10 UNL     1       5.513   0.975  -0.947  1.00  0.00     0.150 C 
HETATM   30  C11 UNL     1       3.478   1.067  -2.295  1.00  0.00     0.150 C 
ENDBRANCH  27  28
ENDBRANCH  20  21
ENDBRANCH  18  20
ENDBRANCH   5  18
BRANCH   8  31
HETATM   31  N7  UNL     1      -1.789  -2.897  -2.997  1.00  0.00    -0.234 N 
ATOM     32  H72 UNL     1      -0.907  -2.865  -3.508  1.00  0.00     0.174 HD
ATOM     33  H71 UNL     1      -2.475  -3.583  -3.314  1.00  0.00     0.174 HD
ENDBRANCH   8  31
BRANCH   1  34
HETATM   34  S1  UNL     1      -4.256   1.450   3.228  1.00  0.00    -0.098 SA
HETATM   35  C1  UNL     1      -5.027   2.997   2.678  1.00  0.00     0.099 C 
ENDBRANCH   1  34
TORSDOF 6
