REMARK  7 active torsions:
REMARK  status: ('A' for Active; 'I' for Inactive)
REMARK    1  A    between atoms: C2_2  and  C3_3 
REMARK    2  A    between atoms: N2_6  and  C4_7 
REMARK    3  A    between atoms: C6_13  and  N5_14 
REMARK    4  A    between atoms: C7_17  and  C8_18 
REMARK    5  A    between atoms: C8_18  and  C9_19 
REMARK    6  A    between atoms: C9_19  and  O1_20 
REMARK    7  A    between atoms: C15_29  and  N7_30 
ROOT
HETATM    1  C3  UNL     1      -0.365   1.978  -1.379  1.00  0.00     0.034 A 
HETATM    2  N1  UNL     1       0.776   1.291  -1.452  1.00  0.00    -0.296 N 
ATOM      3  H1  UNL     1       1.642   1.654  -1.851  1.00  0.00     0.187 HD
HETATM    4  N2  UNL     1       0.642   0.087  -0.944  1.00  0.00    -0.236 N 
HETATM    5  C10 UNL     1      -0.657  -0.022  -0.515  1.00  0.00     0.097 A 
HETATM    6  C11 UNL     1      -1.326   1.152  -0.772  1.00  0.00    -0.003 A 
HETATM    7  C12 UNL     1      -2.752   1.409  -0.443  1.00  0.00     0.049 A 
HETATM    8  C13 UNL     1      -3.463   0.281   0.182  1.00  0.00     0.065 A 
HETATM    9  C14 UNL     1      -2.699  -0.946   0.422  1.00  0.00     0.057 A 
HETATM   10  N6  UNL     1      -3.370  -1.971   0.994  1.00  0.00    -0.192 N 
ATOM     11  H6  UNL     1      -4.355  -1.869   1.238  1.00  0.00     0.184 HD
HETATM   12  C15 UNL     1      -2.728  -3.123   1.238  1.00  0.00     0.690 A 
HETATM   13  N8  UNL     1      -1.436  -3.246   0.916  1.00  0.00    -0.132 N 
ATOM     14  H8  UNL     1      -0.971  -4.132   1.113  1.00  0.00     0.205 HD
HETATM   15  N9  UNL     1      -0.723  -2.270   0.350  1.00  0.00    -0.282 N 
ATOM     16  H9  UNL     1       0.262  -2.389   0.113  1.00  0.00     0.187 HD
HETATM   17  C16 UNL     1      -1.379  -1.121   0.111  1.00  0.00     0.101 A 
ENDROOT
BRANCH   4  18
HETATM   18  C4  UNL     1       1.571  -0.988  -0.813  1.00  0.00     0.138 A 
HETATM   19  N3  UNL     1       1.649  -1.902  -1.838  1.00  0.00    -0.337 N 
HETATM   20  C5  UNL     1       2.468  -2.952  -1.755  1.00  0.00     0.183 A 
ATOM     21  H3  UNL     1       1.074  -1.776  -2.671  1.00  0.00     0.168 HD
HETATM   22  N4  UNL     1       3.208  -3.096  -0.656  1.00  0.00    -0.338 N 
HETATM   23  C6  UNL     1       3.180  -2.243   0.376  1.00  0.00     0.109 A 
ATOM     24  H4  UNL     1       3.831  -3.902  -0.598  1.00  0.00     0.168 HD
HETATM   25  C7  UNL     1       2.330  -1.139   0.305  1.00  0.00     0.033 A 
BRANCH  23  26
HETATM   26  N5  UNL     1       3.916  -2.425   1.411  1.00  0.00    -0.385 N 
ATOM     27  H52 UNL     1       4.537  -3.232   1.463  1.00  0.00     0.157 HD
ATOM     28  H51 UNL     1       3.895  -1.775   2.197  1.00  0.00     0.157 HD
ENDBRANCH  23  26
BRANCH  25  29
HETATM   29  C8  UNL     1       2.363  -0.194   1.433  1.00  0.00     0.072 C 
BRANCH  29  30
HETATM   30  C9  UNL     1       3.315   0.916   1.150  1.00  0.00     0.169 C 
BRANCH  30  31
HETATM   31  O1  UNL     1       3.368   1.846   2.219  1.00  0.00    -0.401 OA
ATOM     32  H1  UNL     1       3.975   2.554   2.038  1.00  0.00     0.209 HD
ENDBRANCH  30  31
ENDBRANCH  29  30
ENDBRANCH  25  29
ENDBRANCH   4  18
BRANCH   1  33
HETATM   33  C2  UNL     1      -0.680   3.358  -1.820  1.00  0.00     0.055 C 
HETATM   34  C1  UNL     1      -0.761   4.336  -0.675  1.00  0.00     0.011 C 
ENDBRANCH   1  33
BRANCH  12  35
HETATM   35  N7  UNL     1      -3.402  -4.095   1.788  1.00  0.00    -0.233 N 
ATOM     36  H72 UNL     1      -4.388  -4.001   2.034  1.00  0.00     0.174 HD
ATOM     37  H71 UNL     1      -2.914  -4.971   1.974  1.00  0.00     0.174 HD
ENDBRANCH  12  35
TORSDOF 7
