REMARK  6 active torsions:
REMARK  status: ('A' for Active; 'I' for Inactive)
REMARK    1  A    between atoms: C2_2  and  O1_3 
REMARK    2  A    between atoms: N1_7  and  C5_8 
REMARK    3  A    between atoms: C7_14  and  C8_15 
REMARK    4  A    between atoms: C8_15  and  C9_16 
REMARK    5  A    between atoms: C9_16  and  N4_17 
REMARK    6  A    between atoms: C13_26  and  N7_27 
ROOT
HETATM    1  C9  UNL     1      -0.965  -0.677  -0.881  1.00  0.00     0.136 C 
ENDROOT
BRANCH   1   2
HETATM    2  C8  UNL     1      -0.422   0.699  -1.165  1.00  0.00     0.064 C 
BRANCH   2   3
HETATM    3  C7  UNL     1       0.051   1.417   0.023  1.00  0.00     0.005 A 
HETATM    4  C5  UNL     1       1.231   1.211   0.708  1.00  0.00     0.125 A 
HETATM    5  N2  UNL     1       1.271   2.104   1.742  1.00  0.00    -0.285 N 
HETATM    6  N3  UNL     1       0.170   2.822   1.696  1.00  0.00    -0.310 N 
ATOM      7  H2  UNL     1       2.021   2.197   2.427  1.00  0.00     0.188 HD
HETATM    8  C6  UNL     1      -0.616   2.439   0.655  1.00  0.00     0.118 A 
ATOM      9  H3  UNL     1      -0.063   3.566   2.353  1.00  0.00     0.186 HD
BRANCH   4  10
HETATM   10  N1  UNL     1       2.260   0.279   0.441  1.00  0.00    -0.363 N 
HETATM   11  C4  UNL     1       2.696  -0.774   1.329  1.00  0.00     0.127 C 
HETATM   12  C3  UNL     1       4.219  -0.659   1.142  1.00  0.00     0.059 C 
HETATM   13  C2  UNL     1       4.327  -0.548  -0.348  1.00  0.00     0.072 C 
HETATM   14  C1  UNL     1       5.560   0.190  -0.818  1.00  0.00     0.047 C 
HETATM   15  C15 UNL     1       3.061   0.183  -0.754  1.00  0.00     0.161 C 
BRANCH  13  16
HETATM   16  O1  UNL     1       4.377  -1.833  -0.887  1.00  0.00    -0.389 OA
ATOM     17  H1  UNL     1       3.602  -2.297  -0.592  1.00  0.00     0.210 HD
ENDBRANCH  13  16
ENDBRANCH   4  10
ENDBRANCH   2   3
ENDBRANCH   1   2
BRANCH   1  18
HETATM   18  N4  UNL     1      -2.093  -0.647   0.014  1.00  0.00    -0.327 N 
HETATM   19  C10 UNL     1      -2.035  -0.725   1.361  1.00  0.00     0.185 A 
HETATM   20  N5  UNL     1      -3.271  -0.668   1.882  1.00  0.00    -0.345 N 
HETATM   21  C11 UNL     1      -4.156  -0.551   0.892  1.00  0.00     0.147 A 
ATOM     22  H5  UNL     1      -3.497  -0.708   2.876  1.00  0.00     0.167 HD
HETATM   23  C12 UNL     1      -5.529  -0.450   0.777  1.00  0.00     0.290 A 
HETATM   24  C14 UNL     1      -3.399  -0.540  -0.281  1.00  0.00     0.156 A 
HETATM   25  O2  UNL     1      -6.201  -0.462   1.832  1.00  0.00    -0.265 OA
HETATM   26  N6  UNL     1      -6.107  -0.343  -0.435  1.00  0.00    -0.154 N 
HETATM   27  C13 UNL     1      -5.358  -0.334  -1.551  1.00  0.00     0.680 A 
ATOM     28  H6  UNL     1      -7.122  -0.268  -0.506  1.00  0.00     0.187 HD
HETATM   29  N8  UNL     1      -4.032  -0.432  -1.443  1.00  0.00    -0.174 N 
ATOM     30  H8  UNL     1      -3.475  -0.424  -2.298  1.00  0.00     0.186 HD
BRANCH  27  31
HETATM   31  N7  UNL     1      -5.914  -0.228  -2.734  1.00  0.00    -0.234 N 
ATOM     32  H72 UNL     1      -6.928  -0.153  -2.817  1.00  0.00     0.174 HD
ATOM     33  H71 UNL     1      -5.346  -0.221  -3.581  1.00  0.00     0.174 HD
ENDBRANCH  27  31
ENDBRANCH   1  18
TORSDOF 6
