REMARK  1 active torsions:
REMARK  status: ('A' for Active; 'I' for Inactive)
REMARK       I    between atoms: C1_2  and  N2_4 
REMARK    1  A    between atoms: N2_4  and  C2_6 
ROOT
HETATM    1  C2  UNL     1       0.570  -0.239   0.256  1.00  0.00     0.142 A 
HETATM    2  N3  UNL     1       0.719   1.089   0.363  1.00  0.00    -0.292 N 
ATOM      3  H3  UNL     1       1.661   1.410   0.588  1.00  0.00     0.172 HD
HETATM    4  C3  UNL     1      -0.216   2.068   0.212  1.00  0.00     0.328 A 
HETATM    5  O2  UNL     1       0.165   3.252   0.274  1.00  0.00    -0.247 OA
HETATM    6  N4  UNL     1      -1.536   1.900   0.000  1.00  0.00    -0.273 N 
ATOM      7  H4  UNL     1      -2.071   2.768   0.022  1.00  0.00     0.173 HD
HETATM    8  C4  UNL     1      -2.276   0.819  -0.232  1.00  0.00     0.278 A 
HETATM    9  O3  UNL     1      -3.525   0.968  -0.433  1.00  0.00    -0.265 OA
HETATM   10  C5  UNL     1      -1.832  -0.491  -0.281  1.00  0.00     0.133 A 
HETATM   11  N5  UNL     1      -2.572  -1.580  -0.558  1.00  0.00    -0.346 N 
ATOM     12  H5  UNL     1      -3.570  -1.565  -0.769  1.00  0.00     0.167 HD
HETATM   13  C6  UNL     1      -1.816  -2.688  -0.519  1.00  0.00     0.181 A 
HETATM   14  N6  UNL     1      -0.544  -2.325  -0.209  1.00  0.00    -0.347 N 
ATOM     15  H6  UNL     1       0.258  -2.947  -0.107  1.00  0.00     0.167 HD
HETATM   16  C7  UNL     1      -0.544  -0.978  -0.062  1.00  0.00     0.110 A 
ENDROOT
BRANCH   1  17
HETATM   17  N2  UNL     1       1.638  -0.918   0.488  1.00  0.00    -0.295 N 
HETATM   18  C1  UNL     1       2.863  -0.279   0.828  1.00  0.00     0.334 C 
HETATM   19  N1  UNL     1       3.777   0.063  -0.187  1.00  0.00    -0.040 NA
HETATM   20  O1  UNL     1       3.113  -0.025   2.049  1.00  0.00    -0.251 OA
ATOM     21  H2  UNL     1       1.606  -1.936   0.427  1.00  0.00     0.171 HD
ENDBRANCH   1  17
TORSDOF 1
