REMARK  4 active torsions:
REMARK  status: ('A' for Active; 'I' for Inactive)
REMARK    1  A    between atoms: N2_7  and  N3_8 
REMARK    2  A    between atoms: N3_8  and  C4_10 
REMARK    3  A    between atoms: C4_10  and  N4_12 
REMARK    4  A    between atoms: N4_12  and  C5_14 
ROOT
HETATM    1  C4  UNL     1       0.533   0.705  -0.641  1.00  0.00     0.205 C 
HETATM    2  S1  UNL     1      -0.079   1.965   0.186  1.00  0.00    -0.039 SA
ENDROOT
BRANCH   1   3
HETATM    3  N3  UNL     1      -0.247  -0.464  -0.796  1.00  0.00    -0.269 N 
ATOM      4  H3  UNL     1       0.169  -1.234  -1.320  1.00  0.00     0.189 HD
BRANCH   3   5
HETATM    5  N2  UNL     1      -1.514  -0.655  -0.304  1.00  0.00    -0.239 N 
HETATM    6  C1  UNL     1      -2.610  -1.157  -1.099  1.00  0.00     0.337 C 
HETATM    7  O1  UNL     1      -2.473  -1.818  -2.181  1.00  0.00    -0.245 OA
HETATM    8  N1  UNL     1      -3.831  -0.793  -0.474  1.00  0.00    -0.340 N 
HETATM    9  C2  UNL     1      -3.477   0.091   0.618  1.00  0.00     0.146 C 
ATOM     10  H1  UNL     1      -4.769  -1.093  -0.740  1.00  0.00     0.164 HD
HETATM   11  C3  UNL     1      -2.106  -0.447   1.004  1.00  0.00     0.173 C 
ENDBRANCH   3   5
ENDBRANCH   1   3
BRANCH   1  12
HETATM   12  N4  UNL     1       1.833   0.796  -1.193  1.00  0.00    -0.163 N 
ATOM     13  H4  UNL     1       1.924   0.971  -2.194  1.00  0.00     0.187 HD
BRANCH  12  14
HETATM   14  C5  UNL     1       2.908   0.668  -0.492  1.00  0.00     0.710 A 
HETATM   15  N5  UNL     1       2.991   0.436   0.832  1.00  0.00    -0.117 N 
HETATM   16  N6  UNL     1       4.273   0.369   1.184  1.00  0.00     0.006 NA
ATOM     17  H5  UNL     1       2.198   0.329   1.464  1.00  0.00     0.202 HD
HETATM   18  N7  UNL     1       5.019   0.554   0.108  1.00  0.00     0.006 NA
HETATM   19  N8  UNL     1       4.185   0.735  -0.904  1.00  0.00    -0.117 N 
ATOM     20  H8  UNL     1       4.473   0.903  -1.868  1.00  0.00     0.202 HD
ENDBRANCH  12  14
ENDBRANCH   1  12
TORSDOF 4
