REMARK  3 active torsions:
REMARK  status: ('A' for Active; 'I' for Inactive)
REMARK    1  A    between atoms: N1_1  and  N2_4 
REMARK       I    between atoms: N2_4  and  C1_6 
REMARK       I    between atoms: C1_6  and  N3_8 
REMARK    2  A    between atoms: C3_10  and  C4_11 
REMARK    3  A    between atoms: C6_15  and  O3_16 
ROOT
HETATM    1  N2  UNL     1      -2.990  -0.086   0.316  1.00  0.00    -0.258 N 
ATOM      2  H2  UNL     1      -3.085   0.929   0.281  1.00  0.00     0.191 HD
HETATM    3  C1  UNL     1      -1.702  -0.638   0.292  1.00  0.00     0.346 C 
HETATM    4  O1  UNL     1      -1.639  -1.912   0.338  1.00  0.00    -0.245 OA
HETATM    5  N3  UNL     1      -0.474   0.061   0.223  1.00  0.00    -0.253 N 
HETATM    6  C2  UNL     1       0.770  -0.516   0.201  1.00  0.00     0.120 A 
HETATM    7  C3  UNL     1       1.734   0.458   0.131  1.00  0.00     0.049 A 
HETATM    8  C5  UNL     1       1.044   1.640   0.111  1.00  0.00     0.074 A 
HETATM    9  C6  UNL     1      -0.333   1.387   0.168  1.00  0.00     0.151 A 
ENDROOT
BRANCH   9  10
HETATM   10  O3  UNL     1      -1.283   2.412   0.163  1.00  0.00    -0.346 OA
ATOM     11  H3  UNL     1      -1.183   3.356   0.124  1.00  0.00     0.219 HD
ENDBRANCH   9  10
BRANCH   1  12
HETATM   12  N1  UNL     1      -4.152  -0.863   0.386  1.00  0.00    -0.341 N 
ATOM     13  H12 UNL     1      -4.039  -1.876   0.420  1.00  0.00     0.177 HD
ATOM     14  H11 UNL     1      -5.089  -0.461   0.403  1.00  0.00     0.177 HD
ENDBRANCH   1  12
BRANCH   7  15
HETATM   15  C4  UNL     1       3.188   0.307   0.086  1.00  0.00     0.266 C 
HETATM   16  N4  UNL     1       3.798  -0.967   0.113  1.00  0.00    -0.057 NA
HETATM   17  O2  UNL     1       3.916   1.330   0.022  1.00  0.00    -0.271 OA
ENDBRANCH   7  15
TORSDOF 3
