REMARK  1 active torsions:
REMARK  status: ('A' for Active; 'I' for Inactive)
REMARK    1  A    between atoms: C4_7  and  C5_8 
ROOT
HETATM    1  O1  UNL     1      -2.915   1.703  -1.704  1.00  0.00    -0.268 OA
HETATM    2  C1  UNL     1      -2.328   0.960  -0.888  1.00  0.00     0.248 A 
HETATM    3  C2  UNL     1      -3.123   0.262   0.019  1.00  0.00     0.091 A 
HETATM    4  C3  UNL     1      -2.476  -0.550   0.910  1.00  0.00     0.095 A 
HETATM    5  N1  UNL     1      -1.120  -0.652   0.888  1.00  0.00    -0.349 N 
ATOM      6  H1  UNL     1      -0.664  -1.265   1.564  1.00  0.00     0.167 HD
HETATM    7  C4  UNL     1      -0.366   0.015   0.021  1.00  0.00     0.154 A 
HETATM    8  N5  UNL     1      -0.987   0.817  -0.861  1.00  0.00    -0.306 N 
ATOM      9  H5  UNL     1      -0.424   1.336  -1.534  1.00  0.00     0.170 HD
ENDROOT
BRANCH   7  10
HETATM   10  C5  UNL     1       1.087  -0.115   0.021  1.00  0.00     0.169 A 
HETATM   11  N2  UNL     1       1.948   0.520  -0.819  1.00  0.00    -0.289 N 
HETATM   12  C6  UNL     1       3.197   0.141  -0.503  1.00  0.00     0.340 A 
ATOM     13  H2  UNL     1       1.690   1.171  -1.560  1.00  0.00     0.172 HD
HETATM   14  O2  UNL     1       4.256   0.517  -1.058  1.00  0.00    -0.245 OA
HETATM   15  N3  UNL     1       3.150  -0.724   0.523  1.00  0.00    -0.250 N 
HETATM   16  N4  UNL     1       1.869  -0.858   0.816  1.00  0.00    -0.278 N 
ATOM     17  H3  UNL     1       3.938  -1.182   0.980  1.00  0.00     0.192 HD
ATOM     18  H4  UNL     1       1.516  -1.458   1.561  1.00  0.00     0.189 HD
ENDBRANCH   7  10
TORSDOF 1
