REMARK  3 active torsions:
REMARK  status: ('A' for Active; 'I' for Inactive)
REMARK    1  A    between atoms: C2_3  and  C3_4 
REMARK    2  A    between atoms: C2_3  and  C7_13 
REMARK    3  A    between atoms: C3_4  and  C4_5 
ROOT
HETATM    1  N1  UNL     1       1.396  -2.547   0.063  1.00  0.00    -0.191 NA
HETATM    2  C1  UNL     1       1.456  -1.366   0.084  1.00  0.00     0.104 C 
HETATM    3  C2  UNL     1       1.506   0.066   0.118  1.00  0.00     0.111 C 
ENDROOT
BRANCH   3   4
HETATM    4  C3  UNL     1       0.388   0.736  -0.089  1.00  0.00     0.061 C 
BRANCH   4   5
HETATM    5  C4  UNL     1      -0.873   0.015  -0.350  1.00  0.00     0.076 A 
HETATM    6  N2  UNL     1      -1.084  -1.007  -1.197  1.00  0.00    -0.350 N 
HETATM    7  C5  UNL     1      -2.359  -1.401  -1.097  1.00  0.00     0.182 A 
ATOM      8  H2  UNL     1      -0.385  -1.416  -1.816  1.00  0.00     0.166 HD
HETATM    9  N3  UNL     1      -3.012  -0.645  -0.181  1.00  0.00    -0.339 N 
HETATM   10  C6  UNL     1      -2.106   0.223   0.280  1.00  0.00     0.144 A 
ATOM     11  H3  UNL     1      -3.990  -0.722   0.098  1.00  0.00     0.167 HD
HETATM   12  N4  UNL     1      -2.322   1.229   1.287  1.00  0.00    -0.080 NA
ENDBRANCH   4   5
ENDBRANCH   3   4
BRANCH   3  13
HETATM   13  C7  UNL     1       2.756   0.789   0.388  1.00  0.00     0.275 C 
HETATM   14  N5  UNL     1       3.975   0.102   0.623  1.00  0.00    -0.057 NA
HETATM   15  O1  UNL     1       2.699   2.061   0.401  1.00  0.00    -0.270 OA
ENDBRANCH   3  13
TORSDOF 3
