REMARK  9 active torsions:
REMARK  status: ('A' for Active; 'I' for Inactive)
REMARK    1  A    between atoms: C2_2  and  C3_3 
REMARK    2  A    between atoms: C4_6  and  C5_7 
REMARK    3  A    between atoms: C5_7  and  C6_8 
REMARK    4  A    between atoms: C13_16  and  C14_17 
REMARK    5  A    between atoms: C15_18  and  C16_19 
REMARK    6  A    between atoms: C16_19  and  C17_20 
REMARK    7  A    between atoms: C16_19  and  N4_23 
REMARK    8  A    between atoms: N4_23  and  C18_24 
REMARK    9  A    between atoms: N4_23  and  C21_27 
ROOT
HETATM    1  C6  UNL     1       2.007  -1.068   1.055  1.00  0.00    -0.019 A 
HETATM    2  C7  UNL     1       2.938  -2.027   1.363  1.00  0.00     0.037 A 
HETATM    3  C8  UNL     1       2.751  -3.348   1.015  1.00  0.00     0.008 A 
HETATM    4  C9  UNL     1       3.748  -4.402   1.332  1.00  0.00     0.068 C 
HETATM    5  N2  UNL     1       1.631  -3.645   0.370  1.00  0.00    -0.358 N 
HETATM    6  C10 UNL     1       1.426  -5.044   0.005  1.00  0.00     0.156 C 
HETATM    7  C11 UNL     1       0.677  -2.713   0.044  1.00  0.00     0.018 A 
HETATM    8  C12 UNL     1      -0.523  -3.173  -0.685  1.00  0.00     0.069 C 
HETATM    9  C13 UNL     1       0.811  -1.390   0.365  1.00  0.00    -0.003 A 
ENDROOT
BRANCH   9  10
HETATM   10  C14 UNL     1      -0.057  -0.304   0.098  1.00  0.00     0.017 C 
HETATM   11  C15 UNL     1      -1.203  -0.225  -0.462  1.00  0.00     0.036 C 
BRANCH  11  12
HETATM   12  C16 UNL     1      -1.953   1.099  -0.638  1.00  0.00     0.100 C 
BRANCH  12  13
HETATM   13  C17 UNL     1      -1.493   1.796  -1.827  1.00  0.00     0.281 C 
HETATM   14  N3  UNL     1      -0.165   1.541  -2.367  1.00  0.00    -0.056 NA
HETATM   15  O1  UNL     1      -2.123   2.644  -2.496  1.00  0.00    -0.269 OA
ENDBRANCH  12  13
BRANCH  12  16
HETATM   16  N4  UNL     1      -3.248   1.098  -0.185  1.00  0.00    -0.347 N 
BRANCH  16  17
HETATM   17  C18 UNL     1      -3.362   0.996   1.250  1.00  0.00     0.082 C 
HETATM   18  C19 UNL     1      -4.618   1.598   1.816  1.00  0.00     0.032 C 
HETATM   19  C20 UNL     1      -3.290  -0.431   1.688  1.00  0.00     0.032 C 
ENDBRANCH  16  17
BRANCH  16  20
HETATM   20  C21 UNL     1      -4.413   0.931  -0.896  1.00  0.00    -0.018 C 
HETATM   21  C22 UNL     1      -4.607  -0.359  -1.668  1.00  0.00     0.063 C 
HETATM   22  C23 UNL     1      -4.992   2.054  -1.708  1.00  0.00     0.063 C 
ENDBRANCH  16  20
ENDBRANCH  12  16
ENDBRANCH  11  12
ENDBRANCH   9  10
BRANCH   1  23
HETATM   23  C5  UNL     1       2.283   0.298   1.459  1.00  0.00     0.061 C 
BRANCH  23  24
HETATM   24  C4  UNL     1       3.063   1.061   0.748  1.00  0.00     0.109 A 
HETATM   25  N1  UNL     1       3.370   2.334   1.044  1.00  0.00    -0.338 N 
HETATM   26  C3  UNL     1       4.197   2.843   0.094  1.00  0.00     0.098 A 
ATOM     27  H1  UNL     1       3.032   2.843   1.861  1.00  0.00     0.167 HD
HETATM   28  C24 UNL     1       4.408   1.845  -0.822  1.00  0.00     0.273 A 
HETATM   29  N5  UNL     1       3.717   0.787  -0.406  1.00  0.00    -0.308 N 
HETATM   30  O2  UNL     1       5.111   1.905  -1.854  1.00  0.00    -0.266 OA
ATOM     31  H5  UNL     1       3.684  -0.110  -0.891  1.00  0.00     0.170 HD
BRANCH  26  32
HETATM   32  C2  UNL     1       4.669   4.057   0.101  1.00  0.00     0.004 C 
HETATM   33  C1  UNL     1       5.562   4.565  -0.954  1.00  0.00     0.038 C 
ENDBRANCH  26  32
ENDBRANCH  23  24
ENDBRANCH   1  23
TORSDOF 9
