REMARK  8 active torsions:
REMARK  status: ('A' for Active; 'I' for Inactive)
REMARK    1  A    between atoms: C2_2  and  C3_3 
REMARK    2  A    between atoms: C3_3  and  C5_5 
REMARK    3  A    between atoms: C3_3  and  N1_7 
REMARK       I    between atoms: N1_7  and  C7_9 
REMARK    4  A    between atoms: C7_9  and  C8_11 
REMARK    5  A    between atoms: C8_11  and  N4_30 
REMARK       I    between atoms: N2_12  and  C9_14 
REMARK    6  A    between atoms: C9_14  and  C10_16 
REMARK    7  A    between atoms: C10_16  and  N3_17 
REMARK    8  A    between atoms: N4_30  and  N5_32 
ROOT
HETATM    1  C8  UNL     1       1.584  -0.514  -0.427  1.00  0.00     0.193 C 
HETATM    2  N2  UNL     1       0.446  -0.028  -0.207  1.00  0.00    -0.305 N 
ATOM      3  H2  UNL     1       0.410   0.855   0.302  1.00  0.00     0.170 HD
HETATM    4  C9  UNL     1      -0.803  -0.599  -0.604  1.00  0.00     0.264 C 
HETATM    5  O2  UNL     1      -0.645  -1.559  -1.388  1.00  0.00    -0.270 OA
ENDROOT
BRANCH   1   6
HETATM    6  C7  UNL     1       2.771   0.187   0.045  1.00  0.00     0.287 C 
HETATM    7  N1  UNL     1       4.090  -0.262  -0.144  1.00  0.00    -0.342 N 
ATOM      8  H1  UNL     1       4.196  -1.143  -0.647  1.00  0.00     0.164 HD
HETATM    9  O1  UNL     1       2.605   1.290   0.674  1.00  0.00    -0.264 OA
BRANCH   7  10
HETATM   10  C3  UNL     1       5.295   0.366   0.282  1.00  0.00     0.046 C 
HETATM   11  C4  UNL     1       5.261   0.461   1.815  1.00  0.00     0.043 C 
BRANCH  10  12
HETATM   12  C2  UNL     1       6.505  -0.422  -0.064  1.00  0.00    -0.007 C 
HETATM   13  C1  UNL     1       7.327  -0.217  -1.057  1.00  0.00     0.009 C 
ENDBRANCH  10  12
BRANCH  10  14
HETATM   14  C5  UNL     1       5.496   1.767  -0.289  1.00  0.00     0.030 C 
HETATM   15  C6  UNL     1       6.707   2.431   0.291  1.00  0.00     0.008 C 
ENDBRANCH  10  14
ENDBRANCH   7  10
ENDBRANCH   1   6
BRANCH   1  16
HETATM   16  N4  UNL     1       1.812  -1.733  -1.127  1.00  0.00    -0.267 N 
ATOM     17  H4  UNL     1       1.953  -1.735  -2.137  1.00  0.00     0.190 HD
BRANCH  16  18
HETATM   18  N5  UNL     1       1.839  -2.918  -0.406  1.00  0.00    -0.248 N 
HETATM   19  N6  UNL     1       2.218  -2.995   0.811  1.00  0.00    -0.331 N 
ATOM     20  H62 UNL     1       2.514  -2.129   1.262  1.00  0.00     0.178 HD
ATOM     21  H61 UNL     1       2.238  -3.866   1.341  1.00  0.00     0.178 HD
ATOM     22  H5  UNL     1       1.540  -3.774  -0.873  1.00  0.00     0.207 HD
ENDBRANCH  16  18
ENDBRANCH   1  16
BRANCH   4  23
HETATM   23  C10 UNL     1      -2.099  -0.059  -0.096  1.00  0.00     0.226 C 
HETATM   24  C17 UNL     1      -1.878   0.414   1.281  1.00  0.00     0.018 C 
HETATM   25  C18 UNL     1      -2.619   1.454   1.952  1.00  0.00    -0.028 C 
HETATM   26  C19 UNL     1      -3.244   2.597   1.283  1.00  0.00     0.027 C 
HETATM   27  C20 UNL     1      -2.557   3.231   0.141  1.00  0.00     0.004 C 
HETATM   28  C21 UNL     1      -1.651   2.290  -0.620  1.00  0.00     0.004 C 
HETATM   29  C22 UNL     1      -2.407   1.067  -1.064  1.00  0.00     0.054 C 
BRANCH  23  30
HETATM   30  N3  UNL     1      -3.086  -1.130  -0.210  1.00  0.00    -0.050 N 
HETATM   31  C11 UNL     1      -2.548  -2.252   0.584  1.00  0.00     0.274 C 
HETATM   32  C12 UNL     1      -3.265  -1.593  -1.524  1.00  0.00     0.239 C 
HETATM   33  C13 UNL     1      -4.598  -1.986  -2.032  1.00  0.00     0.028 C 
HETATM   34  C14 UNL     1      -5.800  -1.679  -1.230  1.00  0.00     0.003 C 
HETATM   35  C15 UNL     1      -5.375  -1.812   0.219  1.00  0.00     0.028 C 
HETATM   36  C16 UNL     1      -4.302  -0.764   0.507  1.00  0.00     0.239 C 
ENDBRANCH  23  30
ENDBRANCH   4  23
TORSDOF 8
