REMARK  8 active torsions:
REMARK  status: ('A' for Active; 'I' for Inactive)
REMARK    1  A    between atoms: C2_2  and  C3_3 
REMARK    2  A    between atoms: C6_6  and  C7_7 
REMARK    3  A    between atoms: C7_7  and  C8_8 
REMARK       I    between atoms: C8_8  and  N1_10 
REMARK    4  A    between atoms: N1_10  and  C9_11 
REMARK    5  A    between atoms: N1_10  and  C11_13 
REMARK    6  A    between atoms: C11_13  and  C12_14 
REMARK    7  A    between atoms: C17_22  and  C18_23 
REMARK    8  A    between atoms: C19_24  and  C20_25 
REMARK       I    between atoms: C20_25  and  N3_27 
ROOT
HETATM    1  C3  UNL     1       1.422  -0.901  -0.054  1.00  0.00    -0.013 A 
HETATM    2  C4  UNL     1       0.117  -1.237   0.128  1.00  0.00    -0.028 A 
HETATM    3  C5  UNL     1      -0.464  -2.445  -0.501  1.00  0.00     0.051 C 
HETATM    4  C6  UNL     1      -0.722  -0.415   0.924  1.00  0.00     0.028 A 
HETATM    5  N2  UNL     1      -0.221   0.696   1.495  1.00  0.00    -0.326 N 
ATOM      6  H2  UNL     1      -0.838   1.275   2.064  1.00  0.00     0.169 HD
HETATM    7  C15 UNL     1       1.056   1.071   1.345  1.00  0.00     0.256 A 
HETATM    8  O2  UNL     1       1.490   2.143   1.905  1.00  0.00    -0.267 OA
HETATM    9  C16 UNL     1       1.880   0.286   0.579  1.00  0.00     0.044 A 
HETATM   10  C17 UNL     1       3.250   0.642   0.363  1.00  0.00     0.032 C 
ENDROOT
BRANCH   1  11
HETATM   11  C2  UNL     1       2.371  -1.683  -0.811  1.00  0.00     0.003 C 
HETATM   12  C1  UNL     1       2.450  -2.972  -0.983  1.00  0.00     0.012 C 
ENDBRANCH   1  11
BRANCH  10  13
HETATM   13  C18 UNL     1       4.333   0.355   1.016  1.00  0.00     0.008 A 
HETATM   14  C19 UNL     1       5.601   0.806   0.635  1.00  0.00     0.059 A 
HETATM   15  C22 UNL     1       6.530   0.362   1.539  1.00  0.00     0.106 A 
HETATM   16  N4  UNL     1       5.877  -0.346   2.462  1.00  0.00    -0.365 N 
HETATM   17  C23 UNL     1       4.534  -0.354   2.145  1.00  0.00     0.033 A 
ATOM     18  H4  UNL     1       6.300  -0.805   3.268  1.00  0.00     0.165 HD
HETATM   19  C24 UNL     1       3.685  -0.983   2.904  1.00  0.00     0.044 C 
BRANCH  14  20
HETATM   20  C20 UNL     1       5.938   1.581  -0.519  1.00  0.00     0.253 C 
HETATM   21  O3  UNL     1       5.530   2.764  -0.617  1.00  0.00    -0.268 OA
HETATM   22  N3  UNL     1       6.726   1.050  -1.557  1.00  0.00    -0.361 N 
HETATM   23  C21 UNL     1       7.148   1.693  -2.760  1.00  0.00     0.149 C 
ATOM     24  H3  UNL     1       7.034   0.085  -1.435  1.00  0.00     0.162 HD
ENDBRANCH  14  20
ENDBRANCH  10  13
BRANCH   4  25
HETATM   25  C7  UNL     1      -2.129  -0.771   1.104  1.00  0.00     0.160 C 
BRANCH  25  26
HETATM   26  C8  UNL     1      -2.938  -0.278  -0.042  1.00  0.00     0.225 C 
HETATM   27  O1  UNL     1      -2.363   0.374  -0.955  1.00  0.00    -0.273 OA
HETATM   28  N1  UNL     1      -4.334  -0.501  -0.165  1.00  0.00    -0.352 N 
BRANCH  28  29
HETATM   29  C9  UNL     1      -4.925  -1.307   0.861  1.00  0.00     0.121 C 
HETATM   30  C10 UNL     1      -5.363  -0.595   2.102  1.00  0.00     0.026 C 
ENDBRANCH  28  29
BRANCH  28  31
HETATM   31  C11 UNL     1      -5.035   0.040  -1.270  1.00  0.00     0.129 C 
BRANCH  31  32
HETATM   32  C12 UNL     1      -5.673   1.360  -1.206  1.00  0.00    -0.005 C 
HETATM   33  C13 UNL     1      -6.774   1.544  -0.187  1.00  0.00     0.011 C 
HETATM   34  C14 UNL     1      -4.703   2.544  -1.140  1.00  0.00     0.011 C 
ENDBRANCH  31  32
ENDBRANCH  28  31
ENDBRANCH  25  26
ENDBRANCH   4  25
TORSDOF 8
