REMARK  5 active torsions:
REMARK  status: ('A' for Active; 'I' for Inactive)
REMARK    1  A    between atoms: N1_2  and  S1_4 
REMARK    2  A    between atoms: S1_4  and  C3_7 
REMARK    3  A    between atoms: C6_10  and  N2_11 
REMARK       I    between atoms: N2_11  and  C7_13 
REMARK       I    between atoms: C7_13  and  N3_15 
REMARK       I    between atoms: N3_15  and  C8_17 
REMARK       I    between atoms: C8_17  and  N4_19 
REMARK    4  A    between atoms: N4_19  and  C9_21 
REMARK    5  A    between atoms: C9_21  and  C10_22 
ROOT
HETATM    1  N2  UNL     1      -0.108   1.642  -0.811  1.00  0.00    -0.309 N 
ATOM      2  H2  UNL     1      -0.134   2.606  -1.144  1.00  0.00     0.170 HD
HETATM    3  C7  UNL     1       1.189   0.896  -0.908  1.00  0.00     0.328 C 
HETATM    4  O3  UNL     1       1.110  -0.199  -0.416  1.00  0.00    -0.247 OA
HETATM    5  N3  UNL     1       2.169   1.638  -1.548  1.00  0.00    -0.261 N 
ATOM      6  H3  UNL     1       2.149   2.586  -1.923  1.00  0.00     0.175 HD
HETATM    7  C8  UNL     1       3.409   0.488  -1.517  1.00  0.00     0.324 C 
HETATM    8  O4  UNL     1       4.396   1.005  -2.063  1.00  0.00    -0.247 OA
HETATM    9  N4  UNL     1       3.349  -0.712  -1.021  1.00  0.00    -0.339 N 
ATOM     10  H4  UNL     1       2.504  -1.081  -0.584  1.00  0.00     0.164 HD
ENDROOT
BRANCH   1  11
HETATM   11  C6  UNL     1      -1.278   1.097  -0.294  1.00  0.00     0.036 A 
HETATM   12  C5  UNL     1      -2.141   1.942   0.390  1.00  0.00     0.031 A 
HETATM   13  C4  UNL     1      -3.352   1.510   0.874  1.00  0.00     0.027 A 
HETATM   14  C3  UNL     1      -3.770   0.209   0.702  1.00  0.00     0.079 A 
HETATM   15  C17 UNL     1      -2.927  -0.642   0.027  1.00  0.00     0.027 A 
HETATM   16  C16 UNL     1      -1.694  -0.197  -0.465  1.00  0.00     0.031 A 
BRANCH  14  17
HETATM   17  S1  UNL     1      -5.304  -0.346   1.319  1.00  0.00     0.260 S 
HETATM   18  O1  UNL     1      -5.544   0.322   2.655  1.00  0.00    -0.200 OA
HETATM   19  O2  UNL     1      -5.181  -1.832   1.605  1.00  0.00    -0.200 OA
BRANCH  17  20
HETATM   20  N1  UNL     1      -6.562  -0.005   0.236  1.00  0.00    -0.315 N 
HETATM   21  C1  UNL     1      -6.472  -0.616  -1.043  1.00  0.00     0.162 C 
HETATM   22  C2  UNL     1      -7.865   0.107   0.801  1.00  0.00     0.162 C 
ENDBRANCH  17  20
ENDBRANCH  14  17
ENDBRANCH   1  11
BRANCH   9  23
HETATM   23  C9  UNL     1       4.647  -1.540  -1.140  1.00  0.00     0.162 C 
BRANCH  23  24
HETATM   24  C10 UNL     1       5.524  -1.039  -0.072  1.00  0.00    -0.040 A 
HETATM   25  C11 UNL     1       4.996  -0.569   1.119  1.00  0.00     0.009 A 
HETATM   26  C12 UNL     1       5.797  -0.102   2.134  1.00  0.00     0.001 A 
HETATM   27  C13 UNL     1       7.158  -0.106   1.950  1.00  0.00     0.000 A 
HETATM   28  C14 UNL     1       7.749  -0.558   0.796  1.00  0.00     0.001 A 
HETATM   29  C15 UNL     1       6.914  -1.017  -0.196  1.00  0.00     0.009 A 
ENDBRANCH  23  24
ENDBRANCH   9  23
TORSDOF 5
