REMARK  5 active torsions:
REMARK  status: ('A' for Active; 'I' for Inactive)
REMARK    1  A    between atoms: S1_2  and  C2_3 
REMARK    2  A    between atoms: C7_8  and  C8_9 
REMARK       I    between atoms: C8_9  and  N1_11 
REMARK    3  A    between atoms: N1_11  and  C9_13 
REMARK    4  A    between atoms: C12_16  and  S2_17 
REMARK    5  A    between atoms: S2_17  and  N2_20 
ROOT
HETATM    1  C9  UNL     1      -0.019   0.543   0.525  1.00  0.00     0.035 A 
HETATM    2  C10 UNL     1      -0.973   0.925   1.484  1.00  0.00     0.031 A 
HETATM    3  C11 UNL     1      -2.313   1.015   1.194  1.00  0.00     0.027 A 
HETATM    4  C12 UNL     1      -2.797   0.732  -0.063  1.00  0.00     0.080 A 
HETATM    5  C14 UNL     1      -1.874   0.358  -1.008  1.00  0.00     0.027 A 
HETATM    6  C15 UNL     1      -0.503   0.264  -0.719  1.00  0.00     0.031 A 
ENDROOT
BRANCH   1   7
HETATM    7  N1  UNL     1       1.351   0.478   0.883  1.00  0.00    -0.323 N 
HETATM    8  C8  UNL     1       2.401  -0.014   0.105  1.00  0.00     0.257 C 
HETATM    9  O1  UNL     1       2.308  -0.479  -1.025  1.00  0.00    -0.267 OA
ATOM     10  H1  UNL     1       1.596   0.828   1.809  1.00  0.00     0.169 HD
BRANCH   8  11
HETATM   11  C7  UNL     1       3.758   0.031   0.710  1.00  0.00     0.049 A 
HETATM   12  C2  UNL     1       4.861   0.313  -0.022  1.00  0.00     0.015 A 
HETATM   13  C3  UNL     1       6.106   0.344   0.606  1.00  0.00     0.019 A 
HETATM   14  C4  UNL     1       6.250   0.095   1.950  1.00  0.00     0.001 A 
HETATM   15  C5  UNL     1       5.117  -0.191   2.678  1.00  0.00     0.001 A 
HETATM   16  C6  UNL     1       3.878  -0.225   2.071  1.00  0.00     0.018 A 
BRANCH  12  17
HETATM   17  S1  UNL     1       4.695   0.643  -1.768  1.00  0.00    -0.133 SA
HETATM   18  C1  UNL     1       4.885  -0.947  -2.658  1.00  0.00     0.095 C 
ENDBRANCH  12  17
ENDBRANCH   8  11
ENDBRANCH   1   7
BRANCH   4  19
HETATM   19  S2  UNL     1      -4.504   0.849  -0.424  1.00  0.00     0.264 S 
HETATM   20  O2  UNL     1      -4.730   1.278  -1.831  1.00  0.00    -0.200 OA
HETATM   21  O3  UNL     1      -5.160   1.842   0.519  1.00  0.00    -0.200 OA
BRANCH  19  22
HETATM   22  N2  UNL     1      -5.206  -0.691  -0.101  1.00  0.00    -0.256 N 
HETATM   23  C13 UNL     1      -6.487  -0.862  -0.119  1.00  0.00     0.210 C 
HETATM   24  N3  UNL     1      -7.318   0.249  -0.412  1.00  0.00    -0.066 NA
HETATM   25  N4  UNL     1      -7.083  -2.113   0.142  1.00  0.00    -0.066 NA
ATOM     26  H2  UNL     1      -4.599  -1.483   0.109  1.00  0.00     0.181 HD
ENDBRANCH  19  22
ENDBRANCH   4  19
TORSDOF 5
