REMARK  9 active torsions:
REMARK  status: ('A' for Active; 'I' for Inactive)
REMARK    1  A    between atoms: C2_2  and  N1_5 
REMARK    2  A    between atoms: N1_5  and  S1_7 
REMARK    3  A    between atoms: S1_7  and  N2_9 
REMARK    4  A    between atoms: S1_7  and  C8_18 
REMARK    5  A    between atoms: N2_9  and  C5_11 
REMARK    6  A    between atoms: C5_11  and  C6_12 
REMARK    7  A    between atoms: C6_12  and  N3_13 
REMARK    8  A    between atoms: N3_13  and  C7_15 
REMARK    9  A    between atoms: C11_21  and  C12_22 
ROOT
HETATM    1  S1  UNL     1       1.097  -0.873  -0.509  1.00  0.00     0.135 S 
HETATM    2  O1  UNL     1       1.181  -1.620  -1.844  1.00  0.00    -0.223 OA
ENDROOT
BRANCH   1   3
HETATM    3  N1  UNL     1       1.322  -1.923   0.577  1.00  0.00    -0.323 N 
ATOM      4  H1  UNL     1       1.263  -1.579   1.535  1.00  0.00     0.171 HD
BRANCH   3   5
HETATM    5  C2  UNL     1       1.597  -3.286   0.448  1.00  0.00     0.028 C 
HETATM    6  C1  UNL     1       3.003  -3.560  -0.100  1.00  0.00     0.038 C 
HETATM    7  C3  UNL     1       1.603  -3.849   1.874  1.00  0.00     0.038 C 
HETATM    8  C4  UNL     1       0.627  -4.105  -0.330  1.00  0.00     0.038 C 
ENDBRANCH   3   5
ENDBRANCH   1   3
BRANCH   1   9
HETATM    9  N2  UNL     1       2.210   0.388  -0.591  1.00  0.00    -0.331 N 
ATOM     10  H2  UNL     1       2.691   0.607  -1.463  1.00  0.00     0.170 HD
BRANCH   9  11
HETATM   11  C5  UNL     1       2.461   1.141   0.592  1.00  0.00     0.150 C 
BRANCH  11  12
HETATM   12  C6  UNL     1       3.413   2.273   0.215  1.00  0.00     0.142 C 
BRANCH  12  13
HETATM   13  N3  UNL     1       4.662   1.849  -0.320  1.00  0.00    -0.368 N 
ATOM     14  H3  UNL     1       4.902   0.860  -0.383  1.00  0.00     0.161 HD
BRANCH  13  15
HETATM   15  C7  UNL     1       5.566   2.859  -0.765  1.00  0.00     0.181 C 
HETATM   16  N4  UNL     1       5.220   4.248  -0.680  1.00  0.00    -0.070 NA
HETATM   17  S2  UNL     1       7.016   2.478  -1.357  1.00  0.00    -0.044 SA
ENDBRANCH  13  15
ENDBRANCH  12  13
ENDBRANCH  11  12
ENDBRANCH   9  11
ENDBRANCH   1   9
BRANCH   1  18
HETATM   18  C8  UNL     1      -0.543  -0.229  -0.318  1.00  0.00     0.058 A 
HETATM   19  C9  UNL     1      -1.529  -0.935   0.310  1.00  0.00     0.024 A 
HETATM   20  C10 UNL     1      -2.816  -0.466   0.471  1.00  0.00     0.009 A 
HETATM   21  C11 UNL     1      -3.104   0.791  -0.041  1.00  0.00    -0.051 A 
HETATM   22  C16 UNL     1      -2.149   1.548  -0.678  1.00  0.00     0.009 A 
HETATM   23  C17 UNL     1      -0.856   1.021  -0.814  1.00  0.00     0.024 A 
BRANCH  21  24
HETATM   24  C12 UNL     1      -4.502   1.226   0.078  1.00  0.00    -0.024 C 
HETATM   25  C13 UNL     1      -5.113   1.030   1.440  1.00  0.00     0.019 C 
HETATM   26  C14 UNL     1      -4.717   2.657  -0.370  1.00  0.00     0.019 C 
HETATM   27  C15 UNL     1      -5.328   0.366  -0.897  1.00  0.00     0.019 C 
ENDBRANCH  21  24
ENDBRANCH   1  18
TORSDOF 9
