REMARK  8 active torsions:
REMARK  status: ('A' for Active; 'I' for Inactive)
REMARK    1  A    between atoms: C1_2  and  C2_4 
REMARK    2  A    between atoms: C2_4  and  C3_5 
REMARK    3  A    between atoms: C3_5  and  C4_6 
REMARK    4  A    between atoms: C4_6  and  C20_27 
REMARK       I    between atoms: N1_7  and  C5_9 
REMARK    5  A    between atoms: C5_9  and  C6_11 
REMARK    6  A    between atoms: C9_14  and  C10_15 
REMARK    7  A    between atoms: C11_16  and  C12_17 
REMARK    8  A    between atoms: C15_20  and  O4_21 
ROOT
HETATM    1  C6  UNL     1       1.456  -0.853  -1.008  1.00  0.00     0.032 A 
HETATM    2  C7  UNL     1       0.873  -1.129   0.208  1.00  0.00     0.018 A 
HETATM    3  C8  UNL     1      -0.472  -0.949   0.450  1.00  0.00     0.022 A 
HETATM    4  C9  UNL     1      -1.279  -0.469  -0.575  1.00  0.00     0.018 A 
HETATM    5  C18 UNL     1      -0.672  -0.201  -1.782  1.00  0.00     0.022 A 
HETATM    6  C19 UNL     1       0.661  -0.379  -2.020  1.00  0.00     0.018 A 
ENDROOT
BRANCH   1   7
HETATM    7  C5  UNL     1       2.896  -1.053  -1.220  1.00  0.00     0.256 C 
HETATM    8  N1  UNL     1       3.788  -1.531  -0.245  1.00  0.00    -0.321 N 
HETATM    9  C4  UNL     1       4.430  -0.747   0.606  1.00  0.00     0.089 C 
ATOM     10  H1  UNL     1       3.949  -2.537  -0.190  1.00  0.00     0.169 HD
HETATM   11  O3  UNL     1       3.353  -0.776  -2.353  1.00  0.00    -0.267 OA
BRANCH   9  12
HETATM   12  C3  UNL     1       4.162   0.678   0.480  1.00  0.00     0.075 C 
BRANCH  12  13
HETATM   13  C2  UNL     1       5.222   1.555  -0.054  1.00  0.00     0.119 C 
BRANCH  13  14
HETATM   14  C1  UNL     1       6.479   1.688   0.674  1.00  0.00     0.172 C 
HETATM   15  O1  UNL     1       6.551   2.357   1.731  1.00  0.00    -0.648 OA
HETATM   16  O2  UNL     1       7.664   1.074   0.223  1.00  0.00    -0.648 OA
ENDBRANCH  13  14
ENDBRANCH  12  13
ENDBRANCH   9  12
BRANCH   9  17
HETATM   17  C20 UNL     1       5.314  -1.391   1.517  1.00  0.00     0.222 C 
HETATM   18  O5  UNL     1       5.977  -0.814   2.387  1.00  0.00    -0.643 OA
HETATM   19  O6  UNL     1       5.460  -2.793   1.437  1.00  0.00    -0.643 OA
ENDBRANCH   9  17
ENDBRANCH   1   7
BRANCH   4  20
HETATM   20  C10 UNL     1      -2.675  -0.278  -0.316  1.00  0.00    -0.061 C 
HETATM   21  C11 UNL     1      -3.853  -0.120  -0.110  1.00  0.00    -0.061 C 
BRANCH  21  22
HETATM   22  C12 UNL     1      -5.257   0.073   0.111  1.00  0.00     0.018 A 
HETATM   23  C13 UNL     1      -6.126  -0.951   0.434  1.00  0.00     0.023 A 
HETATM   24  C14 UNL     1      -7.474  -0.742   0.643  1.00  0.00     0.038 A 
HETATM   25  C15 UNL     1      -8.001   0.525   0.532  1.00  0.00     0.065 A 
HETATM   26  C16 UNL     1      -7.138   1.556   0.209  1.00  0.00     0.038 A 
HETATM   27  C17 UNL     1      -5.786   1.338   0.001  1.00  0.00     0.023 A 
BRANCH  25  28
HETATM   28  O4  UNL     1      -9.358   0.705   0.746  1.00  0.00    -0.361 OA
ATOM     29  H4  UNL     1      -9.722   1.579   0.669  1.00  0.00     0.217 HD
ENDBRANCH  25  28
ENDBRANCH  21  22
ENDBRANCH   4  20
TORSDOF 8
