REMARK  6 active torsions:
REMARK  status: ('A' for Active; 'I' for Inactive)
REMARK    1  A    between atoms: C2_2  and  C3_3 
REMARK    2  A    between atoms: C3_3  and  N1_4 
REMARK    3  A    between atoms: N1_4  and  C4_7 
REMARK    4  A    between atoms: C12_19  and  C13_20 
REMARK    5  A    between atoms: C13_20  and  N3_21 
REMARK    6  A    between atoms: C13_20  and  C14_25 
ROOT
HETATM    1  C1  UNL     1      -0.462  -2.310  -1.513  1.00  0.00     0.017 C 
HETATM    2  C2  UNL     1      -0.371  -1.646  -0.154  1.00  0.00    -0.011 C 
HETATM    3  C10 UNL     1      -1.017  -2.605   0.825  1.00  0.00     0.094 C 
HETATM    4  C11 UNL     1      -2.412  -2.835   0.420  1.00  0.00     0.112 C 
HETATM    5  N2  UNL     1      -3.025  -3.969   0.630  1.00  0.00    -0.384 N 
ATOM      6  H21 UNL     1      -3.993  -4.129   0.349  1.00  0.00     0.157 HD
ATOM      7  H22 UNL     1      -2.550  -4.746   1.090  1.00  0.00     0.157 HD
HETATM    8  O1  UNL     1      -3.065  -1.767  -0.212  1.00  0.00    -0.332 OA
HETATM    9  C12 UNL     1      -2.575  -0.467   0.068  1.00  0.00     0.161 C 
HETATM   10  C17 UNL     1      -1.108  -0.336  -0.233  1.00  0.00     0.045 C 
ENDROOT
BRANCH   2  11
HETATM   11  C3  UNL     1       1.061  -1.478   0.302  1.00  0.00     0.242 C 
BRANCH  11  12
HETATM   12  N1  UNL     1       1.846  -0.672  -0.602  1.00  0.00    -0.070 N 
ATOM     13  H12 UNL     1       1.806  -1.050  -1.549  1.00  0.00     0.277 HD
ATOM     14  H11 UNL     1       1.399   0.231  -0.760  1.00  0.00     0.277 HD
BRANCH  12  15
HETATM   15  C4  UNL     1       3.198  -0.499  -0.186  1.00  0.00     0.186 C 
HETATM   16  C5  UNL     1       3.375   0.227   1.109  1.00  0.00     0.033 C 
HETATM   17  C6  UNL     1       4.546   1.194   1.069  1.00  0.00     0.002 C 
HETATM   18  C7  UNL     1       4.237   2.305   0.100  1.00  0.00     0.000 C 
HETATM   19  C8  UNL     1       3.817   1.722  -1.205  1.00  0.00     0.002 C 
HETATM   20  C9  UNL     1       3.952   0.234  -1.275  1.00  0.00     0.033 C 
ENDBRANCH  12  15
ENDBRANCH  11  12
ENDBRANCH   2  11
BRANCH   9  21
HETATM   21  C13 UNL     1      -3.335   0.482  -0.837  1.00  0.00     0.216 C 
BRANCH  21  22
HETATM   22  N3  UNL     1      -4.751   0.304  -0.469  1.00  0.00    -0.072 N 
ATOM     23  H33 UNL     1      -5.073  -0.662  -0.519  1.00  0.00     0.274 HD
ATOM     24  H32 UNL     1      -4.940   0.438   0.524  1.00  0.00     0.274 HD
ATOM     25  H31 UNL     1      -5.262   0.943  -1.078  1.00  0.00     0.274 HD
ENDBRANCH  21  22
BRANCH  21  26
HETATM   26  C14 UNL     1      -2.981   1.919  -0.527  1.00  0.00     0.018 A 
HETATM   27  C15 UNL     1      -3.241   2.464   0.830  1.00  0.00     0.007 A 
HETATM   28  C16 UNL     1      -4.119   2.866  -0.361  1.00  0.00     0.007 A 
ENDBRANCH  21  26
ENDBRANCH   9  21
TORSDOF 6
