REMARK  6 active torsions:
REMARK  status: ('A' for Active; 'I' for Inactive)
REMARK    1  A    between atoms: N1_1  and  C1_5 
REMARK    2  A    between atoms: C1_5  and  C2_6 
REMARK    3  A    between atoms: C2_6  and  N2_7 
REMARK       I    between atoms: N2_7  and  C3_9 
REMARK    4  A    between atoms: C3_9  and  C4_11 
REMARK    5  A    between atoms: C6_13  and  N3_14 
REMARK       I    between atoms: N3_14  and  C7_16 
REMARK    6  A    between atoms: C7_16  and  C8_18 
ROOT
HETATM    1  C4  UNL     1       2.760  -0.228  -1.797  1.00  0.00     0.074 A 
HETATM    2  C5  UNL     1       1.730  -0.203  -0.914  1.00  0.00     0.054 A 
HETATM    3  C6  UNL     1       0.476  -0.361  -1.393  1.00  0.00     0.042 A 
HETATM    4  C14 UNL     1       0.353  -0.534  -2.740  1.00  0.00     0.080 A 
HETATM    5  S1  UNL     1       1.983  -0.472  -3.296  1.00  0.00    -0.094 SA
ENDROOT
BRANCH   1   6
HETATM    6  C3  UNL     1       4.212  -0.079  -1.524  1.00  0.00     0.258 C 
HETATM    7  N2  UNL     1       4.623   0.115  -0.195  1.00  0.00    -0.355 N 
ATOM      8  H2  UNL     1       3.924   0.149   0.547  1.00  0.00     0.162 HD
HETATM    9  O1  UNL     1       5.015  -0.134  -2.494  1.00  0.00    -0.267 OA
BRANCH   7  10
HETATM   10  C2  UNL     1       6.022   0.267   0.136  1.00  0.00     0.150 C 
BRANCH  10  11
HETATM   11  C1  UNL     1       6.201   0.465   1.643  1.00  0.00     0.249 C 
BRANCH  11  12
HETATM   12  N1  UNL     1       5.499   1.644   2.080  1.00  0.00    -0.078 N 
ATOM     13  H13 UNL     1       5.779   2.471   1.552  1.00  0.00     0.274 HD
ATOM     14  H12 UNL     1       4.515   1.621   1.814  1.00  0.00     0.274 HD
ATOM     15  H11 UNL     1       5.618   1.776   3.084  1.00  0.00     0.274 HD
ENDBRANCH  11  12
ENDBRANCH  10  11
ENDBRANCH   7  10
ENDBRANCH   1   6
BRANCH   3  16
HETATM   16  N3  UNL     1      -0.668  -0.324  -0.521  1.00  0.00    -0.326 N 
HETATM   17  C7  UNL     1      -1.903  -0.858  -0.902  1.00  0.00     0.226 C 
HETATM   18  O2  UNL     1      -2.159  -1.416  -1.995  1.00  0.00    -0.273 OA
ATOM     19  H3  UNL     1      -0.576   0.104   0.400  1.00  0.00     0.169 HD
BRANCH  17  20
HETATM   20  C8  UNL     1      -3.084  -0.790   0.047  1.00  0.00     0.078 C 
HETATM   21  C9  UNL     1      -3.294   0.707   0.296  1.00  0.00     0.014 C 
HETATM   22  C10 UNL     1      -4.384   0.931   1.322  1.00  0.00     0.001 C 
HETATM   23  C11 UNL     1      -5.402  -0.158   1.172  1.00  0.00     0.000 C 
HETATM   24  C12 UNL     1      -5.568  -0.579  -0.268  1.00  0.00     0.001 C 
HETATM   25  C13 UNL     1      -4.299  -1.256  -0.701  1.00  0.00     0.014 C 
ENDBRANCH  17  20
ENDBRANCH   3  16
TORSDOF 6
