REMARK  1 active torsions:
REMARK  status: ('A' for Active; 'I' for Inactive)
REMARK    1  A    between atoms: C3_3  and  O1_4 
ROOT
HETATM    1  C1  UNL     1       3.391  -2.902  -0.897  1.00  0.00     0.018 C 
HETATM    2  C2  UNL     1       2.690  -2.153  -0.058  1.00  0.00    -0.042 C 
HETATM    3  C3  UNL     1       1.209  -2.306   0.049  1.00  0.00     0.150 C 
HETATM    4  C4  UNL     1       0.478  -1.641  -1.069  1.00  0.00     0.068 C 
HETATM    5  C5  UNL     1      -0.507  -0.581  -0.576  1.00  0.00     0.134 C 
HETATM    6  C6  UNL     1      -1.867  -0.766  -1.197  1.00  0.00     0.070 C 
HETATM    7  C7  UNL     1      -2.988  -0.734  -0.207  1.00  0.00     0.071 A 
HETATM    8  C8  UNL     1      -4.273  -1.215  -0.857  1.00  0.00     0.047 C 
HETATM    9  O2  UNL     1      -2.787  -1.393   0.983  1.00  0.00    -0.379 OA
HETATM   10  C9  UNL     1      -2.940  -0.265   1.786  1.00  0.00     0.183 A 
HETATM   11  C10 UNL     1      -3.153   0.542   0.520  1.00  0.00     0.030 A 
HETATM   12  C11 UNL     1      -4.533   1.169   0.473  1.00  0.00     0.023 C 
HETATM   13  C12 UNL     1      -2.102   1.566   0.284  1.00  0.00     0.189 C 
HETATM   14  O3  UNL     1      -0.900   1.287   0.971  1.00  0.00    -0.323 OA
HETATM   15  C13 UNL     1       0.121   1.535   0.086  1.00  0.00     0.342 C 
HETATM   16  O4  UNL     1       0.048   0.655  -0.961  1.00  0.00    -0.318 OA
HETATM   17  O5  UNL     1       1.372   1.607   0.685  1.00  0.00    -0.292 OA
HETATM   18  C14 UNL     1       2.207   2.309  -0.143  1.00  0.00     0.276 C 
HETATM   19  C15 UNL     1       1.662   3.751  -0.196  1.00  0.00     0.143 C 
HETATM   20  S1  UNL     1      -0.097   3.276  -0.468  1.00  0.00    -0.065 SA
HETATM   21  O6  UNL     1       3.463   2.375   0.344  1.00  0.00    -0.360 OA
HETATM   22  C16 UNL     1       4.125   1.232   0.603  1.00  0.00     0.172 C 
HETATM   23  C17 UNL     1       3.741   0.021  -0.157  1.00  0.00     0.051 C 
HETATM   24  C18 UNL     1       3.421  -1.139   0.789  1.00  0.00     0.115 C 
HETATM   25 CL1  UNL     1       4.990  -1.802   1.323  1.00  0.00    -0.120 Cl
ENDROOT
BRANCH   3  26
HETATM   26  O1  UNL     1       0.850  -1.825   1.308  1.00  0.00    -0.391 OA
ATOM     27  H1  UNL     1      -0.093  -1.922   1.376  1.00  0.00     0.210 HD
ENDBRANCH   3  26
TORSDOF 1
