REMARK  0 active torsions:
REMARK  status: ('A' for Active; 'I' for Inactive)
ROOT
HETATM    1  O1  UNL     1      -5.445  -0.908   1.861  1.00  0.00    -0.273 OA
HETATM    2  C1  UNL     1      -4.905  -0.211   0.935  1.00  0.00     0.227 C 
HETATM    3  C2  UNL     1      -5.698   1.050   0.790  1.00  0.00     0.178 C 
HETATM    4  S1  UNL     1      -5.178   1.851  -0.756  1.00  0.00    -0.134 SA
HETATM    5  C3  UNL     1      -3.428   2.279  -0.579  1.00  0.00     0.242 C 
HETATM    6  O2  UNL     1      -2.866   1.730   0.549  1.00  0.00    -0.374 OA
HETATM    7  C4  UNL     1      -1.947   0.714   0.249  1.00  0.00     0.147 C 
HETATM    8  C5  UNL     1      -0.814   1.290  -0.542  1.00  0.00     0.060 C 
HETATM    9  C6  UNL     1      -0.495   2.718  -0.144  1.00  0.00     0.170 C 
HETATM   10  O3  UNL     1       0.790   2.852   0.362  1.00  0.00    -0.389 OA
HETATM   11  C7  UNL     1       1.722   3.197  -0.615  1.00  0.00     0.193 C 
HETATM   12  C8  UNL     1       3.094   2.970  -0.018  1.00  0.00     0.193 C 
HETATM   13  O4  UNL     1       3.002   2.010   0.975  1.00  0.00    -0.389 OA
HETATM   14  C9  UNL     1       3.253   0.713   0.471  1.00  0.00     0.177 C 
HETATM   15  C10 UNL     1       4.686   0.402   0.776  1.00  0.00     0.137 C 
HETATM   16  C11 UNL     1       4.907  -0.983   1.250  1.00  0.00     0.260 C 
HETATM   17  O5  UNL     1       6.035  -1.196   1.761  1.00  0.00    -0.265 OA
HETATM   18  O6  UNL     1       3.932  -1.909   1.118  1.00  0.00    -0.321 OA
HETATM   19  C12 UNL     1       3.253  -2.370   0.001  1.00  0.00     0.178 C 
HETATM   20  C13 UNL     1       1.951  -3.008   0.508  1.00  0.00     0.027 C 
HETATM   21  C14 UNL     1       1.045  -3.130  -0.696  1.00  0.00     0.002 C 
HETATM   22  C15 UNL     1      -0.380  -3.363  -0.316  1.00  0.00     0.000 C 
HETATM   23  C16 UNL     1      -1.062  -2.126   0.218  1.00  0.00     0.002 C 
HETATM   24  C17 UNL     1      -1.809  -1.495  -0.925  1.00  0.00     0.028 C 
HETATM   25  C18 UNL     1      -2.696  -0.362  -0.483  1.00  0.00     0.113 C 
HETATM   26  N1  UNL     1      -3.771  -0.832   0.364  1.00  0.00    -0.353 N 
ATOM     27  H1  UNL     1      -3.694  -1.822   0.599  1.00  0.00     0.163 HD
ENDROOT
TORSDOF 0
