REMARK  3 active torsions:
REMARK  status: ('A' for Active; 'I' for Inactive)
REMARK    1  A    between atoms: C4_8  and  C5_9 
REMARK    2  A    between atoms: C6_10  and  C7_11 
REMARK    3  A    between atoms: C7_11  and  O2_12 
ROOT
HETATM    1  C7  UNL     1       2.239  -0.319  -1.062  1.00  0.00     0.126 C 
HETATM    2  C8  UNL     1       1.670  -1.620  -1.578  1.00  0.00     0.057 C 
HETATM    3  C9  UNL     1       0.380  -1.853  -0.789  1.00  0.00     0.075 C 
HETATM    4  C10 UNL     1       0.028  -0.448  -0.381  1.00  0.00     0.204 C 
HETATM    5  C11 UNL     1       1.364   0.058   0.125  1.00  0.00     0.122 C 
HETATM    6  O3  UNL     1      -0.317   0.303  -1.496  1.00  0.00    -0.197 OA
HETATM    7  O4  UNL     1      -1.609   0.353  -1.504  1.00  0.00    -0.197 OA
HETATM    8  C12 UNL     1      -2.067   0.041  -0.231  1.00  0.00     0.208 C 
HETATM    9  O5  UNL     1      -0.983  -0.353   0.524  1.00  0.00    -0.312 OA
HETATM   10  C13 UNL     1      -3.131  -1.002  -0.363  1.00  0.00     0.052 C 
HETATM   11  C14 UNL     1      -4.154  -0.514  -1.369  1.00  0.00     0.014 C 
HETATM   12  C15 UNL     1      -4.819   0.716  -0.830  1.00  0.00    -0.013 C 
HETATM   13  C16 UNL     1      -5.468   0.461   0.513  1.00  0.00     0.009 C 
HETATM   14  C17 UNL     1      -4.418  -0.024   1.476  1.00  0.00    -0.013 C 
HETATM   15  C18 UNL     1      -3.835  -1.308   0.940  1.00  0.00     0.014 C 
HETATM   16  C19 UNL     1      -3.299   0.953   1.667  1.00  0.00     0.014 C 
HETATM   17  C20 UNL     1      -2.714   1.303   0.322  1.00  0.00     0.052 C 
HETATM   18  C21 UNL     1      -3.769   1.780  -0.647  1.00  0.00     0.014 C 
ENDROOT
BRANCH   1  19
HETATM   19  C6  UNL     1       3.601  -0.466  -0.559  1.00  0.00    -0.060 C 
HETATM   20  C5  UNL     1       4.735  -0.591  -0.162  1.00  0.00    -0.035 C 
BRANCH  20  21
HETATM   21  C4  UNL     1       6.093  -0.737   0.289  1.00  0.00     0.161 A 
HETATM   22  C2  UNL     1       6.998   0.302   0.432  1.00  0.00     0.023 A 
HETATM   23  C1  UNL     1       6.729   1.721   0.150  1.00  0.00     0.055 C 
HETATM   24  C3  UNL     1       8.203  -0.226   0.887  1.00  0.00     0.133 A 
HETATM   25 CL1  UNL     1       9.690   0.623   1.241  1.00  0.00    -0.062 Cl
HETATM   26  N1  UNL     1       7.957  -1.554   0.993  1.00  0.00    -0.248 N 
HETATM   27  O1  UNL     1       6.742  -1.820   0.645  1.00  0.00    -0.227 OA
ATOM     28  H1  UNL     1       8.637  -2.248   1.304  1.00  0.00     0.196 HD
ENDBRANCH  20  21
ENDBRANCH   1  19
BRANCH   1  29
HETATM   29  O2  UNL     1       2.132   0.702  -1.996  1.00  0.00    -0.377 OA
ATOM     30  H2  UNL     1       1.245   0.798  -2.323  1.00  0.00     0.211 HD
ENDBRANCH   1  29
TORSDOF 3
