REMARK  1 active torsions:
REMARK  status: ('A' for Active; 'I' for Inactive)
REMARK       I    between atoms: C2_2  and  N1_4 
REMARK    1  A    between atoms: C3_5  and  O2_6 
ROOT
HETATM    1  C1  UNL     1      -2.905  -1.167   0.971  1.00  0.00     0.118 C 
HETATM    2  C2  UNL     1      -2.336   0.093   0.448  1.00  0.00     0.232 C 
HETATM    3  O1  UNL     1      -3.112   1.131   0.393  1.00  0.00    -0.273 OA
HETATM    4  N1  UNL     1      -1.008   0.176   0.023  1.00  0.00    -0.203 N 
HETATM    5  C3  UNL     1      -0.726   1.547  -0.476  1.00  0.00     0.315 C 
HETATM    6  S1  UNL     1      -0.426   2.677   0.902  1.00  0.00    -0.031 SA
HETATM    7  S2  UNL     1       1.702   2.913   1.095  1.00  0.00    -0.015 SA
HETATM    8  S3  UNL     1       2.515   1.030   1.598  1.00  0.00    -0.043 SA
HETATM    9  C4  UNL     1       2.534  -0.072   0.141  1.00  0.00     0.060 A 
HETATM   10  C5  UNL     1       1.599  -0.904  -0.381  1.00  0.00     0.106 A 
HETATM   11  C6  UNL     1       1.941  -1.598  -1.500  1.00  0.00     0.077 A 
HETATM   12  S4  UNL     1       3.536  -1.093  -1.809  1.00  0.00    -0.091 SA
HETATM   13  C7  UNL     1       3.731  -0.012  -0.508  1.00  0.00     0.070 A 
HETATM   14 BR1  UNL     1       5.274   1.054  -0.049  1.00  0.00    -0.042 Br
HETATM   15  S5  UNL     1      -0.078  -1.247   0.189  1.00  0.00     0.272 S 
HETATM   16  O3  UNL     1       0.012  -1.594   1.656  1.00  0.00    -0.200 OA
HETATM   17  O4  UNL     1      -0.573  -2.420  -0.549  1.00  0.00    -0.200 OA
ENDROOT
BRANCH   5  18
HETATM   18  O2  UNL     1      -1.753   1.945  -1.293  1.00  0.00    -0.366 OA
ATOM     19  H2  UNL     1      -1.573   2.821  -1.612  1.00  0.00     0.213 HD
ENDBRANCH   5  18
TORSDOF 1
