REMARK  4 active torsions:
REMARK  status: ('A' for Active; 'I' for Inactive)
REMARK    1  A    between atoms: C12_12  and  N1_13 
REMARK    2  A    between atoms: N1_13  and  S1_15 
REMARK    3  A    between atoms: S1_15  and  N2_18 
REMARK    4  A    between atoms: N2_18  and  C13_20 
ROOT
HETATM    1  N1  UNL     1       0.707  -0.358   0.817  1.00  0.00    -0.297 N 
ATOM      2  H1  UNL     1       0.375  -0.212   1.770  1.00  0.00     0.174 HD
ENDROOT
BRANCH   1   3
HETATM    3  C12 UNL     1      -0.160  -0.291  -0.304  1.00  0.00     0.102 C 
HETATM    4  C2  UNL     1      -1.151  -1.420  -0.276  1.00  0.00     0.009 C 
HETATM    5  C1  UNL     1      -0.463  -2.678   0.207  1.00  0.00     0.012 C 
HETATM    6  C3  UNL     1      -2.422  -1.139   0.453  1.00  0.00    -0.008 C 
HETATM    7  C4  UNL     1      -2.342  -0.210   1.598  1.00  0.00     0.010 C 
HETATM    8  C8  UNL     1      -3.521  -0.751  -0.531  1.00  0.00     0.010 C 
HETATM    9  C5  UNL     1      -2.410   1.236   1.301  1.00  0.00    -0.013 C 
HETATM   10  C6  UNL     1      -3.567   1.499   0.340  1.00  0.00     0.009 C 
HETATM   11  C11 UNL     1      -1.200   1.820   0.640  1.00  0.00     0.011 C 
HETATM   12  C7  UNL     1      -3.271   0.694  -0.893  1.00  0.00    -0.013 C 
HETATM   13  C9  UNL     1      -1.948   0.944  -1.502  1.00  0.00     0.011 C 
HETATM   14  C10 UNL     1      -0.790   1.030  -0.568  1.00  0.00     0.010 C 
ENDBRANCH   1   3
BRANCH   1  15
HETATM   15  S1  UNL     1       2.340  -0.699   0.468  1.00  0.00     0.321 S 
HETATM   16  O1  UNL     1       2.933  -1.370   1.700  1.00  0.00    -0.182 OA
HETATM   17  O2  UNL     1       2.528  -1.579  -0.728  1.00  0.00    -0.182 OA
BRANCH  15  18
HETATM   18  N2  UNL     1       3.186   0.758   0.229  1.00  0.00    -0.247 N 
ATOM     19  H2  UNL     1       2.684   1.640   0.332  1.00  0.00     0.182 HD
BRANCH  18  20
HETATM   20  C13 UNL     1       4.464   0.789  -0.084  1.00  0.00     0.159 A 
HETATM   21  N3  UNL     1       5.278  -0.258  -0.261  1.00  0.00    -0.345 N 
HETATM   22  C14 UNL     1       6.522  -0.033  -0.570  1.00  0.00     0.097 A 
ATOM     23  H3  UNL     1       4.931  -1.211  -0.156  1.00  0.00     0.167 HD
HETATM   24  C15 UNL     1       6.926   1.270  -0.698  1.00  0.00     0.070 A 
HETATM   25  S2  UNL     1       5.485   2.122  -0.363  1.00  0.00    -0.064 SA
ENDBRANCH  18  20
ENDBRANCH  15  18
ENDBRANCH   1  15
TORSDOF 4
