REMARK  4 active torsions:
REMARK  status: ('A' for Active; 'I' for Inactive)
REMARK    1  A    between atoms: C7_7  and  N1_8 
REMARK    2  A    between atoms: N1_8  and  C8_10 
REMARK    3  A    between atoms: C8_10  and  C9_11 
REMARK    4  A    between atoms: C9_11  and  N2_12 
ROOT
HETATM    1  C1  UNL     1      -5.088   2.503   0.726  1.00  0.00     0.048 C 
HETATM    2  C2  UNL     1      -4.042   1.464   0.424  1.00  0.00    -0.059 A 
HETATM    3  C3  UNL     1      -2.877   1.810  -0.180  1.00  0.00     0.014 A 
HETATM    4  C4  UNL     1      -1.845   0.933  -0.504  1.00  0.00    -0.045 A 
HETATM    5  C5  UNL     1      -0.622   1.402  -1.160  1.00  0.00     0.049 C 
HETATM    6  C6  UNL     1      -2.077  -0.390  -0.161  1.00  0.00     0.040 A 
HETATM    7  C7  UNL     1      -1.131  -1.354  -0.430  1.00  0.00     0.116 A 
HETATM    8  N3  UNL     1      -1.417  -2.633  -0.070  1.00  0.00    -0.319 N 
ATOM      9  H3  UNL     1      -0.727  -3.359  -0.262  1.00  0.00     0.170 HD
HETATM   10  C15 UNL     1      -2.568  -2.984   0.528  1.00  0.00     0.177 A 
HETATM   11  S1  UNL     1      -2.878  -4.536   0.946  1.00  0.00    -0.040 SA
HETATM   12  N4  UNL     1      -3.512  -2.068   0.805  1.00  0.00    -0.332 N 
ATOM     13  H4  UNL     1      -4.385  -2.336   1.259  1.00  0.00     0.168 HD
HETATM   14  C16 UNL     1      -3.272  -0.782   0.466  1.00  0.00     0.049 A 
HETATM   15  C17 UNL     1      -4.251   0.149   0.756  1.00  0.00     0.037 A 
ENDROOT
BRANCH   7  16
HETATM   16  N1  UNL     1      -0.048  -1.029  -0.987  1.00  0.00    -0.374 N 
ATOM     17  H1  UNL     1       0.055  -0.038  -1.206  1.00  0.00     0.161 HD
BRANCH  16  18
HETATM   18  C8  UNL     1       1.047  -1.855  -1.350  1.00  0.00     0.141 C 
BRANCH  18  19
HETATM   19  C9  UNL     1       2.100  -2.063  -0.319  1.00  0.00     0.154 C 
BRANCH  19  20
HETATM   20  N2  UNL     1       2.771  -0.891   0.144  1.00  0.00    -0.286 N 
HETATM   21  C10 UNL     1       2.367  -0.093   1.261  1.00  0.00     0.227 C 
HETATM   22  O1  UNL     1       1.330  -0.215   1.987  1.00  0.00    -0.273 OA
HETATM   23  C11 UNL     1       3.419   0.948   1.433  1.00  0.00     0.117 C 
HETATM   24  C12 UNL     1       3.987   1.082   0.049  1.00  0.00     0.083 C 
HETATM   25  C13 UNL     1       5.411   1.614   0.132  1.00  0.00     0.020 C 
HETATM   26  C14 UNL     1       3.952  -0.321  -0.431  1.00  0.00     0.230 C 
HETATM   27  O2  UNL     1       4.779  -0.890  -1.180  1.00  0.00    -0.273 OA
ENDBRANCH  19  20
ENDBRANCH  18  19
ENDBRANCH  16  18
ENDBRANCH   7  16
TORSDOF 4
