REMARK  3 active torsions:
REMARK  status: ('A' for Active; 'I' for Inactive)
REMARK    1  A    between atoms: C2_2  and  N1_4 
REMARK       I    between atoms: N1_4  and  C4_6 
REMARK    2  A    between atoms: C4_6  and  C5_8 
REMARK       I    between atoms: N2_11  and  C8_12 
REMARK       I    between atoms: C8_12  and  N3_14 
REMARK    3  A    between atoms: N3_14  and  C9_16 
ROOT
HETATM    1  C5  UNL     1       2.564  -0.382  -0.414  1.00  0.00     0.081 C 
HETATM    2  C6  UNL     1       1.808  -1.616  -0.856  1.00  0.00     0.034 C 
HETATM    3  C7  UNL     1       0.973  -1.171  -2.069  1.00  0.00     0.128 C 
HETATM    4  N2  UNL     1       0.567   0.175  -1.771  1.00  0.00    -0.334 N 
HETATM    5  C8  UNL     1      -0.708   0.465  -1.269  1.00  0.00     0.320 C 
HETATM    6  O2  UNL     1      -1.077   1.655  -1.020  1.00  0.00    -0.247 OA
HETATM    7  N3  UNL     1      -1.621  -0.592  -1.028  1.00  0.00    -0.311 N 
ATOM      8  H3  UNL     1      -1.354  -1.559  -1.212  1.00  0.00     0.167 HD
HETATM    9  C18 UNL     1       1.579   1.201  -2.016  1.00  0.00     0.128 C 
HETATM   10  C19 UNL     1       2.896   0.540  -1.581  1.00  0.00     0.034 C 
ENDROOT
BRANCH   7  11
HETATM   11  C9  UNL     1      -2.938  -0.279  -0.517  1.00  0.00     0.139 C 
HETATM   12  C10 UNL     1      -3.777   0.557  -1.430  1.00  0.00     0.066 C 
HETATM   13  C11 UNL     1      -5.041   0.950  -0.684  1.00  0.00    -0.007 C 
HETATM   14  C12 UNL     1      -5.838  -0.307  -0.466  1.00  0.00     0.009 C 
HETATM   15  C16 UNL     1      -4.676   1.643   0.590  1.00  0.00     0.037 C 
HETATM   16  C13 UNL     1      -5.003  -1.233   0.381  1.00  0.00    -0.007 C 
HETATM   17  C14 UNL     1      -4.714  -0.528   1.690  1.00  0.00     0.037 C 
HETATM   18  C17 UNL     1      -3.682  -1.563  -0.252  1.00  0.00     0.066 C 
HETATM   19  C15 UNL     1      -3.851   0.664   1.405  1.00  0.00     0.125 C 
HETATM   20  O3  UNL     1      -2.715   0.383   0.694  1.00  0.00    -0.355 OA
ENDBRANCH   7  11
BRANCH   1  21
HETATM   21  C4  UNL     1       3.827  -0.746   0.274  1.00  0.00     0.222 C 
HETATM   22  N1  UNL     1       4.638   0.300   0.773  1.00  0.00    -0.357 N 
ATOM     23  H1  UNL     1       4.355   1.273   0.659  1.00  0.00     0.162 HD
HETATM   24  O1  UNL     1       4.173  -1.960   0.413  1.00  0.00    -0.273 OA
BRANCH  22  25
HETATM   25  C2  UNL     1       5.877  -0.031   1.448  1.00  0.00     0.076 C 
HETATM   26  C1  UNL     1       6.985   0.669   0.650  1.00  0.00     0.032 C 
HETATM   27  C3  UNL     1       5.788   0.556   2.845  1.00  0.00     0.032 C 
ENDBRANCH  22  25
ENDBRANCH   1  21
TORSDOF 3
