REMARK  7 active torsions:
REMARK  status: ('A' for Active; 'I' for Inactive)
REMARK    1  A    between atoms: C2_2  and  N1_3 
REMARK    2  A    between atoms: N1_3  and  C3_4 
REMARK    3  A    between atoms: N1_3  and  C5_6 
REMARK    4  A    between atoms: C5_6  and  C6_7 
REMARK    5  A    between atoms: C6_7  and  C7_8 
REMARK    6  A    between atoms: C7_8  and  C8_9 
REMARK    7  A    between atoms: C17_18  and  C18_19 
ROOT
HETATM    1  C8  UNL     1      -0.352  -0.578   0.781  1.00  0.00    -0.039 C 
HETATM    2  C9  UNL     1      -0.746  -1.943   1.276  1.00  0.00     0.014 C 
HETATM    3  C10 UNL     1       0.510  -2.831   1.241  1.00  0.00    -0.013 C 
HETATM    4  C11 UNL     1       1.502  -2.214   2.154  1.00  0.00     0.010 C 
HETATM    5  C12 UNL     1       2.021  -0.901   1.528  1.00  0.00    -0.004 C 
HETATM    6  C13 UNL     1       0.811  -0.014   1.608  1.00  0.00     0.015 C 
HETATM    7  C14 UNL     1       2.522  -1.179   0.167  1.00  0.00    -0.029 C 
HETATM    8  C15 UNL     1       3.389  -2.480   0.155  1.00  0.00     0.011 C 
HETATM    9  C16 UNL     1       4.555  -1.546   0.405  1.00  0.00     0.006 C 
HETATM   10  C17 UNL     1       3.705  -0.532  -0.393  1.00  0.00    -0.001 C 
HETATM   11  C23 UNL     1       1.355  -1.532  -0.729  1.00  0.00    -0.004 C 
HETATM   12  C24 UNL     1       0.896  -2.908  -0.205  1.00  0.00     0.010 C 
HETATM   13  C25 UNL     1       0.186  -0.624  -0.641  1.00  0.00     0.015 C 
ENDROOT
BRANCH   1  14
HETATM   14  C7  UNL     1      -1.479   0.409   0.870  1.00  0.00     0.011 C 
BRANCH  14  15
HETATM   15  C6  UNL     1      -2.681  -0.002   0.056  1.00  0.00     0.031 C 
BRANCH  15  16
HETATM   16  C5  UNL     1      -3.728   1.075   0.228  1.00  0.00     0.272 C 
BRANCH  16  17
HETATM   17  N1  UNL     1      -4.946   0.806  -0.509  1.00  0.00     0.087 N 
BRANCH  17  18
HETATM   18  C2  UNL     1      -5.670  -0.325   0.032  1.00  0.00     0.268 C 
HETATM   19  C1  UNL     1      -6.881  -0.555  -0.853  1.00  0.00     0.037 C 
ENDBRANCH  17  18
BRANCH  17  20
HETATM   20  C3  UNL     1      -5.793   1.989  -0.300  1.00  0.00     0.268 C 
HETATM   21  C4  UNL     1      -5.069   3.186  -0.872  1.00  0.00     0.037 C 
ENDBRANCH  17  20
ENDBRANCH  16  17
ENDBRANCH  15  16
ENDBRANCH  14  15
ENDBRANCH   1  14
BRANCH  10  22
HETATM   22  C18 UNL     1       4.157   0.829  -0.118  1.00  0.00    -0.010 C 
HETATM   23  C19 UNL     1       3.199   1.849  -0.613  1.00  0.00     0.005 C 
HETATM   24  C20 UNL     1       4.003   3.020  -1.098  1.00  0.00     0.000 C 
HETATM   25  C21 UNL     1       5.449   2.632  -0.871  1.00  0.00     0.000 C 
HETATM   26  C22 UNL     1       5.428   1.112  -0.936  1.00  0.00     0.005 C 
ENDBRANCH  10  22
TORSDOF 7
