REMARK  6 active torsions:
REMARK  status: ('A' for Active; 'I' for Inactive)
REMARK    1  A    between atoms: C1_2  and  C2_3 
REMARK       I    between atoms: C1_2  and  N1_17 
REMARK    2  A    between atoms: C2_3  and  C3_4 
REMARK    3  A    between atoms: C3_4  and  C4_5 
REMARK    4  A    between atoms: C4_5  and  C5_6 
REMARK    5  A    between atoms: C5_6  and  C6_7 
REMARK    6  A    between atoms: N1_17  and  C16_19 
ROOT
HETATM    1  C2  UNL     1      -0.059  -0.530  -0.544  1.00  0.00     0.103 C 
ENDROOT
BRANCH   1   2
HETATM    2  C1  UNL     1      -1.423  -0.698  -1.073  1.00  0.00     0.217 C 
HETATM    3  O1  UNL     1      -1.582  -1.102  -2.239  1.00  0.00    -0.274 OA
HETATM    4  N1  UNL     1      -2.538  -0.406  -0.272  1.00  0.00    -0.356 N 
ATOM      5  H1  UNL     1      -2.387  -0.076   0.681  1.00  0.00     0.162 HD
BRANCH   4   6
HETATM    6  C16 UNL     1      -3.918  -0.560  -0.760  1.00  0.00     0.084 C 
HETATM    7  C17 UNL     1      -4.496   0.823  -0.829  1.00  0.00     0.025 C 
HETATM    8  C18 UNL     1      -5.736   0.955  -1.622  1.00  0.00     0.002 C 
HETATM    9  C19 UNL     1      -7.010   0.566  -1.015  1.00  0.00     0.000 C 
HETATM   10  C20 UNL     1      -7.256   0.962   0.391  1.00  0.00     0.000 C 
HETATM   11  C21 UNL     1      -7.692  -0.188   1.259  1.00  0.00     0.000 C 
HETATM   12  C22 UNL     1      -6.805  -1.376   1.216  1.00  0.00     0.000 C 
HETATM   13  C23 UNL     1      -5.330  -1.062   1.271  1.00  0.00     0.002 C 
HETATM   14  C24 UNL     1      -4.670  -1.549   0.029  1.00  0.00     0.025 C 
ENDBRANCH   4   6
ENDBRANCH   1   2
BRANCH   1  15
HETATM   15  C3  UNL     1       0.996  -0.892  -1.552  1.00  0.00     0.009 C 
BRANCH  15  16
HETATM   16  C4  UNL     1       2.379  -0.743  -0.984  1.00  0.00     0.001 C 
BRANCH  16  17
HETATM   17  C5  UNL     1       2.726   0.607  -0.565  1.00  0.00     0.005 C 
BRANCH  17  18
HETATM   18  C6  UNL     1       4.064   0.893   0.011  1.00  0.00    -0.006 C 
HETATM   19  C7  UNL     1       4.462   0.175   1.246  1.00  0.00    -0.009 C 
HETATM   20  C8  UNL     1       5.249  -1.091   1.019  1.00  0.00     0.010 C 
HETATM   21  C12 UNL     1       5.462   1.110   1.967  1.00  0.00     0.010 C 
HETATM   22  C9  UNL     1       6.450  -0.855   0.155  1.00  0.00    -0.013 C 
HETATM   23  C10 UNL     1       7.376   0.105   0.856  1.00  0.00     0.009 C 
HETATM   24  C15 UNL     1       5.964  -0.304  -1.168  1.00  0.00     0.010 C 
HETATM   25  C11 UNL     1       6.614   1.399   1.056  1.00  0.00    -0.013 C 
HETATM   26  C13 UNL     1       6.230   1.934  -0.292  1.00  0.00     0.010 C 
HETATM   27  C14 UNL     1       5.213   0.959  -0.945  1.00  0.00    -0.009 C 
ENDBRANCH  17  18
ENDBRANCH  16  17
ENDBRANCH  15  16
ENDBRANCH   1  15
TORSDOF 6
