REMARK  6 active torsions:
REMARK  status: ('A' for Active; 'I' for Inactive)
REMARK    1  A    between atoms: C3_3  and  C4_4 
REMARK    2  A    between atoms: C8_8  and  C9_9 
REMARK    3  A    between atoms: C9_9  and  C10_10 
REMARK    4  A    between atoms: C10_10  and  C11_11 
REMARK    5  A    between atoms: C11_11  and  N1_12 
REMARK    6  A    between atoms: C21_25  and  C22_26 
ROOT
HETATM    1  C1  UNL     1      -1.177  -4.504   1.902  1.00  0.00     0.096 C 
HETATM    2  C2  UNL     1      -0.657  -3.469   1.492  1.00  0.00    -0.186 C 
HETATM    3  C3  UNL     1      -0.010  -2.238   1.017  1.00  0.00     0.093 C 
ENDROOT
BRANCH   3   4
HETATM    4  C4  UNL     1      -0.607  -1.865  -0.280  1.00  0.00    -0.010 C 
HETATM    5  C5  UNL     1      -0.371  -3.026  -1.261  1.00  0.00     0.021 C 
HETATM    6  C6  UNL     1      -2.107  -1.884  -0.056  1.00  0.00     0.015 C 
HETATM    7  C7  UNL     1      -2.565  -0.721   0.752  1.00  0.00     0.007 C 
HETATM    8  C8  UNL     1      -2.368   0.468  -0.179  1.00  0.00    -0.002 C 
HETATM    9  C12 UNL     1      -0.921   0.666  -0.515  1.00  0.00    -0.016 C 
HETATM   10  C13 UNL     1      -0.978   1.598  -1.743  1.00  0.00     0.020 C 
HETATM   11  C14 UNL     1      -0.321   1.461   0.617  1.00  0.00     0.015 C 
HETATM   12  C25 UNL     1      -0.169  -0.569  -0.877  1.00  0.00    -0.059 C 
HETATM   13  C15 UNL     1       1.156   1.805   0.375  1.00  0.00     0.011 C 
HETATM   14  C16 UNL     1       1.816   0.445   0.351  1.00  0.00     0.023 C 
HETATM   15  C17 UNL     1       1.276  -0.266  -0.877  1.00  0.00    -0.071 C 
HETATM   16  C21 UNL     1       3.280   0.529  -0.032  1.00  0.00     0.025 C 
HETATM   17  C18 UNL     1       2.262  -1.256  -1.264  1.00  0.00     0.040 C 
HETATM   18  C19 UNL     1       3.531  -0.871  -0.479  1.00  0.00    -0.006 C 
HETATM   19  C20 UNL     1       4.754  -1.028  -1.348  1.00  0.00     0.011 C 
BRANCH   8  20
HETATM   20  C9  UNL     1      -2.978   1.631   0.522  1.00  0.00     0.007 C 
BRANCH  20  21
HETATM   21  C10 UNL     1      -4.445   1.481   0.818  1.00  0.00     0.027 C 
BRANCH  21  22
HETATM   22  C11 UNL     1      -5.249   1.305  -0.426  1.00  0.00     0.229 C 
BRANCH  22  23
HETATM   23  N1  UNL     1      -5.093   2.449  -1.320  1.00  0.00    -0.079 N 
ATOM     24  H13 UNL     1      -5.316   3.326  -0.850  1.00  0.00     0.274 HD
ATOM     25  H12 UNL     1      -4.111   2.630  -1.530  1.00  0.00     0.274 HD
ATOM     26  H11 UNL     1      -5.643   2.329  -2.171  1.00  0.00     0.274 HD
ENDBRANCH  22  23
ENDBRANCH  21  22
ENDBRANCH  20  21
ENDBRANCH   8  20
BRANCH  16  27
HETATM   27  C22 UNL     1       4.159   1.034   1.020  1.00  0.00    -0.088 C 
HETATM   28  C23 UNL     1       5.095   0.249   1.521  1.00  0.00     0.014 C 
HETATM   29  C24 UNL     1       4.064   2.424   1.568  1.00  0.00     0.043 C 
ENDBRANCH  16  27
ENDBRANCH   3   4
TORSDOF 6
