REMARK  6 active torsions:
REMARK  status: ('A' for Active; 'I' for Inactive)
REMARK    1  A    between atoms: C2_2  and  N1_5 
REMARK       I    between atoms: N1_5  and  C5_7 
REMARK       I    between atoms: C5_7  and  N4_20 
REMARK       I    between atoms: N2_8  and  C6_10 
REMARK    2  A    between atoms: C6_10  and  C7_12 
REMARK       I    between atoms: C7_12  and  N3_14 
REMARK    3  A    between atoms: N3_14  and  C8_16 
REMARK    4  A    between atoms: N4_20  and  C10_22 
REMARK    5  A    between atoms: C10_22  and  C11_23 
REMARK    6  A    between atoms: C11_23  and  N5_24 
ROOT
HETATM    1  N1  UNL     1      -2.062   0.376  -0.689  1.00  0.00    -0.218 N 
ATOM      2  H1  UNL     1      -2.553   0.845  -1.450  1.00  0.00     0.178 HD
HETATM    3  C5  UNL     1      -0.632   0.350  -0.674  1.00  0.00     0.677 C 
HETATM    4  N2  UNL     1      -0.108  -0.708  -0.170  1.00  0.00    -0.152 N 
ATOM      5  H2  UNL     1      -0.709  -1.453   0.184  1.00  0.00     0.188 HD
HETATM    6  C6  UNL     1       1.289  -0.845  -0.103  1.00  0.00     0.328 C 
HETATM    7  O1  UNL     1       2.005   0.177  -0.188  1.00  0.00    -0.261 OA
HETATM    8  N4  UNL     1       0.117   1.445  -1.197  1.00  0.00    -0.225 N 
ATOM      9  H4  UNL     1       0.663   1.346  -2.053  1.00  0.00     0.177 HD
ENDROOT
BRANCH   1  10
HETATM   10  C2  UNL     1      -2.811  -0.254   0.361  1.00  0.00     0.036 C 
HETATM   11  C1  UNL     1      -2.574  -1.732   0.481  1.00  0.00     0.038 C 
HETATM   12  C3  UNL     1      -4.301  -0.070   0.039  1.00  0.00     0.038 C 
HETATM   13  C4  UNL     1      -2.460   0.482   1.640  1.00  0.00     0.038 C 
ENDBRANCH   1  10
BRANCH   8  14
HETATM   14  C10 UNL     1       0.081   2.694  -0.483  1.00  0.00     0.165 C 
BRANCH  14  15
HETATM   15  C11 UNL     1       0.815   3.814  -1.159  1.00  0.00     0.249 C 
BRANCH  15  16
HETATM   16  N5  UNL     1       2.206   3.550  -1.361  1.00  0.00    -0.078 N 
ATOM     17  H53 UNL     1       2.657   3.304  -0.480  1.00  0.00     0.274 HD
ATOM     18  H52 UNL     1       2.336   2.676  -1.870  1.00  0.00     0.274 HD
ATOM     19  H51 UNL     1       2.705   4.312  -1.821  1.00  0.00     0.274 HD
ENDBRANCH  15  16
ENDBRANCH  14  15
ENDBRANCH   8  14
BRANCH   6  20
HETATM   20  C7  UNL     1       1.939  -2.162   0.068  1.00  0.00     0.315 C 
HETATM   21  O2  UNL     1       1.285  -3.228   0.144  1.00  0.00    -0.262 OA
HETATM   22  N3  UNL     1       3.364  -2.196   0.148  1.00  0.00    -0.312 N 
ATOM     23  H3  UNL     1       3.903  -1.332   0.085  1.00  0.00     0.170 HD
BRANCH  22  24
HETATM   24  C8  UNL     1       4.030  -3.447   0.317  1.00  0.00     0.089 C 
HETATM   25 BR1  UNL     1       3.783  -4.783  -0.999  1.00  0.00    -0.031 Br
HETATM   26  C9  UNL     1       4.796  -3.663   1.363  1.00  0.00     0.093 C 
HETATM   27 BR2  UNL     1       5.005  -2.281   2.651  1.00  0.00    -0.061 Br
ENDBRANCH  22  24
ENDBRANCH   6  20
TORSDOF 6
