REMARK  5 active torsions:
REMARK  status: ('A' for Active; 'I' for Inactive)
REMARK    1  A    between atoms: C3_3  and  C4_4 
REMARK    2  A    between atoms: C5_5  and  C6_6 
REMARK    3  A    between atoms: C6_6  and  C7_7 
REMARK    4  A    between atoms: C7_7  and  N1_8 
REMARK       I    between atoms: N1_8  and  C8_10 
REMARK       I    between atoms: C8_10  and  N3_14 
REMARK    5  A    between atoms: N3_14  and  C9_16 
ROOT
HETATM    1  C1  UNL     1       7.865   2.845  -0.234  1.00  0.00     0.113 C 
HETATM    2  C2  UNL     1       6.693   1.976  -0.055  1.00  0.00    -0.097 C 
HETATM    3  C3  UNL     1       5.724   1.269   0.107  1.00  0.00    -0.015 C 
ENDROOT
BRANCH   3   4
HETATM    4  C4  UNL     1       4.569   0.459   0.294  1.00  0.00    -0.015 C 
HETATM    5  C5  UNL     1       3.583  -0.213   0.463  1.00  0.00    -0.091 C 
BRANCH   5   6
HETATM    6  C6  UNL     1       2.368  -1.035   0.693  1.00  0.00     0.115 C 
BRANCH   6   7
HETATM    7  C7  UNL     1       1.511  -0.890  -0.526  1.00  0.00     0.150 C 
BRANCH   7   8
HETATM    8  N1  UNL     1       0.315  -1.689  -0.314  1.00  0.00    -0.226 N 
HETATM    9  C8  UNL     1      -0.612  -1.268   0.677  1.00  0.00     0.668 C 
HETATM   10  N2  UNL     1      -0.553  -1.677   1.885  1.00  0.00    -0.235 N 
HETATM   11  N3  UNL     1      -1.616  -0.355   0.250  1.00  0.00    -0.211 N 
ATOM     12  H22 UNL     1       0.167  -2.332   2.191  1.00  0.00     0.174 HD
ATOM     13  H21 UNL     1      -1.219  -1.375   2.596  1.00  0.00     0.174 HD
ATOM     14  H3  UNL     1      -1.732   0.519   0.763  1.00  0.00     0.178 HD
ATOM     15  H1  UNL     1       0.146  -2.531  -0.863  1.00  0.00     0.177 HD
BRANCH  11  16
HETATM   16  C9  UNL     1      -2.466  -0.610  -0.863  1.00  0.00     0.223 C 
HETATM   17  C10 UNL     1      -3.321   0.617  -1.072  1.00  0.00     0.245 C 
HETATM   18  O1  UNL     1      -3.234   1.486  -1.967  1.00  0.00    -0.271 OA
HETATM   19  N4  UNL     1      -4.274   0.592  -0.021  1.00  0.00    -0.352 N 
HETATM   20  C11 UNL     1      -5.079   1.742   0.363  1.00  0.00     0.152 C 
HETATM   21  C12 UNL     1      -4.300  -0.742   0.584  1.00  0.00     0.160 C 
HETATM   22  C13 UNL     1      -3.566  -1.580  -0.463  1.00  0.00     0.121 C 
HETATM   23 BR1  UNL     1      -4.789  -1.834  -1.957  1.00  0.00    -0.068 Br
HETATM   24 BR2  UNL     1      -2.942  -3.250   0.195  1.00  0.00    -0.068 Br
ENDBRANCH  11  16
ENDBRANCH   7   8
ENDBRANCH   6   7
ENDBRANCH   5   6
ENDBRANCH   3   4
TORSDOF 5
