REMARK  8 active torsions:
REMARK  status: ('A' for Active; 'I' for Inactive)
REMARK    1  A    between atoms: C2_2  and  C3_3 
REMARK    2  A    between atoms: C3_3  and  O1_4 
REMARK    3  A    between atoms: O1_4  and  C4_5 
REMARK       I    between atoms: N2_12  and  C9_14 
REMARK       I    between atoms: C9_14  and  N3_16 
REMARK    4  A    between atoms: N3_16  and  C10_18 
REMARK    5  A    between atoms: C10_18  and  C11_19 
REMARK    6  A    between atoms: C10_18  and  C12_21 
REMARK    7  A    between atoms: C12_21  and  N4_22 
REMARK    8  A    between atoms: C12_21  and  O4_26 
ROOT
HETATM    1  C4  UNL     1      -2.224  -0.678  -0.121  1.00  0.00     0.113 A 
HETATM    2  C5  UNL     1      -2.850  -1.906   0.042  1.00  0.00     0.042 A 
HETATM    3  C6  UNL     1      -2.090  -3.051  -0.217  1.00  0.00     0.020 A 
HETATM    4  C7  UNL     1      -0.779  -2.921  -0.614  1.00  0.00     0.090 A 
HETATM    5  N1  UNL     1      -0.202  -1.709  -0.763  1.00  0.00    -0.350 N 
ATOM      6  H1  UNL     1       0.772  -1.644  -1.060  1.00  0.00     0.166 HD
HETATM    7  C8  UNL     1      -0.908  -0.582  -0.521  1.00  0.00     0.143 A 
HETATM    8  N2  UNL     1      -0.380   0.574  -0.656  1.00  0.00    -0.292 N 
ATOM      9  H2  UNL     1      -0.966   1.385  -0.459  1.00  0.00     0.172 HD
HETATM   10  C9  UNL     1       0.945   0.814  -1.055  1.00  0.00     0.322 C 
HETATM   11  O2  UNL     1       1.215   1.041  -2.252  1.00  0.00    -0.247 OA
HETATM   12  N3  UNL     1       1.971   0.795  -0.084  1.00  0.00    -0.328 N 
ATOM     13  H3  UNL     1       1.721   0.607   0.887  1.00  0.00     0.165 HD
ENDROOT
BRANCH  12  14
HETATM   14  C10 UNL     1       3.372   1.033  -0.411  1.00  0.00     0.203 C 
BRANCH  14  15
HETATM   15  C11 UNL     1       3.868   2.211   0.325  1.00  0.00     0.260 C 
HETATM   16  O3  UNL     1       3.142   2.836   1.079  1.00  0.00    -0.304 OA
ENDBRANCH  14  15
BRANCH  14  17
HETATM   17  C12 UNL     1       4.132  -0.228  -0.058  1.00  0.00     0.346 C 
BRANCH  17  18
HETATM   18  N4  UNL     1       4.088  -0.548   1.325  1.00  0.00    -0.051 N 
ATOM     19  H43 UNL     1       4.412   0.238   1.888  1.00  0.00     0.277 HD
ATOM     20  H42 UNL     1       3.123  -0.604   1.652  1.00  0.00     0.277 HD
ATOM     21  H41 UNL     1       4.600  -1.398   1.563  1.00  0.00     0.277 HD
ENDBRANCH  17  18
BRANCH  17  22
HETATM   22  O4  UNL     1       3.662  -1.326  -0.776  1.00  0.00    -0.368 OA
ATOM     23  H4  UNL     1       4.139  -2.117  -0.555  1.00  0.00     0.212 HD
ENDBRANCH  17  22
ENDBRANCH  14  17
ENDBRANCH  12  14
BRANCH   1  24
HETATM   24  O1  UNL     1      -2.922   0.496   0.119  1.00  0.00    -0.344 OA
BRANCH  24  25
HETATM   25  C3  UNL     1      -4.293   0.429   0.536  1.00  0.00     0.202 C 
BRANCH  25  26
HETATM   26  C2  UNL     1      -4.846   1.792   0.736  1.00  0.00    -0.011 C 
HETATM   27  C1  UNL     1      -4.093   2.857   0.531  1.00  0.00     0.009 C 
ENDBRANCH  25  26
ENDBRANCH  24  25
ENDBRANCH   1  24
TORSDOF 8
