REMARK  8 active torsions:
REMARK  status: ('A' for Active; 'I' for Inactive)
REMARK    1  A    between atoms: C1_4  and  C2_5 
REMARK    2  A    between atoms: C2_5  and  C3_6 
REMARK    3  A    between atoms: C3_6  and  N2_7 
REMARK    4  A    between atoms: C3_6  and  C4_11 
REMARK    5  A    between atoms: C6_13  and  C7_14 
REMARK    6  A    between atoms: C7_14  and  N3_15 
REMARK    7  A    between atoms: N3_15  and  C8_17 
REMARK    8  A    between atoms: C9_21  and  C10_22 
ROOT
HETATM    1  C4  UNL     1       0.857  -0.186   0.316  1.00  0.00    -0.025 A 
HETATM    2  C5  UNL     1       1.372   0.615  -0.637  1.00  0.00     0.033 A 
HETATM    3  C6  UNL     1       0.578   1.808  -0.824  1.00  0.00     0.024 A 
HETATM    4  N4  UNL     1      -0.417   1.714   0.023  1.00  0.00    -0.383 N 
ATOM      5  H4  UNL     1      -1.154   2.411   0.129  1.00  0.00     0.160 HD
HETATM    6  C9  UNL     1      -0.331   0.491   0.786  1.00  0.00     0.120 A 
ENDROOT
BRANCH   1   7
HETATM    7  C3  UNL     1       1.523  -1.461   0.664  1.00  0.00     0.219 C 
BRANCH   7   8
HETATM    8  C2  UNL     1       0.732  -2.674   0.367  1.00  0.00     0.081 C 
BRANCH   8   9
HETATM    9  C1  UNL     1       1.526  -3.834   0.942  1.00  0.00     0.055 C 
HETATM   10  N1  UNL     1       1.139  -4.508   1.940  1.00  0.00    -0.411 N 
ATOM     11  H12 UNL     1       0.250  -4.247   2.367  1.00  0.00     0.155 HD
ATOM     12  H11 UNL     1       1.672  -5.287   2.326  1.00  0.00     0.155 HD
ENDBRANCH   8   9
ENDBRANCH   7   8
BRANCH   7  13
HETATM   13  N2  UNL     1       2.843  -1.547   0.054  1.00  0.00    -0.071 N 
ATOM     14  H23 UNL     1       3.334  -2.397   0.332  1.00  0.00     0.275 HD
ATOM     15  H22 UNL     1       2.786  -1.725  -0.949  1.00  0.00     0.275 HD
ATOM     16  H21 UNL     1       3.389  -0.710   0.259  1.00  0.00     0.275 HD
ENDBRANCH   7  13
ENDBRANCH   1   7
BRANCH   6  17
HETATM   17  C10 UNL     1      -1.642  -0.222   0.706  1.00  0.00     0.048 C 
HETATM   18  C11 UNL     1      -2.676   0.792   1.269  1.00  0.00     0.129 C 
HETATM   19  N5  UNL     1      -3.876   0.023   1.551  1.00  0.00    -0.386 N 
HETATM   20  C12 UNL     1      -4.306  -0.708   0.563  1.00  0.00     0.171 C 
ATOM     21  H5  UNL     1      -4.347   0.053   2.455  1.00  0.00     0.160 HD
HETATM   22  N6  UNL     1      -3.568  -0.667  -0.641  1.00  0.00    -0.386 N 
HETATM   23  C13 UNL     1      -2.116  -0.533  -0.676  1.00  0.00     0.129 C 
ATOM     24  H6  UNL     1      -4.073  -0.734  -1.525  1.00  0.00     0.160 HD
ENDBRANCH   6  17
BRANCH   3  25
HETATM   25  C7  UNL     1       0.774   2.978  -1.749  1.00  0.00     0.178 C 
BRANCH  25  26
HETATM   26  N3  UNL     1       1.679   3.970  -1.281  1.00  0.00    -0.363 N 
ATOM     27  H3  UNL     1       1.281   4.900  -1.146  1.00  0.00     0.162 HD
BRANCH  26  28
HETATM   28  C8  UNL     1       3.047   3.846  -0.978  1.00  0.00     0.348 C 
HETATM   29  O1  UNL     1       3.705   2.797  -1.083  1.00  0.00    -0.284 OA
ENDBRANCH  26  28
ENDBRANCH  25  26
ENDBRANCH   3  25
TORSDOF 8
