REMARK  8 active torsions:
REMARK  status: ('A' for Active; 'I' for Inactive)
REMARK       I    between atoms: C1_4  and  N3_6 
REMARK    1  A    between atoms: N3_6  and  N4_8 
REMARK    2  A    between atoms: C2_10  and  C3_11 
REMARK    3  A    between atoms: C6_14  and  O1_15 
REMARK    4  A    between atoms: O1_15  and  C7_16 
REMARK    5  A    between atoms: C7_16  and  C8_18 
REMARK    6  A    between atoms: C8_18  and  N5_19 
REMARK    7  A    between atoms: N5_19  and  C9_21 
REMARK    8  A    between atoms: C9_21  and  C10_22 
ROOT
HETATM    1  C3  UNL     1       1.784   0.282  -0.216  1.00  0.00    -0.019 A 
HETATM    2  C4  UNL     1       1.414  -0.932  -0.723  1.00  0.00     0.015 A 
HETATM    3  C5  UNL     1       0.110  -1.193  -1.059  1.00  0.00     0.038 A 
HETATM    4  C6  UNL     1      -0.876  -0.253  -0.902  1.00  0.00     0.079 A 
HETATM    5  C11 UNL     1      -0.484   0.982  -0.384  1.00  0.00     0.038 A 
HETATM    6  C12 UNL     1       0.827   1.240  -0.048  1.00  0.00     0.015 A 
ENDROOT
BRANCH   1   7
HETATM    7  C2  UNL     1       3.169   0.569   0.153  1.00  0.00     0.118 C 
HETATM    8  N4  UNL     1       4.090  -0.314   0.019  1.00  0.00    -0.309 N 
ATOM      9  H4  UNL     1       3.864  -1.237  -0.351  1.00  0.00     0.186 HD
BRANCH   8  10
HETATM   10  N3  UNL     1       5.389  -0.010   0.377  1.00  0.00    -0.274 N 
HETATM   11  C1  UNL     1       6.121   0.956  -0.339  1.00  0.00     0.200 C 
HETATM   12  N1  UNL     1       5.655   2.123  -0.646  1.00  0.00    -0.372 N 
HETATM   13  N2  UNL     1       7.454   0.665  -0.766  1.00  0.00    -0.062 NA
ATOM     14  H12 UNL     1       6.185   2.823  -1.165  1.00  0.00     0.158 HD
ATOM     15  H11 UNL     1       4.704   2.331  -0.341  1.00  0.00     0.158 HD
ATOM     16  H3  UNL     1       5.821  -0.489   1.167  1.00  0.00     0.189 HD
ENDBRANCH   8  10
ENDBRANCH   1   7
BRANCH   4  17
HETATM   17  O1  UNL     1      -2.213  -0.441  -1.217  1.00  0.00    -0.278 OA
BRANCH  17  18
HETATM   18  C7  UNL     1      -3.064  -0.894  -0.234  1.00  0.00     0.281 C 
HETATM   19  O2  UNL     1      -2.613  -1.122   0.914  1.00  0.00    -0.263 OA
BRANCH  18  20
HETATM   20  C8  UNL     1      -4.517  -1.129  -0.474  1.00  0.00     0.226 C 
BRANCH  20  21
HETATM   21  N5  UNL     1      -5.237  -1.558   0.674  1.00  0.00    -0.407 N 
ATOM     22  H5  UNL     1      -5.605  -2.505   0.760  1.00  0.00     0.154 HD
BRANCH  21  23
HETATM   23  C9  UNL     1      -5.413  -0.580   1.700  1.00  0.00     0.183 C 
BRANCH  23  24
HETATM   24  C10 UNL     1      -6.354   0.505   1.305  1.00  0.00     0.250 C 
HETATM   25  O3  UNL     1      -6.937   0.526   0.253  1.00  0.00    -0.305 OA
ENDBRANCH  23  24
ENDBRANCH  21  23
ENDBRANCH  20  21
ENDBRANCH  18  20
ENDBRANCH  17  18
ENDBRANCH   4  17
TORSDOF 8
