REMARK  7 active torsions:
REMARK  status: ('A' for Active; 'I' for Inactive)
REMARK    1  A    between atoms: C2_2  and  C3_3 
REMARK    2  A    between atoms: C3_3  and  C4_4 
REMARK    3  A    between atoms: C5_5  and  C6_6 
REMARK       I    between atoms: C6_6  and  N1_8 
REMARK    4  A    between atoms: N5_16  and  C9_17 
REMARK    5  A    between atoms: C9_17  and  C10_18 
REMARK    6  A    between atoms: C10_18  and  C11_19 
REMARK    7  A    between atoms: C11_19  and  C12_20 
ROOT
HETATM    1  C4  UNL     1      -0.451  -0.565  -0.667  1.00  0.00     0.052 A 
HETATM    2  C5  UNL     1      -1.379   0.317  -0.253  1.00  0.00     0.125 A 
HETATM    3  N4  UNL     1      -0.746   1.403   0.189  1.00  0.00    -0.346 N 
ATOM      4  H4  UNL     1      -1.205   2.234   0.562  1.00  0.00     0.167 HD
HETATM    5  C8  UNL     1       0.589   1.247   0.072  1.00  0.00     0.188 A 
HETATM    6  N5  UNL     1       0.788   0.035  -0.454  1.00  0.00    -0.320 N 
ENDROOT
BRANCH   2   7
HETATM    7  C6  UNL     1      -2.831   0.195  -0.230  1.00  0.00     0.276 C 
HETATM    8  O1  UNL     1      -3.475  -0.798  -0.618  1.00  0.00    -0.266 OA
HETATM    9  N1  UNL     1      -3.643   1.276   0.269  1.00  0.00    -0.298 N 
HETATM   10  C7  UNL     1      -4.106   1.301   1.467  1.00  0.00     0.203 C 
ATOM     11  H1  UNL     1      -3.859   2.053  -0.355  1.00  0.00     0.171 HD
HETATM   12  N2  UNL     1      -3.891   0.302   2.430  1.00  0.00    -0.066 NA
HETATM   13  N3  UNL     1      -4.890   2.423   1.831  1.00  0.00    -0.066 NA
ENDBRANCH   2   7
BRANCH   1  14
HETATM   14  C3  UNL     1      -0.607  -1.901  -1.276  1.00  0.00     0.086 C 
BRANCH  14  15
HETATM   15  C2  UNL     1      -0.860  -1.887  -2.734  1.00  0.00    -0.031 C 
HETATM   16  C1  UNL     1      -1.906  -2.492  -3.252  1.00  0.00     0.007 C 
ENDBRANCH  14  15
ENDBRANCH   1  14
BRANCH   6  17
HETATM   17  C9  UNL     1       2.028  -0.524  -0.796  1.00  0.00     0.094 C 
BRANCH  17  18
HETATM   18  C10 UNL     1       3.255  -0.237  -0.572  1.00  0.00    -0.000 C 
BRANCH  18  19
HETATM   19  C11 UNL     1       3.901   0.845   0.176  1.00  0.00     0.128 C 
BRANCH  19  20
HETATM   20  C12 UNL     1       4.873   0.185   1.158  1.00  0.00     0.234 C 
HETATM   21  N6  UNL     1       5.606   1.046   1.987  1.00  0.00    -0.062 NA
HETATM   22  O2  UNL     1       4.993  -1.060   1.201  1.00  0.00    -0.277 OA
ENDBRANCH  19  20
ENDBRANCH  18  19
ENDBRANCH  17  18
ENDBRANCH   6  17
TORSDOF 7
