REMARK  7 active torsions:
REMARK  status: ('A' for Active; 'I' for Inactive)
REMARK    1  A    between atoms: C1_2  and  C2_4 
REMARK    2  A    between atoms: C2_4  and  C3_5 
REMARK    3  A    between atoms: N2_6  and  N3_8 
REMARK    4  A    between atoms: N3_8  and  C4_10 
REMARK    5  A    between atoms: C7_13  and  C8_14 
REMARK       I    between atoms: C8_14  and  N4_16 
REMARK    6  A    between atoms: N4_16  and  C9_18 
REMARK    7  A    between atoms: C9_18  and  C10_19 
ROOT
HETATM    1  C4  UNL     1      -0.973   0.467   0.085  1.00  0.00     0.048 A 
HETATM    2  C5  UNL     1      -0.335   0.229  -1.112  1.00  0.00     0.032 A 
HETATM    3  C6  UNL     1       0.997  -0.079  -1.246  1.00  0.00     0.019 A 
HETATM    4  C7  UNL     1       1.766  -0.157  -0.081  1.00  0.00     0.032 A 
HETATM    5  C11 UNL     1       1.170   0.074   1.134  1.00  0.00     0.019 A 
HETATM    6  C12 UNL     1      -0.176   0.380   1.217  1.00  0.00     0.032 A 
ENDROOT
BRANCH   1   7
HETATM    7  N3  UNL     1      -2.365   0.783   0.155  1.00  0.00    -0.301 N 
ATOM      8  H3  UNL     1      -2.639   1.764   0.107  1.00  0.00     0.187 HD
BRANCH   7   9
HETATM    9  N2  UNL     1      -3.358  -0.163   0.283  1.00  0.00    -0.315 N 
HETATM   10  C3  UNL     1      -4.563   0.109  -0.107  1.00  0.00     0.089 C 
ATOM     11  H2  UNL     1      -3.145  -1.076   0.684  1.00  0.00     0.185 HD
BRANCH  10  12
HETATM   12  C2  UNL     1      -5.675  -0.857  -0.001  1.00  0.00     0.145 C 
BRANCH  12  13
HETATM   13  C1  UNL     1      -6.985  -0.148  -0.026  1.00  0.00     0.235 C 
HETATM   14  N1  UNL     1      -7.099   1.247  -0.137  1.00  0.00    -0.062 NA
HETATM   15  O1  UNL     1      -8.042  -0.823   0.055  1.00  0.00    -0.277 OA
ENDBRANCH  12  13
ENDBRANCH  10  12
ENDBRANCH   7   9
ENDBRANCH   1   7
BRANCH   4  16
HETATM   16  C8  UNL     1       3.168  -0.485  -0.243  1.00  0.00     0.252 C 
HETATM   17  O2  UNL     1       3.620  -0.769  -1.394  1.00  0.00    -0.268 OA
HETATM   18  N4  UNL     1       4.062  -0.501   0.846  1.00  0.00    -0.348 N 
ATOM     19  H4  UNL     1       3.724  -0.281   1.783  1.00  0.00     0.163 HD
BRANCH  18  20
HETATM   20  C9  UNL     1       5.442  -0.825   0.645  1.00  0.00     0.222 C 
BRANCH  20  21
HETATM   21  C10 UNL     1       6.171   0.097  -0.250  1.00  0.00     0.248 C 
HETATM   22  N5  UNL     1       7.543  -0.184  -0.495  1.00  0.00    -0.061 NA
HETATM   23  O3  UNL     1       5.670   1.101  -0.803  1.00  0.00    -0.275 OA
ENDBRANCH  20  21
ENDBRANCH  18  20
ENDBRANCH   4  16
TORSDOF 7
