REMARK  10 active torsions:
REMARK  status: ('A' for Active; 'I' for Inactive)
REMARK    1  A    between atoms: C2_2  and  C3_3 
REMARK    2  A    between atoms: C3_3  and  C4_4 
REMARK    3  A    between atoms: C4_4  and  C5_5 
REMARK    4  A    between atoms: C6_6  and  C7_7 
REMARK    5  A    between atoms: C12_14  and  O3_15 
REMARK    6  A    between atoms: C16_19  and  O4_20 
REMARK    7  A    between atoms: C22_29  and  C23_30 
REMARK    8  A    between atoms: C22_29  and  C24_33 
REMARK    9  A    between atoms: C24_33  and  C26_35 
REMARK   10  A    between atoms: C26_35  and  O9_38 
ROOT
HETATM    1  C7  UNL     1       0.834   0.143  -0.619  1.00  0.00     0.194 C 
HETATM    2  O1  UNL     1      -0.221  -0.704  -0.849  1.00  0.00    -0.338 OA
HETATM    3  C8  UNL     1      -1.116  -0.942   0.154  1.00  0.00     0.223 C 
HETATM    4  C9  UNL     1      -0.420  -1.952   1.089  1.00  0.00     0.085 C 
HETATM    5  O2  UNL     1      -2.146  -1.633  -0.386  1.00  0.00    -0.332 OA
HETATM    6  C10 UNL     1      -3.398  -1.609   0.092  1.00  0.00     0.116 C 
HETATM    7  C11 UNL     1      -3.953  -2.922   0.558  1.00  0.00     0.054 C 
HETATM    8  C12 UNL     1      -4.251  -1.252  -1.085  1.00  0.00     0.077 C 
HETATM    9  C14 UNL     1      -4.057  -0.037  -1.555  1.00  0.00     0.012 C 
HETATM   10  C15 UNL     1      -3.051   0.886  -0.934  1.00  0.00     0.074 C 
HETATM   11  C16 UNL     1      -2.892   0.682   0.547  1.00  0.00     0.130 C 
HETATM   12  C17 UNL     1      -3.696  -0.478   1.061  1.00  0.00     0.069 C 
HETATM   13  C18 UNL     1      -3.439  -0.776   2.479  1.00  0.00     0.043 C 
HETATM   14  C19 UNL     1      -2.288   0.086   3.015  1.00  0.00     0.122 C 
HETATM   15  C20 UNL     1      -1.872  -0.603   4.329  1.00  0.00     0.040 C 
HETATM   16  O5  UNL     1      -1.219   0.117   2.197  1.00  0.00    -0.343 OA
HETATM   17  C21 UNL     1      -1.414   0.349   0.846  1.00  0.00     0.256 C 
HETATM   18  O6  UNL     1      -0.781   1.457   0.476  1.00  0.00    -0.322 OA
HETATM   19  C22 UNL     1       0.500   1.473  -0.044  1.00  0.00     0.187 C 
ENDROOT
BRANCH  19  20
HETATM   20  C23 UNL     1       1.384   1.771   1.155  1.00  0.00     0.213 C 
HETATM   21  O7  UNL     1       2.636   1.827   1.078  1.00  0.00    -0.646 OA
HETATM   22  O8  UNL     1       0.880   2.005   2.424  1.00  0.00    -0.646 OA
ENDBRANCH  19  20
BRANCH  19  23
HETATM   23  C24 UNL     1       0.456   2.629  -0.978  1.00  0.00     0.064 C 
HETATM   24  C25 UNL     1       0.047   3.886  -0.141  1.00  0.00     0.017 C 
BRANCH  23  25
HETATM   25  C26 UNL     1       1.531   3.121  -1.804  1.00  0.00     0.057 C 
HETATM   26  C27 UNL     1       2.189   2.300  -2.845  1.00  0.00     0.045 C 
HETATM   27  C28 UNL     1       2.559   4.017  -1.098  1.00  0.00     0.045 C 
BRANCH  25  28
HETATM   28  O9  UNL     1       0.845   4.095  -2.633  1.00  0.00    -0.390 OA
ATOM     29  H9  UNL     1       1.553   4.419  -3.177  1.00  0.00     0.210 HD
ENDBRANCH  25  28
ENDBRANCH  23  25
ENDBRANCH  19  23
BRANCH   1  30
HETATM   30  C6  UNL     1       1.958  -0.540   0.122  1.00  0.00     0.004 C 
HETATM   31  C5  UNL     1       2.917  -1.188  -0.545  1.00  0.00    -0.028 C 
BRANCH  31  32
HETATM   32  C4  UNL     1       4.041  -1.873   0.132  1.00  0.00     0.027 C 
BRANCH  32  33
HETATM   33  C3  UNL     1       5.368  -1.292  -0.299  1.00  0.00     0.003 C 
BRANCH  33  34
HETATM   34  C2  UNL     1       6.477  -2.040   0.432  1.00  0.00    -0.004 C 
HETATM   35  C1  UNL     1       6.456  -3.506   0.113  1.00  0.00     0.005 C 
ENDBRANCH  33  34
ENDBRANCH  32  33
ENDBRANCH  31  32
ENDBRANCH   1  30
BRANCH  11  36
HETATM   36  O4  UNL     1      -3.250   1.896   1.146  1.00  0.00    -0.383 OA
ATOM     37  H4  UNL     1      -3.150   1.767   2.082  1.00  0.00     0.210 HD
ENDBRANCH  11  36
BRANCH   8  38
HETATM   38  O3  UNL     1      -5.174  -2.071  -1.671  1.00  0.00    -0.357 OA
HETATM   39  C13 UNL     1      -5.138  -2.593  -2.958  1.00  0.00     0.209 C 
ENDBRANCH   8  38
TORSDOF 10
