REMARK  10 active torsions:
REMARK  status: ('A' for Active; 'I' for Inactive)
REMARK    1  A    between atoms: C2_2  and  C3_3 
REMARK    2  A    between atoms: C3_3  and  C4_5 
REMARK    3  A    between atoms: C4_5  and  O2_6 
REMARK    4  A    between atoms: C9_15  and  C11_17 
REMARK    5  A    between atoms: C11_17  and  O7_19 
REMARK    6  A    between atoms: O7_19  and  C12_20 
REMARK    7  A    between atoms: C12_20  and  C14_22 
REMARK    8  A    between atoms: C15_23  and  C17_26 
REMARK    9  A    between atoms: C17_26  and  C18_27 
REMARK   10  A    between atoms: C28_37  and  O8_38 
ROOT
HETATM    1  C14 UNL     1       4.317   2.543   0.160  1.00  0.00     0.023 C 
HETATM    2  C15 UNL     1       5.210   1.889  -0.529  1.00  0.00     0.021 C 
HETATM    3  C16 UNL     1       5.849   2.596  -1.618  1.00  0.00     0.095 C 
HETATM    4  N1  UNL     1       6.338   3.187  -2.503  1.00  0.00    -0.192 NA
ENDROOT
BRANCH   2   5
HETATM    5  C17 UNL     1       5.561   0.506  -0.269  1.00  0.00     0.053 C 
BRANCH   5   6
HETATM    6  C18 UNL     1       6.999   0.324   0.100  1.00  0.00    -0.018 C 
HETATM    7  C19 UNL     1       7.241  -1.179   0.369  1.00  0.00     0.010 C 
HETATM    8  C20 UNL     1       7.977   0.732  -0.956  1.00  0.00     0.010 C 
ENDBRANCH   5   6
ENDBRANCH   2   5
BRANCH   1   9
HETATM    9  C12 UNL     1       3.532   2.065   1.298  1.00  0.00     0.151 C 
HETATM   10  C13 UNL     1       4.433   1.730   2.462  1.00  0.00     0.044 C 
BRANCH   9  11
HETATM   11  O7  UNL     1       2.813   0.902   0.933  1.00  0.00    -0.312 OA
BRANCH  11  12
HETATM   12  C11 UNL     1       1.438   0.807   1.024  1.00  0.00     0.270 C 
HETATM   13  O6  UNL     1       0.825   1.815   1.454  1.00  0.00    -0.264 OA
BRANCH  12  14
HETATM   14  C9  UNL     1       0.794  -0.456   0.616  1.00  0.00     0.072 C 
HETATM   15  C8  UNL     1      -0.690  -0.467   0.717  1.00  0.00     0.158 C 
HETATM   16  O5  UNL     1      -1.224   0.624   1.410  1.00  0.00    -0.312 OA
HETATM   17  C24 UNL     1      -1.382  -0.556  -0.643  1.00  0.00    -0.009 C 
HETATM   18  C7  UNL     1      -2.591   0.781   1.491  1.00  0.00     0.289 C 
HETATM   19  C6  UNL     1      -3.450   0.359   0.391  1.00  0.00     0.233 C 
HETATM   20  O4  UNL     1      -3.121   1.296   2.520  1.00  0.00    -0.262 OA
HETATM   21  O3  UNL     1      -4.752  -0.032   0.797  1.00  0.00    -0.336 OA
HETATM   22  C26 UNL     1      -2.827  -0.807  -0.323  1.00  0.00     0.038 C 
HETATM   23  C5  UNL     1      -5.601  -0.681  -0.064  1.00  0.00     0.085 C 
HETATM   24  C2  UNL     1      -6.890  -0.434  -0.208  1.00  0.00     0.018 C 
HETATM   25  C28 UNL     1      -4.962  -1.766  -0.899  1.00  0.00     0.175 C 
HETATM   26  C1  UNL     1      -7.665  -1.253  -1.206  1.00  0.00     0.055 C 
HETATM   27  C27 UNL     1      -3.694  -1.141  -1.489  1.00  0.00     0.047 C 
HETATM   28  C23 UNL     1      -0.880  -1.750  -1.425  1.00  0.00     0.012 C 
HETATM   29  C25 UNL     1      -1.208   0.674  -1.477  1.00  0.00     0.018 C 
HETATM   30  C22 UNL     1       0.574  -2.028  -1.241  1.00  0.00     0.002 C 
HETATM   31  C21 UNL     1       1.324  -0.837  -0.746  1.00  0.00     0.022 C 
HETATM   32  C10 UNL     1       1.331  -1.522   1.586  1.00  0.00     0.029 C 
BRANCH  24  33
HETATM   33  C3  UNL     1      -7.629   0.569   0.519  1.00  0.00     0.180 C 
HETATM   34  O1  UNL     1      -8.852   0.753   0.341  1.00  0.00    -0.290 OA
BRANCH  33  35
HETATM   35  C4  UNL     1      -6.928   1.414   1.510  1.00  0.00     0.247 C 
BRANCH  35  36
HETATM   36  O2  UNL     1      -7.818   2.297   2.143  1.00  0.00    -0.393 OA
ATOM     37  H2  UNL     1      -7.368   2.840   2.780  1.00  0.00     0.209 HD
ENDBRANCH  35  36
ENDBRANCH  33  35
ENDBRANCH  24  33
BRANCH  25  38
HETATM   38  O8  UNL     1      -4.527  -2.731   0.004  1.00  0.00    -0.389 OA
ATOM     39  H8  UNL     1      -4.125  -3.413  -0.521  1.00  0.00     0.210 HD
ENDBRANCH  25  38
ENDBRANCH  12  14
ENDBRANCH  11  12
ENDBRANCH   9  11
ENDBRANCH   1   9
TORSDOF 10
