REMARK  15 active torsions:
REMARK  status: ('A' for Active; 'I' for Inactive)
REMARK    1  A    between atoms: C2_2  and  C3_3 
REMARK    2  A    between atoms: C3_3  and  C4_4 
REMARK    3  A    between atoms: C4_4  and  C5_5 
REMARK    4  A    between atoms: C9_10  and  O2_11 
REMARK    5  A    between atoms: O2_11  and  C10_12 
REMARK    6  A    between atoms: C12_15  and  O4_16 
REMARK    7  A    between atoms: O4_16  and  C13_17 
REMARK    8  A    between atoms: C16_21  and  O6_22 
REMARK    9  A    between atoms: C17_24  and  C18_25 
REMARK   10  A    between atoms: C18_25  and  C20_27 
REMARK   11  A    between atoms: C18_25  and  C23_32 
REMARK   12  A    between atoms: C20_27  and  O7_28 
REMARK   13  A    between atoms: O7_28  and  C21_29 
REMARK   14  A    between atoms: C23_32  and  C24_33 
REMARK   15  A    between atoms: C24_33  and  O9_34 
ROOT
HETATM    1  C5  UNL     1      -0.349   1.877  -0.503  1.00  0.00     0.074 C 
HETATM    2  C6  UNL     1      -1.167   3.025   0.036  1.00  0.00     0.047 C 
HETATM    3  O1  UNL     1       0.974   2.362  -0.169  1.00  0.00    -0.371 OA
HETATM    4  C7  UNL     1       1.698   1.212  -0.339  1.00  0.00     0.160 C 
HETATM    5  C8  UNL     1       3.125   1.423   0.179  1.00  0.00     0.070 C 
HETATM    6  C9  UNL     1       3.719   0.010   0.247  1.00  0.00     0.164 C 
HETATM    7  C12 UNL     1       2.971  -0.675   1.335  1.00  0.00     0.164 C 
HETATM    8  C15 UNL     1       1.535  -0.937   0.819  1.00  0.00     0.076 C 
HETATM    9  C16 UNL     1       0.893   0.335   0.642  1.00  0.00     0.093 C 
HETATM   10  C17 UNL     1      -0.480   0.580   0.218  1.00  0.00     0.068 C 
ENDROOT
BRANCH  10  11
HETATM   11  C18 UNL     1      -1.382  -0.458  -0.284  1.00  0.00    -0.010 C 
HETATM   12  C19 UNL     1      -1.289  -1.722   0.624  1.00  0.00     0.018 C 
BRANCH  11  13
HETATM   13  C20 UNL     1      -1.091  -1.063  -1.638  1.00  0.00     0.188 C 
BRANCH  13  14
HETATM   14  O7  UNL     1      -2.086  -2.089  -1.915  1.00  0.00    -0.321 OA
BRANCH  14  15
HETATM   15  C21 UNL     1      -2.060  -2.799  -3.077  1.00  0.00     0.254 C 
HETATM   16  C22 UNL     1      -3.097  -3.840  -3.321  1.00  0.00     0.126 C 
HETATM   17  O8  UNL     1      -1.192  -2.603  -3.945  1.00  0.00    -0.266 OA
ENDBRANCH  14  15
ENDBRANCH  13  14
ENDBRANCH  11  13
BRANCH  11  18
HETATM   18  C23 UNL     1      -2.843  -0.145  -0.259  1.00  0.00     0.050 C 
BRANCH  18  19
HETATM   19  C24 UNL     1      -3.708   0.107   0.817  1.00  0.00     0.065 C 
HETATM   20  C25 UNL     1      -4.158  -1.146   1.634  1.00  0.00     0.065 C 
HETATM   21  C26 UNL     1      -5.317  -0.521   2.346  1.00  0.00    -0.028 C 
HETATM   22  C27 UNL     1      -5.042   0.761   2.526  1.00  0.00    -0.028 C 
HETATM   23  C28 UNL     1      -3.671   1.034   1.927  1.00  0.00     0.065 C 
BRANCH  19  24
HETATM   24  O9  UNL     1      -5.001   0.372   0.205  1.00  0.00    -0.389 OA
ATOM     25  H9  UNL     1      -5.587   0.543   0.933  1.00  0.00     0.210 HD
ENDBRANCH  19  24
ENDBRANCH  18  19
ENDBRANCH  11  18
ENDBRANCH  10  11
BRANCH   1  26
HETATM   26  C4  UNL     1      -0.286   1.923  -1.941  1.00  0.00     0.118 C 
BRANCH  26  27
HETATM   27  C3  UNL     1      -1.049   2.774  -2.555  1.00  0.00    -0.180 C 
BRANCH  27  28
HETATM   28  C2  UNL     1      -1.745   3.764  -3.099  1.00  0.00     0.075 C 
HETATM   29  C1  UNL     1      -1.071   5.049  -3.230  1.00  0.00     0.017 C 
ENDBRANCH  27  28
ENDBRANCH  26  27
ENDBRANCH   1  26
BRANCH   9  30
HETATM   30  O6  UNL     1       1.142   1.046   1.862  1.00  0.00    -0.387 OA
ATOM     31  H6  UNL     1       0.646   0.506   2.466  1.00  0.00     0.210 HD
ENDBRANCH   9  30
BRANCH   7  32
HETATM   32  O4  UNL     1       3.551  -1.852   1.797  1.00  0.00    -0.314 OA
BRANCH  32  33
HETATM   33  C13 UNL     1       3.928  -2.011   3.119  1.00  0.00     0.255 C 
HETATM   34  C14 UNL     1       4.548  -3.258   3.628  1.00  0.00     0.126 C 
HETATM   35  O5  UNL     1       3.711  -1.014   3.886  1.00  0.00    -0.266 OA
ENDBRANCH  32  33
ENDBRANCH   7  32
BRANCH   6  36
HETATM   36  O2  UNL     1       5.103   0.014   0.377  1.00  0.00    -0.314 OA
BRANCH  36  37
HETATM   37  C10 UNL     1       5.970  -0.498  -0.595  1.00  0.00     0.255 C 
HETATM   38  C11 UNL     1       7.442  -0.448  -0.362  1.00  0.00     0.126 C 
HETATM   39  O3  UNL     1       5.434  -0.974  -1.619  1.00  0.00    -0.266 OA
ENDBRANCH  36  37
ENDBRANCH   6  36
TORSDOF 15
