REMARK  6 active torsions:
REMARK  status: ('A' for Active; 'I' for Inactive)
REMARK    1  A    between atoms: C3_3  and  O1_4 
REMARK    2  A    between atoms: C4_6  and  O2_7 
REMARK    3  A    between atoms: C5_9  and  N1_10 
REMARK    4  A    between atoms: C9_17  and  O6_18 
REMARK    5  A    between atoms: C9_17  and  O7_20 
REMARK    6  A    between atoms: N3_26  and  O9_27 
ROOT
HETATM    1  C1  UNL     1      -1.383   2.678  -0.170  1.00  0.00     0.052 C 
HETATM    2  C2  UNL     1      -1.278   1.201  -0.084  1.00  0.00    -0.011 A 
HETATM    3  C3  UNL     1      -2.340   0.350   0.086  1.00  0.00     0.108 A 
HETATM    4  C4  UNL     1      -2.152  -0.985   0.155  1.00  0.00     0.133 A 
HETATM    5  C5  UNL     1      -0.871  -1.604   0.060  1.00  0.00     0.152 A 
HETATM    6  C6  UNL     1       0.168  -0.773  -0.100  1.00  0.00     0.048 A 
HETATM    7  C7  UNL     1      -0.011   0.617  -0.179  1.00  0.00     0.040 A 
HETATM    8  C8  UNL     1       1.138   1.450  -0.482  1.00  0.00     0.229 C 
HETATM    9  O5  UNL     1       0.970   2.481  -1.198  1.00  0.00    -0.286 OA
HETATM   10  C9  UNL     1       2.455   1.070   0.051  1.00  0.00     0.277 C 
HETATM   11  C10 UNL     1       2.616  -0.379   0.003  1.00  0.00     0.136 A 
HETATM   12  N2  UNL     1       3.730  -1.172   0.028  1.00  0.00    -0.235 N 
ATOM     13  H2  UNL     1       4.694  -0.838   0.042  1.00  0.00     0.197 HD
HETATM   14  O8  UNL     1       3.380  -2.366   0.031  1.00  0.00    -0.128 OA
HETATM   15  N3  UNL     1       2.063  -2.507   0.008  1.00  0.00    -0.099 N 
HETATM   16  C11 UNL     1       1.553  -1.282  -0.013  1.00  0.00     0.134 A 
ENDROOT
BRANCH  10  17
HETATM   17  O6  UNL     1       3.452   1.769  -0.590  1.00  0.00    -0.354 OA
ATOM     18  H6  UNL     1       4.303   1.524  -0.246  1.00  0.00     0.214 HD
ENDBRANCH  10  17
BRANCH  10  19
HETATM   19  O7  UNL     1       2.499   1.427   1.436  1.00  0.00    -0.354 OA
ATOM     20  H7  UNL     1       3.350   1.182   1.780  1.00  0.00     0.214 HD
ENDBRANCH  10  19
BRANCH  15  21
HETATM   21  O9  UNL     1       1.579  -3.727   0.016  1.00  0.00    -0.261 OA
ATOM     22  H9  UNL     1       0.635  -3.828  -0.000  1.00  0.00     0.247 HD
ENDBRANCH  15  21
BRANCH   3  23
HETATM   23  O1  UNL     1      -3.640   0.832   0.192  1.00  0.00    -0.357 OA
ATOM     24  H1  UNL     1      -4.376   0.243   0.310  1.00  0.00     0.217 HD
ENDBRANCH   3  23
BRANCH   5  25
HETATM   25  N1  UNL     1      -0.948  -2.985   0.076  1.00  0.00    -0.112 N 
HETATM   26  O3  UNL     1      -1.092  -3.623   1.135  1.00  0.00    -0.532 OA
HETATM   27  O4  UNL     1      -0.997  -3.676  -1.111  1.00  0.00    -0.532 OA
ENDBRANCH   5  25
BRANCH   4  28
HETATM   28  O2  UNL     1      -3.249  -1.820   0.326  1.00  0.00    -0.356 OA
ATOM     29  H2  UNL     1      -3.117  -2.759   0.375  1.00  0.00     0.218 HD
ENDBRANCH   4  28
TORSDOF 6
