REMARK  3 active torsions:
REMARK  status: ('A' for Active; 'I' for Inactive)
REMARK    1  A    between atoms: C2_2  and  C3_3 
REMARK    2  A    between atoms: C3_3  and  N1_4 
REMARK    3  A    between atoms: C3_3  and  C4_8 
ROOT
HETATM    1  C4  UNL     1      -0.425   0.195  -0.856  1.00  0.00     0.125 C 
HETATM    2  C5  UNL     1       0.389   1.542  -0.726  1.00  0.00     0.107 C 
HETATM    3  C6  UNL     1       1.620   1.179  -0.149  1.00  0.00    -0.181 C 
HETATM    4  C7  UNL     1       2.794   0.713   0.457  1.00  0.00     0.085 C 
HETATM    5  C8  UNL     1       2.648  -0.844   0.575  1.00  0.00     0.055 C 
HETATM    6  C9  UNL     1       1.183  -1.271   0.379  1.00  0.00     0.057 C 
HETATM    7  N2  UNL     1       0.459  -0.940  -0.720  1.00  0.00    -0.394 N 
ATOM      8  H2  UNL     1       0.548  -1.553  -1.530  1.00  0.00     0.159 HD
ENDROOT
BRANCH   1   9
HETATM    9  C3  UNL     1      -1.533   0.205   0.144  1.00  0.00     0.228 C 
BRANCH   9  10
HETATM   10  C2  UNL     1      -2.289  -1.044   0.025  1.00  0.00    -0.003 C 
HETATM   11  C1  UNL     1      -3.611  -1.045   0.105  1.00  0.00     0.009 C 
ENDBRANCH   9  10
BRANCH   9  12
HETATM   12  N1  UNL     1      -2.420   1.308  -0.124  1.00  0.00    -0.070 N 
ATOM     13  H13 UNL     1      -2.891   1.221  -1.025  1.00  0.00     0.275 HD
ATOM     14  H12 UNL     1      -3.249   1.295   0.470  1.00  0.00     0.275 HD
ATOM     15  H11 UNL     1      -1.894   2.178  -0.041  1.00  0.00     0.275 HD
ENDBRANCH   9  12
ENDBRANCH   1   9
TORSDOF 3
