REMARK  2 active torsions:
REMARK  status: ('A' for Active; 'I' for Inactive)
REMARK    1  A    between atoms: N1_2  and  N2_3 
REMARK    2  A    between atoms: N2_3  and  C2_4 
ROOT
HETATM    1  C2  UNL     1       0.079   0.398   0.508  1.00  0.00     0.051 C 
HETATM    2  C3  UNL     1      -1.021   0.315   1.547  1.00  0.00     0.033 C 
HETATM    3  C4  UNL     1      -2.006  -0.602   0.853  1.00  0.00    -0.012 C 
HETATM    4  C5  UNL     1      -2.423   0.062  -0.424  1.00  0.00     0.010 C 
HETATM    5  C6  UNL     1      -1.112   0.146  -1.184  1.00  0.00    -0.006 C 
HETATM    6  C7  UNL     1      -0.312   1.340  -0.640  1.00  0.00     0.033 C 
HETATM    7  C8  UNL     1      -0.127  -0.730  -0.452  1.00  0.00     0.016 C 
HETATM    8  C9  UNL     1      -1.028  -1.662   0.321  1.00  0.00     0.012 C 
ENDROOT
BRANCH   1   9
HETATM    9  N2  UNL     1       1.408   0.575   1.008  1.00  0.00    -0.138 NA
BRANCH   9  10
HETATM   10  N1  UNL     1       2.265   0.624  -0.111  1.00  0.00    -0.152 NA
HETATM   11  C1  UNL     1       3.281  -0.401  -0.040  1.00  0.00     0.154 C 
ENDBRANCH   9  10
ENDBRANCH   1   9
TORSDOF 2
