REMARK  3 active torsions:
REMARK  status: ('A' for Active; 'I' for Inactive)
REMARK    1  A    between atoms: N1_1  and  C1_5 
REMARK    2  A    between atoms: C1_5  and  C2_6 
REMARK    3  A    between atoms: C1_5  and  C5_9 
ROOT
HETATM    1  C5  UNL     1       0.287  -0.043   0.197  1.00  0.00     0.216 C 
HETATM    2  C6  UNL     1       1.330   0.771   0.849  1.00  0.00     0.035 C 
HETATM    3  C7  UNL     1       2.737   0.479   0.536  1.00  0.00     0.004 C 
HETATM    4  C8  UNL     1       2.989  -0.386  -0.657  1.00  0.00     0.027 C 
HETATM    5  C9  UNL     1       1.908  -1.465  -0.679  1.00  0.00     0.233 C 
HETATM    6  N2  UNL     1       0.686  -0.743  -0.989  1.00  0.00    -0.069 N 
ATOM      7  H21 UNL     1       0.780  -0.131  -1.799  1.00  0.00     0.277 HD
ATOM      8  H22 UNL     1      -0.048  -1.345  -1.362  1.00  0.00     0.277 HD
ENDROOT
BRANCH   1   9
HETATM    9  C1  UNL     1      -0.917   0.866  -0.074  1.00  0.00     0.218 C 
BRANCH   9  10
HETATM   10  N1  UNL     1      -1.342   1.357   1.224  1.00  0.00    -0.073 N 
ATOM     11  H13 UNL     1      -2.162   1.956   1.133  1.00  0.00     0.274 HD
ATOM     12  H12 UNL     1      -1.744   0.604   1.782  1.00  0.00     0.274 HD
ATOM     13  H11 UNL     1      -0.601   1.833   1.739  1.00  0.00     0.274 HD
ENDBRANCH   9  10
BRANCH   9  14
HETATM   14  C2  UNL     1      -1.997   0.172  -0.825  1.00  0.00     0.018 A 
HETATM   15  C3  UNL     1      -2.688  -1.027  -0.329  1.00  0.00     0.007 A 
HETATM   16  C4  UNL     1      -3.376   0.272  -0.153  1.00  0.00     0.007 A 
ENDBRANCH   9  14
ENDBRANCH   1   9
TORSDOF 3
