REMARK  17 active torsions:
REMARK  status: ('A' for Active; 'I' for Inactive)
REMARK    1  A    between atoms: O1_2  and  C2_3 
REMARK    2  A    between atoms: C4_5  and  C5_6 
REMARK    3  A    between atoms: C5_6  and  O3_8 
REMARK    4  A    between atoms: O3_8  and  N1_9 
REMARK    5  A    between atoms: N1_9  and  C6_11 
REMARK    6  A    between atoms: C6_11  and  C12_25 
REMARK    7  A    between atoms: C7_12  and  O4_13 
REMARK    8  A    between atoms: O4_13  and  C8_14 
REMARK    9  A    between atoms: C8_14  and  C9_16 
REMARK   10  A    between atoms: C9_16  and  N2_17 
REMARK   11  A    between atoms: C9_16  and  C10_21 
REMARK   12  A    between atoms: C10_21  and  O6_23 
REMARK   13  A    between atoms: C12_25  and  O8_27 
REMARK   14  A    between atoms: O8_27  and  C13_28 
REMARK   15  A    between atoms: C17_32  and  S1_33 
REMARK   16  A    between atoms: S1_33  and  C18_34 
REMARK   17  A    between atoms: C20_38  and  O9_39 
ROOT
HETATM    1  C6  UNL     1       0.470  -1.149   0.731  1.00  0.00     0.152 C 
HETATM    2  C7  UNL     1       1.380  -0.053   0.965  1.00  0.00     0.183 C 
ENDROOT
BRANCH   1   3
HETATM    3  N1  UNL     1      -0.541  -1.102  -0.202  1.00  0.00    -0.249 N 
ATOM      4  H1  UNL     1      -0.442  -1.776  -0.961  1.00  0.00     0.195 HD
BRANCH   3   5
HETATM    5  O3  UNL     1      -1.591  -0.359  -0.288  1.00  0.00    -0.194 OA
BRANCH   5   6
HETATM    6  C5  UNL     1      -2.653  -0.169   0.628  1.00  0.00     0.316 C 
HETATM    7  O2  UNL     1      -2.551  -0.804   1.677  1.00  0.00    -0.257 OA
BRANCH   6   8
HETATM    8  C4  UNL     1      -3.703   0.738   0.217  1.00  0.00     0.062 A 
HETATM    9  C3  UNL     1      -4.367   1.533   1.150  1.00  0.00     0.058 A 
HETATM   10  C2  UNL     1      -5.335   2.456   0.795  1.00  0.00     0.104 A 
HETATM   11  C20 UNL     1      -5.644   2.575  -0.561  1.00  0.00     0.122 A 
HETATM   12  C19 UNL     1      -5.003   1.796  -1.509  1.00  0.00     0.087 A 
HETATM   13  C17 UNL     1      -4.032   0.878  -1.097  1.00  0.00     0.043 A 
HETATM   14 CL1  UNL     1      -5.410   1.974  -3.213  1.00  0.00    -0.080 Cl
BRANCH  10  15
HETATM   15  O1  UNL     1      -6.004   3.262   1.653  1.00  0.00    -0.353 OA
HETATM   16  C1  UNL     1      -5.754   3.306   3.027  1.00  0.00     0.210 C 
ENDBRANCH  10  15
BRANCH  11  17
HETATM   17  O9  UNL     1      -6.599   3.496  -0.943  1.00  0.00    -0.356 OA
ATOM     18  H9  UNL     1      -6.809   3.577  -1.866  1.00  0.00     0.218 HD
ENDBRANCH  11  17
BRANCH  13  19
HETATM   19  S1  UNL     1      -3.257  -0.148  -2.323  1.00  0.00    -0.096 SA
BRANCH  19  20
HETATM   20  C18 UNL     1      -4.333  -1.613  -2.570  1.00  0.00     0.301 C 
HETATM   21  F1  UNL     1      -5.521  -1.138  -3.155  1.00  0.00    -0.244 F 
ENDBRANCH  19  20
ENDBRANCH  13  19
ENDBRANCH   6   8
ENDBRANCH   5   6
ENDBRANCH   3   5
ENDBRANCH   1   3
BRANCH   1  22
HETATM   22  C12 UNL     1       1.120  -2.514   0.824  1.00  0.00     0.314 C 
HETATM   23  O7  UNL     1       0.951  -3.221   1.800  1.00  0.00    -0.257 OA
BRANCH  22  24
HETATM   24  O8  UNL     1       1.904  -2.936  -0.240  1.00  0.00    -0.306 OA
BRANCH  24  25
HETATM   25  C13 UNL     1       2.617  -4.151  -0.287  1.00  0.00     0.060 C 
HETATM   26  C14 UNL     1       3.813  -4.131   0.648  1.00  0.00     0.046 C 
HETATM   27  C15 UNL     1       1.660  -5.281   0.217  1.00  0.00     0.046 C 
HETATM   28  C16 UNL     1       2.998  -4.459  -1.699  1.00  0.00     0.046 C 
ENDBRANCH  24  25
ENDBRANCH  22  24
ENDBRANCH   1  22
BRANCH   2  29
HETATM   29  O4  UNL     1       2.196   0.409  -0.090  1.00  0.00    -0.287 OA
BRANCH  29  30
HETATM   30  C8  UNL     1       3.173   1.356   0.249  1.00  0.00     0.296 C 
HETATM   31  O5  UNL     1       3.204   1.691   1.498  1.00  0.00    -0.262 OA
BRANCH  30  32
HETATM   32  C9  UNL     1       4.158   2.002  -0.603  1.00  0.00     0.310 C 
BRANCH  32  33
HETATM   33  N2  UNL     1       3.823   2.084  -1.987  1.00  0.00    -0.063 N 
ATOM     34  H23 UNL     1       3.608   1.155  -2.348  1.00  0.00     0.275 HD
ATOM     35  H22 UNL     1       2.916   2.538  -2.099  1.00  0.00     0.275 HD
ATOM     36  H21 UNL     1       4.514   2.537  -2.585  1.00  0.00     0.275 HD
ENDBRANCH  32  33
BRANCH  32  37
HETATM   37  C10 UNL     1       4.740   3.277  -0.046  1.00  0.00     0.154 C 
HETATM   38  C11 UNL     1       3.850   4.464  -0.212  1.00  0.00     0.042 C 
BRANCH  37  39
HETATM   39  O6  UNL     1       5.040   3.141   1.327  1.00  0.00    -0.393 OA
ATOM     40  H6  UNL     1       5.407   3.944   1.678  1.00  0.00     0.210 HD
ENDBRANCH  37  39
ENDBRANCH  32  37
ENDBRANCH  30  32
ENDBRANCH  29  30
ENDBRANCH   2  29
TORSDOF 17
