REMARK  14 active torsions:
REMARK  status: ('A' for Active; 'I' for Inactive)
REMARK    1  A    between atoms: C2_2  and  N1_5 
REMARK       I    between atoms: N1_5  and  C5_7 
REMARK    2  A    between atoms: C5_7  and  O2_9 
REMARK    3  A    between atoms: O2_9  and  N2_10 
REMARK    4  A    between atoms: N2_10  and  C6_11 
REMARK    5  A    between atoms: C6_11  and  C7_12 
REMARK    6  A    between atoms: C6_11  and  C17_36 
REMARK    7  A    between atoms: C7_12  and  C8_14 
REMARK    8  A    between atoms: C8_14  and  C9_17 
REMARK    9  A    between atoms: C9_17  and  C10_19 
REMARK   10  A    between atoms: C10_19  and  O5_20 
REMARK   11  A    between atoms: C10_19  and  N3_22 
REMARK   12  A    between atoms: N3_22  and  C11_24 
REMARK   13  A    between atoms: C14_27  and  N4_28 
REMARK   14  A    between atoms: C16_32  and  N5_33 
ROOT
HETATM    1  C8  UNL     1       1.275  -0.723  -2.588  1.00  0.00     0.368 C 
HETATM    2  F1  UNL     1       1.860  -0.401  -3.795  1.00  0.00    -0.188 F 
HETATM    3  F2  UNL     1       0.908  -2.053  -2.683  1.00  0.00    -0.188 F 
ENDROOT
BRANCH   1   4
HETATM    4  C7  UNL     1       0.119   0.162  -2.362  1.00  0.00     0.234 C 
HETATM    5  O3  UNL     1      -0.110   1.031  -3.220  1.00  0.00    -0.288 OA
BRANCH   4   6
HETATM    6  C6  UNL     1      -0.779   0.078  -1.181  1.00  0.00     0.240 C 
BRANCH   6   7
HETATM    7  N2  UNL     1      -1.830   1.095  -1.252  1.00  0.00    -0.070 NA
BRANCH   7   8
HETATM    8  O2  UNL     1      -2.591   0.898  -0.108  1.00  0.00    -0.188 OA
BRANCH   8   9
HETATM    9  C5  UNL     1      -3.941   1.078  -0.051  1.00  0.00     0.379 C 
HETATM   10  N1  UNL     1      -4.720   0.871   1.137  1.00  0.00    -0.328 N 
ATOM     11  H1  UNL     1      -4.237   0.573   1.985  1.00  0.00     0.165 HD
HETATM   12  O1  UNL     1      -4.545   1.446  -1.087  1.00  0.00    -0.237 OA
BRANCH  10  13
HETATM   13  C2  UNL     1      -6.129   1.059   1.196  1.00  0.00     0.024 C 
HETATM   14  C1  UNL     1      -6.550   2.472   0.864  1.00  0.00     0.037 C 
HETATM   15  C3  UNL     1      -6.780   0.099   0.219  1.00  0.00     0.037 C 
HETATM   16  C4  UNL     1      -6.621   0.735   2.582  1.00  0.00     0.037 C 
ENDBRANCH  10  13
ENDBRANCH   8   9
ENDBRANCH   7   8
ENDBRANCH   6   7
BRANCH   6  17
HETATM   17  C17 UNL     1      -1.373  -1.285  -1.046  1.00  0.00     0.081 A 
HETATM   18  C18 UNL     1      -1.007  -2.309  -0.188  1.00  0.00     0.037 A 
HETATM   19  C19 UNL     1      -1.874  -3.359  -0.465  1.00  0.00     0.027 A 
HETATM   20  C20 UNL     1      -2.707  -2.940  -1.452  1.00  0.00     0.142 A 
HETATM   21  O10 UNL     1      -2.393  -1.731  -1.770  1.00  0.00    -0.325 OA
ENDBRANCH   6  17
ENDBRANCH   4   6
ENDBRANCH   1   4
BRANCH   1  22
HETATM   22  C9  UNL     1       2.330  -0.560  -1.525  1.00  0.00     0.253 C 
HETATM   23  O4  UNL     1       2.161   0.260  -0.655  1.00  0.00    -0.286 OA
BRANCH  22  24
HETATM   24  C10 UNL     1       3.542  -1.407  -1.582  1.00  0.00     0.296 C 
BRANCH  24  25
HETATM   25  O5  UNL     1       3.484  -2.203  -2.742  1.00  0.00    -0.369 OA
ATOM     26  H5  UNL     1       4.262  -2.747  -2.779  1.00  0.00     0.212 HD
ENDBRANCH  24  25
BRANCH  24  27
HETATM   27  N3  UNL     1       4.784  -0.662  -1.535  1.00  0.00    -0.356 N 
ATOM     28  H3  UNL     1       5.306  -0.525  -2.401  1.00  0.00     0.162 HD
BRANCH  27  29
HETATM   29  C11 UNL     1       5.304  -0.115  -0.334  1.00  0.00     0.063 A 
HETATM   30  C12 UNL     1       4.726  -0.487   0.888  1.00  0.00     0.034 A 
HETATM   31  C13 UNL     1       5.211   0.011   2.057  1.00  0.00     0.038 A 
HETATM   32  C14 UNL     1       6.275   0.884   2.071  1.00  0.00     0.105 A 
HETATM   33  C15 UNL     1       6.842   1.247   0.885  1.00  0.00     0.074 A 
HETATM   34  C16 UNL     1       6.371   0.756  -0.356  1.00  0.00     0.131 A 
BRANCH  32  35
HETATM   35  N4  UNL     1       6.763   1.392   3.329  1.00  0.00    -0.116 N 
HETATM   36  O6  UNL     1       6.238   1.047   4.385  1.00  0.00    -0.532 OA
HETATM   37  O7  UNL     1       7.821   2.260   3.276  1.00  0.00    -0.532 OA
ENDBRANCH  32  35
BRANCH  34  38
HETATM   38  N5  UNL     1       7.025   1.214  -1.520  1.00  0.00    -0.113 N 
HETATM   39  O8  UNL     1       7.521   2.386  -1.448  1.00  0.00    -0.532 OA
HETATM   40  O9  UNL     1       7.188   0.580  -2.691  1.00  0.00    -0.532 OA
ENDBRANCH  34  38
ENDBRANCH  27  29
ENDBRANCH  24  27
ENDBRANCH  22  24
ENDBRANCH   1  22
TORSDOF 14
