REMARK  3 active torsions:
REMARK  status: ('A' for Active; 'I' for Inactive)
REMARK    1  A    between atoms: C2_2  and  N1_3 
REMARK       I    between atoms: N1_3  and  C3_5 
REMARK    2  A    between atoms: C3_5  and  C4_7 
REMARK    3  A    between atoms: C6_9  and  N2_10 
REMARK       I    between atoms: N2_10  and  C7_12 
REMARK       I    between atoms: C7_12  and  N3_14 
REMARK       I    between atoms: N5_26  and  C16_28 
ROOT
HETATM    1  C4  UNL     1      -1.047   0.580   0.697  1.00  0.00     0.131 C 
HETATM    2  C5  UNL     1       0.091   1.453   0.405  1.00  0.00     0.058 C 
HETATM    3  C6  UNL     1       1.371   0.898  -0.092  1.00  0.00     0.081 A 
HETATM    4  C9  UNL     1       1.490   0.688  -1.519  1.00  0.00    -0.027 A 
HETATM    5  C10 UNL     1       0.962  -0.220  -2.339  1.00  0.00     0.037 C 
HETATM    6  C11 UNL     1       0.042  -1.340  -1.996  1.00  0.00     0.044 A 
HETATM    7  N4  UNL     1      -0.087  -2.351  -2.872  1.00  0.00    -0.365 N 
ATOM      8  H4  UNL     1       0.386  -2.442  -3.771  1.00  0.00     0.165 HD
HETATM    9  C12 UNL     1      -0.963  -3.220  -2.332  1.00  0.00     0.089 A 
HETATM   10  C13 UNL     1      -1.406  -2.784  -1.110  1.00  0.00     0.032 A 
HETATM   11  C14 UNL     1      -0.765  -1.586  -0.898  1.00  0.00     0.015 A 
HETATM   12  C15 UNL     1      -1.012  -0.832   0.328  1.00  0.00     0.037 C 
HETATM   13  N5  UNL     1      -1.266  -1.709   1.268  1.00  0.00    -0.329 N 
ATOM     14  H5  UNL     1      -1.240  -2.695   1.007  1.00  0.00     0.168 HD
HETATM   15  C16 UNL     1      -1.569  -1.406   2.598  1.00  0.00     0.217 C 
HETATM   16  C17 UNL     1      -0.444  -1.298   3.589  1.00  0.00     0.117 C 
HETATM   17  O3  UNL     1      -2.720  -1.210   3.065  1.00  0.00    -0.274 OA
HETATM   18  C18 UNL     1       2.237   1.840  -0.947  1.00  0.00     0.146 A 
HETATM   19 CL1  UNL     1       1.571   3.465  -1.261  1.00  0.00    -0.117 Cl
ENDROOT
BRANCH   3  20
HETATM   20  N2  UNL     1       2.143   0.120   0.845  1.00  0.00    -0.328 N 
HETATM   21  C7  UNL     1       3.317  -0.528   0.413  1.00  0.00     0.316 C 
HETATM   22  O2  UNL     1       3.692  -0.458  -0.769  1.00  0.00    -0.247 OA
HETATM   23  N3  UNL     1       4.116  -1.290   1.324  1.00  0.00    -0.347 N 
HETATM   24  C8  UNL     1       5.324  -1.964   0.904  1.00  0.00     0.151 C 
ATOM     25  H3  UNL     1       3.824  -1.360   2.299  1.00  0.00     0.163 HD
ATOM     26  H2  UNL     1       1.841   0.039   1.816  1.00  0.00     0.165 HD
ENDBRANCH   3  20
BRANCH   1  27
HETATM   27  C3  UNL     1      -2.293   1.267   0.229  1.00  0.00     0.227 C 
HETATM   28  N1  UNL     1      -2.530   1.654  -1.086  1.00  0.00    -0.361 N 
ATOM     29  H1  UNL     1      -1.821   1.467  -1.795  1.00  0.00     0.162 HD
HETATM   30  O1  UNL     1      -3.178   1.505   1.086  1.00  0.00    -0.273 OA
BRANCH  28  31
HETATM   31  C2  UNL     1      -3.749   2.311  -1.472  1.00  0.00     0.118 C 
HETATM   32  C1  UNL     1      -3.912   3.617  -0.711  1.00  0.00     0.026 C 
ENDBRANCH  28  31
ENDBRANCH   1  27
TORSDOF 3
