REMARK  2 active torsions:
REMARK  status: ('A' for Active; 'I' for Inactive)
REMARK    1  A    between atoms: C1_2  and  C2_4 
REMARK    2  A    between atoms: C9_11  and  O3_12 
ROOT
HETATM    1  C2  UNL     1       2.778   0.563   0.270  1.00  0.00     0.185 C 
HETATM    2  C3  UNL     1       3.537  -0.760   0.293  1.00  0.00     0.036 C 
HETATM    3  C4  UNL     1       2.898  -1.860  -0.576  1.00  0.00     0.002 C 
HETATM    4  C5  UNL     1       1.449  -1.725  -0.231  1.00  0.00     0.000 C 
HETATM    5  C6  UNL     1       0.415  -2.628  -0.714  1.00  0.00     0.000 C 
HETATM    6  C7  UNL     1      -0.907  -1.829  -0.722  1.00  0.00     0.007 C 
HETATM    7  C8  UNL     1      -1.056  -0.852   0.387  1.00  0.00     0.021 C 
HETATM    8  C9  UNL     1      -2.195  -1.416   1.261  1.00  0.00     0.122 C 
HETATM    9  C10 UNL     1      -3.493  -1.510   0.541  1.00  0.00     0.032 C 
HETATM   10  C11 UNL     1      -3.736  -0.187  -0.142  1.00  0.00     0.003 C 
HETATM   11  C12 UNL     1      -2.788   0.888   0.397  1.00  0.00     0.008 C 
HETATM   12  C13 UNL     1      -1.354   0.570  -0.049  1.00  0.00     0.031 C 
HETATM   13  C14 UNL     1      -0.396   1.611   0.371  1.00  0.00     0.135 C 
HETATM   14  C15 UNL     1      -0.950   2.976   0.659  1.00  0.00     0.175 C 
HETATM   15  S1  UNL     1      -0.711   3.579  -0.956  1.00  0.00     0.111 S 
HETATM   16  O4  UNL     1      -1.821   3.543  -1.916  1.00  0.00    -0.234 OA
HETATM   17 CL1  UNL     1       0.430   5.291  -1.093  1.00  0.00    -0.003 Cl
HETATM   18  N1  UNL     1       0.257   2.199  -0.809  1.00  0.00    -0.319 N 
ATOM     19  H1  UNL     1       1.048   1.875  -1.366  1.00  0.00     0.171 HD
HETATM   20  C16 UNL     1       0.567   1.250   1.444  1.00  0.00     0.248 C 
HETATM   21  O5  UNL     1       0.085   1.475   2.605  1.00  0.00    -0.271 OA
HETATM   22  N2  UNL     1       1.850   0.730   1.345  1.00  0.00    -0.344 N 
ATOM     23  H2  UNL     1       2.211   0.392   2.237  1.00  0.00     0.163 HD
ENDROOT
BRANCH   8  24
HETATM   24  O3  UNL     1      -1.786  -2.740   1.547  1.00  0.00    -0.395 OA
ATOM     25  H3  UNL     1      -2.487  -3.087   2.085  1.00  0.00     0.210 HD
ENDBRANCH   8  24
BRANCH   1  26
HETATM   26  C1  UNL     1       3.843   1.578   0.498  1.00  0.00     0.196 C 
HETATM   27  O1  UNL     1       3.798   2.345   1.469  1.00  0.00    -0.646 OA
HETATM   28  O2  UNL     1       4.895   1.663  -0.387  1.00  0.00    -0.646 OA
ENDBRANCH   1  26
TORSDOF 2
