REMARK  6 active torsions:
REMARK  status: ('A' for Active; 'I' for Inactive)
REMARK       I    between atoms: N1_2  and  C2_4 
REMARK       I    between atoms: C2_4  and  N2_6 
REMARK    1  A    between atoms: C3_7  and  C4_8 
REMARK    2  A    between atoms: C4_8  and  O3_10 
REMARK    3  A    between atoms: C8_18  and  N5_19 
REMARK    4  A    between atoms: N5_19  and  C9_21 
REMARK    5  A    between atoms: C9_21  and  N6_23 
REMARK    6  A    between atoms: N6_23  and  C10_25 
ROOT
HETATM    1  C1  UNL     1      -5.042  -3.139   1.216  1.00  0.00     0.151 C 
HETATM    2  N1  UNL     1      -4.105  -2.383   0.415  1.00  0.00    -0.347 N 
ATOM      3  H1  UNL     1      -4.237  -2.370  -0.596  1.00  0.00     0.163 HD
HETATM    4  C2  UNL     1      -3.019  -1.662   0.954  1.00  0.00     0.319 C 
HETATM    5  O1  UNL     1      -2.910  -1.718   2.231  1.00  0.00    -0.247 OA
HETATM    6  N2  UNL     1      -2.096  -0.918   0.171  1.00  0.00    -0.301 N 
HETATM    7  C3  UNL     1      -1.001  -0.181   0.717  1.00  0.00     0.229 A 
HETATM    8  C6  UNL     1      -0.328   0.398  -0.453  1.00  0.00     0.046 A 
HETATM    9  C7  UNL     1      -0.980   0.041  -1.603  1.00  0.00     0.066 A 
HETATM   10  N3  UNL     1      -0.295   0.617  -2.624  1.00  0.00    -0.300 N 
ATOM     11  H3  UNL     1      -0.532   0.538  -3.613  1.00  0.00     0.186 HD
HETATM   12  N4  UNL     1       0.731   1.298  -2.132  1.00  0.00    -0.285 N 
ATOM     13  H4  UNL     1       1.406   1.825  -2.685  1.00  0.00     0.188 HD
HETATM   14  C8  UNL     1       0.745   1.187  -0.795  1.00  0.00     0.133 A 
HETATM   15  C14 UNL     1      -2.118  -0.798  -1.241  1.00  0.00     0.075 A 
HETATM   16  C15 UNL     1      -1.971  -2.131  -1.955  1.00  0.00     0.045 C 
HETATM   17  C16 UNL     1      -3.374  -0.136  -1.771  1.00  0.00     0.045 C 
ENDROOT
BRANCH  14  18
HETATM   18  N5  UNL     1       1.590   1.710   0.007  1.00  0.00    -0.318 N 
ATOM     19  H5  UNL     1       1.486   1.544   1.008  1.00  0.00     0.170 HD
BRANCH  18  20
HETATM   20  C9  UNL     1       2.674   2.518  -0.446  1.00  0.00     0.173 C 
HETATM   21  S1  UNL     1       2.273   3.893  -1.216  1.00  0.00    -0.041 SA
BRANCH  20  22
HETATM   22  N6  UNL     1       4.023   2.178  -0.253  1.00  0.00    -0.362 N 
ATOM     23  H6  UNL     1       4.743   2.809  -0.606  1.00  0.00     0.162 HD
BRANCH  22  24
HETATM   24  C10 UNL     1       4.435   0.953   0.435  1.00  0.00     0.083 C 
HETATM   25  C11 UNL     1       3.958  -0.311  -0.242  1.00  0.00     0.025 C 
HETATM   26  C12 UNL     1       5.401  -0.814  -0.290  1.00  0.00     0.004 C 
HETATM   27  C13 UNL     1       5.849   0.550   0.148  1.00  0.00     0.025 C 
ENDBRANCH  22  24
ENDBRANCH  20  22
ENDBRANCH  18  20
ENDBRANCH  14  18
BRANCH   7  28
HETATM   28  C4  UNL     1      -1.405   0.906   1.622  1.00  0.00     0.286 C 
HETATM   29  O2  UNL     1      -2.612   1.121   1.837  1.00  0.00    -0.263 OA
BRANCH  28  30
HETATM   30  O3  UNL     1      -0.447   1.684   2.230  1.00  0.00    -0.325 OA
HETATM   31  C5  UNL     1      -0.834   2.731   3.102  1.00  0.00     0.213 C 
ENDBRANCH  28  30
ENDBRANCH   7  28
TORSDOF 6
