REMARK  7 active torsions:
REMARK  status: ('A' for Active; 'I' for Inactive)
REMARK    1  A    between atoms: N1_2  and  C2_5 
REMARK    2  A    between atoms: C2_5  and  C4_7 
REMARK       I    between atoms: C4_7  and  N2_9 
REMARK    3  A    between atoms: N2_9  and  C5_11 
REMARK    4  A    between atoms: C5_11  and  C6_12 
REMARK    5  A    between atoms: C5_11  and  C15_25 
REMARK       I    between atoms: C6_12  and  N3_14 
REMARK    6  A    between atoms: C9_17  and  C10_18 
REMARK    7  A    between atoms: C13_21  and  C14_22 
ROOT
HETATM    1  C5  UNL     1       1.033   0.067  -0.170  1.00  0.00     0.181 C 
ENDROOT
BRANCH   1   2
HETATM    2  N2  UNL     1       2.051  -0.921   0.268  1.00  0.00    -0.346 N 
HETATM    3  C4  UNL     1       2.806  -1.654  -0.669  1.00  0.00     0.248 C 
HETATM    4  O1  UNL     1       2.596  -1.452  -1.883  1.00  0.00    -0.271 OA
ATOM      5  H2  UNL     1       2.207  -1.072   1.265  1.00  0.00     0.163 HD
BRANCH   3   6
HETATM    6  C2  UNL     1       3.830  -2.645  -0.268  1.00  0.00     0.272 C 
HETATM    7  C3  UNL     1       4.816  -1.929   0.623  1.00  0.00     0.050 C 
BRANCH   6   8
HETATM    8  N1  UNL     1       4.423  -3.215  -1.437  1.00  0.00    -0.067 N 
HETATM    9  C1  UNL     1       5.399  -4.228  -1.162  1.00  0.00     0.267 C 
ATOM     10  H12 UNL     1       4.821  -2.485  -2.028  1.00  0.00     0.277 HD
ATOM     11  H11 UNL     1       3.703  -3.573  -2.065  1.00  0.00     0.277 HD
ENDBRANCH   6   8
ENDBRANCH   3   6
ENDBRANCH   1   2
BRANCH   1  12
HETATM   12  C6  UNL     1      -0.249  -0.266   0.491  1.00  0.00     0.243 C 
HETATM   13  O2  UNL     1      -0.110  -0.881   1.602  1.00  0.00    -0.271 OA
HETATM   14  N3  UNL     1      -1.541   0.020   0.018  1.00  0.00    -0.337 N 
HETATM   15  C7  UNL     1      -1.885   0.673  -1.205  1.00  0.00     0.127 C 
HETATM   16  C13 UNL     1      -2.839  -0.282   0.650  1.00  0.00     0.180 C 
HETATM   17  C8  UNL     1      -3.137  -0.003  -1.655  1.00  0.00     0.027 C 
HETATM   18  C9  UNL     1      -3.620  -0.864  -0.477  1.00  0.00     0.022 C 
BRANCH  18  19
HETATM   19  C10 UNL     1      -5.086  -0.800  -0.458  1.00  0.00    -0.016 C 
HETATM   20  C11 UNL     1      -5.772  -1.595   0.617  1.00  0.00     0.010 C 
HETATM   21  C12 UNL     1      -5.581  -1.388  -1.785  1.00  0.00     0.010 C 
ENDBRANCH  18  19
BRANCH  16  22
HETATM   22  C14 UNL     1      -3.390   0.841   1.366  1.00  0.00     0.254 C 
HETATM   23  N4  UNL     1      -2.802   2.158   1.424  1.00  0.00    -0.060 NA
HETATM   24  O3  UNL     1      -4.462   0.775   2.022  1.00  0.00    -0.275 OA
ENDBRANCH  16  22
ENDBRANCH   1  12
BRANCH   1  25
HETATM   25  C15 UNL     1       1.590   1.416   0.218  1.00  0.00     0.018 C 
HETATM   26  C16 UNL     1       1.833   1.565   1.702  1.00  0.00     0.007 C 
HETATM   27  C17 UNL     1       2.136   2.989   2.079  1.00  0.00     0.000 C 
HETATM   28  C18 UNL     1       2.645   3.803   0.916  1.00  0.00     0.000 C 
HETATM   29  C19 UNL     1       1.771   3.807  -0.287  1.00  0.00     0.000 C 
HETATM   30  C20 UNL     1       0.887   2.570  -0.382  1.00  0.00     0.007 C 
ENDBRANCH   1  25
TORSDOF 7
