REMARK  8 active torsions:
REMARK  status: ('A' for Active; 'I' for Inactive)
REMARK    1  A    between atoms: N1_2  and  C3_4 
REMARK    2  A    between atoms: C3_4  and  C4_5 
REMARK    3  A    between atoms: C4_5  and  N2_6 
REMARK    4  A    between atoms: C7_9  and  C8_10 
REMARK    5  A    between atoms: C8_10  and  N3_11 
REMARK    6  A    between atoms: N3_11  and  C9_13 
REMARK    7  A    between atoms: C13_20  and  N6_21 
REMARK    8  A    between atoms: C14_23  and  C15_24 
ROOT
HETATM    1  C9  UNL     1       1.337  -1.718   0.742  1.00  0.00     0.679 A 
HETATM    2  N4  UNL     1       0.876  -1.977  -0.489  1.00  0.00    -0.200 N 
ATOM      3  H4  UNL     1      -0.107  -2.227  -0.600  1.00  0.00     0.183 HD
HETATM    4  C10 UNL     1       1.652  -1.922  -1.582  1.00  0.00     0.132 A 
HETATM    5  C11 UNL     1       2.999  -1.573  -1.379  1.00  0.00     0.105 A 
HETATM    6  C12 UNL     1       3.792  -1.517  -2.566  1.00  0.00     0.104 C 
HETATM    7  N5  UNL     1       4.411  -1.471  -3.555  1.00  0.00    -0.191 NA
HETATM    8  C13 UNL     1       3.514  -1.301  -0.143  1.00  0.00     0.142 A 
HETATM    9  N8  UNL     1       2.619  -1.388   0.922  1.00  0.00    -0.175 N 
ATOM     10  H8  UNL     1       2.953  -1.194   1.866  1.00  0.00     0.186 HD
ENDROOT
BRANCH   8  11
HETATM   11  N6  UNL     1       4.680  -0.996   0.086  1.00  0.00    -0.354 N 
HETATM   12  C14 UNL     1       5.877  -0.783  -0.510  1.00  0.00     0.069 C 
ATOM     13  H6  UNL     1       4.786  -0.850   1.090  1.00  0.00     0.166 HD
BRANCH  12  14
HETATM   14  C15 UNL     1       6.128   0.654  -0.963  1.00  0.00     0.051 C 
HETATM   15  C16 UNL     1       7.488   0.687  -1.597  1.00  0.00     0.039 C 
HETATM   16  C17 UNL     1       8.394   0.669  -0.386  1.00  0.00     0.233 C 
HETATM   17  N7  UNL     1       7.685   1.264   0.713  1.00  0.00    -0.074 N 
HETATM   18  C18 UNL     1       6.304   1.454   0.313  1.00  0.00     0.242 C 
ATOM     19  H72 UNL     1       7.774   0.726   1.575  1.00  0.00     0.277 HD
ATOM     20  H71 UNL     1       8.121   2.126   1.042  1.00  0.00     0.277 HD
ENDBRANCH  12  14
ENDBRANCH   8  11
BRANCH   1  21
HETATM   21  N3  UNL     1       0.564  -1.778   1.763  1.00  0.00    -0.226 N 
ATOM     22  H3  UNL     1       1.009  -1.563   2.655  1.00  0.00     0.177 HD
BRANCH  21  23
HETATM   23  C8  UNL     1      -0.810  -2.096   1.840  1.00  0.00     0.142 C 
BRANCH  23  24
HETATM   24  C7  UNL     1      -1.719  -0.904   2.108  1.00  0.00     0.007 C 
HETATM   25  C6  UNL     1      -1.545   0.086   0.991  1.00  0.00     0.036 C 
HETATM   26  C5  UNL     1      -2.551   1.191   1.213  1.00  0.00     0.273 C 
HETATM   27  N2  UNL     1      -3.904   0.745   1.095  1.00  0.00     0.090 N 
HETATM   28  C20 UNL     1      -4.116  -0.641   1.337  1.00  0.00     0.273 C 
HETATM   29  C19 UNL     1      -3.127  -1.360   2.159  1.00  0.00     0.036 C 
BRANCH  27  30
HETATM   30  C4  UNL     1      -4.563   1.231  -0.098  1.00  0.00     0.302 C 
BRANCH  30  31
HETATM   31  C3  UNL     1      -5.963   0.726  -0.111  1.00  0.00     0.301 C 
BRANCH  31  32
HETATM   32  N1  UNL     1      -6.725   1.145  -1.262  1.00  0.00     0.081 N 
HETATM   33  C1  UNL     1      -7.011   2.544  -1.305  1.00  0.00     0.309 C 
HETATM   34  C2  UNL     1      -7.952   0.379  -1.380  1.00  0.00     0.309 C 
ENDBRANCH  31  32
ENDBRANCH  30  31
ENDBRANCH  27  30
ENDBRANCH  23  24
ENDBRANCH  21  23
ENDBRANCH   1  21
TORSDOF 8
