REMARK  8 active torsions:
REMARK  status: ('A' for Active; 'I' for Inactive)
REMARK       I    between atoms: N1_2  and  C2_4 
REMARK    1  A    between atoms: C2_4  and  C3_6 
REMARK    2  A    between atoms: C3_6  and  N2_7 
REMARK    3  A    between atoms: C3_6  and  C12_22 
REMARK       I    between atoms: N2_7  and  C4_9 
REMARK    4  A    between atoms: C4_9  and  C5_11 
REMARK    5  A    between atoms: C5_11  and  N3_12 
REMARK    6  A    between atoms: C5_11  and  C9_19 
REMARK       I    between atoms: N3_12  and  C6_14 
REMARK    7  A    between atoms: C6_14  and  C7_16 
REMARK    8  A    between atoms: C7_16  and  S1_17 
ROOT
HETATM    1  N2  UNL     1      -0.135   0.206   0.492  1.00  0.00    -0.346 N 
ATOM      2  H2  UNL     1      -0.156  -0.243   1.408  1.00  0.00     0.163 HD
HETATM    3  C4  UNL     1       1.034   0.107  -0.291  1.00  0.00     0.241 C 
HETATM    4  O2  UNL     1       1.002   0.694  -1.433  1.00  0.00    -0.271 OA
ENDROOT
BRANCH   1   5
HETATM    5  C3  UNL     1      -1.287   0.913   0.045  1.00  0.00     0.180 C 
BRANCH   5   6
HETATM    6  C2  UNL     1      -1.565   2.027   1.022  1.00  0.00     0.240 C 
HETATM    7  N1  UNL     1      -2.654   2.889   0.814  1.00  0.00    -0.364 N 
HETATM    8  C1  UNL     1      -2.924   3.951   1.740  1.00  0.00     0.149 C 
ATOM      9  H1  UNL     1      -3.256   2.759   0.001  1.00  0.00     0.161 HD
HETATM   10  O1  UNL     1      -0.834   2.198   2.026  1.00  0.00    -0.271 OA
ENDBRANCH   5   6
BRANCH   5  11
HETATM   11  C12 UNL     1      -2.532   0.094  -0.019  1.00  0.00     0.018 C 
HETATM   12  C13 UNL     1      -2.474  -1.082  -0.944  1.00  0.00     0.007 C 
HETATM   13  C14 UNL     1      -3.881  -1.553  -1.178  1.00  0.00     0.000 C 
HETATM   14  C15 UNL     1      -4.696  -1.759   0.038  1.00  0.00     0.000 C 
HETATM   15  C16 UNL     1      -4.462  -0.787   1.151  1.00  0.00     0.000 C 
HETATM   16  C17 UNL     1      -3.009  -0.403   1.316  1.00  0.00     0.007 C 
ENDBRANCH   5  11
ENDBRANCH   1   5
BRANCH   3  17
HETATM   17  C5  UNL     1       2.273  -0.599   0.081  1.00  0.00     0.180 C 
BRANCH  17  18
HETATM   18  N3  UNL     1       3.294  -0.489  -0.932  1.00  0.00    -0.347 N 
HETATM   19  C6  UNL     1       4.540   0.145  -0.723  1.00  0.00     0.227 C 
HETATM   20  O3  UNL     1       4.748   0.637   0.425  1.00  0.00    -0.273 OA
ATOM     21  H3  UNL     1       3.106  -0.891  -1.850  1.00  0.00     0.163 HD
BRANCH  19  22
HETATM   22  C7  UNL     1       5.590   0.269  -1.736  1.00  0.00     0.176 C 
BRANCH  22  23
HETATM   23  S1  UNL     1       5.427   1.777  -2.727  1.00  0.00    -0.164 SA
HETATM   24  C8  UNL     1       5.692   3.271  -1.749  1.00  0.00     0.090 C 
ENDBRANCH  22  23
ENDBRANCH  19  22
ENDBRANCH  17  18
BRANCH  17  25
HETATM   25  C9  UNL     1       2.108  -2.051   0.399  1.00  0.00     0.009 C 
HETATM   26  C10 UNL     1       1.543  -2.862  -0.747  1.00  0.00     0.012 C 
HETATM   27  C11 UNL     1       1.431  -2.358   1.690  1.00  0.00     0.012 C 
ENDBRANCH  17  25
ENDBRANCH   3  17
TORSDOF 8
