REMARK  9 active torsions:
REMARK  status: ('A' for Active; 'I' for Inactive)
REMARK    1  A    between atoms: C2_2  and  O1_3 
REMARK    2  A    between atoms: O1_3  and  C3_4 
REMARK    3  A    between atoms: C3_4  and  C4_6 
REMARK    4  A    between atoms: C4_6  and  N1_7 
REMARK       I    between atoms: N1_7  and  C5_9 
REMARK    5  A    between atoms: C5_9  and  C6_11 
REMARK    6  A    between atoms: C6_11  and  C7_12 
REMARK    7  A    between atoms: C6_11  and  N2_16 
REMARK    8  A    between atoms: C7_12  and  C8_13 
REMARK       I    between atoms: N2_16  and  C11_18 
REMARK       I    between atoms: C11_18  and  N3_20 
REMARK    9  A    between atoms: N3_20  and  C12_22 
ROOT
HETATM    1  N1  UNL     1       1.280  -1.077   0.657  1.00  0.00    -0.339 N 
ATOM      2  H1  UNL     1       1.168  -1.710   1.449  1.00  0.00     0.164 HD
HETATM    3  C5  UNL     1       0.111  -0.446   0.185  1.00  0.00     0.241 C 
HETATM    4  O3  UNL     1       0.224   0.330  -0.792  1.00  0.00    -0.271 OA
ENDROOT
BRANCH   3   5
HETATM    5  C6  UNL     1      -1.244  -0.626   0.757  1.00  0.00     0.178 C 
BRANCH   5   6
HETATM    6  C7  UNL     1      -1.651  -2.016   1.019  1.00  0.00     0.038 C 
BRANCH   6   7
HETATM    7  C8  UNL     1      -1.729  -3.001  -0.063  1.00  0.00    -0.020 C 
HETATM    8  C9  UNL     1      -2.704  -2.662  -1.184  1.00  0.00     0.009 C 
HETATM    9  C10 UNL     1      -0.458  -3.522  -0.638  1.00  0.00     0.009 C 
ENDBRANCH   6   7
ENDBRANCH   5   6
BRANCH   5  10
HETATM   10  N2  UNL     1      -2.227   0.181   0.073  1.00  0.00    -0.330 N 
HETATM   11  C11 UNL     1      -2.925   1.268   0.655  1.00  0.00     0.317 C 
HETATM   12  O4  UNL     1      -2.678   1.556   1.847  1.00  0.00    -0.247 OA
HETATM   13  N3  UNL     1      -3.881   2.042  -0.036  1.00  0.00    -0.339 N 
ATOM     14  H3  UNL     1      -4.095   1.822  -1.009  1.00  0.00     0.164 HD
ATOM     15  H2  UNL     1      -2.434  -0.048  -0.899  1.00  0.00     0.165 HD
BRANCH  13  16
HETATM   16  C12 UNL     1      -4.556   3.130   0.604  1.00  0.00     0.086 A 
HETATM   17  C13 UNL     1      -5.866   3.591   0.132  1.00  0.00     0.027 A 
HETATM   18  C14 UNL     1      -4.636   4.411  -0.210  1.00  0.00     0.027 A 
ENDBRANCH  13  16
ENDBRANCH   5  10
ENDBRANCH   3   5
BRANCH   1  19
HETATM   19  C4  UNL     1       2.595  -0.925   0.147  1.00  0.00     0.144 C 
HETATM   20  C15 UNL     1       3.606  -1.798   0.907  1.00  0.00     0.070 C 
HETATM   21  C16 UNL     1       4.676  -1.951  -0.139  1.00  0.00     0.170 C 
HETATM   22  O5  UNL     1       4.183  -1.494  -1.337  1.00  0.00    -0.388 OA
HETATM   23  C17 UNL     1       2.794  -1.473  -1.251  1.00  0.00     0.209 C 
BRANCH  19  24
HETATM   24  C3  UNL     1       3.069   0.452   0.279  1.00  0.00     0.289 C 
HETATM   25  O2  UNL     1       2.338   1.314   0.822  1.00  0.00    -0.262 OA
BRANCH  24  26
HETATM   26  O1  UNL     1       4.308   0.900  -0.163  1.00  0.00    -0.320 OA
BRANCH  26  27
HETATM   27  C2  UNL     1       4.772   2.210  -0.043  1.00  0.00     0.174 C 
HETATM   28  C1  UNL     1       3.929   3.231  -0.734  1.00  0.00     0.034 C 
ENDBRANCH  26  27
ENDBRANCH  24  26
ENDBRANCH  19  24
ENDBRANCH   1  19
TORSDOF 9
