REMARK  5 active torsions:
REMARK  status: ('A' for Active; 'I' for Inactive)
REMARK    1  A    between atoms: C7_9  and  C8_10 
REMARK    2  A    between atoms: C8_10  and  S1_11 
REMARK    3  A    between atoms: S1_11  and  C9_12 
REMARK    4  A    between atoms: C9_12  and  C10_13 
REMARK    5  A    between atoms: C10_13  and  N2_14 
REMARK       I    between atoms: C11_16  and  N4_18 
ROOT
HETATM    1  C8  UNL     1      -1.089  -1.887  -0.852  1.00  0.00     0.148 A 
HETATM    2  C13 UNL     1      -1.859  -2.732  -1.711  1.00  0.00     0.221 A 
HETATM    3  O2  UNL     1      -0.523  -2.270  -2.134  1.00  0.00    -0.361 OA
ENDROOT
BRANCH   1   4
HETATM    4  C7  UNL     1      -1.359  -0.434  -0.683  1.00  0.00     0.134 C 
HETATM    5  N1  UNL     1      -1.888  -0.204   0.645  1.00  0.00    -0.188 NA
HETATM    6  O1  UNL     1      -2.165   1.063   0.933  1.00  0.00    -0.298 OA
HETATM    7  C3  UNL     1      -3.064  -1.019   0.827  1.00  0.00     0.121 C 
HETATM    8  C2  UNL     1      -2.966   1.679   0.011  1.00  0.00     0.145 C 
HETATM    9  C1  UNL     1      -4.117   2.441   0.626  1.00  0.00     0.042 C 
HETATM   10  C5  UNL     1      -3.532   0.639  -0.922  1.00  0.00     0.019 C 
HETATM   11  C4  UNL     1      -4.117  -0.492  -0.118  1.00  0.00     0.024 C 
HETATM   12  C6  UNL     1      -2.345   0.065  -1.701  1.00  0.00     0.033 C 
ENDBRANCH   1   4
BRANCH   1  13
HETATM   13  S1  UNL     1      -0.212  -2.732   0.495  1.00  0.00    -0.126 SA
BRANCH  13  14
HETATM   14  C9  UNL     1       1.478  -2.250   0.735  1.00  0.00     0.097 C 
BRANCH  14  15
HETATM   15  C10 UNL     1       1.714  -0.873   1.286  1.00  0.00     0.132 C 
BRANCH  15  16
HETATM   16  N2  UNL     1       3.183  -0.739   1.392  1.00  0.00    -0.364 N 
HETATM   17  C11 UNL     1       3.824  -0.092   0.461  1.00  0.00     0.190 C 
HETATM   18  N3  UNL     1       3.090   0.471  -0.636  1.00  0.00    -0.063 NA
HETATM   19  N4  UNL     1       5.218   0.085   0.473  1.00  0.00    -0.307 N 
HETATM   20  C12 UNL     1       5.828   1.206   0.540  1.00  0.00     0.203 C 
ATOM     21  H4  UNL     1       5.794  -0.755   0.424  1.00  0.00     0.170 HD
HETATM   22  N5  UNL     1       7.241   1.283   0.546  1.00  0.00    -0.066 NA
HETATM   23  N6  UNL     1       5.079   2.400   0.609  1.00  0.00    -0.066 NA
ATOM     24  H2  UNL     1       3.686  -1.146   2.181  1.00  0.00     0.162 HD
ENDBRANCH  15  16
ENDBRANCH  14  15
ENDBRANCH  13  14
ENDBRANCH   1  13
TORSDOF 5
