REMARK  5 active torsions:
REMARK  status: ('A' for Active; 'I' for Inactive)
REMARK    1  A    between atoms: C2_2  and  C3_3 
REMARK    2  A    between atoms: C3_3  and  N1_4 
REMARK    3  A    between atoms: C6_7  and  N2_8 
REMARK       I    between atoms: N2_8  and  C7_10 
REMARK       I    between atoms: C7_10  and  N3_12 
REMARK    4  A    between atoms: N3_12  and  C8_14 
REMARK    5  A    between atoms: C14_24  and  O2_25 
ROOT
HETATM    1  N2  UNL     1       1.265  -0.495  -0.248  1.00  0.00    -0.338 N 
ATOM      2  H2  UNL     1       1.430   0.390  -0.727  1.00  0.00     0.164 HD
HETATM    3  C7  UNL     1      -0.007  -0.761   0.309  1.00  0.00     0.316 C 
HETATM    4  O1  UNL     1      -0.207  -1.845   0.896  1.00  0.00    -0.247 OA
HETATM    5  N3  UNL     1      -1.042   0.181   0.207  1.00  0.00    -0.334 N 
ATOM      6  H3  UNL     1      -0.887   1.069  -0.270  1.00  0.00     0.164 HD
ENDROOT
BRANCH   5   7
HETATM    7  C8  UNL     1      -2.337  -0.126   0.790  1.00  0.00     0.145 C 
HETATM    8  C9  UNL     1      -2.717   0.907   1.818  1.00  0.00     0.300 C 
HETATM    9  N4  UNL     1      -3.825   1.589   1.262  1.00  0.00     0.101 N 
HETATM   10  C10 UNL     1      -4.839   1.972   2.232  1.00  0.00     0.300 C 
HETATM   11  C13 UNL     1      -4.489   0.710   0.317  1.00  0.00     0.279 C 
HETATM   12  C11 UNL     1      -6.090   2.303   1.418  1.00  0.00     0.262 C 
HETATM   13  N5  UNL     1      -5.700   2.742   0.089  1.00  0.00    -0.071 N 
HETATM   14  C12 UNL     1      -5.174   1.609  -0.692  1.00  0.00     0.270 C 
ATOM     15  H52 UNL     1      -6.464   3.215  -0.394  1.00  0.00     0.277 HD
ATOM     16  H51 UNL     1      -5.040   3.519   0.124  1.00  0.00     0.277 HD
HETATM   17  C14 UNL     1      -3.385  -0.114  -0.302  1.00  0.00     0.180 C 
BRANCH  17  18
HETATM   18  O2  UNL     1      -3.816  -1.399  -0.514  1.00  0.00    -0.386 OA
HETATM   19  C15 UNL     1      -3.647  -1.671  -1.882  1.00  0.00     0.202 C 
ENDBRANCH  17  18
ENDBRANCH   5   7
BRANCH   1  20
HETATM   20  C6  UNL     1       2.347  -1.472  -0.146  1.00  0.00     0.089 C 
HETATM   21  C5  UNL     1       3.461  -0.844   0.644  1.00  0.00     0.055 C 
HETATM   22  C4  UNL     1       4.190   0.126  -0.253  1.00  0.00     0.275 C 
HETATM   23  N1  UNL     1       4.976  -0.634  -1.182  1.00  0.00     0.091 N 
HETATM   24  C17 UNL     1       4.385  -1.909  -1.531  1.00  0.00     0.275 C 
HETATM   25  C16 UNL     1       2.872  -1.850  -1.512  1.00  0.00     0.055 C 
BRANCH  23  26
HETATM   26  C3  UNL     1       6.323  -0.900  -0.709  1.00  0.00     0.299 C 
BRANCH  26  27
HETATM   27  C2  UNL     1       7.140   0.342  -0.640  1.00  0.00    -0.007 C 
HETATM   28  C1  UNL     1       7.672   0.777   0.492  1.00  0.00     0.008 C 
ENDBRANCH  26  27
ENDBRANCH  23  26
ENDBRANCH   1  20
TORSDOF 5
