REMARK  6 active torsions:
REMARK  status: ('A' for Active; 'I' for Inactive)
REMARK    1  A    between atoms: N3_4  and  C2_6 
REMARK    2  A    between atoms: C2_6  and  C3_7 
REMARK    3  A    between atoms: C3_7  and  S1_8 
REMARK    4  A    between atoms: S1_8  and  C4_9 
REMARK    5  A    between atoms: C4_9  and  C5_10 
REMARK       I    between atoms: C5_10  and  N4_12 
REMARK    6  A    between atoms: C12_19  and  N5_20 
ROOT
HETATM    1  C5  UNL     1       1.056   1.312   0.135  1.00  0.00     0.229 C 
HETATM    2  O1  UNL     1       1.146   2.562  -0.002  1.00  0.00    -0.273 OA
HETATM    3  N4  UNL     1      -0.109   0.655  -0.301  1.00  0.00    -0.351 N 
HETATM    4  C6  UNL     1      -1.174   1.426  -0.896  1.00  0.00     0.129 C 
HETATM    5  C7  UNL     1      -2.432   1.078  -0.097  1.00  0.00     0.058 C 
HETATM    6  C8  UNL     1      -2.787  -0.357  -0.301  1.00  0.00     0.066 C 
HETATM    7  C9  UNL     1      -1.630  -1.134  -0.865  1.00  0.00     0.058 C 
HETATM    8  C10 UNL     1      -0.301  -0.768  -0.186  1.00  0.00     0.129 C 
HETATM    9  C11 UNL     1      -3.279  -0.923   1.002  1.00  0.00     0.071 C 
HETATM   10  C12 UNL     1      -4.763  -0.686   1.160  1.00  0.00     0.188 C 
HETATM   11  C13 UNL     1      -5.466  -1.539   0.112  1.00  0.00     0.059 C 
HETATM   12  C14 UNL     1      -4.528  -1.641  -1.071  1.00  0.00     0.170 C 
HETATM   13  O2  UNL     1      -3.825  -0.455  -1.239  1.00  0.00    -0.380 OA
ENDROOT
BRANCH   1  14
HETATM   14  C4  UNL     1       2.199   0.597   0.759  1.00  0.00     0.176 C 
BRANCH  14  15
HETATM   15  S1  UNL     1       3.487   1.805   1.137  1.00  0.00    -0.158 SA
BRANCH  15  16
HETATM   16  C3  UNL     1       4.130   2.422  -0.440  1.00  0.00     0.094 C 
BRANCH  16  17
HETATM   17  C2  UNL     1       4.844   1.322  -1.195  1.00  0.00     0.132 C 
BRANCH  17  18
HETATM   18  N3  UNL     1       5.937   0.865  -0.364  1.00  0.00    -0.366 N 
HETATM   19  C1  UNL     1       6.191  -0.351  -0.086  1.00  0.00     0.196 C 
HETATM   20  N1  UNL     1       5.360  -1.368  -0.615  1.00  0.00    -0.067 NA
HETATM   21  N2  UNL     1       7.301  -0.642   0.745  1.00  0.00    -0.067 NA
ATOM     22  H3  UNL     1       6.554   1.575   0.031  1.00  0.00     0.161 HD
ENDBRANCH  17  18
ENDBRANCH  16  17
ENDBRANCH  15  16
ENDBRANCH  14  15
ENDBRANCH   1  14
BRANCH  10  23
HETATM   23  N5  UNL     1      -5.136   0.685   0.926  1.00  0.00    -0.075 N 
ATOM     24  H53 UNL     1      -4.600   1.316   1.521  1.00  0.00     0.274 HD
ATOM     25  H52 UNL     1      -4.810   1.002   0.013  1.00  0.00     0.274 HD
ATOM     26  H51 UNL     1      -6.138   0.845   1.033  1.00  0.00     0.274 HD
ENDBRANCH  10  23
TORSDOF 6
