REMARK  10 active torsions:
REMARK  status: ('A' for Active; 'I' for Inactive)
REMARK    1  A    between atoms: O1_1  and  C1_3 
REMARK    2  A    between atoms: C1_3  and  C2_4 
REMARK    3  A    between atoms: C2_4  and  N1_5 
REMARK    4  A    between atoms: N1_5  and  C3_6 
REMARK    5  A    between atoms: N1_5  and  C5_10 
REMARK    6  A    between atoms: C3_6  and  C4_7 
REMARK    7  A    between atoms: C4_7  and  O2_8 
REMARK    8  A    between atoms: C5_10  and  N2_12 
REMARK    9  A    between atoms: C8_15  and  N3_16 
REMARK   10  A    between atoms: C14_22  and  O3_23 
ROOT
HETATM    1  N2  UNL     1       1.023   0.861   0.964  1.00  0.00    -0.355 N 
HETATM    2  C6  UNL     1       0.026   1.962   1.374  1.00  0.00     0.127 C 
HETATM    3  C7  UNL     1      -1.233   1.528   0.672  1.00  0.00     0.058 C 
HETATM    4  C8  UNL     1      -1.719   0.162   0.992  1.00  0.00     0.254 C 
HETATM    5  C14 UNL     1      -0.657  -0.893   1.109  1.00  0.00     0.169 C 
HETATM    6  C15 UNL     1       0.639  -0.313   1.655  1.00  0.00     0.159 C 
ENDROOT
BRANCH   1   7
HETATM    7  C5  UNL     1       2.023   1.200   0.067  1.00  0.00     0.175 C 
HETATM    8  S1  UNL     1       1.902   2.897  -0.326  1.00  0.00    -0.041 SA
BRANCH   7   9
HETATM    9  N1  UNL     1       3.087   0.636  -0.608  1.00  0.00    -0.334 N 
BRANCH   9  10
HETATM   10  C2  UNL     1       3.892   1.591  -1.513  1.00  0.00     0.156 C 
BRANCH  10  11
HETATM   11  C1  UNL     1       5.236   1.843  -0.950  1.00  0.00     0.184 C 
BRANCH  11  12
HETATM   12  O1  UNL     1       5.874   2.733  -1.859  1.00  0.00    -0.399 OA
ATOM     13  H1  UNL     1       6.737   2.895  -1.497  1.00  0.00     0.209 HD
ENDBRANCH  11  12
ENDBRANCH  10  11
ENDBRANCH   9  10
BRANCH   9  14
HETATM   14  C3  UNL     1       3.663  -0.651  -0.726  1.00  0.00     0.092 C 
BRANCH  14  15
HETATM   15  C4  UNL     1       3.188  -1.849  -0.052  1.00  0.00     0.208 C 
BRANCH  15  16
HETATM   16  O2  UNL     1       4.041  -2.926  -0.459  1.00  0.00    -0.396 OA
ATOM     17  H2  UNL     1       3.731  -3.709  -0.019  1.00  0.00     0.209 HD
ENDBRANCH  15  16
ENDBRANCH  14  15
ENDBRANCH   9  14
ENDBRANCH   7   9
ENDBRANCH   1   7
BRANCH   5  18
HETATM   18  O3  UNL     1      -1.055  -1.889   1.988  1.00  0.00    -0.392 OA
ATOM     19  H3  UNL     1      -0.383  -2.556   2.062  1.00  0.00     0.210 HD
ENDBRANCH   5  18
BRANCH   4  20
HETATM   20  N3  UNL     1      -2.709  -0.225   0.005  1.00  0.00     0.095 N 
HETATM   21  C9  UNL     1      -3.094  -1.611   0.098  1.00  0.00     0.273 C 
HETATM   22  C10 UNL     1      -4.119  -1.846  -1.007  1.00  0.00     0.030 C 
HETATM   23  C11 UNL     1      -5.386  -1.152  -0.526  1.00  0.00     0.003 C 
HETATM   24  C12 UNL     1      -5.082   0.308  -0.500  1.00  0.00     0.030 C 
HETATM   25  C13 UNL     1      -3.813   0.694   0.166  1.00  0.00     0.273 C 
ENDBRANCH   4  20
TORSDOF 10
