REMARK  5 active torsions:
REMARK  status: ('A' for Active; 'I' for Inactive)
REMARK       I    between atoms: C1_2  and  N2_4 
REMARK    1  A    between atoms: N2_4  and  C2_6 
REMARK    2  A    between atoms: C11_18  and  O2_19 
REMARK    3  A    between atoms: O2_19  and  C12_20 
REMARK    4  A    between atoms: C12_20  and  C13_21 
REMARK    5  A    between atoms: C13_21  and  N4_22 
ROOT
HETATM    1  C2  UNL     1      -1.322  -1.803  -0.274  1.00  0.00     0.116 C 
HETATM    2  C3  UNL     1      -2.157  -0.992  -1.258  1.00  0.00     0.061 C 
HETATM    3  C4  UNL     1      -2.615   0.244  -0.575  1.00  0.00     0.192 C 
HETATM    4  N3  UNL     1      -3.274   1.162  -1.501  1.00  0.00    -0.070 N 
ATOM      5  H31 UNL     1      -3.517   0.688  -2.371  1.00  0.00     0.277 HD
ATOM      6  H32 UNL     1      -2.613   1.849  -1.863  1.00  0.00     0.277 HD
HETATM    7  C5  UNL     1      -4.416   1.805  -0.937  1.00  0.00     0.232 C 
HETATM    8  C6  UNL     1      -4.121   3.049  -0.174  1.00  0.00     0.027 C 
HETATM    9  C7  UNL     1      -2.716   3.144   0.342  1.00  0.00     0.002 C 
HETATM   10  C8  UNL     1      -2.281   1.943   1.122  1.00  0.00     0.007 C 
HETATM   11  C9  UNL     1      -1.561   1.011   0.145  1.00  0.00     0.019 C 
HETATM   12  C10 UNL     1      -0.592   0.152   0.909  1.00  0.00     0.041 C 
HETATM   13  C11 UNL     1      -0.101  -0.953  -0.002  1.00  0.00     0.144 C 
ENDROOT
BRANCH  13  14
HETATM   14  O2  UNL     1       0.978  -1.644   0.443  1.00  0.00    -0.382 OA
BRANCH  14  15
HETATM   15  C12 UNL     1       2.104  -1.606  -0.331  1.00  0.00     0.198 C 
BRANCH  15  16
HETATM   16  C13 UNL     1       2.705  -0.262  -0.570  1.00  0.00     0.298 C 
BRANCH  16  17
HETATM   17  N4  UNL     1       3.116   0.418   0.640  1.00  0.00     0.094 N 
HETATM   18  C14 UNL     1       3.678   1.685   0.391  1.00  0.00     0.298 C 
HETATM   19  C15 UNL     1       5.046   1.945   0.857  1.00  0.00     0.198 C 
HETATM   20  O3  UNL     1       5.715   0.901   1.435  1.00  0.00    -0.388 OA
HETATM   21  C16 UNL     1       4.842   0.300   2.374  1.00  0.00     0.198 C 
HETATM   22  C17 UNL     1       3.830  -0.454   1.499  1.00  0.00     0.298 C 
ENDBRANCH  16  17
ENDBRANCH  15  16
ENDBRANCH  14  15
ENDBRANCH  13  14
BRANCH   1  23
HETATM   23  N2  UNL     1      -1.022  -3.111  -0.753  1.00  0.00    -0.338 N 
HETATM   24  C1  UNL     1      -1.460  -4.303  -0.123  1.00  0.00     0.329 C 
HETATM   25  N1  UNL     1      -1.116  -5.570  -0.667  1.00  0.00    -0.040 NA
HETATM   26  O1  UNL     1      -2.163  -4.294   0.929  1.00  0.00    -0.251 OA
ATOM     27  H2  UNL     1      -0.459  -3.195  -1.599  1.00  0.00     0.164 HD
ENDBRANCH   1  23
TORSDOF 5
