REMARK  9 active torsions:
REMARK  status: ('A' for Active; 'I' for Inactive)
REMARK    1  A    between atoms: C2_2  and  C3_3 
REMARK    2  A    between atoms: C3_3  and  C4_4 
REMARK    3  A    between atoms: C4_4  and  S1_5 
REMARK    4  A    between atoms: S1_5  and  C5_6 
REMARK    5  A    between atoms: C5_6  and  C6_7 
REMARK    6  A    between atoms: C7_9  and  O2_10 
REMARK    7  A    between atoms: O2_10  and  N1_11 
REMARK    8  A    between atoms: C12_18  and  O5_19 
REMARK    9  A    between atoms: C13_21  and  O6_22 
ROOT
HETATM    1  C6  UNL     1       0.052   0.447   0.321  1.00  0.00     0.165 C 
HETATM    2  O1  UNL     1      -0.983   0.862  -0.460  1.00  0.00    -0.344 OA
HETATM    3  C7  UNL     1      -2.081   0.038  -0.551  1.00  0.00     0.202 C 
HETATM    4  C8  UNL     1      -3.224   0.886  -1.087  1.00  0.00     0.072 C 
HETATM    5  C9  UNL     1      -4.450   0.565  -0.312  1.00  0.00     0.006 C 
HETATM    6  C10 UNL     1      -4.017  -0.187   0.893  1.00  0.00     0.013 C 
HETATM    7  C11 UNL     1      -2.570  -0.491   0.753  1.00  0.00     0.082 C 
HETATM    8  C12 UNL     1      -1.743   0.010   1.918  1.00  0.00     0.158 C 
HETATM    9  C13 UNL     1      -0.290  -0.308   1.551  1.00  0.00     0.177 C 
ENDROOT
BRANCH   1  10
HETATM   10  C5  UNL     1       0.900   1.692   0.623  1.00  0.00     0.108 C 
BRANCH  10  11
HETATM   11  S1  UNL     1       2.314   1.325   1.649  1.00  0.00    -0.166 SA
BRANCH  11  12
HETATM   12  C4  UNL     1       3.533   0.274   0.862  1.00  0.00     0.074 C 
BRANCH  12  13
HETATM   13  C3  UNL     1       4.209   0.949  -0.314  1.00  0.00     0.010 C 
BRANCH  13  14
HETATM   14  C2  UNL     1       5.226  -0.016  -0.917  1.00  0.00    -0.004 C 
HETATM   15  C1  UNL     1       4.590  -1.285  -1.400  1.00  0.00     0.005 C 
ENDBRANCH  13  14
ENDBRANCH  12  13
ENDBRANCH  11  12
ENDBRANCH  10  11
ENDBRANCH   1  10
BRANCH   9  16
HETATM   16  O6  UNL     1      -0.142  -1.681   1.374  1.00  0.00    -0.390 OA
ATOM     17  H6  UNL     1      -0.361  -2.165   2.162  1.00  0.00     0.210 HD
ENDBRANCH   9  16
BRANCH   3  18
HETATM   18  O2  UNL     1      -1.860  -0.988  -1.527  1.00  0.00    -0.180 OA
BRANCH  18  19
HETATM   19  N1  UNL     1      -2.808  -1.919  -1.792  1.00  0.00     0.008 N 
HETATM   20  O3  UNL     1      -2.860  -3.024  -1.218  1.00  0.00    -0.511 OA
HETATM   21  O4  UNL     1      -3.773  -1.666  -2.736  1.00  0.00    -0.511 OA
ENDBRANCH  18  19
ENDBRANCH   3  18
BRANCH   8  22
HETATM   22  O5  UNL     1      -1.818   1.377   2.095  1.00  0.00    -0.392 OA
ATOM     23  H5  UNL     1      -1.299   1.691   2.826  1.00  0.00     0.210 HD
ENDBRANCH   8  22
TORSDOF 9
