REMARK  8 active torsions:
REMARK  status: ('A' for Active; 'I' for Inactive)
REMARK    1  A    between atoms: C2_2  and  C3_3 
REMARK    2  A    between atoms: C3_3  and  C4_4 
REMARK    3  A    between atoms: C4_4  and  C5_5 
REMARK    4  A    between atoms: N1_7  and  C7_8 
REMARK    5  A    between atoms: C9_10  and  O1_11 
REMARK    6  A    between atoms: O1_11  and  S1_12 
REMARK    7  A    between atoms: C10_16  and  C11_17 
REMARK    8  A    between atoms: C11_17  and  O5_18 
ROOT
HETATM    1  C7  UNL     1      -1.254   0.318  -0.117  1.00  0.00     0.237 C 
HETATM    2  C8  UNL     1      -2.151  -0.341   0.910  1.00  0.00     0.091 C 
HETATM    3  C9  UNL     1      -3.503   0.032   0.280  1.00  0.00     0.180 C 
HETATM    4  C10 UNL     1      -3.154  -0.214  -1.173  1.00  0.00     0.178 C 
HETATM    5  O6  UNL     1      -1.811   0.005  -1.327  1.00  0.00    -0.356 OA
ENDROOT
BRANCH   1   6
HETATM    6  N1  UNL     1       0.123  -0.057   0.030  1.00  0.00    -0.299 N 
HETATM    7  C6  UNL     1       1.227   0.277  -0.660  1.00  0.00     0.117 A 
HETATM    8  C5  UNL     1       2.155  -0.468   0.065  1.00  0.00     0.016 A 
HETATM    9  S2  UNL     1       0.926  -1.055   1.107  1.00  0.00    -0.014 SA
BRANCH   8  10
HETATM   10  C4  UNL     1       3.625  -0.709   0.019  1.00  0.00     0.049 C 
BRANCH  10  11
HETATM   11  C3  UNL     1       4.272   0.346   0.892  1.00  0.00     0.005 C 
BRANCH  11  12
HETATM   12  C2  UNL     1       5.778   0.200   0.922  1.00  0.00    -0.004 C 
HETATM   13  C1  UNL     1       6.393   0.327  -0.437  1.00  0.00     0.005 C 
ENDBRANCH  11  12
ENDBRANCH  10  11
ENDBRANCH   8  10
ENDBRANCH   1   6
BRANCH   3  14
HETATM   14  O1  UNL     1      -3.671   1.389   0.530  1.00  0.00    -0.249 OA
BRANCH  14  15
HETATM   15  S1  UNL     1      -5.063   1.750   1.346  1.00  0.00     0.252 S 
HETATM   16  O2  UNL     1      -5.456   0.529   2.156  1.00  0.00    -0.572 OA
HETATM   17  O3  UNL     1      -4.744   2.863   2.336  1.00  0.00    -0.572 OA
HETATM   18  O4  UNL     1      -6.299   2.289   0.379  1.00  0.00    -0.572 OA
ENDBRANCH  14  15
ENDBRANCH   3  14
BRANCH   4  19
HETATM   19  C11 UNL     1      -3.420  -1.694  -1.478  1.00  0.00     0.198 C 
BRANCH  19  20
HETATM   20  O5  UNL     1      -3.035  -2.000  -2.780  1.00  0.00    -0.398 OA
ATOM     21  H5  UNL     1      -3.200  -2.916  -2.969  1.00  0.00     0.209 HD
ENDBRANCH  19  20
ENDBRANCH   4  19
TORSDOF 8
