REMARK  8 active torsions:
REMARK  status: ('A' for Active; 'I' for Inactive)
REMARK    1  A    between atoms: N1_2  and  C2_5 
REMARK    2  A    between atoms: C2_5  and  C3_6 
REMARK    3  A    between atoms: C3_6  and  C4_7 
REMARK    4  A    between atoms: C4_7  and  O1_8 
REMARK    5  A    between atoms: O1_8  and  C5_9 
REMARK    6  A    between atoms: C5_9  and  C6_10 
REMARK    7  A    between atoms: C12_16  and  N2_17 
REMARK    8  A    between atoms: C15_20  and  O2_21 
ROOT
HETATM    1  C6  UNL     1      -0.584   0.564  -1.218  1.00  0.00     0.162 C 
HETATM    2  C7  UNL     1       0.054   0.443   0.113  1.00  0.00     0.048 C 
HETATM    3  C8  UNL     1       1.446   0.970   0.245  1.00  0.00     0.004 C 
HETATM    4  C9  UNL     1       1.464   2.417  -0.281  1.00  0.00     0.012 C 
HETATM    5  C10 UNL     1       1.243   2.862   1.133  1.00  0.00     0.002 C 
HETATM    6  C11 UNL     1       1.792   1.542   1.589  1.00  0.00     0.012 C 
HETATM    7  C12 UNL     1       2.491   0.194  -0.465  1.00  0.00     0.320 C 
HETATM    8  S1  UNL     1       1.763  -0.094  -2.137  1.00  0.00     0.026 SA
HETATM    9  O3  UNL     1       0.275   0.657  -2.289  1.00  0.00    -0.310 OA
ENDROOT
BRANCH   1  10
HETATM   10  C5  UNL     1      -1.534  -0.635  -1.379  1.00  0.00     0.200 C 
BRANCH  10  11
HETATM   11  O1  UNL     1      -2.373  -0.631  -0.260  1.00  0.00    -0.389 OA
BRANCH  11  12
HETATM   12  C4  UNL     1      -3.266  -1.706  -0.340  1.00  0.00     0.169 C 
BRANCH  12  13
HETATM   13  C3  UNL     1      -4.184  -1.708   0.844  1.00  0.00     0.054 C 
BRANCH  13  14
HETATM   14  C2  UNL     1      -4.984  -0.411   0.877  1.00  0.00     0.234 C 
BRANCH  14  15
HETATM   15  N1  UNL     1      -5.762  -0.327  -0.366  1.00  0.00    -0.079 N 
HETATM   16  C1  UNL     1      -6.512   0.910  -0.323  1.00  0.00     0.266 C 
ATOM     17  H12 UNL     1      -6.351  -1.145  -0.524  1.00  0.00     0.276 HD
ATOM     18  H11 UNL     1      -5.186  -0.415  -1.203  1.00  0.00     0.276 HD
ENDBRANCH  14  15
ENDBRANCH  13  14
ENDBRANCH  12  13
ENDBRANCH  11  12
ENDBRANCH  10  11
ENDBRANCH   1  10
BRANCH   7  19
HETATM   19  N2  UNL     1       2.856  -1.075   0.009  1.00  0.00     0.108 N 
HETATM   20  C13 UNL     1       3.436  -1.210   1.289  1.00  0.00     0.277 C 
HETATM   21  C14 UNL     1       4.870  -0.721   1.198  1.00  0.00     0.064 C 
HETATM   22  C15 UNL     1       5.214  -1.041  -0.238  1.00  0.00     0.148 C 
HETATM   23  C16 UNL     1       3.949  -1.549  -0.864  1.00  0.00     0.305 C 
BRANCH  22  24
HETATM   24  O2  UNL     1       5.706   0.099  -0.861  1.00  0.00    -0.394 OA
ATOM     25  H2  UNL     1       5.922  -0.102  -1.764  1.00  0.00     0.210 HD
ENDBRANCH  22  24
ENDBRANCH   7  19
TORSDOF 8
