REMARK  9 active torsions:
REMARK  status: ('A' for Active; 'I' for Inactive)
REMARK    1  A    between atoms: C4_4  and  O1_5 
REMARK    2  A    between atoms: O1_5  and  C5_6 
REMARK    3  A    between atoms: C5_6  and  C6_7 
REMARK    4  A    between atoms: C6_7  and  O2_8 
REMARK    5  A    between atoms: C6_7  and  C7_10 
REMARK    6  A    between atoms: C9_13  and  N1_14 
REMARK    7  A    between atoms: C11_21  and  O5_22 
REMARK    8  A    between atoms: O5_22  and  C12_23 
REMARK    9  A    between atoms: C12_23  and  C13_24 
ROOT
HETATM    1  C5  UNL     1      -1.717   1.269   0.349  1.00  0.00     0.213 C 
ENDROOT
BRANCH   1   2
HETATM    2  O1  UNL     1      -0.813   0.397   1.013  1.00  0.00    -0.341 OA
BRANCH   2   3
HETATM    3  C4  UNL     1       0.493   0.388   0.467  1.00  0.00     0.112 A 
HETATM    4  C3  UNL     1       1.510   1.260   0.750  1.00  0.00     0.054 A 
HETATM    5  C2  UNL     1       2.683   1.069   0.112  1.00  0.00    -0.018 A 
HETATM    6  C1  UNL     1       3.841   2.033   0.363  1.00  0.00     0.052 C 
HETATM    7  C11 UNL     1       2.783   0.041  -0.757  1.00  0.00     0.118 A 
HETATM    8  S1  UNL     1       1.193  -0.664  -0.669  1.00  0.00    -0.040 SA
BRANCH   7   9
HETATM    9  O5  UNL     1       3.819  -0.422  -1.551  1.00  0.00    -0.343 OA
BRANCH   9  10
HETATM   10  C12 UNL     1       4.696  -1.455  -1.342  1.00  0.00     0.181 C 
BRANCH  10  11
HETATM   11  C13 UNL     1       5.628  -1.435  -0.187  1.00  0.00     0.010 A 
HETATM   12  C14 UNL     1       6.655  -0.386  -0.028  1.00  0.00     0.007 A 
HETATM   13  C15 UNL     1       7.108  -1.730  -0.418  1.00  0.00     0.007 A 
ENDBRANCH  10  11
ENDBRANCH   9  10
ENDBRANCH   7   9
ENDBRANCH   2   3
ENDBRANCH   1   2
BRANCH   1  14
HETATM   14  C6  UNL     1      -3.086   1.246   0.961  1.00  0.00     0.197 C 
BRANCH  14  15
HETATM   15  O2  UNL     1      -3.884   2.129   0.239  1.00  0.00    -0.388 OA
ATOM     16  H2  UNL     1      -4.751   2.114   0.627  1.00  0.00     0.210 HD
ENDBRANCH  14  15
BRANCH  14  17
HETATM   17  C7  UNL     1      -3.641  -0.168   0.888  1.00  0.00     0.290 C 
HETATM   18  O3  UNL     1      -4.917  -0.257   1.399  1.00  0.00    -0.356 OA
HETATM   19  C8  UNL     1      -5.532  -1.395   0.856  1.00  0.00     0.205 C 
HETATM   20  C9  UNL     1      -5.860  -1.035  -0.593  1.00  0.00     0.231 C 
HETATM   21  C10 UNL     1      -4.575  -0.510  -1.204  1.00  0.00     0.205 C 
HETATM   22  O4  UNL     1      -3.491  -0.682  -0.378  1.00  0.00    -0.356 OA
BRANCH  20  23
HETATM   23  N1  UNL     1      -6.862   0.036  -0.515  1.00  0.00    -0.071 N 
ATOM     24  H13 UNL     1      -7.681  -0.209   0.042  1.00  0.00     0.274 HD
ATOM     25  H12 UNL     1      -6.567   0.833   0.049  1.00  0.00     0.274 HD
ATOM     26  H11 UNL     1      -7.081   0.276  -1.482  1.00  0.00     0.274 HD
ENDBRANCH  20  23
ENDBRANCH  14  17
ENDBRANCH   1  14
TORSDOF 9
