REMARK  10 active torsions:
REMARK  status: ('A' for Active; 'I' for Inactive)
REMARK    1  A    between atoms: C1_2  and  C2_3 
REMARK    2  A    between atoms: C1_2  and  O2_12 
REMARK    3  A    between atoms: C2_3  and  C3_4 
REMARK    4  A    between atoms: C3_4  and  C4_5 
REMARK    5  A    between atoms: C4_5  and  C5_6 
REMARK    6  A    between atoms: O2_12  and  C10_13 
REMARK    7  A    between atoms: C10_13  and  C11_14 
REMARK    8  A    between atoms: C11_14  and  C12_15 
REMARK    9  A    between atoms: C12_15  and  O3_16 
REMARK   10  A    between atoms: C14_20  and  O5_21 
ROOT
HETATM    1  O2  UNL     1      -1.623  -0.007   0.307  1.00  0.00    -0.318 OA
ENDROOT
BRANCH   1   2
HETATM    2  C1  UNL     1      -0.253   0.270   0.163  1.00  0.00     0.258 C 
HETATM    3  O1  UNL     1       0.068   0.922  -0.831  1.00  0.00    -0.265 OA
BRANCH   2   4
HETATM    4  C2  UNL     1       0.695  -0.210   1.164  1.00  0.00     0.111 C 
BRANCH   4   5
HETATM    5  C3  UNL     1       2.145   0.056   0.889  1.00  0.00     0.010 C 
BRANCH   5   6
HETATM    6  C4  UNL     1       2.582  -0.630  -0.328  1.00  0.00     0.005 C 
BRANCH   6   7
HETATM    7  C5  UNL     1       4.061  -0.431  -0.676  1.00  0.00    -0.013 C 
HETATM    8  C6  UNL     1       4.443   0.975  -0.904  1.00  0.00     0.015 C 
HETATM    9  C7  UNL     1       4.894   1.821   0.208  1.00  0.00     0.074 C 
HETATM   10  S1  UNL     1       5.795   0.864   1.491  1.00  0.00    -0.169 SA
HETATM   11  C8  UNL     1       6.247  -0.675   0.591  1.00  0.00     0.074 C 
HETATM   12  C9  UNL     1       4.949  -1.281   0.165  1.00  0.00     0.015 C 
ENDBRANCH   6   7
ENDBRANCH   5   6
ENDBRANCH   4   5
ENDBRANCH   2   4
ENDBRANCH   1   2
BRANCH   1  13
HETATM   13  C10 UNL     1      -2.561   0.454  -0.660  1.00  0.00     0.227 C 
BRANCH  13  14
HETATM   14  C11 UNL     1      -3.924  -0.006  -0.197  1.00  0.00     0.166 C 
HETATM   15  O4  UNL     1      -4.193   0.543   1.055  1.00  0.00    -0.365 OA
HETATM   16  C13 UNL     1      -5.553   0.561   1.244  1.00  0.00     0.209 C 
HETATM   17  C14 UNL     1      -6.210   0.594  -0.097  1.00  0.00     0.214 C 
HETATM   18  C15 UNL     1      -5.037   0.540  -1.019  1.00  0.00     0.196 C 
HETATM   19  O6  UNL     1      -4.974   0.863  -2.189  1.00  0.00    -0.292 OA
BRANCH  14  20
HETATM   20  C12 UNL     1      -3.985  -1.518  -0.105  1.00  0.00     0.212 C 
BRANCH  20  21
HETATM   21  O3  UNL     1      -3.716  -2.092  -1.332  1.00  0.00    -0.397 OA
ATOM     22  H3  UNL     1      -3.754  -3.039  -1.274  1.00  0.00     0.209 HD
ENDBRANCH  20  21
ENDBRANCH  14  20
BRANCH  17  23
HETATM   23  O5  UNL     1      -6.928   1.779  -0.252  1.00  0.00    -0.386 OA
ATOM     24  H5  UNL     1      -7.346   1.800  -1.105  1.00  0.00     0.210 HD
ENDBRANCH  17  23
ENDBRANCH  13  14
ENDBRANCH   1  13
TORSDOF 10
