REMARK  6 active torsions:
REMARK  status: ('A' for Active; 'I' for Inactive)
REMARK    1  A    between atoms: C6_8  and  O3_9 
REMARK    2  A    between atoms: O3_9  and  C7_10 
REMARK    3  A    between atoms: C9_13  and  O5_14 
REMARK    4  A    between atoms: C10_16  and  O6_17 
REMARK    5  A    between atoms: C15_23  and  O7_24 
REMARK    6  A    between atoms: O7_24  and  C16_25 
ROOT
HETATM    1  C1  UNL     1       2.596   1.923   1.679  1.00  0.00     0.028 C 
HETATM    2  C2  UNL     1       1.727   1.541   0.768  1.00  0.00     0.037 C 
HETATM    3  C3  UNL     1       0.349   1.915   1.041  1.00  0.00     0.292 C 
HETATM    4  O1  UNL     1       0.155   2.877   1.850  1.00  0.00    -0.260 OA
HETATM    5  O2  UNL     1      -0.764   1.310   0.491  1.00  0.00    -0.303 OA
HETATM    6  C4  UNL     1      -0.847   0.237  -0.461  1.00  0.00     0.104 C 
HETATM    7  C5  UNL     1      -0.693   0.906  -1.824  1.00  0.00     0.050 C 
HETATM    8  C6  UNL     1      -2.235  -0.284  -0.370  1.00  0.00     0.198 C 
HETATM    9  C9  UNL     1      -2.349  -1.695   0.135  1.00  0.00     0.179 C 
HETATM   10  C10 UNL     1      -1.422  -2.640  -0.537  1.00  0.00     0.150 C 
HETATM   11  C11 UNL     1      -0.122  -2.073  -0.941  1.00  0.00     0.046 C 
HETATM   12  C12 UNL     1       0.230  -0.765  -0.214  1.00  0.00    -0.005 C 
HETATM   13  C13 UNL     1       0.381  -1.109   1.234  1.00  0.00     0.018 C 
HETATM   14  C14 UNL     1       1.561  -0.428  -0.779  1.00  0.00     0.050 C 
HETATM   15  C15 UNL     1       2.232   0.800  -0.394  1.00  0.00     0.171 C 
ENDROOT
BRANCH   8  16
HETATM   16  O3  UNL     1      -3.079   0.488   0.480  1.00  0.00    -0.310 OA
BRANCH  16  17
HETATM   17  C7  UNL     1      -4.246   1.076   0.085  1.00  0.00     0.255 C 
HETATM   18  C8  UNL     1      -5.019   1.852   1.091  1.00  0.00     0.126 C 
HETATM   19  O4  UNL     1      -4.610   0.934  -1.106  1.00  0.00    -0.266 OA
ENDBRANCH  16  17
ENDBRANCH   8  16
BRANCH   9  20
HETATM   20  O5  UNL     1      -3.668  -2.115  -0.151  1.00  0.00    -0.390 OA
ATOM     21  H5  UNL     1      -3.740  -3.007   0.168  1.00  0.00     0.210 HD
ENDBRANCH   9  20
BRANCH  10  22
HETATM   22  O6  UNL     1      -1.307  -3.793   0.274  1.00  0.00    -0.393 OA
ATOM     23  H6  UNL     1      -0.714  -4.398  -0.156  1.00  0.00     0.210 HD
ENDBRANCH  10  22
BRANCH  15  24
HETATM   24  O7  UNL     1       3.625   0.571  -0.185  1.00  0.00    -0.311 OA
BRANCH  24  25
HETATM   25  C16 UNL     1       4.627   1.147  -0.915  1.00  0.00     0.255 C 
HETATM   26  C17 UNL     1       6.048   0.821  -0.592  1.00  0.00     0.126 C 
HETATM   27  O8  UNL     1       4.324   1.938  -1.842  1.00  0.00    -0.266 OA
ENDBRANCH  24  25
ENDBRANCH  15  24
TORSDOF 6
