REMARK  4 active torsions:
REMARK  status: ('A' for Active; 'I' for Inactive)
REMARK    1  A    between atoms: C4_4  and  O1_5 
REMARK    2  A    between atoms: C10_15  and  C12_17 
REMARK    3  A    between atoms: C12_17  and  O5_18 
REMARK    4  A    between atoms: O5_18  and  C13_19 
ROOT
HETATM    1  C1  UNL     1      -2.391  -1.831  -1.663  1.00  0.00     0.010 C 
HETATM    2  C2  UNL     1      -2.544  -1.640  -0.193  1.00  0.00    -0.006 C 
HETATM    3  C3  UNL     1      -3.624  -0.666   0.191  1.00  0.00     0.042 C 
HETATM    4  C4  UNL     1      -3.637   0.589  -0.600  1.00  0.00     0.183 C 
HETATM    5  C5  UNL     1      -2.406   1.429  -0.293  1.00  0.00     0.220 C 
HETATM    6  C6  UNL     1      -2.466   2.751  -1.039  1.00  0.00     0.085 C 
HETATM    7  O2  UNL     1      -2.241   1.647   1.052  1.00  0.00    -0.195 OA
HETATM    8  O3  UNL     1      -0.999   2.104   1.228  1.00  0.00    -0.194 OA
HETATM    9  C7  UNL     1      -0.193   0.939   1.271  1.00  0.00     0.228 C 
HETATM   10  C8  UNL     1      -0.433   0.357   2.670  1.00  0.00     0.085 C 
HETATM   11  O4  UNL     1       1.101   1.344   1.087  1.00  0.00    -0.347 OA
HETATM   12  C9  UNL     1       1.751   0.771   0.023  1.00  0.00     0.211 C 
HETATM   13  C10 UNL     1       2.214  -0.609   0.429  1.00  0.00     0.101 C 
HETATM   14  C11 UNL     1       3.152  -0.449   1.611  1.00  0.00     0.051 C 
HETATM   15  O7  UNL     1       1.144  -1.406   0.754  1.00  0.00    -0.367 OA
HETATM   16  C14 UNL     1       0.026  -1.186  -0.058  1.00  0.00     0.171 A 
HETATM   17  C15 UNL     1      -1.297  -1.285   0.532  1.00  0.00     0.065 A 
HETATM   18  C16 UNL     1      -0.725   0.025   0.213  1.00  0.00     0.156 A 
HETATM   19  O8  UNL     1      -1.315   0.734  -0.798  1.00  0.00    -0.331 OA
ENDROOT
BRANCH  13  20
HETATM   20  C12 UNL     1       3.042  -1.204  -0.700  1.00  0.00     0.220 C 
BRANCH  20  21
HETATM   21  O5  UNL     1       4.109  -0.296  -0.943  1.00  0.00    -0.303 OA
BRANCH  21  22
HETATM   22  C13 UNL     1       5.063  -0.527  -1.916  1.00  0.00     0.372 C 
HETATM   23  N1  UNL     1       6.110   0.407  -2.122  1.00  0.00    -0.032 NA
HETATM   24  O6  UNL     1       5.006  -1.562  -2.617  1.00  0.00    -0.242 OA
ENDBRANCH  21  22
ENDBRANCH  20  21
ENDBRANCH  13  20
BRANCH   4  25
HETATM   25  O1  UNL     1      -4.796   1.296  -0.278  1.00  0.00    -0.390 OA
ATOM     26  H1  UNL     1      -4.804   2.100  -0.785  1.00  0.00     0.210 HD
ENDBRANCH   4  25
TORSDOF 4
