REMARK  2 active torsions:
REMARK  status: ('A' for Active; 'I' for Inactive)
REMARK    1  A    between atoms: C10_12  and  O3_13 
REMARK    2  A    between atoms: C13_18  and  O5_19 
ROOT
HETATM    1  C1  UNL     1       4.526  -0.416   0.514  1.00  0.00     0.071 C 
HETATM    2  C2  UNL     1       3.514  -1.037  -0.413  1.00  0.00     0.260 C 
HETATM    3  O1  UNL     1       2.604  -1.749   0.298  1.00  0.00    -0.329 OA
HETATM    4  C3  UNL     1       1.476  -0.888   0.475  1.00  0.00     0.301 C 
HETATM    5  O2  UNL     1       0.441  -1.731   0.421  1.00  0.00    -0.347 OA
HETATM    6  C4  UNL     1      -0.741  -1.538   1.010  1.00  0.00     0.066 C 
HETATM    7  C5  UNL     1      -1.493  -2.875   0.785  1.00  0.00     0.046 C 
HETATM    8  C6  UNL     1      -0.668  -1.426   2.533  1.00  0.00     0.046 C 
HETATM    9  C7  UNL     1      -1.639  -0.491   0.397  1.00  0.00     0.091 C 
HETATM   10  C8  UNL     1      -1.711  -0.714  -1.061  1.00  0.00     0.023 C 
HETATM   11  C9  UNL     1      -3.073  -0.193  -1.552  1.00  0.00     0.013 C 
HETATM   12  C10 UNL     1      -0.691  -0.256  -1.990  1.00  0.00     0.125 C 
HETATM   13  C11 UNL     1       0.700  -0.708  -1.817  1.00  0.00     0.078 C 
HETATM   14  C12 UNL     1       1.527  -0.034  -0.748  1.00  0.00     0.146 C 
HETATM   15  O4  UNL     1       2.864  -0.181  -1.224  1.00  0.00    -0.343 OA
HETATM   16  C13 UNL     1       1.349   1.405  -0.606  1.00  0.00     0.222 C 
HETATM   17  C14 UNL     1       0.348   1.986   0.297  1.00  0.00     0.225 C 
HETATM   18  C15 UNL     1       0.554   3.516   0.227  1.00  0.00     0.085 C 
HETATM   19  O6  UNL     1       0.403   1.664   1.612  1.00  0.00    -0.195 OA
HETATM   20  O7  UNL     1      -0.696   1.102   1.977  1.00  0.00    -0.197 OA
HETATM   21  C16 UNL     1      -1.497   0.888   0.880  1.00  0.00     0.204 C 
HETATM   22  C17 UNL     1      -2.841   1.532   1.298  1.00  0.00     0.082 C 
HETATM   23  O8  UNL     1      -0.972   1.792  -0.037  1.00  0.00    -0.311 OA
ENDROOT
BRANCH  12  24
HETATM   24  O3  UNL     1      -1.098  -0.833  -3.239  1.00  0.00    -0.395 OA
ATOM     25  H3  UNL     1      -0.431  -0.534  -3.846  1.00  0.00     0.210 HD
ENDBRANCH  12  24
BRANCH  16  26
HETATM   26  O5  UNL     1       2.577   2.045  -0.288  1.00  0.00    -0.387 OA
ATOM     27  H5  UNL     1       2.461   2.983  -0.195  1.00  0.00     0.210 HD
ENDBRANCH  16  26
TORSDOF 2
