REMARK  4 active torsions:
REMARK  status: ('A' for Active; 'I' for Inactive)
REMARK    1  A    between atoms: C2_2  and  O2_4 
REMARK    2  A    between atoms: O2_4  and  C3_5 
REMARK    3  A    between atoms: C4_6  and  O3_7 
REMARK    4  A    between atoms: C8_13  and  O5_14 
ROOT
HETATM    1  C3  UNL     1       1.683   0.173   0.067  1.00  0.00     0.200 C 
HETATM    2  C4  UNL     1       0.976   0.680  -1.121  1.00  0.00     0.162 C 
HETATM    3  C5  UNL     1      -0.047  -0.203  -1.735  1.00  0.00     0.027 C 
HETATM    4  C6  UNL     1      -0.297   0.331  -3.157  1.00  0.00     0.022 C 
HETATM    5  C7  UNL     1       0.411  -1.635  -1.903  1.00  0.00     0.184 C 
HETATM    6  O4  UNL     1       1.452  -1.998  -1.115  1.00  0.00    -0.357 OA
HETATM    7  C8  UNL     1       1.144  -2.192   0.226  1.00  0.00     0.293 C 
HETATM    8  C9  UNL     1       0.901  -0.875   0.863  1.00  0.00     0.138 C 
HETATM    9  C10 UNL     1       1.614  -0.883   2.231  1.00  0.00     0.054 C 
HETATM   10  O6  UNL     1      -0.372  -0.521   1.115  1.00  0.00    -0.341 OA
HETATM   11  C11 UNL     1      -1.359  -0.914   0.289  1.00  0.00     0.282 C 
HETATM   12  O7  UNL     1      -2.582  -0.643   0.870  1.00  0.00    -0.339 OA
HETATM   13  C12 UNL     1      -2.783   0.709   0.959  1.00  0.00     0.105 C 
HETATM   14  C13 UNL     1      -4.259   0.974   0.705  1.00  0.00     0.058 C 
HETATM   15  C14 UNL     1      -2.385   1.340   2.237  1.00  0.00     0.058 C 
HETATM   16  S1  UNL     1      -1.893   1.434  -0.481  1.00  0.00    -0.116 SA
HETATM   17  C15 UNL     1      -1.363  -0.223  -1.069  1.00  0.00     0.069 C 
HETATM   18  C16 UNL     1      -2.440  -0.792  -1.927  1.00  0.00     0.033 C 
ENDROOT
BRANCH   1  19
HETATM   19  O2  UNL     1       2.061   1.251   0.906  1.00  0.00    -0.310 OA
BRANCH  19  20
HETATM   20  C2  UNL     1       3.393   1.518   1.193  1.00  0.00     0.255 C 
HETATM   21  C1  UNL     1       3.815   2.642   2.070  1.00  0.00     0.126 C 
HETATM   22  O1  UNL     1       4.244   0.737   0.658  1.00  0.00    -0.266 OA
ENDBRANCH  19  20
ENDBRANCH   1  19
BRANCH   2  23
HETATM   23  O3  UNL     1       1.954   0.987  -2.099  1.00  0.00    -0.392 OA
ATOM     24  H3  UNL     1       1.498   1.314  -2.865  1.00  0.00     0.210 HD
ENDBRANCH   2  23
BRANCH   7  25
HETATM   25  O5  UNL     1       2.329  -2.757   0.770  1.00  0.00    -0.368 OA
ATOM     26  H5  UNL     1       2.118  -2.890   1.687  1.00  0.00     0.212 HD
ENDBRANCH   7  25
TORSDOF 4
