REMARK  8 active torsions:
REMARK  status: ('A' for Active; 'I' for Inactive)
REMARK    1  A    between atoms: C2_2  and  C3_3 
REMARK    2  A    between atoms: C5_8  and  C6_9 
REMARK       I    between atoms: C6_9  and  N2_11 
REMARK    3  A    between atoms: N2_11  and  C7_13 
REMARK    4  A    between atoms: C11_18  and  C12_19 
REMARK    5  A    between atoms: C12_19  and  C13_20 
REMARK    6  A    between atoms: C13_20  and  O2_22 
REMARK    7  A    between atoms: C13_20  and  C15_24 
REMARK    8  A    between atoms: C15_24  and  C18_27 
ROOT
HETATM    1  C3  UNL     1      -1.134   2.727  -0.513  1.00  0.00     0.034 A 
HETATM    2  N1  UNL     1      -0.102   3.596  -0.401  1.00  0.00    -0.338 N 
ATOM      3  H1  UNL     1      -0.167   4.614  -0.384  1.00  0.00     0.168 HD
HETATM    4  C4  UNL     1       1.040   2.858  -0.316  1.00  0.00     0.156 A 
HETATM    5  S1  UNL     1       2.747   2.933  -0.149  1.00  0.00    -0.046 SA
HETATM    6  C5  UNL     1       3.066   1.260  -0.158  1.00  0.00     0.092 A 
HETATM    7  C10 UNL     1       1.811   0.725  -0.291  1.00  0.00     0.124 A 
HETATM    8  N3  UNL     1       0.796   1.558  -0.367  1.00  0.00    -0.303 N 
HETATM    9  C11 UNL     1      -0.579   1.467  -0.488  1.00  0.00     0.043 A 
ENDROOT
BRANCH   9  10
HETATM   10  C12 UNL     1      -1.395   0.235  -0.509  1.00  0.00     0.098 C 
BRANCH  10  11
HETATM   11  C13 UNL     1      -1.897  -0.236   0.816  1.00  0.00     0.075 C 
HETATM   12  C14 UNL     1      -0.742  -0.541   1.742  1.00  0.00     0.047 C 
BRANCH  11  13
HETATM   13  O2  UNL     1      -2.602   0.799   1.468  1.00  0.00    -0.389 OA
ATOM     14  H2  UNL     1      -2.921   0.499   2.311  1.00  0.00     0.210 HD
ENDBRANCH  11  13
BRANCH  11  15
HETATM   15  C15 UNL     1      -2.814  -1.402   0.574  1.00  0.00     0.081 C 
HETATM   16  C16 UNL     1      -4.004  -0.997  -0.255  1.00  0.00     0.027 C 
HETATM   17  C17 UNL     1      -2.075  -2.444  -0.317  1.00  0.00     0.027 C 
BRANCH  15  18
HETATM   18  C18 UNL     1      -3.256  -2.161   1.764  1.00  0.00     0.397 C 
HETATM   19  F1  UNL     1      -4.114  -3.174   1.280  1.00  0.00    -0.170 F 
HETATM   20  F2  UNL     1      -2.197  -2.935   2.307  1.00  0.00    -0.170 F 
HETATM   21  F3  UNL     1      -3.933  -1.487   2.715  1.00  0.00    -0.170 F 
ENDBRANCH  15  18
ENDBRANCH  11  15
ENDBRANCH  10  11
ENDBRANCH   9  10
BRANCH   1  22
HETATM   22  C2  UNL     1      -2.517   3.212  -0.679  1.00  0.00     0.055 C 
HETATM   23  C1  UNL     1      -2.510   4.677  -1.160  1.00  0.00     0.011 C 
ENDBRANCH   1  22
BRANCH   6  24
HETATM   24  C6  UNL     1       4.354   0.554   0.011  1.00  0.00     0.260 C 
HETATM   25  O1  UNL     1       5.399   1.207   0.259  1.00  0.00    -0.267 OA
HETATM   26  N2  UNL     1       4.374  -0.847  -0.113  1.00  0.00    -0.352 N 
ATOM     27  H2  UNL     1       3.501  -1.326  -0.336  1.00  0.00     0.163 HD
BRANCH  26  28
HETATM   28  C7  UNL     1       5.583  -1.653   0.061  1.00  0.00     0.084 A 
HETATM   29  C8  UNL     1       6.224  -2.035  -1.296  1.00  0.00     0.027 A 
HETATM   30  C9  UNL     1       5.584  -3.048  -0.386  1.00  0.00     0.027 A 
ENDBRANCH  26  28
ENDBRANCH   6  24
TORSDOF 8
