REMARK  7 active torsions:
REMARK  status: ('A' for Active; 'I' for Inactive)
REMARK    1  A    between atoms: C2_2  and  C9_12 
REMARK    2  A    between atoms: N1_3  and  O1_5 
REMARK    3  A    between atoms: O1_5  and  C3_6 
REMARK    4  A    between atoms: C11_15  and  N2_16 
REMARK    5  A    between atoms: N2_16  and  C12_18 
REMARK    6  A    between atoms: C14_20  and  C15_21 
REMARK    7  A    between atoms: C15_21  and  C16_22 
ROOT
HETATM    1  C9  UNL     1      -1.004  -0.431   0.518  1.00  0.00     0.065 A 
HETATM    2  C10 UNL     1      -1.610  -0.900  -0.619  1.00  0.00     0.084 A 
HETATM    3  S1  UNL     1      -0.286  -1.675  -1.420  1.00  0.00    -0.063 SA
HETATM    4  C11 UNL     1       0.924  -1.355  -0.277  1.00  0.00     0.150 A 
HETATM    5  N5  UNL     1       0.275  -0.688   0.640  1.00  0.00    -0.334 N 
ATOM      6  H5  UNL     1       0.774  -0.361   1.467  1.00  0.00     0.168 HD
ENDROOT
BRANCH   4   7
HETATM    7  N2  UNL     1       2.307  -1.718  -0.296  1.00  0.00    -0.322 N 
ATOM      8  H2  UNL     1       2.557  -2.707  -0.317  1.00  0.00     0.169 HD
BRANCH   7   9
HETATM    9  C12 UNL     1       3.248  -0.837  -0.287  1.00  0.00     0.123 A 
HETATM   10  C13 UNL     1       4.595  -1.127  -0.304  1.00  0.00     0.076 A 
HETATM   11  C14 UNL     1       5.303   0.063  -0.286  1.00  0.00     0.035 A 
HETATM   12  N3  UNL     1       4.382   1.032  -0.260  1.00  0.00    -0.303 N 
HETATM   13  N4  UNL     1       3.169   0.508  -0.260  1.00  0.00    -0.285 N 
ATOM     14  H3  UNL     1       4.586   2.031  -0.243  1.00  0.00     0.186 HD
ATOM     15  H4  UNL     1       2.301   1.043  -0.242  1.00  0.00     0.188 HD
BRANCH  11  16
HETATM   16  C15 UNL     1       6.765   0.219  -0.297  1.00  0.00     0.137 C 
BRANCH  16  17
HETATM   17  C16 UNL     1       7.483  -1.101  -0.335  1.00  0.00     0.245 C 
HETATM   18  C17 UNL     1       8.991  -0.821  -0.341  1.00  0.00     0.090 C 
HETATM   19  F1  UNL     1       7.153  -1.782  -1.494  1.00  0.00    -0.206 F 
HETATM   20  F2  UNL     1       7.221  -1.892   0.750  1.00  0.00    -0.206 F 
ENDBRANCH  16  17
ENDBRANCH  11  16
ENDBRANCH   7   9
ENDBRANCH   4   7
BRANCH   1  21
HETATM   21  C2  UNL     1      -1.732   0.327   1.565  1.00  0.00     0.055 C 
HETATM   22  C1  UNL     1      -0.957   0.797   2.768  1.00  0.00     0.072 C 
HETATM   23  N1  UNL     1      -2.934   0.592   1.504  1.00  0.00    -0.269 N 
ATOM     24  H1  UNL     1      -3.283   1.120   2.304  1.00  0.00     0.194 HD
BRANCH  23  25
HETATM   25  O1  UNL     1      -3.853   0.321   0.598  1.00  0.00    -0.275 OA
BRANCH  25  26
HETATM   26  C3  UNL     1      -4.855   1.235   0.237  1.00  0.00     0.152 C 
HETATM   27  C4  UNL     1      -6.182   0.626   0.651  1.00  0.00     0.034 C 
HETATM   28  C5  UNL     1      -6.452  -0.661  -0.078  1.00  0.00     0.002 C 
HETATM   29  C6  UNL     1      -5.976  -0.595  -1.526  1.00  0.00     0.000 C 
HETATM   30  C7  UNL     1      -5.919   0.846  -1.988  1.00  0.00     0.002 C 
HETATM   31  C8  UNL     1      -4.784   1.526  -1.226  1.00  0.00     0.034 C 
ENDBRANCH  25  26
ENDBRANCH  23  25
ENDBRANCH   1  21
TORSDOF 7
