REMARK  7 active torsions:
REMARK  status: ('A' for Active; 'I' for Inactive)
REMARK    1  A    between atoms: C2_2  and  C4_5 
REMARK    2  A    between atoms: C4_5  and  C5_6 
REMARK    3  A    between atoms: C5_6  and  C6_7 
REMARK    4  A    between atoms: C6_7  and  C7_8 
REMARK    5  A    between atoms: C7_8  and  N1_9 
REMARK    6  A    between atoms: N1_9  and  C8_11 
REMARK    7  A    between atoms: C12_18  and  N3_19 
ROOT
HETATM    1  C8  UNL     1       1.259  -0.777  -0.457  1.00  0.00     0.160 A 
HETATM    2  N2  UNL     1       2.252  -0.205   0.286  1.00  0.00    -0.337 N 
ATOM      3  H2  UNL     1       2.007   0.017   1.251  1.00  0.00     0.168 HD
HETATM    4  C9  UNL     1       3.477   0.098  -0.071  1.00  0.00     0.073 A 
HETATM    5  C10 UNL     1       4.325   0.688   0.884  1.00  0.00     0.064 A 
HETATM    6 CL2  UNL     1       3.766   1.018   2.519  1.00  0.00    -0.082 Cl
HETATM    7  C11 UNL     1       5.619   1.033   0.585  1.00  0.00     0.062 A 
HETATM    8  C12 UNL     1       6.161   0.822  -0.655  1.00  0.00     0.105 A 
HETATM    9  C13 UNL     1       5.336   0.244  -1.595  1.00  0.00     0.057 A 
HETATM   10  C14 UNL     1       4.026  -0.111  -1.315  1.00  0.00     0.039 A 
HETATM   11  S1  UNL     1       2.964  -0.828  -2.437  1.00  0.00    -0.042 SA
HETATM   12  C15 UNL     1       1.412  -1.143  -1.772  1.00  0.00     0.257 A 
HETATM   13  O3  UNL     1       0.493  -1.679  -2.478  1.00  0.00    -0.276 OA
ENDROOT
BRANCH   1  14
HETATM   14  N1  UNL     1       0.147  -0.960   0.155  1.00  0.00    -0.373 N 
ATOM     15  H1  UNL     1       0.101  -0.666   1.131  1.00  0.00     0.161 HD
BRANCH  14  16
HETATM   16  C7  UNL     1      -1.019  -1.531  -0.399  1.00  0.00     0.121 C 
BRANCH  16  17
HETATM   17  C6  UNL     1      -2.109  -1.717   0.658  1.00  0.00     0.020 C 
BRANCH  17  18
HETATM   18  C5  UNL     1      -2.546  -0.459   1.298  1.00  0.00     0.004 C 
BRANCH  18  19
HETATM   19  C4  UNL     1      -3.175   0.586   0.465  1.00  0.00     0.025 C 
BRANCH  19  20
HETATM   20  C2  UNL     1      -4.473   0.290  -0.186  1.00  0.00     0.030 C 
HETATM   21  C1  UNL     1      -5.537  -0.059   0.846  1.00  0.00     0.032 C 
HETATM   22  C3  UNL     1      -4.999   1.587  -0.835  1.00  0.00     0.032 C 
HETATM   23 CL1  UNL     1      -4.473  -0.910  -1.470  1.00  0.00    -0.120 Cl
ENDBRANCH  19  20
ENDBRANCH  18  19
ENDBRANCH  17  18
ENDBRANCH  16  17
ENDBRANCH  14  16
ENDBRANCH   1  14
BRANCH   8  24
HETATM   24  N3  UNL     1       7.495   1.171  -0.982  1.00  0.00    -0.116 N 
HETATM   25  O1  UNL     1       7.971   0.975  -2.109  1.00  0.00    -0.532 OA
HETATM   26  O2  UNL     1       8.278   1.741  -0.025  1.00  0.00    -0.532 OA
ENDBRANCH   8  24
TORSDOF 7
