REMARK  3 active torsions:
REMARK  status: ('A' for Active; 'I' for Inactive)
REMARK    1  A    between atoms: C2_2  and  C3_3 
REMARK    2  A    between atoms: C3_3  and  C4_4 
REMARK    3  A    between atoms: C4_4  and  C5_5 
REMARK       I    between atoms: N1_8  and  C7_10 
REMARK       I    between atoms: C7_10  and  N5_18 
REMARK       I    between atoms: N2_11  and  C8_13 
ROOT
HETATM    1  C1  UNL     1       1.726   0.852   1.298  1.00  0.00     0.064 C 
HETATM    2  C2  UNL     1       1.590   0.681  -0.156  1.00  0.00     0.000 C 
HETATM    3  N1  UNL     1       0.468   0.739  -0.762  1.00  0.00    -0.199 N 
ATOM      4  H1  UNL     1       0.470   0.608  -1.774  1.00  0.00     0.183 HD
HETATM    5  C7  UNL     1      -0.783   0.973  -0.131  1.00  0.00     0.682 C 
HETATM    6  N2  UNL     1      -0.936   2.054   0.516  1.00  0.00    -0.164 N 
ATOM      7  H2  UNL     1      -0.135   2.685   0.535  1.00  0.00     0.187 HD
HETATM    8  C8  UNL     1      -2.076   2.482   1.207  1.00  0.00     0.200 C 
HETATM    9  N3  UNL     1      -2.316   2.008   2.386  1.00  0.00    -0.373 N 
ATOM     10  H31 UNL     1      -3.147   2.320   2.889  1.00  0.00     0.158 HD
ATOM     11  H32 UNL     1      -1.647   1.333   2.757  1.00  0.00     0.158 HD
HETATM   12  N4  UNL     1      -3.012   3.427   0.687  1.00  0.00    -0.063 NA
HETATM   13  N5  UNL     1      -1.773  -0.044  -0.284  1.00  0.00    -0.218 N 
HETATM   14  C9  UNL     1      -2.965   0.120  -1.065  1.00  0.00     0.141 C 
HETATM   15  C10 UNL     1      -4.101  -0.376  -0.205  1.00  0.00     0.020 C 
HETATM   16  C11 UNL     1      -3.968  -1.873  -0.106  1.00  0.00     0.003 C 
HETATM   17  C12 UNL     1      -2.565  -2.352   0.060  1.00  0.00     0.020 C 
HETATM   18  C13 UNL     1      -1.558  -1.299   0.380  1.00  0.00     0.141 C 
ENDROOT
BRANCH   2  19
HETATM   19  C3  UNL     1       2.800   0.425  -0.993  1.00  0.00     0.054 C 
BRANCH  19  20
HETATM   20  C4  UNL     1       3.427  -0.845  -0.505  1.00  0.00     0.025 C 
BRANCH  20  21
HETATM   21  C5  UNL     1       4.668  -1.220  -1.272  1.00  0.00     0.078 C 
HETATM   22  C6  UNL     1       5.744  -0.186  -1.195  1.00  0.00     0.026 C 
HETATM   23 CL1  UNL     1       4.216  -1.589  -2.960  1.00  0.00    -0.125 Cl
ENDBRANCH  20  21
ENDBRANCH  19  20
ENDBRANCH   2  19
TORSDOF 3
