REMARK  3 active torsions:
REMARK  status: ('A' for Active; 'I' for Inactive)
REMARK       I    between atoms: C1_2  and  N4_17 
REMARK       I    between atoms: N2_3  and  C2_5 
REMARK       I    between atoms: C2_5  and  N3_7 
REMARK    1  A    between atoms: N3_7  and  C3_9 
REMARK    2  A    between atoms: C3_9  and  C4_10 
REMARK    3  A    between atoms: N4_17  and  C10_19 
ROOT
HETATM    1  N1  UNL     1      -1.345  -1.077  -1.164  1.00  0.00    -0.063 NA
HETATM    2  C1  UNL     1      -1.394   0.264  -0.634  1.00  0.00     0.196 C 
HETATM    3  N2  UNL     1      -0.441   0.708   0.104  1.00  0.00    -0.283 N 
ATOM      4  H2  UNL     1      -0.475   1.656   0.480  1.00  0.00     0.173 HD
HETATM    5  C2  UNL     1       0.658  -0.141   0.387  1.00  0.00     0.322 C 
HETATM    6  O1  UNL     1       0.992  -0.455   1.560  1.00  0.00    -0.247 OA
HETATM    7  N3  UNL     1       1.421  -0.666  -0.684  1.00  0.00    -0.339 N 
ATOM      8  H3  UNL     1       1.170  -0.425  -1.643  1.00  0.00     0.164 HD
HETATM    9  N4  UNL     1      -2.498   1.112  -0.921  1.00  0.00    -0.330 N 
ATOM     10  H4  UNL     1      -2.398   1.898  -1.564  1.00  0.00     0.168 HD
ENDROOT
BRANCH   9  11
HETATM   11  C10 UNL     1      -3.731   0.845  -0.300  1.00  0.00     0.034 A 
HETATM   12  C11 UNL     1      -3.866  -0.204   0.563  1.00  0.00     0.029 A 
HETATM   13  C12 UNL     1      -5.111  -0.411   1.139  1.00  0.00     0.002 A 
HETATM   14  C13 UNL     1      -6.183   0.392   0.869  1.00  0.00     0.000 A 
HETATM   15  C14 UNL     1      -6.022   1.444  -0.004  1.00  0.00     0.002 A 
HETATM   16  C15 UNL     1      -4.800   1.666  -0.584  1.00  0.00     0.029 A 
ENDBRANCH   9  11
BRANCH   7  17
HETATM   17  C3  UNL     1       2.552  -1.540  -0.443  1.00  0.00     0.162 C 
BRANCH  17  18
HETATM   18  C4  UNL     1       3.708  -0.730   0.014  1.00  0.00    -0.040 A 
HETATM   19  C5  UNL     1       4.876  -1.368   0.449  1.00  0.00     0.012 A 
HETATM   20  C6  UNL     1       5.981  -0.669   0.881  1.00  0.00     0.043 A 
HETATM   21  C7  UNL     1       5.970   0.712   0.898  1.00  0.00     0.116 A 
HETATM   22  F1  UNL     1       7.074   1.380   1.330  1.00  0.00    -0.206 F 
HETATM   23  C8  UNL     1       4.836   1.374   0.477  1.00  0.00     0.043 A 
HETATM   24  C9  UNL     1       3.725   0.649   0.042  1.00  0.00     0.012 A 
ENDBRANCH  17  18
ENDBRANCH   7  17
TORSDOF 3
