REMARK  6 active torsions:
REMARK  status: ('A' for Active; 'I' for Inactive)
REMARK    1  A    between atoms: C4_4  and  O1_5 
REMARK    2  A    between atoms: N1_9  and  C7_10 
REMARK    3  A    between atoms: C7_10  and  O2_11 
REMARK    4  A    between atoms: C7_10  and  N2_13 
REMARK    5  A    between atoms: N2_13  and  C9_15 
REMARK       I    between atoms: N3_18  and  C12_19 
REMARK       I    between atoms: C12_19  and  N4_21 
REMARK    6  A    between atoms: N4_21  and  C13_23 
ROOT
HETATM    1  C9  UNL     1      -1.397  -1.020  -0.548  1.00  0.00     0.090 C 
HETATM    2  C10 UNL     1      -1.108  -1.660   0.742  1.00  0.00     0.045 C 
HETATM    3  C11 UNL     1      -0.051  -1.045   1.604  1.00  0.00     0.129 C 
HETATM    4  N3  UNL     1       0.794  -0.117   0.879  1.00  0.00    -0.334 N 
HETATM    5  C12 UNL     1       2.186  -0.276   0.913  1.00  0.00     0.318 C 
HETATM    6  O3  UNL     1       2.651  -1.249   1.594  1.00  0.00    -0.247 OA
HETATM    7  N4  UNL     1       3.129   0.555   0.253  1.00  0.00    -0.338 N 
ATOM      8  H4  UNL     1       2.787   1.342  -0.299  1.00  0.00     0.164 HD
HETATM    9  C21 UNL     1       0.075   0.919   0.165  1.00  0.00     0.129 C 
HETATM   10  C22 UNL     1      -0.943   0.374  -0.775  1.00  0.00     0.045 C 
ENDROOT
BRANCH   1  11
HETATM   11  N2  UNL     1      -2.887  -1.062  -0.736  1.00  0.00    -0.347 N 
HETATM   12  C8  UNL     1      -3.309  -1.881  -1.831  1.00  0.00     0.153 C 
BRANCH  11  13
HETATM   13  C7  UNL     1      -3.709  -0.344   0.118  1.00  0.00     0.217 C 
BRANCH  13  14
HETATM   14  N1  UNL     1      -5.084  -0.249   0.156  1.00  0.00    -0.343 N 
HETATM   15  C2  UNL     1      -5.813   0.639   1.084  1.00  0.00     0.086 C 
HETATM   16  C1  UNL     1      -5.015   1.797   1.584  1.00  0.00     0.032 C 
HETATM   17  C3  UNL     1      -6.969   1.283   0.279  1.00  0.00     0.056 C 
HETATM   18  C4  UNL     1      -8.019   0.210   0.040  1.00  0.00     0.121 C 
HETATM   19  C5  UNL     1      -7.341  -1.156   0.037  1.00  0.00     0.051 C 
HETATM   20  C6  UNL     1      -5.978  -1.039  -0.672  1.00  0.00     0.129 C 
BRANCH  18  21
HETATM   21  O1  UNL     1      -8.666   0.355  -1.176  1.00  0.00    -0.395 OA
ATOM     22  H1  UNL     1      -9.322  -0.316  -1.325  1.00  0.00     0.210 HD
ENDBRANCH  18  21
ENDBRANCH  13  14
BRANCH  13  23
HETATM   23  O2  UNL     1      -3.077   0.347   1.021  1.00  0.00    -0.332 OA
ATOM     24  H2  UNL     1      -2.130   0.282   0.995  1.00  0.00     0.220 HD
ENDBRANCH  13  23
ENDBRANCH  11  13
ENDBRANCH   1  11
BRANCH   7  25
HETATM   25  C13 UNL     1       4.559   0.330   0.332  1.00  0.00     0.089 C 
HETATM   26  C14 UNL     1       5.236   1.469   1.005  1.00  0.00     0.027 C 
HETATM   27  C15 UNL     1       6.690   1.456   0.720  1.00  0.00     0.030 C 
HETATM   28  C16 UNL     1       7.259   0.174   0.246  1.00  0.00     0.069 C 
HETATM   29  C17 UNL     1       8.719   0.425  -0.139  1.00  0.00     0.036 C 
HETATM   30 CL1  UNL     1       7.284  -0.994   1.585  1.00  0.00    -0.116 Cl
HETATM   31  C18 UNL     1       6.574  -0.392  -0.967  1.00  0.00     0.122 C 
HETATM   32  C19 UNL     1       7.271   0.006  -2.248  1.00  0.00     0.054 C 
HETATM   33  F1  UNL     1       6.661  -1.767  -0.876  1.00  0.00    -0.241 F 
HETATM   34  C20 UNL     1       5.110  -0.044  -1.016  1.00  0.00     0.070 C 
ENDBRANCH   7  25
TORSDOF 6
