REMARK  2 active torsions:
REMARK  status: ('A' for Active; 'I' for Inactive)
REMARK    1  A    between atoms: C1_4  and  C2_5 
REMARK    2  A    between atoms: C2_5  and  O1_6 
ROOT
HETATM    1  C2  UNL     1      -0.689   0.159   0.367  1.00  0.00     0.131 C 
HETATM    2  C3  UNL     1       0.295  -0.951   0.661  1.00  0.00     0.098 C 
HETATM    3  C4  UNL     1       1.584  -0.529  -0.013  1.00  0.00     0.155 C 
HETATM    4 CL1  UNL     1       1.682  -1.199  -1.669  1.00  0.00    -0.095 Cl
HETATM    5 CL2  UNL     1       2.975  -1.027   0.965  1.00  0.00    -0.095 Cl
HETATM    6  C5  UNL     1       1.453   0.939  -0.074  1.00  0.00     0.071 C 
HETATM    7 CL3  UNL     1       2.752   2.088  -0.381  1.00  0.00    -0.084 Cl
HETATM    8  C6  UNL     1       0.209   1.320   0.133  1.00  0.00     0.072 C 
HETATM    9 CL4  UNL     1      -0.405   2.995   0.148  1.00  0.00    -0.084 Cl
ENDROOT
BRANCH   1  10
HETATM   10  C1  UNL     1      -1.484  -0.191  -0.849  1.00  0.00     0.097 C 
HETATM   11  N1  UNL     1      -1.793  -1.390  -1.075  1.00  0.00    -0.408 N 
ATOM     12  H12 UNL     1      -1.493  -2.111  -0.418  1.00  0.00     0.155 HD
ATOM     13  H11 UNL     1      -2.336  -1.629  -1.905  1.00  0.00     0.155 HD
ENDBRANCH   1  10
BRANCH   1  14
HETATM   14  O1  UNL     1      -1.503   0.445   1.450  1.00  0.00    -0.378 OA
ATOM     15  H1  UNL     1      -0.998   0.667   2.223  1.00  0.00     0.211 HD
ENDBRANCH   1  14
TORSDOF 2
