REMARK  2 active torsions:
REMARK  status: ('A' for Active; 'I' for Inactive)
REMARK       I    between atoms: C1_2  and  N2_4 
REMARK    1  A    between atoms: N2_4  and  C2_6 
REMARK    2  A    between atoms: C2_6  and  C4_10 
ROOT
HETATM    1  C2  UNL     1      -0.943   0.235   0.028  1.00  0.00     0.101 C 
HETATM    2  C3  UNL     1      -1.727   0.968   0.850  1.00  0.00     0.130 C 
HETATM    3 CL1  UNL     1      -0.959   1.752   2.246  1.00  0.00    -0.069 Cl
HETATM    4 CL2  UNL     1      -3.417   1.206   0.648  1.00  0.00    -0.069 Cl
ENDROOT
BRANCH   1   5
HETATM    5  N2  UNL     1       0.422   0.180   0.386  1.00  0.00    -0.309 N 
HETATM    6  C1  UNL     1       1.529  -0.446  -0.175  1.00  0.00     0.333 C 
HETATM    7  N1  UNL     1       2.801  -0.249   0.524  1.00  0.00    -0.040 NA
HETATM    8  O1  UNL     1       1.578  -1.153  -1.197  1.00  0.00    -0.251 OA
ATOM      9  H2  UNL     1       0.641   0.709   1.230  1.00  0.00     0.170 HD
ENDBRANCH   1   5
BRANCH   1  10
HETATM   10  C4  UNL     1      -1.449  -0.452  -1.142  1.00  0.00     0.233 C 
HETATM   11 CL3  UNL     1      -1.118  -2.202  -0.973  1.00  0.00    -0.077 Cl
HETATM   12 CL4  UNL     1      -3.217  -0.307  -1.386  1.00  0.00    -0.077 Cl
HETATM   13 CL5  UNL     1      -0.607   0.148  -2.606  1.00  0.00    -0.077 Cl
ENDBRANCH   1  10
TORSDOF 2
