REMARK  1 active torsions:
REMARK  status: ('A' for Active; 'I' for Inactive)
REMARK    1  A    between atoms: C2_5  and  O1_6 
ROOT
HETATM    1  N1  UNL     1      -0.752  -2.310  -0.740  1.00  0.00    -0.402 N 
ATOM      2  H11 UNL     1      -0.108  -3.044  -1.035  1.00  0.00     0.155 HD
ATOM      3  H12 UNL     1      -1.764  -2.437  -0.744  1.00  0.00     0.155 HD
HETATM    4  C1  UNL     1      -0.296  -1.188  -0.349  1.00  0.00     0.032 C 
HETATM    5  C2  UNL     1      -1.229  -0.124   0.078  1.00  0.00     0.183 C 
HETATM    6  C3  UNL     1      -0.598   1.202  -0.265  1.00  0.00     0.119 C 
HETATM    7 CL1  UNL     1      -1.667   2.495   0.350  1.00  0.00    -0.122 Cl
HETATM    8  C4  UNL     1       0.759   1.398   0.289  1.00  0.00     0.067 C 
HETATM    9  C5  UNL     1       1.623   0.216   0.396  1.00  0.00     0.136 C 
HETATM   10 CL2  UNL     1       3.249   0.624  -0.212  1.00  0.00    -0.100 Cl
HETATM   11 CL3  UNL     1       1.847  -0.261   2.117  1.00  0.00    -0.100 Cl
HETATM   12  C6  UNL     1       1.168  -1.004  -0.343  1.00  0.00     0.168 C 
HETATM   13 CL4  UNL     1       1.871  -2.423   0.493  1.00  0.00    -0.115 Cl
ENDROOT
BRANCH   5  14
HETATM   14  O1  UNL     1      -2.456  -0.180  -0.566  1.00  0.00    -0.388 OA
ATOM     15  H1  UNL     1      -3.056   0.504  -0.292  1.00  0.00     0.210 HD
ENDBRANCH   5  14
TORSDOF 1
