REMARK  1 active torsions:
REMARK  status: ('A' for Active; 'I' for Inactive)
REMARK    1  A    between atoms: N1_5  and  O1_7 
ROOT
HETATM    1  C1  UNL     1      -1.798   1.331   0.313  1.00  0.00     0.014 C 
HETATM    2  C2  UNL     1      -0.931   0.276  -0.333  1.00  0.00     0.029 C 
HETATM    3  C3  UNL     1       0.534   0.696  -0.354  1.00  0.00     0.065 C 
HETATM    4  C4  UNL     1       1.260  -0.437   0.264  1.00  0.00     0.052 C 
HETATM    5  N1  UNL     1       2.442  -0.481   0.759  1.00  0.00    -0.274 N 
ATOM      6  H1  UNL     1       2.774  -1.366   1.143  1.00  0.00     0.193 HD
HETATM    7  C5  UNL     1       0.341  -1.599   0.215  1.00  0.00     0.188 C 
HETATM    8 CL1  UNL     1       0.236  -2.226  -1.440  1.00  0.00    -0.091 Cl
HETATM    9 CL2  UNL     1       0.769  -2.860   1.376  1.00  0.00    -0.091 Cl
HETATM   10  C6  UNL     1      -0.963  -0.939   0.570  1.00  0.00     0.157 C 
HETATM   11 CL3  UNL     1      -0.879  -0.347   2.245  1.00  0.00    -0.097 Cl
HETATM   12 CL4  UNL     1      -2.365  -1.956   0.285  1.00  0.00    -0.097 Cl
ENDROOT
BRANCH   5  13
HETATM   13  O1  UNL     1       3.283   0.604   0.798  1.00  0.00    -0.290 OA
ATOM     14  H1  UNL     1       4.159   0.571   1.165  1.00  0.00     0.244 HD
ENDBRANCH   5  13
TORSDOF 1
