REMARK  6 active torsions:
REMARK  status: ('A' for Active; 'I' for Inactive)
REMARK    1  A    between atoms: C2_3  and  O1_4 
REMARK    2  A    between atoms: O1_4  and  C3_5 
REMARK    3  A    between atoms: C6_8  and  C7_9 
REMARK    4  A    between atoms: C7_9  and  C8_10 
REMARK    5  A    between atoms: C9_11  and  C10_12 
REMARK    6  A    between atoms: C12_14  and  C13_15 
ROOT
HETATM    1  N1  UNL     1      -5.918   5.190   2.770  1.00  0.00    -0.195 NA
HETATM    2  C1  UNL     1      -5.309   5.514   1.841  1.00  0.00     0.085 C 
HETATM    3  C2  UNL     1      -4.560   5.943   0.667  1.00  0.00     0.299 C 
ENDROOT
BRANCH   3   4
HETATM    4  O1  UNL     1      -3.359   5.277   0.478  1.00  0.00    -0.338 OA
BRANCH   4   5
HETATM    5  C3  UNL     1      -3.143   3.940   0.277  1.00  0.00     0.070 A 
HETATM    6  C4  UNL     1      -1.858   3.427   0.101  1.00  0.00     0.037 A 
HETATM    7  C5  UNL     1      -1.667   2.083  -0.096  1.00  0.00     0.012 A 
HETATM    8  C6  UNL     1      -2.715   1.156  -0.133  1.00  0.00    -0.031 A 
HETATM    9  C27 UNL     1      -3.969   1.722   0.048  1.00  0.00     0.012 A 
HETATM   10  C28 UNL     1      -4.187   3.068   0.246  1.00  0.00     0.037 A 
BRANCH   8  11
HETATM   11  C7  UNL     1      -2.485  -0.262  -0.331  1.00  0.00     0.126 C 
HETATM   12  C20 UNL     1      -3.043  -1.092   0.818  1.00  0.00     0.059 C 
HETATM   13  C21 UNL     1      -2.665  -2.520   0.620  1.00  0.00     0.087 C 
HETATM   14  C22 UNL     1      -3.708  -3.351   1.375  1.00  0.00     0.027 C 
HETATM   15  N3  UNL     1      -2.579  -3.025  -0.672  1.00  0.00    -0.343 N 
HETATM   16  C23 UNL     1      -3.821  -4.617   0.597  1.00  0.00     0.022 C 
HETATM   17  C24 UNL     1      -3.090  -4.374  -0.702  1.00  0.00     0.123 C 
HETATM   18  C25 UNL     1      -2.811  -2.248  -1.808  1.00  0.00     0.387 C 
HETATM   19  F3  UNL     1      -3.849  -2.804  -2.543  1.00  0.00    -0.176 F 
HETATM   20  F4  UNL     1      -1.707  -2.245  -2.632  1.00  0.00    -0.176 F 
HETATM   21  C26 UNL     1      -3.200  -0.806  -1.552  1.00  0.00     0.350 C 
HETATM   22  F5  UNL     1      -4.543  -0.815  -1.315  1.00  0.00    -0.195 F 
HETATM   23  F6  UNL     1      -2.930  -0.005  -2.642  1.00  0.00    -0.195 F 
BRANCH  11  24
HETATM   24  C8  UNL     1      -1.037  -0.585  -0.424  1.00  0.00    -0.083 C 
HETATM   25  C9  UNL     1       0.129  -0.889  -0.507  1.00  0.00    -0.072 C 
BRANCH  25  26
HETATM   26  C10 UNL     1       1.493  -1.294  -0.616  1.00  0.00     0.264 C 
HETATM   27  C11 UNL     1       2.489  -0.181  -0.396  1.00  0.00     0.052 C 
HETATM   28  C12 UNL     1       3.759  -1.042  -0.498  1.00  0.00     0.018 C 
HETATM   29  C19 UNL     1       3.384  -2.191   0.378  1.00  0.00     0.239 C 
HETATM   30  N2  UNL     1       1.912  -2.227   0.420  1.00  0.00    -0.060 N 
ATOM     31  H22 UNL     1       1.517  -2.031   1.340  1.00  0.00     0.278 HD
ATOM     32  H21 UNL     1       1.516  -3.162   0.322  1.00  0.00     0.278 HD
BRANCH  28  33
HETATM   33  C13 UNL     1       5.005  -0.330  -0.141  1.00  0.00    -0.009 C 
HETATM   34  C14 UNL     1       5.211   0.839  -1.073  1.00  0.00     0.011 C 
HETATM   35  C15 UNL     1       5.496   2.131  -0.342  1.00  0.00     0.079 C 
HETATM   36  C16 UNL     1       6.651   1.959   0.609  1.00  0.00     0.243 C 
HETATM   37  F1  UNL     1       6.754   3.070   1.448  1.00  0.00    -0.206 F 
HETATM   38  F2  UNL     1       7.798   1.838  -0.170  1.00  0.00    -0.206 F 
HETATM   39  C17 UNL     1       6.434   0.770   1.485  1.00  0.00     0.079 C 
HETATM   40  C18 UNL     1       5.030   0.195   1.268  1.00  0.00     0.011 C 
ENDBRANCH  28  33
ENDBRANCH  25  26
ENDBRANCH  11  24
ENDBRANCH   8  11
ENDBRANCH   4   5
ENDBRANCH   3   4
TORSDOF 6
