REMARK  5 active torsions:
REMARK  status: ('A' for Active; 'I' for Inactive)
REMARK       I    between atoms: C1_2  and  N1_3 
REMARK       I    between atoms: C1_2  and  N3_15 
REMARK    1  A    between atoms: N1_3  and  N2_5 
REMARK    2  A    between atoms: C2_7  and  C3_8 
REMARK    3  A    between atoms: C12_21  and  C13_22 
REMARK    4  A    between atoms: C13_22  and  C14_23 
REMARK    5  A    between atoms: C14_23  and  C15_25 
ROOT
HETATM    1  O1  UNL     1       0.863   2.059   0.200  1.00  0.00    -0.245 OA
HETATM    2  C1  UNL     1       0.470   1.155   1.005  1.00  0.00     0.339 C 
HETATM    3  N1  UNL     1      -0.856   1.312   1.516  1.00  0.00    -0.252 N 
ATOM      4  H1  UNL     1      -1.230   0.616   2.161  1.00  0.00     0.191 HD
HETATM    5  N3  UNL     1       1.322   0.043   1.371  1.00  0.00    -0.301 N 
HETATM    6  C9  UNL     1       0.832  -0.919   2.290  1.00  0.00     0.188 C 
HETATM    7 CL1  UNL     1      -0.326  -2.069   1.538  1.00  0.00    -0.102 Cl
HETATM    8  C10 UNL     1       1.840  -1.672   3.091  1.00  0.00     0.051 C 
HETATM    9  C11 UNL     1       2.878  -2.388   2.273  1.00  0.00     0.079 C 
HETATM   10  S1  UNL     1       3.828  -1.055   1.444  1.00  0.00    -0.143 SA
HETATM   11  C12 UNL     1       2.614   0.058   0.710  1.00  0.00     0.159 C 
ENDROOT
BRANCH  11  12
HETATM   12  C13 UNL     1       2.498  -0.303  -0.748  1.00  0.00     0.119 C 
BRANCH  12  13
HETATM   13  C14 UNL     1       3.865  -0.256  -1.348  1.00  0.00     0.183 C 
HETATM   14  O2  UNL     1       4.813   0.055  -0.649  1.00  0.00    -0.293 OA
BRANCH  13  15
HETATM   15  C15 UNL     1       4.084  -0.586  -2.792  1.00  0.00     0.248 C 
HETATM   16 CL2  UNL     1       5.811  -0.400  -3.139  1.00  0.00    -0.075 Cl
HETATM   17 CL3  UNL     1       3.649  -2.297  -3.106  1.00  0.00    -0.075 Cl
HETATM   18 CL4  UNL     1       3.083   0.425  -3.850  1.00  0.00    -0.075 Cl
ENDBRANCH  13  15
ENDBRANCH  12  13
ENDBRANCH  11  12
BRANCH   3  19
HETATM   19  N2  UNL     1      -1.625   2.368   1.159  1.00  0.00    -0.307 N 
HETATM   20  C2  UNL     1      -2.631   2.612   0.501  1.00  0.00     0.118 C 
ATOM     21  H2  UNL     1      -1.252   3.227   1.563  1.00  0.00     0.186 HD
BRANCH  20  22
HETATM   22  C3  UNL     1      -3.481   1.701  -0.241  1.00  0.00    -0.019 A 
HETATM   23  C4  UNL     1      -3.230   0.368  -0.299  1.00  0.00     0.014 A 
HETATM   24  C5  UNL     1      -4.071  -0.495  -1.023  1.00  0.00     0.020 A 
HETATM   25  C6  UNL     1      -5.173  -0.019  -1.696  1.00  0.00     0.011 A 
HETATM   26 BR1  UNL     1      -6.259  -1.256  -2.653  1.00  0.00    -0.051 Br
HETATM   27  C7  UNL     1      -5.425   1.327  -1.637  1.00  0.00     0.020 A 
HETATM   28  C8  UNL     1      -4.600   2.155  -0.929  1.00  0.00     0.014 A 
ENDBRANCH  20  22
ENDBRANCH   3  19
TORSDOF 5
