REMARK  6 active torsions:
REMARK  status: ('A' for Active; 'I' for Inactive)
REMARK    1  A    between atoms: N1_1  and  C1_4 
REMARK    2  A    between atoms: C2_7  and  N3_8 
REMARK    3  A    between atoms: N3_8  and  O1_10 
REMARK    4  A    between atoms: C3_12  and  O2_13 
REMARK    5  A    between atoms: O2_13  and  N4_14 
REMARK    6  A    between atoms: N4_14  and  C4_16 
ROOT
HETATM    1  C1  UNL     1      -3.718  -0.431  -0.012  1.00  0.00     0.680 A 
HETATM    2  N2  UNL     1      -3.356   0.365  -1.024  1.00  0.00    -0.172 N 
ATOM      3  H2  UNL     1      -4.035   0.577  -1.755  1.00  0.00     0.186 HD
HETATM    4  C2  UNL     1      -2.122   0.893  -1.104  1.00  0.00     0.182 A 
HETATM    5  C3  UNL     1      -1.167   0.630  -0.131  1.00  0.00     0.213 A 
HETATM    6  C6  UNL     1      -1.551  -0.193   0.908  1.00  0.00     0.299 A 
HETATM    7  O6  UNL     1      -0.708  -0.449   1.802  1.00  0.00    -0.264 OA
HETATM    8  N7  UNL     1      -2.801  -0.692   0.934  1.00  0.00    -0.154 N 
ATOM      9  H7  UNL     1      -3.065  -1.298   1.711  1.00  0.00     0.187 HD
ENDROOT
BRANCH   5  10
HETATM   10  O2  UNL     1       0.111   1.175  -0.213  1.00  0.00    -0.226 OA
BRANCH  10  11
HETATM   11  N4  UNL     1       1.151   0.577  -0.838  1.00  0.00    -0.239 N 
ATOM     12  H4  UNL     1       1.086   0.415  -1.843  1.00  0.00     0.196 HD
BRANCH  11  13
HETATM   13  C4  UNL     1       2.359   0.153  -0.143  1.00  0.00     0.206 A 
HETATM   14  N5  UNL     1       3.017   1.016   0.527  1.00  0.00    -0.246 N 
HETATM   15  S1  UNL     1       4.372   0.223   1.223  1.00  0.00     0.327 S 
ATOM     16  H5  UNL     1       2.780   2.003   0.631  1.00  0.00     0.182 HD
HETATM   17  O3  UNL     1       5.658   0.787   0.696  1.00  0.00    -0.182 OA
HETATM   18  O4  UNL     1       4.328   0.232   2.725  1.00  0.00    -0.182 OA
HETATM   19  N6  UNL     1       4.069  -1.359   0.599  1.00  0.00    -0.230 N 
HETATM   20  C5  UNL     1       2.882  -1.186  -0.150  1.00  0.00     0.302 A 
ATOM     21  H6  UNL     1       4.613  -2.210   0.737  1.00  0.00     0.183 HD
HETATM   22  O5  UNL     1       2.316  -2.144  -0.784  1.00  0.00    -0.263 OA
ENDBRANCH  11  13
ENDBRANCH  10  11
ENDBRANCH   5  10
BRANCH   4  23
HETATM   23  N3  UNL     1      -1.723   1.746  -2.180  1.00  0.00    -0.250 N 
ATOM     24  H3  UNL     1      -1.873   1.426  -3.137  1.00  0.00     0.196 HD
BRANCH  23  25
HETATM   25  O1  UNL     1      -1.203   2.857  -2.002  1.00  0.00    -0.288 OA
ATOM     26  H1  UNL     1      -0.938   3.424  -2.717  1.00  0.00     0.244 HD
ENDBRANCH  23  25
ENDBRANCH   4  23
BRANCH   1  27
HETATM   27  N1  UNL     1      -4.922  -0.935   0.049  1.00  0.00    -0.234 N 
ATOM     28  H12 UNL     1      -5.618  -0.737  -0.669  1.00  0.00     0.174 HD
ATOM     29  H11 UNL     1      -5.198  -1.542   0.821  1.00  0.00     0.174 HD
ENDBRANCH   1  27
TORSDOF 6
