REMARK  8 active torsions:
REMARK  status: ('A' for Active; 'I' for Inactive)
REMARK    1  A    between atoms: O1_2  and  C2_3 
REMARK    2  A    between atoms: C3_5  and  O3_6 
REMARK    3  A    between atoms: C3_5  and  C4_8 
REMARK    4  A    between atoms: C4_8  and  O4_9 
REMARK    5  A    between atoms: C4_8  and  O5_11 
REMARK    6  A    between atoms: N1_17  and  O7_19 
REMARK    7  A    between atoms: O7_19  and  C8_20 
REMARK    8  A    between atoms: C12_24  and  O8_25 
ROOT
HETATM    1  C2  UNL     1      -2.422  -0.169   0.904  1.00  0.00     0.292 C 
HETATM    2  O2  UNL     1      -2.752   1.129   0.519  1.00  0.00    -0.316 OA
HETATM    3  C3  UNL     1      -2.229   1.474  -0.722  1.00  0.00     0.242 C 
HETATM    4  C5  UNL     1      -0.977   0.709  -0.924  1.00  0.00     0.201 C 
HETATM    5  O6  UNL     1      -0.049   1.271  -1.756  1.00  0.00    -0.374 OA
HETATM    6  C6  UNL     1       1.087   0.467  -1.471  1.00  0.00     0.223 C 
HETATM    7  C7  UNL     1       1.106   0.369  -0.004  1.00  0.00     0.043 C 
HETATM    8  N1  UNL     1       2.051   0.027   0.752  1.00  0.00    -0.272 N 
ATOM      9  H1  UNL     1       1.926   0.002   1.764  1.00  0.00     0.193 HD
HETATM   10  C11 UNL     1      -0.241   0.762   0.431  1.00  0.00     0.103 C 
HETATM   11  C12 UNL     1      -0.936  -0.258   1.285  1.00  0.00     0.185 C 
ENDROOT
BRANCH   3  12
HETATM   12  O3  UNL     1      -1.918   2.841  -0.712  1.00  0.00    -0.359 OA
ATOM     13  H3  UNL     1      -1.561   3.077  -1.560  1.00  0.00     0.213 HD
ENDBRANCH   3  12
BRANCH   3  14
HETATM   14  C4  UNL     1      -3.203   1.254  -1.846  1.00  0.00     0.320 C 
BRANCH  14  15
HETATM   15  O4  UNL     1      -3.617  -0.056  -1.973  1.00  0.00    -0.366 OA
ATOM     16  H4  UNL     1      -4.232  -0.195  -2.683  1.00  0.00     0.212 HD
ENDBRANCH  14  15
BRANCH  14  17
HETATM   17  O5  UNL     1      -4.291   2.139  -1.741  1.00  0.00    -0.366 OA
ATOM     18  H5  UNL     1      -4.906   2.000  -2.451  1.00  0.00     0.212 HD
ENDBRANCH  14  17
ENDBRANCH   3  14
BRANCH   1  19
HETATM   19  O1  UNL     1      -3.156  -0.453   2.045  1.00  0.00    -0.363 OA
HETATM   20  C1  UNL     1      -3.936  -1.574   1.800  1.00  0.00     0.204 C 
ENDBRANCH   1  19
BRANCH  11  21
HETATM   21  O8  UNL     1      -0.450  -1.530   1.115  1.00  0.00    -0.390 OA
ATOM     22  H8  UNL     1       0.469  -1.585   1.351  1.00  0.00     0.210 HD
ENDBRANCH  11  21
BRANCH   8  23
HETATM   23  O7  UNL     1       3.257  -0.312   0.185  1.00  0.00    -0.276 OA
BRANCH  23  24
HETATM   24  C8  UNL     1       4.358  -0.777   0.938  1.00  0.00     0.144 C 
HETATM   25  C9  UNL     1       4.873  -2.105   0.492  1.00  0.00     0.042 C 
HETATM   26  C10 UNL     1       5.478   0.254   0.767  1.00  0.00     0.042 C 
ENDBRANCH  23  24
ENDBRANCH   8  23
TORSDOF 8
