REMARK  7 active torsions:
REMARK  status: ('A' for Active; 'I' for Inactive)
REMARK    1  A    between atoms: O1_2  and  C2_3 
REMARK    2  A    between atoms: C2_3  and  C3_5 
REMARK    3  A    between atoms: C4_6  and  N1_7 
REMARK    4  A    between atoms: N2_9  and  C5_11 
REMARK    5  A    between atoms: C7_16  and  C8_17 
REMARK    6  A    between atoms: C11_22  and  N4_23 
REMARK    7  A    between atoms: C14_32  and  N7_33 
ROOT
HETATM    1  N1  UNL     1       1.640   0.986  -1.362  1.00  0.00    -0.283 N 
ATOM      2  H1  UNL     1       2.240   1.792  -1.535  1.00  0.00     0.188 HD
HETATM    3  N2  UNL     1       0.490   1.232  -1.628  1.00  0.00    -0.293 N 
ATOM      4  H2  UNL     1       0.364   2.186  -1.967  1.00  0.00     0.187 HD
ENDROOT
BRANCH   3   5
HETATM    5  C5  UNL     1      -0.712   0.517  -1.581  1.00  0.00     0.129 A 
HETATM    6  C6  UNL     1      -1.128  -0.360  -2.556  1.00  0.00     0.275 A 
HETATM    7  O3  UNL     1      -0.398  -0.567  -3.588  1.00  0.00    -0.266 OA
HETATM    8  N3  UNL     1      -2.275  -1.021  -2.489  1.00  0.00    -0.315 N 
HETATM    9  C7  UNL     1      -3.140  -0.883  -1.443  1.00  0.00     0.124 A 
ATOM     10  H3  UNL     1      -2.520  -1.657  -3.248  1.00  0.00     0.169 HD
HETATM   11  C9  UNL     1      -2.793  -0.021  -0.425  1.00  0.00     0.015 A 
HETATM   12  C10 UNL     1      -3.580   0.210   0.680  1.00  0.00     0.070 A 
HETATM   13  C13 UNL     1      -1.579   0.669  -0.513  1.00  0.00     0.026 A 
HETATM   14  C11 UNL     1      -3.223   1.083   1.690  1.00  0.00     0.174 A 
HETATM   15  N5  UNL     1      -2.056   1.729   1.582  1.00  0.00    -0.346 N 
HETATM   16  C12 UNL     1      -1.268   1.530   0.525  1.00  0.00     0.104 A 
ATOM     17  H5  UNL     1      -1.767   2.378   2.314  1.00  0.00     0.167 HD
BRANCH   9  18
HETATM   18  C8  UNL     1      -4.368  -1.631  -1.433  1.00  0.00     0.227 C 
HETATM   19  O4  UNL     1      -4.578  -2.400  -2.428  1.00  0.00    -0.643 OA
HETATM   20  O5  UNL     1      -5.329  -1.615  -0.487  1.00  0.00    -0.643 OA
ENDBRANCH   9  18
BRANCH  14  21
HETATM   21  N4  UNL     1      -4.081   1.290   2.829  1.00  0.00    -0.098 N 
HETATM   22  O6  UNL     1      -3.710   2.090   3.706  1.00  0.00    -0.531 OA
HETATM   23  O7  UNL     1      -5.265   0.644   2.967  1.00  0.00    -0.531 OA
ENDBRANCH  14  21
ENDBRANCH   3   5
BRANCH   1  24
HETATM   24  C4  UNL     1       2.366  -0.085  -0.889  1.00  0.00     0.157 A 
HETATM   25  C3  UNL     1       2.972  -0.029   0.361  1.00  0.00     0.153 A 
HETATM   26  C15 UNL     1       3.728  -1.106   0.858  1.00  0.00     0.279 A 
HETATM   27  N8  UNL     1       3.835  -2.187   0.071  1.00  0.00    -0.155 N 
HETATM   28  O8  UNL     1       4.282  -1.082   1.978  1.00  0.00    -0.266 OA
HETATM   29  C14 UNL     1       3.270  -2.275  -1.129  1.00  0.00     0.680 A 
ATOM     30  H8  UNL     1       4.377  -2.981   0.410  1.00  0.00     0.187 HD
HETATM   31  N6  UNL     1       2.554  -1.240  -1.585  1.00  0.00    -0.174 N 
ATOM     32  H6  UNL     1       2.125  -1.321  -2.507  1.00  0.00     0.186 HD
BRANCH  25  33
HETATM   33  C2  UNL     1       2.878   1.126   1.239  1.00  0.00     0.302 C 
HETATM   34  O2  UNL     1       1.972   1.262   2.097  1.00  0.00    -0.259 OA
BRANCH  33  35
HETATM   35  O1  UNL     1       3.802   2.187   1.194  1.00  0.00    -0.322 OA
HETATM   36  C1  UNL     1       3.704   3.304   2.052  1.00  0.00     0.213 C 
ENDBRANCH  33  35
ENDBRANCH  25  33
BRANCH  29  37
HETATM   37  N7  UNL     1       3.418  -3.366  -1.844  1.00  0.00    -0.234 N 
ATOM     38  H72 UNL     1       2.984  -3.434  -2.765  1.00  0.00     0.174 HD
ATOM     39  H71 UNL     1       3.964  -4.155  -1.497  1.00  0.00     0.174 HD
ENDBRANCH  29  37
ENDBRANCH   1  24
TORSDOF 7
