REMARK  8 active torsions:
REMARK  status: ('A' for Active; 'I' for Inactive)
REMARK    1  A    between atoms: O1_2  and  C2_3 
REMARK    2  A    between atoms: C2_3  and  C3_5 
REMARK    3  A    between atoms: C5_7  and  O3_8 
REMARK    4  A    between atoms: O3_8  and  C6_9 
REMARK    5  A    between atoms: C7_12  and  N2_13 
REMARK    6  A    between atoms: N2_13  and  C8_15 
REMARK    7  A    between atoms: C12_22  and  N4_23 
REMARK    8  A    between atoms: C13_29  and  C14_30 
ROOT
HETATM    1  O3  UNL     1      -0.069   1.292   1.102  1.00  0.00    -0.271 OA
ENDROOT
BRANCH   1   2
HETATM    2  C5  UNL     1      -1.402   0.885   0.860  1.00  0.00     0.122 A 
HETATM    3  C4  UNL     1      -2.080  -0.111   1.485  1.00  0.00     0.064 A 
HETATM    4  C3  UNL     1      -3.365  -0.349   1.104  1.00  0.00     0.064 A 
HETATM    5  C13 UNL     1      -3.878   0.430   0.125  1.00  0.00     0.076 A 
HETATM    6  S1  UNL     1      -2.537   1.484  -0.243  1.00  0.00    -0.060 SA
BRANCH   4   7
HETATM    7  C2  UNL     1      -4.131  -1.429   1.770  1.00  0.00     0.294 C 
HETATM    8  O2  UNL     1      -3.597  -2.141   2.695  1.00  0.00    -0.259 OA
BRANCH   7   9
HETATM    9  O1  UNL     1      -5.418  -1.764   1.484  1.00  0.00    -0.322 OA
HETATM   10  C1  UNL     1      -6.110  -2.822   2.163  1.00  0.00     0.213 C 
ENDBRANCH   7   9
ENDBRANCH   4   7
BRANCH   5  11
HETATM   11  C14 UNL     1      -5.153   0.523  -0.565  1.00  0.00     0.184 A 
HETATM   12  N6  UNL     1      -6.277  -0.143  -0.468  1.00  0.00    -0.275 N 
HETATM   13  N7  UNL     1      -7.202   0.285  -1.309  1.00  0.00    -0.263 N 
ATOM     14  H6  UNL     1      -6.423  -0.911   0.187  1.00  0.00     0.189 HD
HETATM   15  C15 UNL     1      -6.615   1.295  -1.983  1.00  0.00     0.238 A 
ATOM     16  H7  UNL     1      -8.151  -0.070  -1.423  1.00  0.00     0.190 HD
HETATM   17  N8  UNL     1      -7.229   1.963  -2.903  1.00  0.00    -0.364 N 
HETATM   18  O5  UNL     1      -5.405   1.422  -1.532  1.00  0.00    -0.259 OA
ATOM     19  H82 UNL     1      -8.180   1.863  -3.258  1.00  0.00     0.159 HD
ATOM     20  H81 UNL     1      -6.785   2.727  -3.413  1.00  0.00     0.159 HD
ENDBRANCH   5  11
ENDBRANCH   1   2
BRANCH   1  21
HETATM   21  C6  UNL     1       0.999   0.651   0.493  1.00  0.00     0.258 A 
HETATM   22  N1  UNL     1       2.238   1.114   0.787  1.00  0.00    -0.154 N 
HETATM   23  C7  UNL     1       3.310   0.527   0.223  1.00  0.00     0.696 A 
ATOM     24  H1  UNL     1       2.357   1.898   1.428  1.00  0.00     0.188 HD
HETATM   25  N3  UNL     1       3.113  -0.510  -0.623  1.00  0.00    -0.022 N 
HETATM   26  C12 UNL     1       1.893  -0.974  -0.920  1.00  0.00     0.693 A 
ATOM     27  H3  UNL     1       3.925  -0.955  -1.051  1.00  0.00     0.203 HD
HETATM   28  N5  UNL     1       0.826  -0.377  -0.348  1.00  0.00    -0.154 N 
ATOM     29  H5  UNL     1      -0.115  -0.710  -0.557  1.00  0.00     0.188 HD
BRANCH  23  30
HETATM   30  N2  UNL     1       4.467   0.970   0.508  1.00  0.00    -0.219 N 
ATOM     31  H2  UNL     1       4.502   1.755   1.158  1.00  0.00     0.178 HD
BRANCH  30  32
HETATM   32  C8  UNL     1       5.721   0.496   0.024  1.00  0.00     0.125 C 
HETATM   33  C9  UNL     1       6.048   0.984  -1.381  1.00  0.00     0.054 C 
HETATM   34  C10 UNL     1       7.563   1.063  -1.293  1.00  0.00     0.169 C 
HETATM   35  O4  UNL     1       7.895   1.352  -0.001  1.00  0.00    -0.389 OA
HETATM   36  C11 UNL     1       6.827   1.138   0.822  1.00  0.00     0.193 C 
ENDBRANCH  30  32
ENDBRANCH  23  30
BRANCH  26  37
HETATM   37  N4  UNL     1       1.769  -1.960  -1.730  1.00  0.00    -0.234 N 
ATOM     38  H42 UNL     1       2.575  -2.411  -2.162  1.00  0.00     0.174 HD
ATOM     39  H41 UNL     1       0.839  -2.314  -1.956  1.00  0.00     0.174 HD
ENDBRANCH  26  37
ENDBRANCH   1  21
TORSDOF 8
