REMARK  7 active torsions:
REMARK  status: ('A' for Active; 'I' for Inactive)
REMARK    1  A    between atoms: C2_2  and  O1_3 
REMARK    2  A    between atoms: O1_3  and  C3_4 
REMARK    3  A    between atoms: C3_4  and  C4_6 
REMARK    4  A    between atoms: C5_7  and  N1_8 
REMARK       I    between atoms: N1_8  and  C6_10 
REMARK    5  A    between atoms: C6_10  and  C7_12 
REMARK    6  A    between atoms: C7_12  and  C8_13 
REMARK    7  A    between atoms: C16_25  and  C17_26 
ROOT
HETATM    1  N1  UNL     1      -1.268  -0.403  -1.375  1.00  0.00    -0.320 N 
ATOM      2  H1  UNL     1      -1.164  -0.405  -2.390  1.00  0.00     0.169 HD
HETATM    3  C6  UNL     1      -0.424  -1.229  -0.667  1.00  0.00     0.228 C 
HETATM    4  O3  UNL     1      -0.390  -1.308   0.584  1.00  0.00    -0.273 OA
ENDROOT
BRANCH   1   5
HETATM    5  C5  UNL     1      -2.271   0.453  -0.838  1.00  0.00     0.094 A 
HETATM    6  C4  UNL     1      -3.087   0.449   0.239  1.00  0.00     0.080 A 
HETATM    7  C19 UNL     1      -3.723   1.598   0.576  1.00  0.00    -0.022 A 
HETATM    8  C16 UNL     1      -3.514   2.689  -0.200  1.00  0.00     0.059 A 
HETATM    9  C20 UNL     1      -4.613   1.680   1.810  1.00  0.00     0.051 C 
HETATM   10  S2  UNL     1      -2.429   2.121  -1.395  1.00  0.00    -0.067 SA
BRANCH   6  11
HETATM   11  C3  UNL     1      -3.519  -0.861   0.834  1.00  0.00     0.296 C 
HETATM   12  O2  UNL     1      -4.228  -0.922   1.880  1.00  0.00    -0.259 OA
BRANCH  11  13
HETATM   13  O1  UNL     1      -3.201  -2.090   0.295  1.00  0.00    -0.318 OA
BRANCH  13  14
HETATM   14  C2  UNL     1      -3.609  -3.330   0.819  1.00  0.00     0.174 C 
HETATM   15  C1  UNL     1      -5.115  -3.498   0.873  1.00  0.00     0.034 C 
ENDBRANCH  13  14
ENDBRANCH  11  13
ENDBRANCH   6  11
BRANCH   8  16
HETATM   16  C17 UNL     1      -4.055   4.075  -0.126  1.00  0.00     0.163 C 
HETATM   17  C18 UNL     1      -3.609   5.056  -1.172  1.00  0.00     0.097 C 
HETATM   18  O4  UNL     1      -4.837   4.475   0.723  1.00  0.00    -0.292 OA
ENDBRANCH   8  16
ENDBRANCH   1   5
BRANCH   3  19
HETATM   19  C7  UNL     1       0.562  -2.137  -1.355  1.00  0.00     0.168 C 
BRANCH  19  20
HETATM   20  C8  UNL     1       1.918  -1.575  -1.087  1.00  0.00     0.060 A 
HETATM   21  N2  UNL     1       2.775  -1.795  -0.118  1.00  0.00    -0.356 N 
HETATM   22  C9  UNL     1       3.928  -1.199  -0.100  1.00  0.00     0.023 A 
ATOM     23  H2  UNL     1       2.532  -2.443   0.631  1.00  0.00     0.166 HD
HETATM   24  C10 UNL     1       4.217  -0.339  -1.121  1.00  0.00     0.007 A 
HETATM   25  C15 UNL     1       4.898  -1.485   1.030  1.00  0.00     0.058 C 
HETATM   26  S1  UNL     1       2.776  -0.441  -2.068  1.00  0.00    -0.079 SA
HETATM   27  C11 UNL     1       5.417   0.503  -1.463  1.00  0.00     0.048 C 
HETATM   28  C12 UNL     1       5.787   1.292  -0.248  1.00  0.00     0.005 C 
HETATM   29  C13 UNL     1       6.548   0.336   0.665  1.00  0.00     0.001 C 
HETATM   30  C14 UNL     1       5.504  -0.244   1.599  1.00  0.00     0.006 C 
ENDBRANCH  19  20
ENDBRANCH   3  19
TORSDOF 7
