REMARK  6 active torsions:
REMARK  status: ('A' for Active; 'I' for Inactive)
REMARK    1  A    between atoms: N1_5  and  C5_6 
REMARK    2  A    between atoms: C5_6  and  O1_7 
REMARK    3  A    between atoms: C5_6  and  C6_9 
REMARK    4  A    between atoms: C6_9  and  O2_12 
REMARK    5  A    between atoms: O2_12  and  C9_13 
REMARK    6  A    between atoms: C15_19  and  O3_20 
ROOT
HETATM    1  C6  UNL     1      -0.268   1.747  -0.293  1.00  0.00     0.118 C 
HETATM    2  C7  UNL     1      -0.257   3.223   0.225  1.00  0.00     0.055 C 
HETATM    3  C8  UNL     1      -0.627   1.977  -1.783  1.00  0.00     0.055 C 
ENDROOT
BRANCH   1   4
HETATM    4  C5  UNL     1       1.144   1.384  -0.343  1.00  0.00     0.148 C 
BRANCH   4   5
HETATM    5  N1  UNL     1       1.743   0.124  -0.553  1.00  0.00    -0.363 N 
HETATM    6  C4  UNL     1       1.085  -1.114  -0.835  1.00  0.00     0.125 C 
HETATM    7  C3  UNL     1       1.761  -1.891  -1.946  1.00  0.00     0.024 C 
HETATM    8  C2  UNL     1       3.233  -2.066  -1.767  1.00  0.00    -0.015 C 
HETATM    9  C1  UNL     1       3.588  -3.559  -1.717  1.00  0.00     0.010 C 
HETATM   10  C18 UNL     1       3.649  -1.406  -0.470  1.00  0.00     0.024 C 
HETATM   11  C17 UNL     1       3.211   0.030  -0.507  1.00  0.00     0.125 C 
ENDBRANCH   4   5
BRANCH   4  12
HETATM   12  O1  UNL     1       2.047   2.320  -0.192  1.00  0.00    -0.347 OA
ATOM     13  H1  UNL     1       1.644   3.168  -0.051  1.00  0.00     0.219 HD
ENDBRANCH   4  12
ENDBRANCH   1   4
BRANCH   1  14
HETATM   14  O2  UNL     1      -1.079   0.974   0.347  1.00  0.00    -0.367 OA
BRANCH  14  15
HETATM   15  C9  UNL     1      -1.233   0.753   1.655  1.00  0.00     0.126 C 
HETATM   16  C10 UNL     1      -2.423   1.432   2.282  1.00  0.00     0.033 C 
HETATM   17  C11 UNL     1      -3.522   1.960   1.396  1.00  0.00     0.014 C 
HETATM   18  C12 UNL     1      -4.521   0.759   1.012  1.00  0.00     0.094 C 
HETATM   19  C13 UNL     1      -3.666  -0.358   1.202  1.00  0.00    -0.104 C 
HETATM   20  C14 UNL     1      -2.890  -1.050   1.406  1.00  0.00    -0.075 C 
HETATM   21  C15 UNL     1      -1.707  -1.748   1.767  1.00  0.00     0.199 C 
HETATM   22  C16 UNL     1      -0.783  -0.541   2.291  1.00  0.00     0.076 C 
BRANCH  21  23
HETATM   23  O3  UNL     1      -1.909  -2.646   2.759  1.00  0.00    -0.383 OA
ATOM     24  H3  UNL     1      -1.118  -3.113   3.000  1.00  0.00     0.211 HD
ENDBRANCH  21  23
ENDBRANCH  14  15
ENDBRANCH   1  14
TORSDOF 6
