REMARK  3 active torsions:
REMARK  status: ('A' for Active; 'I' for Inactive)
REMARK    1  A    between atoms: C2_2  and  C3_3 
REMARK    2  A    between atoms: N1_6  and  C6_7 
REMARK    3  A    between atoms: C6_7  and  C7_8 
ROOT
HETATM    1  C3  UNL     1      -0.801   0.653  -0.689  1.00  0.00     0.017 C 
HETATM    2  C4  UNL     1      -0.062   0.124  -1.931  1.00  0.00     0.039 C 
HETATM    3  C5  UNL     1       1.398   0.465  -1.885  1.00  0.00     0.273 C 
HETATM    4  N1  UNL     1       2.080  -0.170  -0.774  1.00  0.00     0.090 N 
HETATM    5  C11 UNL     1       1.095  -0.666   0.123  1.00  0.00     0.273 C 
HETATM    6  C12 UNL     1       0.025   0.337   0.492  1.00  0.00     0.039 C 
ENDROOT
BRANCH   1   7
HETATM    7  C2  UNL     1      -2.176   0.103  -0.682  1.00  0.00    -0.079 C 
HETATM    8  C1  UNL     1      -3.180   0.967  -0.746  1.00  0.00    -0.017 C 
HETATM    9  C17 UNL     1      -4.623   0.599  -0.751  1.00  0.00     0.026 C 
HETATM   10  C16 UNL     1      -5.190   0.930   0.601  1.00  0.00     0.122 C 
HETATM   11  C18 UNL     1      -4.811  -0.904  -0.914  1.00  0.00     0.016 C 
HETATM   12  N2  UNL     1      -4.839   0.045   1.645  1.00  0.00    -0.420 N 
HETATM   13  C15 UNL     1      -3.785  -0.880   1.375  1.00  0.00     0.118 C 
ATOM     14  H2  UNL     1      -5.315   0.066   2.547  1.00  0.00     0.153 HD
HETATM   15  C14 UNL     1      -3.814  -1.524   0.041  1.00  0.00     0.007 C 
HETATM   16  C13 UNL     1      -2.459  -1.356  -0.608  1.00  0.00     0.040 C 
ENDBRANCH   1   7
BRANCH   4  17
HETATM   17  C6  UNL     1       3.014   0.751  -0.233  1.00  0.00     0.304 C 
BRANCH  17  18
HETATM   18  C7  UNL     1       3.805   0.237   0.934  1.00  0.00     0.154 C 
HETATM   19  C8  UNL     1       4.590  -0.996   0.627  1.00  0.00     0.060 C 
HETATM   20  C9  UNL     1       5.867  -0.754  -0.110  1.00  0.00     0.173 C 
HETATM   21  O1  UNL     1       6.597   0.210   0.623  1.00  0.00    -0.367 OA
HETATM   22  C10 UNL     1       5.794   1.372   0.578  1.00  0.00     0.338 C 
HETATM   23  O2  UNL     1       4.670   1.244   1.352  1.00  0.00    -0.360 OA
ENDBRANCH  17  18
ENDBRANCH   4  17
TORSDOF 3
