REMARK  3 active torsions:
REMARK  status: ('A' for Active; 'I' for Inactive)
REMARK    1  A    between atoms: C2_2  and  C4_4 
REMARK    2  A    between atoms: N1_5  and  C5_6 
REMARK    3  A    between atoms: C14_16  and  C16_18 
ROOT
HETATM    1  C4  UNL     1       0.058  -0.500   0.105  1.00  0.00     0.261 C 
HETATM    2  N1  UNL     1      -0.796   0.685  -0.120  1.00  0.00     0.101 N 
HETATM    3  C10 UNL     1      -0.399   1.648   0.846  1.00  0.00     0.276 C 
HETATM    4  C11 UNL     1       0.854   1.119   1.512  1.00  0.00     0.071 C 
HETATM    5  C12 UNL     1       1.343   0.120   0.422  1.00  0.00     0.099 C 
HETATM    6  C13 UNL     1       2.532  -0.642   0.859  1.00  0.00     0.089 C 
HETATM    7  C14 UNL     1       3.282   0.214  -0.136  1.00  0.00     0.149 C 
HETATM    8  C15 UNL     1       4.036  -0.612  -1.195  1.00  0.00     0.058 C 
HETATM    9  O4  UNL     1       2.087   0.720  -0.560  1.00  0.00    -0.356 OA
ENDROOT
BRANCH   1  10
HETATM   10  C2  UNL     1      -0.108  -1.481  -0.968  1.00  0.00     0.014 C 
HETATM   11  C1  UNL     1       0.702  -2.726  -0.818  1.00  0.00     0.012 C 
HETATM   12  C3  UNL     1       0.049  -0.959  -2.368  1.00  0.00     0.012 C 
ENDBRANCH   1  10
BRANCH   2  13
HETATM   13  C5  UNL     1      -2.192   0.358  -0.099  1.00  0.00     0.227 C 
HETATM   14  C6  UNL     1      -2.950   1.677  -0.289  1.00  0.00     0.062 C 
HETATM   15  C7  UNL     1      -4.420   1.311  -0.348  1.00  0.00     0.169 C 
HETATM   16  O1  UNL     1      -4.756   0.895   0.961  1.00  0.00    -0.391 OA
HETATM   17  C8  UNL     1      -4.173  -0.327   1.174  1.00  0.00     0.169 C 
HETATM   18  C9  UNL     1      -2.660  -0.294   1.153  1.00  0.00     0.062 C 
ENDBRANCH   2  13
BRANCH   7  19
HETATM   19  C16 UNL     1       4.264   1.106   0.484  1.00  0.00     0.209 C 
HETATM   20  O2  UNL     1       5.344   0.553   0.885  1.00  0.00    -0.646 OA
HETATM   21  O3  UNL     1       4.156   2.450   0.679  1.00  0.00    -0.646 OA
ENDBRANCH   7  19
TORSDOF 3
