REMARK  2 active torsions:
REMARK  status: ('A' for Active; 'I' for Inactive)
REMARK    1  A    between atoms: C2_4  and  C3_5 
REMARK    2  A    between atoms: C9_13  and  N3_14 
ROOT
HETATM    1  C3  UNL     1       2.597   0.762  -0.223  1.00  0.00     0.042 C 
HETATM    2  C4  UNL     1       1.509   0.038  -0.397  1.00  0.00     0.030 C 
HETATM    3  C5  UNL     1       1.624  -1.355  -0.852  1.00  0.00     0.088 C 
HETATM    4  C6  UNL     1       0.416  -2.181  -0.525  1.00  0.00     0.045 C 
HETATM    5  C7  UNL     1      -0.139  -2.798  -1.786  1.00  0.00     0.039 C 
HETATM    6  C8  UNL     1       0.863  -3.332   0.385  1.00  0.00     0.039 C 
HETATM    7  N2  UNL     1      -0.613  -1.474   0.168  1.00  0.00    -0.217 N 
ATOM      8  H2  UNL     1      -1.265  -2.027   0.725  1.00  0.00     0.178 HD
HETATM    9  C9  UNL     1      -0.807  -0.072   0.149  1.00  0.00     0.677 C 
HETATM   10  N4  UNL     1       0.240   0.653  -0.129  1.00  0.00    -0.196 N 
ATOM     11  H4  UNL     1       0.157   1.669  -0.156  1.00  0.00     0.184 HD
ENDROOT
BRANCH   9  12
HETATM   12  N3  UNL     1      -2.059   0.538   0.413  1.00  0.00    -0.216 N 
HETATM   13  C10 UNL     1      -3.259  -0.136   0.064  1.00  0.00     0.151 C 
HETATM   14  C11 UNL     1      -4.210   0.676  -0.776  1.00  0.00     0.094 C 
HETATM   15  S1  UNL     1      -4.315   2.398  -0.264  1.00  0.00    -0.166 SA
HETATM   16  C12 UNL     1      -2.605   2.923   0.144  1.00  0.00     0.094 C 
HETATM   17  C13 UNL     1      -2.047   1.841   1.037  1.00  0.00     0.151 C 
ENDBRANCH   9  12
BRANCH   1  18
HETATM   18  C2  UNL     1       2.543   2.149   0.227  1.00  0.00     0.084 C 
HETATM   19  N1  UNL     1       3.633   2.805   0.379  1.00  0.00    -0.403 N 
HETATM   20  C1  UNL     1       4.935   2.226   0.121  1.00  0.00     0.145 C 
ATOM     21  H1  UNL     1       3.582   3.774   0.694  1.00  0.00     0.158 HD
ENDBRANCH   1  18
TORSDOF 2
