REMARK  3 active torsions:
REMARK  status: ('A' for Active; 'I' for Inactive)
REMARK    1  A    between atoms: C6_6  and  N1_7 
REMARK    2  A    between atoms: C9_11  and  C10_12 
REMARK    3  A    between atoms: N3_13  and  O1_15 
ROOT
HETATM    1  N1  UNL     1       0.487  -0.818   0.191  1.00  0.00    -0.380 N 
HETATM    2  C7  UNL     1       0.862   0.044  -0.863  1.00  0.00     0.143 C 
HETATM    3  C8  UNL     1       2.035   0.940  -0.553  1.00  0.00     0.151 C 
HETATM    4  N2  UNL     1       3.109   0.201   0.083  1.00  0.00    -0.328 N 
HETATM    5  C9  UNL     1       4.447   0.316  -0.076  1.00  0.00     0.069 A 
HETATM    6  C11 UNL     1       4.978  -0.640   0.776  1.00  0.00     0.121 A 
HETATM    7  N4  UNL     1       3.943  -1.261   1.384  1.00  0.00    -0.349 N 
ATOM      8  H4  UNL     1       4.031  -2.014   2.067  1.00  0.00     0.167 HD
HETATM    9  C12 UNL     1       2.769  -0.734   0.951  1.00  0.00     0.123 A 
HETATM   10  C13 UNL     1       1.375  -1.018   1.265  1.00  0.00     0.135 C 
ENDROOT
BRANCH   1  11
HETATM   11  C6  UNL     1      -0.903  -0.768   0.553  1.00  0.00     0.084 C 
HETATM   12  C5  UNL     1      -1.700  -1.230  -0.657  1.00  0.00     0.026 C 
HETATM   13  C4  UNL     1      -3.135  -1.316  -0.116  1.00  0.00     0.011 C 
HETATM   14  C2  UNL     1      -3.611   0.107  -0.006  1.00  0.00    -0.048 C 
HETATM   15  C1  UNL     1      -4.039   0.531  -1.415  1.00  0.00     0.015 C 
HETATM   16  C3  UNL     1      -4.903   0.053   0.812  1.00  0.00     0.015 C 
HETATM   17  C15 UNL     1      -2.639   1.067   0.551  1.00  0.00     0.011 C 
HETATM   18  C14 UNL     1      -1.351   0.570   1.046  1.00  0.00     0.026 C 
ENDBRANCH   1  11
BRANCH   5  19
HETATM   19  C10 UNL     1       5.148   1.239  -0.945  1.00  0.00     0.144 C 
HETATM   20  N3  UNL     1       6.403   1.306  -1.071  1.00  0.00    -0.278 N 
ATOM     21  H3  UNL     1       6.743   2.010  -1.726  1.00  0.00     0.193 HD
BRANCH  20  22
HETATM   22  O1  UNL     1       7.354   0.575  -0.458  1.00  0.00    -0.290 OA
ATOM     23  H1  UNL     1       8.298   0.625  -0.553  1.00  0.00     0.244 HD
ENDBRANCH  20  22
ENDBRANCH   5  19
TORSDOF 3
