REMARK  3 active torsions:
REMARK  status: ('A' for Active; 'I' for Inactive)
REMARK    1  A    between atoms: C2_2  and  N1_3 
REMARK    2  A    between atoms: C4_9  and  C5_10 
REMARK    3  A    between atoms: C10_15  and  O1_16 
ROOT
HETATM    1  N1  UNL     1       1.470  -0.974  -0.433  1.00  0.00    -0.267 N 
HETATM    2  N2  UNL     1       2.126  -1.893  -1.139  1.00  0.00    -0.292 N 
ATOM      3  H2  UNL     1       3.126  -2.074  -1.047  1.00  0.00     0.188 HD
HETATM    4  C3  UNL     1       1.328  -2.549  -1.979  1.00  0.00     0.199 A 
HETATM    5  N3  UNL     1       0.122  -1.998  -1.767  1.00  0.00    -0.339 N 
ATOM      6  H3  UNL     1      -0.734  -2.270  -2.251  1.00  0.00     0.168 HD
HETATM    7  C4  UNL     1       0.199  -1.022  -0.813  1.00  0.00     0.109 A 
ENDROOT
BRANCH   7   8
HETATM    8  C5  UNL     1      -0.944  -0.215  -0.383  1.00  0.00     0.023 C 
HETATM    9  C6  UNL     1      -1.058   1.106  -1.044  1.00  0.00     0.018 C 
HETATM   10  C7  UNL     1      -2.333   1.156  -1.832  1.00  0.00     0.006 C 
HETATM   11  C8  UNL     1      -3.172   0.152  -1.020  1.00  0.00    -0.011 C 
HETATM   12  C9  UNL     1      -3.468   0.695   0.341  1.00  0.00     0.036 C 
HETATM   13  C12 UNL     1      -2.192  -0.954  -0.924  1.00  0.00     0.022 C 
HETATM   14  C10 UNL     1      -2.750  -0.146   1.380  1.00  0.00     0.119 C 
HETATM   15  C11 UNL     1      -1.254  -0.236   1.089  1.00  0.00     0.049 C 
BRANCH  14  16
HETATM   16  O1  UNL     1      -2.965   0.507   2.597  1.00  0.00    -0.396 OA
ATOM     17  H1  UNL     1      -2.515  -0.020   3.248  1.00  0.00     0.210 HD
ENDBRANCH  14  16
ENDBRANCH   7   8
BRANCH   1  18
HETATM   18  C2  UNL     1       2.147  -0.162   0.534  1.00  0.00     0.075 C 
HETATM   19  C1  UNL     1       2.286  -0.727   1.901  1.00  0.00     0.043 C 
HETATM   20  C13 UNL     1       3.637  -0.108   0.051  1.00  0.00     0.061 C 
HETATM   21  C14 UNL     1       4.039   1.330   0.105  1.00  0.00     0.170 C 
HETATM   22  O2  UNL     1       3.127   1.810   1.058  1.00  0.00    -0.389 OA
HETATM   23  C15 UNL     1       1.933   1.314   0.471  1.00  0.00     0.200 C 
ENDBRANCH   1  18
TORSDOF 3
