REMARK  4 active torsions:
REMARK  status: ('A' for Active; 'I' for Inactive)
REMARK    1  A    between atoms: C2_2  and  O1_5 
REMARK    2  A    between atoms: O1_5  and  N1_6 
REMARK    3  A    between atoms: C11_14  and  N2_15 
REMARK    4  A    between atoms: N2_15  and  C12_18 
ROOT
HETATM    1  C12 UNL     1      -2.869   2.776  -0.034  1.00  0.00     0.356 C 
HETATM    2  C13 UNL     1      -3.664   2.592  -1.258  1.00  0.00     0.086 C 
HETATM    3  N3  UNL     1      -4.290   2.466  -2.221  1.00  0.00    -0.196 NA
ENDROOT
BRANCH   1   4
HETATM    4  N2  UNL     1      -2.798   1.554   0.736  1.00  0.00    -0.057 N 
ATOM      5  H22 UNL     1      -3.734   1.223   0.971  1.00  0.00     0.278 HD
ATOM      6  H21 UNL     1      -2.442   1.740   1.673  1.00  0.00     0.278 HD
BRANCH   4   7
HETATM    7  C11 UNL     1      -2.043   0.522   0.108  1.00  0.00     0.218 C 
HETATM    8  C10 UNL     1      -2.404  -0.836   0.712  1.00  0.00     0.047 C 
HETATM    9  C7  UNL     1      -1.890  -1.840  -0.292  1.00  0.00    -0.072 C 
HETATM   10  C9  UNL     1      -3.779  -1.323   0.412  1.00  0.00     0.015 C 
HETATM   11  C6  UNL     1      -0.603  -1.672  -0.594  1.00  0.00     0.031 C 
HETATM   12  C8  UNL     1      -3.207  -2.501  -0.386  1.00  0.00     0.035 C 
HETATM   13  C5  UNL     1       0.174  -0.590   0.028  1.00  0.00     0.052 C 
HETATM   14  N1  UNL     1       1.389  -0.821   0.322  1.00  0.00    -0.269 N 
HETATM   15  C14 UNL     1      -0.531   0.700   0.264  1.00  0.00     0.175 C 
ATOM     16  H1  UNL     1       1.724  -1.757   0.095  1.00  0.00     0.194 HD
HETATM   17  C15 UNL     1      -0.207   1.181   1.594  1.00  0.00     0.072 C 
HETATM   18  N4  UNL     1       0.051   1.578   2.661  1.00  0.00    -0.196 NA
BRANCH  14  19
HETATM   19  O1  UNL     1       2.296  -0.006   0.890  1.00  0.00    -0.270 OA
BRANCH  19  20
HETATM   20  C2  UNL     1       3.641  -0.077   0.396  1.00  0.00     0.078 C 
HETATM   21  C1  UNL     1       4.186  -1.479   0.586  1.00  0.00     0.048 C 
HETATM   22  C3  UNL     1       3.523   0.150  -1.108  1.00  0.00     0.048 C 
HETATM   23  C4  UNL     1       4.547   0.921   1.056  1.00  0.00     0.048 C 
ENDBRANCH  19  20
ENDBRANCH  14  19
ENDBRANCH   4   7
ENDBRANCH   1   4
TORSDOF 4
