REMARK  21 active torsions:
REMARK  status: ('A' for Active; 'I' for Inactive)
REMARK    1  A    between atoms: N1_1  and  C1_5 
REMARK    2  A    between atoms: C1_5  and  C2_6 
REMARK    3  A    between atoms: C2_6  and  O1_7 
REMARK    4  A    between atoms: O1_7  and  C3_8 
REMARK    5  A    between atoms: C4_9  and  C5_10 
REMARK    6  A    between atoms: C5_10  and  N2_11 
REMARK    7  A    between atoms: C6_16  and  O3_17 
REMARK    8  A    between atoms: O3_17  and  C7_18 
REMARK    9  A    between atoms: C8_19  and  N3_20 
REMARK   10  A    between atoms: C12_28  and  O4_29 
REMARK   11  A    between atoms: O4_29  and  C13_30 
REMARK   12  A    between atoms: C15_33  and  O5_34 
REMARK   13  A    between atoms: O5_34  and  C16_35 
REMARK   14  A    between atoms: C17_37  and  C18_38 
REMARK   15  A    between atoms: C18_38  and  O7_39 
REMARK   16  A    between atoms: C19_41  and  O8_42 
REMARK   17  A    between atoms: C20_44  and  O9_45 
REMARK   18  A    between atoms: C21_47  and  N4_48 
REMARK   19  A    between atoms: C23_53  and  N5_54 
REMARK   20  A    between atoms: C24_58  and  N6_59 
REMARK   21  A    between atoms: C25_63  and  O10_64 
ROOT
HETATM    1  C7  UNL     1      -1.465   1.025  -0.958  1.00  0.00     0.185 C 
HETATM    2  C8  UNL     1      -1.798   1.460  -2.364  1.00  0.00     0.215 C 
HETATM    3  C9  UNL     1      -1.140   2.743  -2.768  1.00  0.00     0.037 C 
HETATM    4  C10 UNL     1      -0.281   3.306  -1.649  1.00  0.00     0.021 C 
HETATM    5  C11 UNL     1       0.709   2.241  -1.320  1.00  0.00     0.090 C 
HETATM    6  S1  UNL     1       1.563   1.566  -2.733  1.00  0.00    -0.090 SA
HETATM    7  C12 UNL     1      -0.063   1.152  -0.550  1.00  0.00     0.171 C 
ENDROOT
BRANCH   7   8
HETATM    8  O4  UNL     1       0.651   0.017  -0.794  1.00  0.00    -0.340 OA
BRANCH   8   9
HETATM    9  C13 UNL     1       1.387  -0.555   0.150  1.00  0.00     0.236 C 
HETATM   10  F1  UNL     1       0.603  -0.901   1.233  1.00  0.00    -0.209 F 
HETATM   11  C14 UNL     1       2.621   0.121   0.630  1.00  0.00     0.110 C 
HETATM   12  C15 UNL     1       3.844  -0.810   0.640  1.00  0.00     0.160 C 
HETATM   13  C21 UNL     1       3.480  -2.042   1.396  1.00  0.00     0.214 C 
HETATM   14  C22 UNL     1       2.362  -2.795   0.713  1.00  0.00     0.074 C 
HETATM   15  C23 UNL     1       1.845  -1.919  -0.408  1.00  0.00     0.252 C 
BRANCH  12  16
HETATM   16  O5  UNL     1       4.844  -0.135   1.370  1.00  0.00    -0.351 OA
BRANCH  16  17
HETATM   17  C16 UNL     1       5.961   0.116   0.604  1.00  0.00     0.292 C 
HETATM   18  O6  UNL     1       7.120  -0.490   1.059  1.00  0.00    -0.348 OA
HETATM   19  C17 UNL     1       8.181   0.309   0.658  1.00  0.00     0.179 C 
HETATM   20  C19 UNL     1       7.695   1.715   0.511  1.00  0.00     0.182 C 
HETATM   21  C20 UNL     1       6.213   1.574   0.484  1.00  0.00     0.204 C 
BRANCH  19  22
HETATM   22  C18 UNL     1       8.777  -0.158  -0.653  1.00  0.00     0.198 C 
BRANCH  22  23
HETATM   23  O7  UNL     1       9.256  -1.464  -0.547  1.00  0.00    -0.398 OA
ATOM     24  H7  UNL     1       9.630  -1.757  -1.370  1.00  0.00     0.209 HD
ENDBRANCH  22  23
ENDBRANCH  19  22
BRANCH  20  25
HETATM   25  O8  UNL     1       8.204   2.342  -0.625  1.00  0.00    -0.390 OA
ATOM     26  H8  UNL     1       7.895   3.236  -0.718  1.00  0.00     0.210 HD
ENDBRANCH  20  25
BRANCH  21  27
HETATM   27  O9  UNL     1       5.685   2.147  -0.671  1.00  0.00    -0.388 OA
ATOM     28  H9  UNL     1       5.846   3.080  -0.748  1.00  0.00     0.210 HD
ENDBRANCH  21  27
ENDBRANCH  16  17
ENDBRANCH  12  16
BRANCH  13  29
HETATM   29  N4  UNL     1       3.125  -1.660   2.750  1.00  0.00    -0.072 N 
ATOM     30  H43 UNL     1       3.858  -1.120   3.210  1.00  0.00     0.274 HD
ATOM     31  H42 UNL     1       2.392  -0.952   2.778  1.00  0.00     0.274 HD
ATOM     32  H41 UNL     1       2.876  -2.503   3.267  1.00  0.00     0.274 HD
ENDBRANCH  13  29
BRANCH  15  33
HETATM   33  N5  UNL     1       0.682  -2.530  -1.020  1.00  0.00    -0.070 N 
ATOM     34  H53 UNL     1      -0.115  -2.601  -0.388  1.00  0.00     0.275 HD
ATOM     35  H52 UNL     1       0.237  -1.937  -1.721  1.00  0.00     0.275 HD
ATOM     36  H51 UNL     1       0.985  -3.432  -1.389  1.00  0.00     0.275 HD
ENDBRANCH  15  33
ENDBRANCH   8   9
ENDBRANCH   7   8
BRANCH   1  37
HETATM   37  O3  UNL     1      -2.000  -0.240  -0.767  1.00  0.00    -0.349 OA
BRANCH  37  38
HETATM   38  C6  UNL     1      -3.112  -0.249   0.074  1.00  0.00     0.294 C 
HETATM   39  O2  UNL     1      -4.180  -0.563  -0.768  1.00  0.00    -0.349 OA
HETATM   40  C4  UNL     1      -5.209  -1.252  -0.159  1.00  0.00     0.181 C 
HETATM   41  C3  UNL     1      -5.503  -0.678   1.179  1.00  0.00     0.183 C 
HETATM   42  C25 UNL     1      -4.278  -1.061   2.054  1.00  0.00     0.185 C 
HETATM   43  C24 UNL     1      -3.016  -1.125   1.262  1.00  0.00     0.269 C 
BRANCH  40  44
HETATM   44  C5  UNL     1      -6.377  -1.239  -1.122  1.00  0.00     0.264 C 
BRANCH  44  45
HETATM   45  N2  UNL     1      -6.017  -1.894  -2.380  1.00  0.00    -0.077 N 
ATOM     46  H23 UNL     1      -5.181  -1.483  -2.795  1.00  0.00     0.274 HD
ATOM     47  H22 UNL     1      -5.664  -2.839  -2.227  1.00  0.00     0.274 HD
ATOM     48  H21 UNL     1      -6.804  -1.885  -3.029  1.00  0.00     0.274 HD
ENDBRANCH  44  45
ENDBRANCH  40  44
BRANCH  41  49
HETATM   49  O1  UNL     1      -5.648   0.694   1.201  1.00  0.00    -0.379 OA
BRANCH  49  50
HETATM   50  C2  UNL     1      -6.751   1.192   1.815  1.00  0.00     0.195 C 
BRANCH  50  51
HETATM   51  C1  UNL     1      -8.038   0.743   1.195  1.00  0.00     0.255 C 
BRANCH  51  52
HETATM   52  N1  UNL     1      -9.125   1.363   1.967  1.00  0.00    -0.077 N 
ATOM     53  H13 UNL     1      -9.071   1.165   2.966  1.00  0.00     0.274 HD
ATOM     54  H12 UNL     1      -9.043   2.378   2.031  1.00  0.00     0.274 HD
ATOM     55  H11 UNL     1     -10.002   1.057   1.545  1.00  0.00     0.274 HD
ENDBRANCH  51  52
ENDBRANCH  50  51
ENDBRANCH  49  50
ENDBRANCH  41  49
BRANCH  42  56
HETATM   56  O10 UNL     1      -4.225  -0.064   3.049  1.00  0.00    -0.391 OA
ATOM     57  H10 UNL     1      -3.476  -0.298   3.584  1.00  0.00     0.210 HD
ENDBRANCH  42  56
BRANCH  43  58
HETATM   58  N6  UNL     1      -2.591  -2.472   0.973  1.00  0.00    -0.068 N 
ATOM     59  H63 UNL     1      -3.196  -2.893   0.268  1.00  0.00     0.275 HD
ATOM     60  H62 UNL     1      -1.708  -2.465   0.463  1.00  0.00     0.275 HD
ATOM     61  H61 UNL     1      -2.525  -3.076   1.792  1.00  0.00     0.275 HD
ENDBRANCH  43  58
ENDBRANCH  37  38
ENDBRANCH   1  37
BRANCH   2  62
HETATM   62  N3  UNL     1      -1.450   0.434  -3.307  1.00  0.00    -0.072 N 
ATOM     63  H33 UNL     1      -0.473   0.154  -3.219  1.00  0.00     0.274 HD
ATOM     64  H32 UNL     1      -1.886  -0.458  -3.074  1.00  0.00     0.274 HD
ATOM     65  H31 UNL     1      -1.675   0.728  -4.257  1.00  0.00     0.274 HD
ENDBRANCH   2  62
TORSDOF 21
