REMARK  21 active torsions:
REMARK  status: ('A' for Active; 'I' for Inactive)
REMARK    1  A    between atoms: C1_4  and  O1_6 
REMARK    2  A    between atoms: O1_6  and  C2_7 
REMARK    3  A    between atoms: C2_7  and  C3_8 
REMARK    4  A    between atoms: N6_18  and  C7_19 
REMARK    5  A    between atoms: C7_19  and  O2_20 
REMARK    6  A    between atoms: O2_20  and  C8_21 
REMARK    7  A    between atoms: C8_21  and  N7_22 
REMARK    8  A    between atoms: C8_21  and  C9_25 
REMARK       I    between atoms: C9_25  and  N8_27 
REMARK    9  A    between atoms: N8_27  and  N9_29 
REMARK   10  A    between atoms: C10_32  and  N10_33 
REMARK   11  A    between atoms: N12_39  and  C12_40 
REMARK   12  A    between atoms: C12_40  and  N13_41 
REMARK   13  A    between atoms: N15_45  and  C14_46 
REMARK   14  A    between atoms: C15_48  and  C16_49 
REMARK   15  A    between atoms: C16_49  and  O4_50 
REMARK   16  A    between atoms: C16_49  and  N16_52 
REMARK   17  A    between atoms: N16_52  and  C17_54 
REMARK   18  A    between atoms: C17_54  and  C18_55 
REMARK   19  A    between atoms: C17_54  and  C19_58 
REMARK   20  A    between atoms: C19_58  and  N17_59 
REMARK   21  A    between atoms: C19_58  and  O7_63 
ROOT
HETATM    1  C3  UNL     1       0.997  -1.941  -0.791  1.00  0.00     0.112 A 
HETATM    2  N3  UNL     1       2.074  -1.147  -0.691  1.00  0.00    -0.339 N 
ATOM      3  H3  UNL     1       3.005  -1.409  -1.015  1.00  0.00     0.167 HD
HETATM    4  C4  UNL     1       1.789   0.024  -0.120  1.00  0.00     0.109 A 
HETATM    5  C5  UNL     1       2.512   1.149   0.214  1.00  0.00     0.117 A 
HETATM    6  C6  UNL     1       1.900   2.219   0.827  1.00  0.00     0.124 A 
HETATM    7  N4  UNL     1       2.880   3.133   1.011  1.00  0.00    -0.280 N 
ATOM      8  H4  UNL     1       2.770   4.050   1.443  1.00  0.00     0.188 HD
HETATM    9  N5  UNL     1       4.007   2.629   0.532  1.00  0.00    -0.237 N 
ATOM     10  H5  UNL     1       4.905   3.113   0.543  1.00  0.00     0.208 HD
HETATM   11  N6  UNL     1       3.819   1.420   0.039  1.00  0.00    -0.249 N 
HETATM   12  C10 UNL     1       0.560   2.139   1.097  1.00  0.00     0.131 A 
HETATM   13  N11 UNL     1      -0.111   1.029   0.757  1.00  0.00    -0.325 N 
ATOM     14  H11 UNL     1      -1.108   1.001   0.972  1.00  0.00     0.169 HD
HETATM   15  C11 UNL     1       0.418  -0.046   0.159  1.00  0.00     0.141 A 
HETATM   16  N12 UNL     1      -0.024  -1.234  -0.257  1.00  0.00    -0.300 N 
ENDROOT
BRANCH  16  17
HETATM   17  C12 UNL     1      -1.376  -1.767  -0.187  1.00  0.00     0.284 C 
BRANCH  17  18
HETATM   18  N13 UNL     1      -2.121  -1.467  -1.393  1.00  0.00    -0.253 N 
HETATM   19  N14 UNL     1      -1.911  -2.173  -2.537  1.00  0.00    -0.290 N 
HETATM   20  C13 UNL     1      -2.633  -1.672  -3.515  1.00  0.00     0.203 A 
ATOM     21  H14 UNL     1      -1.285  -2.974  -2.623  1.00  0.00     0.188 HD
HETATM   22  N15 UNL     1      -3.331  -0.612  -2.988  1.00  0.00    -0.310 N 
HETATM   23  C15 UNL     1      -3.008  -0.502  -1.685  1.00  0.00     0.179 A 
BRANCH  22  24
HETATM   24  C14 UNL     1      -4.239   0.208  -3.776  1.00  0.00     0.246 C 
HETATM   25 CL1  UNL     1      -3.305   1.495  -4.582  1.00  0.00    -0.108 Cl
ENDBRANCH  22  24
BRANCH  23  26
HETATM   26  C16 UNL     1      -3.593   0.380  -0.696  1.00  0.00     0.184 C 
BRANCH  26  27
HETATM   27  O4  UNL     1      -3.684  -0.033   0.538  1.00  0.00    -0.344 OA
ATOM     28  H4  UNL     1      -4.068   0.545   1.187  1.00  0.00     0.219 HD
ENDBRANCH  26  27
BRANCH  26  29
HETATM   29  N16 UNL     1      -4.093   1.672  -0.883  1.00  0.00    -0.350 N 
ATOM     30  H16 UNL     1      -4.069   2.105  -1.806  1.00  0.00     0.162 HD
BRANCH  29  31
HETATM   31  C17 UNL     1      -4.657   2.404   0.271  1.00  0.00     0.241 C 
BRANCH  31  32
HETATM   32  C18 UNL     1      -3.876   3.658   0.418  1.00  0.00     0.201 C 
HETATM   33  O5  UNL     1      -2.927   3.945  -0.351  1.00  0.00    -0.646 OA
HETATM   34  O6  UNL     1      -4.203   4.536   1.433  1.00  0.00    -0.646 OA
ENDBRANCH  31  32
BRANCH  31  35
HETATM   35  C19 UNL     1      -6.136   2.657   0.045  1.00  0.00     0.349 C 
BRANCH  35  36
HETATM   36  N17 UNL     1      -6.792   1.375  -0.036  1.00  0.00    -0.051 N 
ATOM     37 3H17 UNL     1      -6.382   0.763  -0.742  1.00  0.00     0.277 HD
ATOM     38 2H17 UNL     1      -6.610   0.784   0.776  1.00  0.00     0.277 HD
ATOM     39 1H17 UNL     1      -7.786   1.545  -0.188  1.00  0.00     0.277 HD
ENDBRANCH  35  36
BRANCH  35  40
HETATM   40  O7  UNL     1      -6.257   3.405  -1.120  1.00  0.00    -0.368 OA
ATOM     41  H7  UNL     1      -7.183   3.563  -1.261  1.00  0.00     0.212 HD
ENDBRANCH  35  40
ENDBRANCH  31  35
ENDBRANCH  29  31
ENDBRANCH  26  29
ENDBRANCH  23  26
ENDBRANCH  17  18
ENDBRANCH  16  17
BRANCH   1  42
HETATM   42  C2  UNL     1       0.963  -3.326  -1.363  1.00  0.00     0.255 C 
BRANCH  42  43
HETATM   43  O1  UNL     1       2.026  -4.097  -0.762  1.00  0.00    -0.317 OA
BRANCH  43  44
HETATM   44  C1  UNL     1       2.263  -5.413  -1.074  1.00  0.00     0.225 C 
HETATM   45  N1  UNL     1       2.084  -5.754  -2.306  1.00  0.00    -0.368 N 
ATOM     46  H12 UNL     1       2.260  -6.732  -2.538  1.00  0.00     0.159 HD
ATOM     47  H11 UNL     1       1.781  -5.040  -2.968  1.00  0.00     0.159 HD
HETATM   48  N2  UNL     1       2.688  -6.415  -0.145  1.00  0.00    -0.057 NA
ENDBRANCH  43  44
ENDBRANCH  42  43
ENDBRANCH   1  42
BRANCH  12  49
HETATM   49  N10 UNL     1      -0.025   3.124   1.669  1.00  0.00    -0.383 N 
ATOM     50 2H10 UNL     1       0.485   3.968   1.928  1.00  0.00     0.157 HD
ATOM     51 1H10 UNL     1      -1.023   3.064   1.870  1.00  0.00     0.157 HD
ENDBRANCH  12  49
BRANCH  11  52
HETATM   52  C7  UNL     1       4.771   0.525  -0.580  1.00  0.00     0.328 C 
BRANCH  52  53
HETATM   53  O2  UNL     1       5.314  -0.299   0.436  1.00  0.00    -0.310 OA
BRANCH  53  54
HETATM   54  C8  UNL     1       6.004   0.217   1.521  1.00  0.00     0.208 C 
BRANCH  54  55
HETATM   55  N7  UNL     1       6.757   1.237   1.267  1.00  0.00    -0.375 N 
ATOM     56  H72 UNL     1       6.829   1.625   0.326  1.00  0.00     0.158 HD
ATOM     57  H71 UNL     1       7.265   1.617   2.066  1.00  0.00     0.158 HD
ENDBRANCH  54  55
BRANCH  54  58
HETATM   58  C9  UNL     1       5.900  -0.340   2.871  1.00  0.00     0.310 C 
HETATM   59  O3  UNL     1       5.150  -1.343   3.081  1.00  0.00    -0.262 OA
HETATM   60  N8  UNL     1       6.648   0.265   3.906  1.00  0.00    -0.269 N 
ATOM     61  H8  UNL     1       7.241   1.069   3.701  1.00  0.00     0.189 HD
BRANCH  60  62
HETATM   62  N9  UNL     1       6.578  -0.242   5.229  1.00  0.00    -0.342 N 
ATOM     63  H92 UNL     1       5.981  -1.047   5.417  1.00  0.00     0.176 HD
ATOM     64  H91 UNL     1       7.118   0.195   5.976  1.00  0.00     0.176 HD
ENDBRANCH  60  62
ENDBRANCH  54  58
ENDBRANCH  53  54
ENDBRANCH  52  53
ENDBRANCH  11  52
TORSDOF 21
