REMARK  21 active torsions:
REMARK  status: ('A' for Active; 'I' for Inactive)
REMARK    1  A    between atoms: C2_2  and  O2_4 
REMARK    2  A    between atoms: O2_4  and  N1_5 
REMARK    3  A    between atoms: N1_5  and  C3_7 
REMARK    4  A    between atoms: C3_7  and  N2_8 
REMARK    5  A    between atoms: C3_7  and  C10_30 
REMARK    6  A    between atoms: N2_8  and  C4_10 
REMARK    7  A    between atoms: C4_10  and  C5_11 
REMARK    8  A    between atoms: C6_14  and  N4_15 
REMARK    9  A    between atoms: C7_20  and  N6_21 
REMARK   10  A    between atoms: C8_24  and  C9_25 
REMARK   11  A    between atoms: C9_25  and  O3_26 
REMARK   12  A    between atoms: C9_25  and  O4_28 
REMARK   13  A    between atoms: N7_34  and  C12_35 
REMARK   14  A    between atoms: C12_35  and  C13_36 
REMARK   15  A    between atoms: C13_36  and  O7_37 
REMARK   16  A    between atoms: O7_37  and  C14_38 
REMARK   17  A    between atoms: C14_38  and  C15_40 
REMARK   18  A    between atoms: C17_44  and  S1_45 
REMARK   19  A    between atoms: S1_45  and  N9_46 
REMARK   20  A    between atoms: S1_45  and  N10_50 
REMARK       I    between atoms: N10_50  and  C18_52 
REMARK   21  A    between atoms: N12_55  and  N13_56 
ROOT
HETATM    1  C10 UNL     1      -1.397  -0.890  -0.898  1.00  0.00     0.293 C 
HETATM    2  O5  UNL     1      -1.448   0.227  -0.021  1.00  0.00    -0.336 OA
HETATM    3  C11 UNL     1      -0.161   0.331   0.446  1.00  0.00     0.365 C 
HETATM    4  O6  UNL     1       0.319  -0.975   0.551  1.00  0.00    -0.275 OA
HETATM    5  N7  UNL     1      -0.444  -1.730  -0.237  1.00  0.00    -0.156 NA
ENDROOT
BRANCH   1   6
HETATM    6  C3  UNL     1      -2.749  -1.551  -0.856  1.00  0.00     0.144 C 
BRANCH   6   7
HETATM    7  N1  UNL     1      -2.798  -2.800  -0.593  1.00  0.00    -0.242 N 
ATOM      8  H1  UNL     1      -1.949  -3.340  -0.426  1.00  0.00     0.196 HD
BRANCH   7   9
HETATM    9  O2  UNL     1      -4.055  -3.396  -0.543  1.00  0.00    -0.199 OA
BRANCH   9  10
HETATM   10  C2  UNL     1      -4.293  -4.269   0.502  1.00  0.00     0.277 C 
HETATM   11  C1  UNL     1      -5.603  -4.963   0.668  1.00  0.00     0.128 C 
HETATM   12  O1  UNL     1      -3.411  -4.520   1.367  1.00  0.00    -0.264 OA
ENDBRANCH   9  10
ENDBRANCH   7   9
ENDBRANCH   6   7
BRANCH   6  13
HETATM   13  N2  UNL     1      -3.921  -0.807  -1.088  1.00  0.00    -0.369 N 
ATOM     14  H2  UNL     1      -4.302  -0.762  -2.033  1.00  0.00     0.161 HD
BRANCH  13  15
HETATM   15  C4  UNL     1      -4.608  -0.095  -0.008  1.00  0.00     0.179 C 
BRANCH  15  16
HETATM   16  C5  UNL     1      -5.055   1.244  -0.457  1.00  0.00     0.059 A 
HETATM   17  N3  UNL     1      -4.845   1.589  -1.744  1.00  0.00    -0.193 N 
HETATM   18  C6  UNL     1      -5.255   2.773  -2.195  1.00  0.00     0.677 A 
ATOM     19  H3  UNL     1      -4.371   0.941  -2.373  1.00  0.00     0.184 HD
HETATM   20  N5  UNL     1      -5.884   3.651  -1.382  1.00  0.00    -0.177 N 
HETATM   21  C7  UNL     1      -6.104   3.337  -0.104  1.00  0.00     0.128 A 
ATOM     22  H5  UNL     1      -6.190   4.553  -1.746  1.00  0.00     0.186 HD
HETATM   23  C8  UNL     1      -5.688   2.096   0.411  1.00  0.00     0.065 A 
BRANCH  18  24
HETATM   24  N4  UNL     1      -5.085   3.155  -3.434  1.00  0.00    -0.234 N 
ATOM     25  H42 UNL     1      -4.610   2.493  -4.047  1.00  0.00     0.174 HD
ATOM     26  H41 UNL     1      -5.399   4.062  -3.779  1.00  0.00     0.174 HD
ENDBRANCH  18  24
BRANCH  21  27
HETATM   27  N6  UNL     1      -6.701   4.142   0.711  1.00  0.00    -0.384 N 
ATOM     28  H62 UNL     1      -7.003   5.042   0.338  1.00  0.00     0.157 HD
ATOM     29  H61 UNL     1      -6.869   3.902   1.688  1.00  0.00     0.157 HD
ENDBRANCH  21  27
BRANCH  23  30
HETATM   30  C9  UNL     1      -5.944   1.804   1.851  1.00  0.00     0.294 C 
BRANCH  30  31
HETATM   31  O3  UNL     1      -7.287   2.206   2.063  1.00  0.00    -0.367 OA
ATOM     32  H3  UNL     1      -7.450   2.020   2.980  1.00  0.00     0.213 HD
ENDBRANCH  30  31
BRANCH  30  33
HETATM   33  O4  UNL     1      -5.891   0.477   2.190  1.00  0.00    -0.367 OA
ATOM     34  H4  UNL     1      -6.054   0.291   3.107  1.00  0.00     0.213 HD
ENDBRANCH  30  33
ENDBRANCH  23  30
ENDBRANCH  15  16
ENDBRANCH  13  15
ENDBRANCH   6  13
ENDBRANCH   1   6
BRANCH   5  35
HETATM   35  C12 UNL     1       0.288  -2.626  -1.088  1.00  0.00     0.151 C 
BRANCH  35  36
HETATM   36  C13 UNL     1       1.246  -3.432  -0.220  1.00  0.00     0.196 C 
BRANCH  36  37
HETATM   37  O7  UNL     1       2.145  -2.594   0.419  1.00  0.00    -0.315 OA
BRANCH  37  38
HETATM   38  C14 UNL     1       3.129  -1.813  -0.158  1.00  0.00     0.313 C 
HETATM   39  O8  UNL     1       3.243  -1.874  -1.424  1.00  0.00    -0.257 OA
BRANCH  38  40
HETATM   40  C15 UNL     1       3.994  -0.955   0.632  1.00  0.00     0.148 A 
HETATM   41  C16 UNL     1       3.941  -0.767   1.966  1.00  0.00     0.128 A 
HETATM   42  N8  UNL     1       4.908   0.155   2.292  1.00  0.00    -0.339 N 
HETATM   43  C17 UNL     1       5.524   0.513   1.188  1.00  0.00     0.223 A 
ATOM     44  H8  UNL     1       5.112   0.501   3.229  1.00  0.00     0.167 HD
HETATM   45  N12 UNL     1       4.996  -0.141   0.169  1.00  0.00    -0.229 N 
BRANCH  43  46
HETATM   46  S1  UNL     1       6.948   1.944   1.001  1.00  0.00     0.175 S 
HETATM   47  O9  UNL     1       8.059   0.316   2.064  1.00  0.00    -0.220 OA
BRANCH  46  48
HETATM   48  N9  UNL     1       7.422   2.579   2.730  1.00  0.00    -0.338 N 
ATOM     49  H92 UNL     1       7.015   2.243   3.603  1.00  0.00     0.167 HD
ATOM     50  H91 UNL     1       8.138   3.299   2.636  1.00  0.00     0.167 HD
ENDBRANCH  46  48
BRANCH  46  51
HETATM   51  N10 UNL     1       8.361   1.368  -0.142  1.00  0.00    -0.249 N 
HETATM   52  C18 UNL     1       9.607   2.007  -0.033  1.00  0.00     0.341 C 
HETATM   53  N11 UNL     1      10.725   1.657  -0.820  1.00  0.00    -0.039 NA
HETATM   54  O10 UNL     1       9.777   2.942   0.796  1.00  0.00    -0.250 OA
ATOM     55  H10 UNL     1       8.216   0.615  -0.815  1.00  0.00     0.181 HD
ENDBRANCH  46  51
ENDBRANCH  43  46
BRANCH  45  56
HETATM   56  N13 UNL     1       5.339  -0.072  -1.186  1.00  0.00    -0.336 N 
ATOM     57 2H13 UNL     1       4.931  -0.577  -1.973  1.00  0.00     0.177 HD
ATOM     58 1H13 UNL     1       6.084   0.533  -1.530  1.00  0.00     0.177 HD
ENDBRANCH  45  56
ENDBRANCH  38  40
ENDBRANCH  37  38
ENDBRANCH  36  37
ENDBRANCH  35  36
ENDBRANCH   5  35
TORSDOF 21
