REMARK  6 active torsions:
REMARK  status: ('A' for Active; 'I' for Inactive)
REMARK    1  A    between atoms: C4_5  and  N2_6 
REMARK    2  A    between atoms: N2_6  and  C5_9 
REMARK    3  A    between atoms: C5_9  and  C6_10 
REMARK    4  A    between atoms: C6_10  and  C7_11 
REMARK    5  A    between atoms: C7_11  and  C8_12 
REMARK    6  A    between atoms: C8_12  and  C9_13 
ROOT
HETATM    1  N2  UNL     1       1.536   0.740  -0.164  1.00  0.00    -0.071 N 
ATOM      2  H21 UNL     1       1.118   1.654   0.008  1.00  0.00     0.277 HD
ATOM      3  H22 UNL     1       1.028   0.199   0.535  1.00  0.00     0.277 HD
ENDROOT
BRANCH   1   4
HETATM    4  C4  UNL     1       2.928   0.750   0.101  1.00  0.00     0.189 C 
HETATM    5  C3  UNL     1       3.233   0.645   1.594  1.00  0.00     0.063 C 
HETATM    6  C2  UNL     1       4.675   1.076   1.745  1.00  0.00     0.274 C 
HETATM    7  N1  UNL     1       5.523   0.449   0.749  1.00  0.00     0.084 N 
HETATM    8  C1  UNL     1       6.870   0.205   1.216  1.00  0.00     0.309 C 
HETATM    9  C16 UNL     1       4.889  -0.708   0.208  1.00  0.00     0.274 C 
HETATM   10  C15 UNL     1       3.733  -0.216  -0.687  1.00  0.00     0.063 C 
ENDBRANCH   1   4
BRANCH   1  11
HETATM   11  C5  UNL     1       1.253   0.276  -1.493  1.00  0.00     0.232 C 
BRANCH  11  12
HETATM   12  C6  UNL     1      -0.167   0.523  -1.880  1.00  0.00     0.027 C 
BRANCH  12  13
HETATM   13  C7  UNL     1      -1.161  -0.156  -0.926  1.00  0.00     0.002 C 
BRANCH  13  14
HETATM   14  C8  UNL     1      -2.519   0.177  -1.483  1.00  0.00     0.005 C 
BRANCH  14  15
HETATM   15  C9  UNL     1      -3.631  -0.398  -0.630  1.00  0.00    -0.014 C 
HETATM   16  C10 UNL     1      -3.610   0.147   0.774  1.00  0.00     0.004 C 
HETATM   17  C11 UNL     1      -4.693  -0.546   1.546  1.00  0.00     0.000 C 
HETATM   18  C12 UNL     1      -6.062  -0.387   0.970  1.00  0.00     0.000 C 
HETATM   19  C13 UNL     1      -6.149  -0.059  -0.452  1.00  0.00     0.000 C 
HETATM   20  C14 UNL     1      -4.925  -0.012  -1.255  1.00  0.00     0.004 C 
ENDBRANCH  14  15
ENDBRANCH  13  14
ENDBRANCH  12  13
ENDBRANCH  11  12
ENDBRANCH   1  11
TORSDOF 6
