REMARK  6 active torsions:
REMARK  status: ('A' for Active; 'I' for Inactive)
REMARK    1  A    between atoms: C5_5  and  C6_6 
REMARK    2  A    between atoms: C6_6  and  C7_7 
REMARK    3  A    between atoms: C7_7  and  N1_8 
REMARK    4  A    between atoms: N1_8  and  C8_10 
REMARK    5  A    between atoms: C8_10  and  C9_11 
REMARK    6  A    between atoms: C9_11  and  C10_12 
ROOT
HETATM    1  N1  UNL     1       0.315  -0.012   0.015  1.00  0.00    -0.421 N 
ATOM      2  H1  UNL     1      -0.030   0.388   0.888  1.00  0.00     0.153 HD
ENDROOT
BRANCH   1   3
HETATM    3  C7  UNL     1      -0.365   0.150  -1.222  1.00  0.00     0.114 C 
BRANCH   3   4
HETATM    4  C6  UNL     1      -1.629   0.897  -1.231  1.00  0.00     0.024 C 
BRANCH   4   5
HETATM    5  C5  UNL     1      -2.774   0.424  -0.429  1.00  0.00    -0.013 C 
HETATM    6  C4  UNL     1      -2.551   0.342   1.060  1.00  0.00     0.005 C 
HETATM    7  C3  UNL     1      -3.678   1.042   1.835  1.00  0.00     0.000 C 
HETATM    8  C2  UNL     1      -4.964   0.299   1.804  1.00  0.00     0.000 C 
HETATM    9  C1  UNL     1      -5.377  -0.185   0.447  1.00  0.00     0.000 C 
HETATM   10  C16 UNL     1      -4.514  -1.289  -0.056  1.00  0.00     0.000 C 
HETATM   11  C15 UNL     1      -3.390  -0.861  -0.942  1.00  0.00     0.005 C 
ENDBRANCH   4   5
ENDBRANCH   3   4
ENDBRANCH   1   3
BRANCH   1  12
HETATM   12  C8  UNL     1       1.522  -0.780  -0.058  1.00  0.00     0.114 C 
BRANCH  12  13
HETATM   13  C9  UNL     1       2.582  -0.027  -0.834  1.00  0.00     0.024 C 
BRANCH  13  14
HETATM   14  C10 UNL     1       3.871  -0.821  -0.920  1.00  0.00    -0.009 C 
HETATM   15  C11 UNL     1       4.858   0.008  -1.710  1.00  0.00     0.031 C 
HETATM   16  C12 UNL     1       5.400   1.128  -0.875  1.00  0.00     0.168 C 
HETATM   17  O1  UNL     1       5.942   0.688   0.324  1.00  0.00    -0.391 OA
HETATM   18  C13 UNL     1       4.921   0.173   1.110  1.00  0.00     0.168 C 
HETATM   19  C14 UNL     1       4.469  -1.114   0.433  1.00  0.00     0.031 C 
ENDBRANCH  13  14
ENDBRANCH  12  13
ENDBRANCH   1  12
TORSDOF 6
