REMARK  7 active torsions:
REMARK  status: ('A' for Active; 'I' for Inactive)
REMARK    1  A    between atoms: C2_2  and  O1_3 
REMARK    2  A    between atoms: C2_2  and  C3_5 
REMARK    3  A    between atoms: C3_5  and  C5_7 
REMARK    4  A    between atoms: C3_5  and  C9_19 
REMARK    5  A    between atoms: C8_13  and  N2_14 
REMARK    6  A    between atoms: C10_24  and  S1_25 
REMARK    7  A    between atoms: S1_25  and  N6_26 
ROOT
HETATM    1  C3  UNL     1      -0.023  -0.909  -0.336  1.00  0.00     0.091 C 
HETATM    2  C4  UNL     1       0.784  -1.830   0.572  1.00  0.00     0.034 C 
ENDROOT
BRANCH   1   3
HETATM    3  C2  UNL     1      -0.578  -1.676  -1.510  1.00  0.00     0.136 C 
HETATM    4  C1  UNL     1      -1.486  -2.787  -1.124  1.00  0.00     0.041 C 
BRANCH   3   5
HETATM    5  O1  UNL     1      -1.238  -0.827  -2.379  1.00  0.00    -0.394 OA
ATOM      6  H1  UNL     1      -0.657  -0.117  -2.626  1.00  0.00     0.210 HD
ENDBRANCH   3   5
ENDBRANCH   1   3
BRANCH   1   7
HETATM    7  C5  UNL     1      -1.081  -0.268   0.476  1.00  0.00     0.051 A 
HETATM    8  C6  UNL     1      -1.277  -0.624   1.801  1.00  0.00     0.101 A 
HETATM    9  C7  UNL     1      -2.257  -0.041   2.588  1.00  0.00     0.261 A 
HETATM   10  O2  UNL     1      -2.379  -0.414   3.788  1.00  0.00    -0.268 OA
HETATM   11  N1  UNL     1      -3.032   0.895   2.039  1.00  0.00    -0.156 N 
HETATM   12  C8  UNL     1      -2.876   1.269   0.758  1.00  0.00     0.679 A 
ATOM     13  H1  UNL     1      -3.758   1.336   2.603  1.00  0.00     0.187 HD
HETATM   14  N3  UNL     1      -1.907   0.683   0.004  1.00  0.00    -0.194 N 
ATOM     15  H3  UNL     1      -1.802   0.979  -0.966  1.00  0.00     0.184 HD
BRANCH  12  16
HETATM   16  N2  UNL     1      -3.616   2.172   0.203  1.00  0.00    -0.234 N 
ATOM     17  H22 UNL     1      -4.343   2.611   0.768  1.00  0.00     0.174 HD
ATOM     18  H21 UNL     1      -3.498   2.456  -0.770  1.00  0.00     0.174 HD
ENDBRANCH  12  16
ENDBRANCH   1   7
BRANCH   1  19
HETATM   19  C9  UNL     1       0.917   0.169  -0.761  1.00  0.00     0.158 A 
HETATM   20  N4  UNL     1       0.642   1.216  -1.576  1.00  0.00    -0.280 N 
HETATM   21  N5  UNL     1       1.734   1.946  -1.709  1.00  0.00    -0.267 N 
ATOM     22  H4  UNL     1      -0.259   1.408  -2.014  1.00  0.00     0.189 HD
HETATM   23  C10 UNL     1       2.697   1.377  -0.991  1.00  0.00     0.283 A 
ATOM     24  H5  UNL     1       1.823   2.797  -2.265  1.00  0.00     0.190 HD
HETATM   25  O5  UNL     1       2.175   0.316  -0.436  1.00  0.00    -0.266 OA
BRANCH  23  26
HETATM   26  S1  UNL     1       4.374   1.922  -0.800  1.00  0.00     0.297 S 
HETATM   27  O3  UNL     1       5.285   0.721  -0.649  1.00  0.00    -0.197 OA
HETATM   28  O4  UNL     1       4.786   2.612  -2.070  1.00  0.00    -0.197 OA
BRANCH  26  29
HETATM   29  N6  UNL     1       4.452   2.972   0.548  1.00  0.00    -0.321 N 
ATOM     30  H62 UNL     1       3.658   3.232   1.134  1.00  0.00     0.169 HD
ATOM     31  H61 UNL     1       5.416   3.285   0.658  1.00  0.00     0.169 HD
ENDBRANCH  26  29
ENDBRANCH  23  26
ENDBRANCH   1  19
TORSDOF 7
