REMARK  5 active torsions:
REMARK  status: ('A' for Active; 'I' for Inactive)
REMARK    1  A    between atoms: C3_3  and  O1_4 
REMARK    2  A    between atoms: O1_4  and  C4_5 
REMARK    3  A    between atoms: C4_5  and  C5_6 
REMARK    4  A    between atoms: N3_17  and  C10_18 
REMARK    5  A    between atoms: C12_24  and  N6_25 
ROOT
HETATM    1  C1  UNL     1       0.176  -2.920  -0.885  1.00  0.00     0.015 C 
HETATM    2  C2  UNL     1      -0.198  -1.885  -0.370  1.00  0.00    -0.079 C 
HETATM    3  C3  UNL     1      -0.643  -0.617   0.283  1.00  0.00     0.126 C 
HETATM    4  C8  UNL     1       0.197  -0.517   1.522  1.00  0.00     0.071 C 
HETATM    5  C9  UNL     1       1.684  -0.601   1.127  1.00  0.00     0.128 C 
HETATM    6  N3  UNL     1       1.954   0.420   0.168  1.00  0.00    -0.365 N 
HETATM    7  C14 UNL     1       0.817   1.354  -0.065  1.00  0.00     0.128 C 
HETATM    8  C15 UNL     1      -0.291   0.510  -0.717  1.00  0.00     0.071 C 
ENDROOT
BRANCH   3   9
HETATM    9  O1  UNL     1      -1.976  -0.552   0.427  1.00  0.00    -0.364 OA
BRANCH   9  10
HETATM   10  C4  UNL     1      -2.706  -1.406   1.147  1.00  0.00     0.232 C 
BRANCH  10  11
HETATM   11  C5  UNL     1      -4.214  -1.072   1.000  1.00  0.00     0.406 C 
HETATM   12  N1  UNL     1      -4.580  -1.206  -0.408  1.00  0.00    -0.042 N 
HETATM   13  C6  UNL     1      -5.611  -0.184  -0.579  1.00  0.00     0.262 C 
ATOM     14  H12 UNL     1      -3.798  -1.135  -1.059  1.00  0.00     0.279 HD
ATOM     15  H11 UNL     1      -4.862  -2.146  -0.687  1.00  0.00     0.279 HD
HETATM   16  C7  UNL     1      -4.949   0.973   0.178  1.00  0.00     0.262 C 
HETATM   17  N2  UNL     1      -4.478   0.298   1.349  1.00  0.00    -0.042 N 
ATOM     18  H22 UNL     1      -5.117   0.387   2.139  1.00  0.00     0.279 HD
ATOM     19  H21 UNL     1      -3.672   0.759   1.772  1.00  0.00     0.279 HD
ENDBRANCH  10  11
ENDBRANCH   9  10
ENDBRANCH   3   9
BRANCH   6  20
HETATM   20  C10 UNL     1       3.119   0.547  -0.555  1.00  0.00     0.132 A 
HETATM   21  N4  UNL     1       3.199   0.243  -1.888  1.00  0.00    -0.337 N 
HETATM   22  C11 UNL     1       4.245   0.371  -2.643  1.00  0.00     0.183 A 
ATOM     23  H4  UNL     1       2.354  -0.119  -2.329  1.00  0.00     0.168 HD
HETATM   24  N5  UNL     1       5.410   0.854  -2.110  1.00  0.00    -0.337 N 
HETATM   25  C12 UNL     1       5.402   1.176  -0.783  1.00  0.00     0.128 A 
ATOM     26  H5  UNL     1       6.248   0.968  -2.680  1.00  0.00     0.168 HD
HETATM   27  C13 UNL     1       4.291   1.028  -0.021  1.00  0.00     0.133 A 
HETATM   28  N7  UNL     1       4.379   1.373   1.360  1.00  0.00    -0.094 NA
BRANCH  25  29
HETATM   29  N6  UNL     1       6.503   1.648  -0.283  1.00  0.00    -0.384 N 
ATOM     30  H62 UNL     1       7.339   1.759  -0.856  1.00  0.00     0.157 HD
ATOM     31  H61 UNL     1       6.497   1.889   0.708  1.00  0.00     0.157 HD
ENDBRANCH  25  29
ENDBRANCH   6  20
TORSDOF 5
