REMARK  4 active torsions:
REMARK  status: ('A' for Active; 'I' for Inactive)
REMARK    1  A    between atoms: C2_2  and  N1_3 
REMARK    2  A    between atoms: N1_3  and  N2_5 
REMARK    3  A    between atoms: C3_7  and  C4_8 
REMARK    4  A    between atoms: C5_9  and  N3_10 
ROOT
HETATM    1  C4  UNL     1       0.736   1.396  -0.053  1.00  0.00     0.081 C 
HETATM    2  C5  UNL     1      -0.594   1.202  -0.300  1.00  0.00     0.116 C 
HETATM    3  C10 UNL     1      -1.475   2.245  -0.672  1.00  0.00     0.275 C 
HETATM    4  O1  UNL     1      -2.505   1.823  -1.240  1.00  0.00    -0.266 OA
HETATM    5  N5  UNL     1      -1.378   3.573  -0.514  1.00  0.00    -0.298 N 
ATOM      6  H5  UNL     1      -2.248   4.105  -0.523  1.00  0.00     0.171 HD
HETATM    7  C11 UNL     1      -0.234   4.273  -0.344  1.00  0.00     0.181 C 
HETATM    8  S1  UNL     1      -0.442   5.846   0.027  1.00  0.00    -0.040 SA
HETATM    9  N6  UNL     1       1.051   3.839  -0.441  1.00  0.00    -0.299 N 
ATOM     10  H6  UNL     1       1.756   4.547  -0.648  1.00  0.00     0.171 HD
HETATM   11  C12 UNL     1       1.492   2.581  -0.294  1.00  0.00     0.261 C 
HETATM   12  O2  UNL     1       2.744   2.410  -0.380  1.00  0.00    -0.267 OA
ENDROOT
BRANCH   1  13
HETATM   13  C3  UNL     1       1.512   0.325   0.507  1.00  0.00     0.126 C 
HETATM   14  N2  UNL     1       1.181  -0.839   0.839  1.00  0.00    -0.315 N 
ATOM     15  H2  UNL     1       0.206  -1.105   0.703  1.00  0.00     0.185 HD
BRANCH  14  16
HETATM   16  N1  UNL     1       2.035  -1.795   1.377  1.00  0.00    -0.337 N 
ATOM     17  H1  UNL     1       1.994  -1.989   2.378  1.00  0.00     0.180 HD
BRANCH  16  18
HETATM   18  C2  UNL     1       2.976  -2.520   0.563  1.00  0.00     0.135 C 
HETATM   19  C1  UNL     1       3.968  -1.597  -0.130  1.00  0.00     0.028 C 
ENDBRANCH  16  18
ENDBRANCH  14  16
ENDBRANCH   1  13
BRANCH   2  20
HETATM   20  N3  UNL     1      -1.232  -0.042  -0.205  1.00  0.00    -0.372 N 
HETATM   21  C6  UNL     1      -1.332  -1.004  -1.264  1.00  0.00     0.142 C 
HETATM   22  C7  UNL     1      -2.748  -1.565  -1.250  1.00  0.00     0.133 C 
HETATM   23  N4  UNL     1      -2.865  -2.387  -0.086  1.00  0.00    -0.418 N 
HETATM   24  C8  UNL     1      -2.389  -1.794   1.116  1.00  0.00     0.133 C 
ATOM     25  H4  UNL     1      -3.260  -3.327  -0.115  1.00  0.00     0.153 HD
HETATM   26  C9  UNL     1      -1.951  -0.375   1.032  1.00  0.00     0.142 C 
ENDBRANCH   2  20
TORSDOF 4
