REMARK  6 active torsions:
REMARK  status: ('A' for Active; 'I' for Inactive)
REMARK    1  A    between atoms: C3_3  and  C4_4 
REMARK    2  A    between atoms: C5_8  and  C6_9 
REMARK    3  A    between atoms: C8_13  and  N3_14 
REMARK    4  A    between atoms: C9_19  and  N5_20 
REMARK    5  A    between atoms: N8_29  and  C12_31 
REMARK    6  A    between atoms: C12_31  and  C13_32 
ROOT
HETATM    1  C1  UNL     1       6.408  -0.786  -1.604  1.00  0.00     0.012 C 
HETATM    2  C2  UNL     1       5.878  -0.783  -0.514  1.00  0.00    -0.110 C 
HETATM    3  C3  UNL     1       5.229  -0.768   0.795  1.00  0.00     0.171 C 
ENDROOT
BRANCH   3   4
HETATM    4  C4  UNL     1       3.888  -0.129   0.713  1.00  0.00     0.115 A 
HETATM    5  N1  UNL     1       3.621   1.186   0.882  1.00  0.00    -0.246 N 
HETATM    6  O1  UNL     1       2.342   1.370   0.738  1.00  0.00    -0.216 OA
ATOM      7  H1  UNL     1       4.308   1.912   1.088  1.00  0.00     0.196 HD
HETATM    8  C5  UNL     1       1.724   0.248   0.480  1.00  0.00     0.202 A 
HETATM    9  N9  UNL     1       2.690  -0.691   0.464  1.00  0.00    -0.321 N 
ATOM     10  H9  UNL     1       2.536  -1.684   0.289  1.00  0.00     0.169 HD
BRANCH   8  11
HETATM   11  C6  UNL     1       0.299   0.019   0.252  1.00  0.00     0.131 A 
HETATM   12  N2  UNL     1      -0.194  -1.205  -0.005  1.00  0.00    -0.344 N 
HETATM   13  C7  UNL     1      -1.501  -1.434  -0.217  1.00  0.00     0.122 A 
ATOM     14  H2  UNL     1       0.452  -1.994  -0.041  1.00  0.00     0.166 HD
HETATM   15  C8  UNL     1      -2.013  -2.681  -0.480  1.00  0.00     0.145 A 
HETATM   16  C10 UNL     1      -2.395  -0.385  -0.175  1.00  0.00     0.153 A 
HETATM   17  N4  UNL     1      -3.323  -2.880  -0.688  1.00  0.00    -0.175 N 
HETATM   18  C9  UNL     1      -4.177  -1.843  -0.642  1.00  0.00     0.679 A 
ATOM     19  H4  UNL     1      -3.671  -3.819  -0.881  1.00  0.00     0.186 HD
HETATM   20  N6  UNL     1      -3.692  -0.619  -0.386  1.00  0.00    -0.174 N 
ATOM     21  H6  UNL     1      -4.342   0.166  -0.351  1.00  0.00     0.186 HD
HETATM   22  N7  UNL     1      -1.918   0.868   0.085  1.00  0.00    -0.324 N 
HETATM   23  C11 UNL     1      -0.593   1.067   0.294  1.00  0.00     0.134 A 
ATOM     24  H7  UNL     1      -2.562   1.658   0.122  1.00  0.00     0.169 HD
HETATM   25  N8  UNL     1      -0.191   2.279   0.537  1.00  0.00    -0.368 N 
ATOM     26  H8  UNL     1       0.802   2.447   0.697  1.00  0.00     0.161 HD
BRANCH  15  27
HETATM   27  N3  UNL     1      -1.222  -3.694  -0.531  1.00  0.00    -0.383 N 
ATOM     28  H32 UNL     1      -0.226  -3.543  -0.373  1.00  0.00     0.157 HD
ATOM     29  H31 UNL     1      -1.602  -4.620  -0.726  1.00  0.00     0.157 HD
ENDBRANCH  15  27
BRANCH  18  30
HETATM   30  N5  UNL     1      -5.438  -1.973  -0.832  1.00  0.00    -0.234 N 
ATOM     31  H52 UNL     1      -5.807  -2.904  -1.027  1.00  0.00     0.174 HD
ATOM     32  H51 UNL     1      -6.086  -1.186  -0.797  1.00  0.00     0.174 HD
ENDBRANCH  18  30
BRANCH  25  33
HETATM   33  C12 UNL     1      -1.105   3.393   0.587  1.00  0.00     0.190 C 
BRANCH  33  34
HETATM   34  C13 UNL     1      -0.361   4.664   0.618  1.00  0.00     0.250 C 
HETATM   35  O2  UNL     1      -0.913   5.748   0.661  1.00  0.00    -0.305 OA
ENDBRANCH  33  34
ENDBRANCH  25  33
ENDBRANCH   8  11
ENDBRANCH   3   4
TORSDOF 6
