REMARK  13 active torsions:
REMARK  status: ('A' for Active; 'I' for Inactive)
REMARK    1  A    between atoms: C1_2  and  C2_3 
REMARK       I    between atoms: C1_2  and  N5_35 
REMARK    2  A    between atoms: C2_3  and  N1_4 
REMARK    3  A    between atoms: C6_8  and  C7_9 
REMARK       I    between atoms: C7_9  and  N2_11 
REMARK    4  A    between atoms: N2_11  and  C8_13 
REMARK    5  A    between atoms: C8_13  and  C9_14 
REMARK    6  A    between atoms: C8_13  and  C18_28 
REMARK       I    between atoms: C9_14  and  N3_16 
REMARK    7  A    between atoms: N3_16  and  C10_18 
REMARK    8  A    between atoms: C10_18  and  C11_19 
REMARK    9  A    between atoms: C11_19  and  C12_20 
REMARK   10  A    between atoms: C12_20  and  C13_21 
REMARK   11  A    between atoms: C13_21  and  N4_22 
REMARK   12  A    between atoms: N5_35  and  S1_37 
REMARK   13  A    between atoms: S1_37  and  C25_40 
ROOT
HETATM    1  C7  UNL     1      -0.010  -0.089  -0.370  1.00  0.00     0.223 C 
HETATM    2  O2  UNL     1      -0.918   0.608  -0.960  1.00  0.00    -0.273 OA
HETATM    3  N2  UNL     1      -0.425  -1.262   0.266  1.00  0.00    -0.347 N 
ATOM      4  H2  UNL     1       0.249  -1.845   0.762  1.00  0.00     0.163 HD
ENDROOT
BRANCH   3   5
HETATM    5  C8  UNL     1      -1.822  -1.643   0.214  1.00  0.00     0.180 C 
BRANCH   5   6
HETATM    6  C9  UNL     1      -2.467  -1.005   1.411  1.00  0.00     0.240 C 
HETATM    7  O3  UNL     1      -1.904  -0.949   2.516  1.00  0.00    -0.271 OA
HETATM    8  N3  UNL     1      -3.777  -0.433   1.286  1.00  0.00    -0.359 N 
ATOM      9  H3  UNL     1      -4.267  -0.465   0.392  1.00  0.00     0.162 HD
BRANCH   8  10
HETATM   10  C10 UNL     1      -4.395   0.185   2.425  1.00  0.00     0.122 C 
BRANCH  10  11
HETATM   11  C11 UNL     1      -5.754   0.770   1.923  1.00  0.00     0.021 C 
BRANCH  11  12
HETATM   12  C12 UNL     1      -5.434   1.800   0.900  1.00  0.00     0.032 C 
BRANCH  12  13
HETATM   13  C13 UNL     1      -6.548   2.562   0.325  1.00  0.00     0.272 C 
BRANCH  13  14
HETATM   14  N4  UNL     1      -7.579   1.884  -0.336  1.00  0.00     0.092 N 
HETATM   15  C14 UNL     1      -8.553   1.201   0.415  1.00  0.00     0.298 C 
HETATM   16  C15 UNL     1      -9.421   2.175   1.234  1.00  0.00     0.198 C 
HETATM   17  O4  UNL     1     -10.044   3.037   0.353  1.00  0.00    -0.388 OA
HETATM   18  C16 UNL     1      -9.140   3.761  -0.394  1.00  0.00     0.198 C 
HETATM   19  C17 UNL     1      -8.275   2.812  -1.235  1.00  0.00     0.298 C 
ENDBRANCH  13  14
ENDBRANCH  12  13
ENDBRANCH  11  12
ENDBRANCH  10  11
ENDBRANCH   8  10
ENDBRANCH   5   6
BRANCH   5  20
HETATM   20  C18 UNL     1      -2.016  -3.114   0.177  1.00  0.00     0.018 C 
HETATM   21  C19 UNL     1      -3.479  -3.440   0.125  1.00  0.00     0.007 C 
HETATM   22  C20 UNL     1      -3.741  -4.761  -0.575  1.00  0.00     0.000 C 
HETATM   23  C21 UNL     1      -2.659  -5.759  -0.280  1.00  0.00     0.000 C 
HETATM   24  C22 UNL     1      -1.354  -5.268  -0.854  1.00  0.00     0.000 C 
HETATM   25  C23 UNL     1      -1.308  -3.759  -0.983  1.00  0.00     0.007 C 
ENDBRANCH   5  20
ENDBRANCH   3   5
BRANCH   1  26
HETATM   26  C6  UNL     1       1.338   0.475  -0.473  1.00  0.00     0.091 C 
HETATM   27  C5  UNL     1       1.960   0.115  -1.839  1.00  0.00     0.016 C 
HETATM   28  C4  UNL     1       3.085   1.102  -2.046  1.00  0.00     0.016 C 
HETATM   29  C3  UNL     1       3.631   1.565  -0.700  1.00  0.00     0.095 C 
HETATM   30  N1  UNL     1       3.629   0.480   0.257  1.00  0.00    -0.287 NA
HETATM   31  C24 UNL     1       2.323  -0.039   0.544  1.00  0.00     0.109 C 
BRANCH  30  32
HETATM   32  C2  UNL     1       4.622  -0.474  -0.045  1.00  0.00     0.135 C 
BRANCH  32  33
HETATM   33  C1  UNL     1       5.998   0.021   0.240  1.00  0.00     0.265 C 
HETATM   34  O1  UNL     1       6.184   1.138   0.754  1.00  0.00    -0.267 OA
HETATM   35  N5  UNL     1       7.120  -0.792  -0.080  1.00  0.00    -0.250 N 
ATOM     36  H5  UNL     1       6.904  -1.697  -0.498  1.00  0.00     0.181 HD
BRANCH  35  37
HETATM   37  S1  UNL     1       8.757  -0.463   0.138  1.00  0.00     0.237 S 
HETATM   38  O5  UNL     1       9.277  -1.348   1.267  1.00  0.00    -0.205 OA
HETATM   39  O6  UNL     1       9.598  -0.842  -1.059  1.00  0.00    -0.205 OA
BRANCH  37  40
HETATM   40  C25 UNL     1       9.181   1.193   0.575  1.00  0.00     0.130 C 
HETATM   41  C26 UNL     1      10.686   1.188   0.872  1.00  0.00     0.022 C 
HETATM   42  C27 UNL     1      11.295   1.973  -0.267  1.00  0.00     0.001 C 
HETATM   43  C28 UNL     1      10.234   3.036  -0.541  1.00  0.00     0.001 C 
HETATM   44  C29 UNL     1       8.975   2.211  -0.466  1.00  0.00     0.022 C 
ENDBRANCH  37  40
ENDBRANCH  35  37
ENDBRANCH  32  33
ENDBRANCH  30  32
ENDBRANCH   1  26
TORSDOF 13
