REMARK  16 active torsions:
REMARK  status: ('A' for Active; 'I' for Inactive)
REMARK    1  A    between atoms: C2_2  and  C3_3 
REMARK    2  A    between atoms: C3_3  and  C4_4 
REMARK    3  A    between atoms: C4_4  and  O1_5 
REMARK    4  A    between atoms: O1_5  and  C5_6 
REMARK       I    between atoms: C5_6  and  N1_8 
REMARK       I    between atoms: N2_11  and  C8_12 
REMARK    5  A    between atoms: C8_12  and  C9_14 
REMARK    6  A    between atoms: C9_14  and  C10_16 
REMARK    7  A    between atoms: C10_16  and  C11_17 
REMARK    8  A    between atoms: C10_16  and  N3_24 
REMARK    9  A    between atoms: C11_17  and  C12_18 
REMARK   10  A    between atoms: N3_24  and  C18_26 
REMARK   11  A    between atoms: C18_26  and  C19_31 
REMARK   12  A    between atoms: N4_27  and  O5_29 
REMARK   13  A    between atoms: N5_35  and  S1_36 
REMARK   14  A    between atoms: S1_36  and  C23_39 
REMARK   15  A    between atoms: C23_39  and  C24_40 
REMARK   16  A    between atoms: C24_40  and  N6_41 
ROOT
HETATM    1  C10 UNL     1      -1.053  -0.977   1.698  1.00  0.00     0.163 C 
ENDROOT
BRANCH   1   2
HETATM    2  C9  UNL     1      -0.013  -0.074   1.092  1.00  0.00     0.239 C 
HETATM    3  O4  UNL     1      -0.232   0.322  -0.076  1.00  0.00    -0.285 OA
BRANCH   2   4
HETATM    4  C8  UNL     1       1.186   0.348   1.767  1.00  0.00     0.291 C 
HETATM    5  N2  UNL     1       2.276   1.047   1.182  1.00  0.00    -0.342 N 
HETATM    6  C7  UNL     1       2.274   1.315  -0.220  1.00  0.00     0.146 C 
HETATM    7  C26 UNL     1       3.336   1.460   2.111  1.00  0.00     0.146 C 
HETATM    8  C6  UNL     1       3.591   1.824  -0.773  1.00  0.00     0.148 C 
HETATM    9  N1  UNL     1       4.627   1.949   0.195  1.00  0.00    -0.325 N 
HETATM   10  C5  UNL     1       5.954   1.556  -0.111  1.00  0.00     0.362 C 
HETATM   11  C27 UNL     1       4.265   2.478   1.500  1.00  0.00     0.148 C 
HETATM   12  O2  UNL     1       6.868   1.665   0.754  1.00  0.00    -0.238 OA
HETATM   13  O3  UNL     1       1.240   0.045   3.022  1.00  0.00    -0.264 OA
BRANCH  10  14
HETATM   14  O1  UNL     1       6.253   1.049  -1.364  1.00  0.00    -0.304 OA
BRANCH  14  15
HETATM   15  C4  UNL     1       7.452   0.648  -1.879  1.00  0.00     0.180 C 
BRANCH  15  16
HETATM   16  C3  UNL     1       8.360   1.622  -2.468  1.00  0.00     0.026 C 
BRANCH  16  17
HETATM   17  C2  UNL     1       8.825   2.832  -1.779  1.00  0.00    -0.002 C 
HETATM   18  C1  UNL     1       7.831   3.914  -1.534  1.00  0.00     0.005 C 
ENDBRANCH  16  17
ENDBRANCH  15  16
ENDBRANCH  14  15
ENDBRANCH  10  14
ENDBRANCH   2   4
ENDBRANCH   1   2
BRANCH   1  19
HETATM   19  C11 UNL     1      -0.429  -2.286   1.991  1.00  0.00     0.038 C 
BRANCH  19  20
HETATM   20  C12 UNL     1      -1.284  -3.343   2.606  1.00  0.00    -0.012 C 
HETATM   21  C13 UNL     1      -0.405  -4.570   2.816  1.00  0.00     0.005 C 
HETATM   22  C14 UNL     1      -0.780  -5.720   1.909  1.00  0.00     0.000 C 
HETATM   23  C15 UNL     1      -2.164  -6.244   2.235  1.00  0.00     0.000 C 
HETATM   24  C16 UNL     1      -3.040  -5.041   2.502  1.00  0.00     0.000 C 
HETATM   25  C17 UNL     1      -2.465  -3.793   1.828  1.00  0.00     0.005 C 
ENDBRANCH  19  20
ENDBRANCH   1  19
BRANCH   1  26
HETATM   26  N3  UNL     1      -2.201  -0.960   0.866  1.00  0.00    -0.365 N 
ATOM     27  H3  UNL     1      -3.077  -0.809   1.366  1.00  0.00     0.161 HD
BRANCH  26  28
HETATM   28  C18 UNL     1      -2.348  -1.113  -0.517  1.00  0.00     0.117 C 
HETATM   29  N4  UNL     1      -1.813  -1.861  -1.346  1.00  0.00    -0.256 N 
ATOM     30  H4  UNL     1      -2.191  -1.672  -2.274  1.00  0.00     0.195 HD
BRANCH  29  31
HETATM   31  O5  UNL     1      -0.919  -2.816  -1.418  1.00  0.00    -0.288 OA
ATOM     32  H5  UNL     1      -0.509  -3.390  -2.054  1.00  0.00     0.244 HD
ENDBRANCH  29  31
BRANCH  28  33
HETATM   33  C19 UNL     1      -3.381  -0.153  -1.119  1.00  0.00     0.143 C 
HETATM   34  C20 UNL     1      -3.536  -0.310  -2.587  1.00  0.00     0.030 C 
HETATM   35  C21 UNL     1      -4.934  -0.862  -2.782  1.00  0.00     0.018 C 
HETATM   36  C22 UNL     1      -5.431  -1.159  -1.410  1.00  0.00     0.108 C 
HETATM   37  N5  UNL     1      -4.670  -0.329  -0.558  1.00  0.00    -0.199 NA
BRANCH  37  38
HETATM   38  S1  UNL     1      -5.354   1.178  -0.145  1.00  0.00     0.213 S 
HETATM   39  O6  UNL     1      -6.699   0.895   0.500  1.00  0.00    -0.211 OA
HETATM   40  O7  UNL     1      -4.517   1.868   0.888  1.00  0.00    -0.211 OA
BRANCH  38  41
HETATM   41  C23 UNL     1      -5.585   2.254  -1.503  1.00  0.00     0.185 C 
BRANCH  41  42
HETATM   42  C24 UNL     1      -6.178   3.564  -1.035  1.00  0.00     0.248 C 
BRANCH  42  43
HETATM   43  N6  UNL     1      -5.301   4.222  -0.079  1.00  0.00    -0.078 N 
HETATM   44  C25 UNL     1      -4.080   4.677  -0.725  1.00  0.00     0.267 C 
ATOM     45  H62 UNL     1      -5.776   4.982   0.408  1.00  0.00     0.276 HD
ATOM     46  H61 UNL     1      -5.103   3.625   0.724  1.00  0.00     0.276 HD
ENDBRANCH  42  43
ENDBRANCH  41  42
ENDBRANCH  38  41
ENDBRANCH  37  38
ENDBRANCH  28  33
ENDBRANCH  26  28
ENDBRANCH   1  26
TORSDOF 16
