REMARK  17 active torsions:
REMARK  status: ('A' for Active; 'I' for Inactive)
REMARK    1  A    between atoms: C2_2  and  O1_5 
REMARK    2  A    between atoms: O1_5  and  C5_6 
REMARK    3  A    between atoms: C5_6  and  C6_8 
REMARK    4  A    between atoms: C6_8  and  C7_9 
REMARK    5  A    between atoms: C7_9  and  C8_10 
REMARK    6  A    between atoms: C8_10  and  C9_11 
REMARK    7  A    between atoms: C9_11  and  C10_12 
REMARK    8  A    between atoms: C10_12  and  C11_13 
REMARK       I    between atoms: C11_13  and  N1_15 
REMARK    9  A    between atoms: N1_15  and  C12_17 
REMARK   10  A    between atoms: C12_17  and  C13_18 
REMARK       I    between atoms: C13_18  and  N2_20 
REMARK   11  A    between atoms: N2_20  and  C14_22 
REMARK   12  A    between atoms: C14_22  and  C15_23 
REMARK   13  A    between atoms: C15_23  and  S1_24 
REMARK   14  A    between atoms: S1_24  and  N3_25 
REMARK       I    between atoms: N4_30  and  C16_32 
REMARK   15  A    between atoms: C16_32  and  C17_34 
REMARK       I    between atoms: N5_38  and  C21_39 
REMARK   16  A    between atoms: C21_39  and  O9_41 
REMARK   17  A    between atoms: O9_41  and  C22_42 
ROOT
HETATM    1  C8  UNL     1      -0.043   1.740   0.265  1.00  0.00    -0.010 C 
HETATM    2  N4  UNL     1      -0.753   1.003  -0.444  1.00  0.00    -0.333 N 
ATOM      3  H4  UNL     1      -0.905   1.393  -1.374  1.00  0.00     0.168 HD
HETATM    4  C16 UNL     1      -1.392  -0.226  -0.277  1.00  0.00     0.244 C 
HETATM    5  O7  UNL     1      -0.970  -1.057   0.539  1.00  0.00    -0.271 OA
ENDROOT
BRANCH   1   6
HETATM    6  C7  UNL     1       0.429   3.023  -0.382  1.00  0.00     0.062 C 
BRANCH   6   7
HETATM    7  C6  UNL     1      -0.136   4.154   0.452  1.00  0.00     0.117 C 
BRANCH   7   8
HETATM    8  C5  UNL     1       0.259   5.480  -0.086  1.00  0.00     0.259 C 
HETATM    9  O2  UNL     1       0.977   5.585  -1.113  1.00  0.00    -0.265 OA
BRANCH   8  10
HETATM   10  O1  UNL     1      -0.176   6.614   0.563  1.00  0.00    -0.311 OA
BRANCH  10  11
HETATM   11  C2  UNL     1       0.123   7.917   0.160  1.00  0.00     0.060 C 
HETATM   12  C1  UNL     1      -0.542   8.870   1.136  1.00  0.00     0.045 C 
HETATM   13  C3  UNL     1      -0.492   8.222  -1.204  1.00  0.00     0.045 C 
HETATM   14  C4  UNL     1       1.590   8.229   0.115  1.00  0.00     0.045 C 
ENDBRANCH  10  11
ENDBRANCH   8  10
ENDBRANCH   7   8
ENDBRANCH   6   7
ENDBRANCH   1   6
BRANCH   1  15
HETATM   15  C9  UNL     1       0.323   1.437   1.653  1.00  0.00     0.062 C 
BRANCH  15  16
HETATM   16  C10 UNL     1       1.780   1.489   1.958  1.00  0.00     0.108 C 
BRANCH  16  17
HETATM   17  C11 UNL     1       2.624   0.573   1.162  1.00  0.00     0.218 C 
HETATM   18  O3  UNL     1       2.211  -0.162   0.235  1.00  0.00    -0.274 OA
HETATM   19  N1  UNL     1       4.040   0.471   1.423  1.00  0.00    -0.352 N 
ATOM     20  H1  UNL     1       4.431   1.051   2.166  1.00  0.00     0.162 HD
BRANCH  19  21
HETATM   21  C12 UNL     1       4.925  -0.386   0.711  1.00  0.00     0.225 C 
BRANCH  21  22
HETATM   22  C13 UNL     1       4.629  -1.828   0.813  1.00  0.00     0.235 C 
HETATM   23  O4  UNL     1       3.666  -2.228   1.503  1.00  0.00    -0.272 OA
HETATM   24  N2  UNL     1       5.421  -2.812   0.137  1.00  0.00    -0.359 N 
ATOM     25  H2  UNL     1       6.216  -2.529  -0.436  1.00  0.00     0.162 HD
BRANCH  24  26
HETATM   26  C14 UNL     1       5.087  -4.190   0.273  1.00  0.00     0.139 C 
BRANCH  26  27
HETATM   27  C15 UNL     1       5.992  -5.111  -0.455  1.00  0.00     0.182 C 
BRANCH  27  28
HETATM   28  S1  UNL     1       7.637  -5.016   0.150  1.00  0.00     0.226 S 
HETATM   29  O5  UNL     1       8.186  -3.645  -0.000  1.00  0.00    -0.206 OA
HETATM   30  O6  UNL     1       7.750  -5.470   1.575  1.00  0.00    -0.206 OA
BRANCH  28  31
HETATM   31  N3  UNL     1       8.574  -6.159  -0.790  1.00  0.00    -0.328 N 
ATOM     32  H32 UNL     1       8.220  -6.755  -1.538  1.00  0.00     0.168 HD
ATOM     33  H31 UNL     1       9.530  -6.104  -0.438  1.00  0.00     0.168 HD
ENDBRANCH  28  31
ENDBRANCH  27  28
ENDBRANCH  26  27
ENDBRANCH  24  26
ENDBRANCH  21  22
ENDBRANCH  19  21
ENDBRANCH  16  17
ENDBRANCH  15  16
ENDBRANCH   1  15
BRANCH   4  34
HETATM   34  C17 UNL     1      -2.562  -0.484  -1.093  1.00  0.00     0.181 C 
HETATM   35  C18 UNL     1      -3.606   0.637  -0.996  1.00  0.00     0.037 C 
HETATM   36  C19 UNL     1      -4.747   0.011  -1.800  1.00  0.00     0.022 C 
HETATM   37  C20 UNL     1      -4.329  -1.443  -2.059  1.00  0.00     0.129 C 
HETATM   38  N5  UNL     1      -3.381  -1.601  -0.914  1.00  0.00    -0.315 N 
HETATM   39  C21 UNL     1      -3.509  -2.661  -0.029  1.00  0.00     0.363 C 
HETATM   40  O8  UNL     1      -2.825  -2.921   0.994  1.00  0.00    -0.238 OA
BRANCH  39  41
HETATM   41  O9  UNL     1      -4.528  -3.653  -0.216  1.00  0.00    -0.298 OA
BRANCH  41  42
HETATM   42  C22 UNL     1      -4.673  -4.739   0.675  1.00  0.00     0.133 C 
HETATM   43  C23 UNL     1      -6.096  -4.797   1.216  1.00  0.00     0.032 C 
HETATM   44  C24 UNL     1      -6.894  -5.259   0.005  1.00  0.00     0.002 C 
HETATM   45  C25 UNL     1      -5.932  -6.081  -0.793  1.00  0.00     0.002 C 
HETATM   46  C26 UNL     1      -4.592  -6.011  -0.128  1.00  0.00     0.032 C 
ENDBRANCH  41  42
ENDBRANCH  39  41
ENDBRANCH   4  34
TORSDOF 17
