REMARK  16 active torsions:
REMARK  status: ('A' for Active; 'I' for Inactive)
REMARK    1  A    between atoms: C2_2  and  C3_3 
REMARK    2  A    between atoms: C3_3  and  C4_4 
REMARK    3  A    between atoms: C7_7  and  C8_8 
REMARK       I    between atoms: C8_8  and  N1_10 
REMARK    4  A    between atoms: N1_10  and  C9_12 
REMARK    5  A    between atoms: C9_12  and  C10_13 
REMARK    6  A    between atoms: C9_12  and  C17_23 
REMARK    7  A    between atoms: C10_13  and  C11_14 
REMARK    8  A    between atoms: C11_14  and  C12_15 
REMARK       I    between atoms: C12_15  and  N2_17 
REMARK    9  A    between atoms: N2_17  and  C13_19 
REMARK   10  A    between atoms: C17_23  and  O3_24 
REMARK   11  A    between atoms: C17_23  and  C18_26 
REMARK       I    between atoms: C18_26  and  N3_28 
REMARK   12  A    between atoms: N3_28  and  C19_30 
REMARK   13  A    between atoms: C19_30  and  C20_31 
REMARK   14  A    between atoms: C20_31  and  C21_32 
REMARK   15  A    between atoms: C21_32  and  N4_33 
REMARK   16  A    between atoms: N4_33  and  C23_35 
ROOT
HETATM    1  C9  UNL     1       0.118   0.655   0.314  1.00  0.00     0.147 C 
ENDROOT
BRANCH   1   2
HETATM    2  N1  UNL     1      -1.020  -0.359   0.513  1.00  0.00    -0.348 N 
HETATM    3  C8  UNL     1      -2.002  -0.535  -0.449  1.00  0.00     0.244 C 
HETATM    4  O1  UNL     1      -1.891   0.191  -1.488  1.00  0.00    -0.271 OA
ATOM      5  H1  UNL     1      -1.053  -0.913   1.369  1.00  0.00     0.163 HD
BRANCH   3   6
HETATM    6  C7  UNL     1      -3.088  -1.496  -0.263  1.00  0.00     0.222 C 
HETATM    7  C3  UNL     1      -4.451  -0.869  -0.216  1.00  0.00     0.195 C 
HETATM    8  N6  UNL     1      -5.160  -1.553   0.816  1.00  0.00     0.136 N 
HETATM    9  C26 UNL     1      -4.354  -2.558   1.362  1.00  0.00     0.284 C 
HETATM   10  C28 UNL     1      -6.458  -2.048   0.441  1.00  0.00     0.315 C 
HETATM   11  N5  UNL     1      -2.980  -2.404   0.852  1.00  0.00    -0.291 N 
HETATM   12  S1  UNL     1      -3.984  -2.324   3.148  1.00  0.00    -0.097 SA
HETATM   13  C27 UNL     1      -4.825  -3.973   1.231  1.00  0.00     0.087 C 
HETATM   14  C24 UNL     1      -2.110  -3.203   1.621  1.00  0.00     0.232 C 
HETATM   15  O6  UNL     1      -1.182  -3.969   1.174  1.00  0.00    -0.272 OA
HETATM   16  C25 UNL     1      -2.334  -3.116   3.087  1.00  0.00     0.181 C 
BRANCH   7  17
HETATM   17  C2  UNL     1      -4.376   0.591   0.214  1.00  0.00     0.040 C 
HETATM   18  C1  UNL     1      -5.729   1.240   0.369  1.00  0.00     0.007 C 
ENDBRANCH   7  17
BRANCH   7  19
HETATM   19  C4  UNL     1      -5.147  -0.937  -1.548  1.00  0.00     0.027 A 
HETATM   20  C5  UNL     1      -5.413  -2.236  -2.214  1.00  0.00     0.008 A 
HETATM   21  C6  UNL     1      -4.508  -1.166  -2.832  1.00  0.00     0.008 A 
ENDBRANCH   7  19
ENDBRANCH   3   6
ENDBRANCH   1   2
BRANCH   1  22
HETATM   22  C10 UNL     1      -0.142   1.679   1.324  1.00  0.00     0.041 C 
BRANCH  22  23
HETATM   23  C11 UNL     1       0.706   2.870   1.430  1.00  0.00     0.105 C 
BRANCH  23  24
HETATM   24  C12 UNL     1       0.826   3.704   0.218  1.00  0.00     0.218 C 
HETATM   25  O2  UNL     1       0.177   3.446  -0.819  1.00  0.00    -0.274 OA
HETATM   26  N2  UNL     1       1.682   4.841   0.161  1.00  0.00    -0.353 N 
ATOM     27  H2  UNL     1       2.227   5.091   0.986  1.00  0.00     0.163 HD
BRANCH  26  28
HETATM   28  C13 UNL     1       1.801   5.650  -1.029  1.00  0.00     0.022 C 
HETATM   29  C14 UNL     1       2.334   4.736  -2.143  1.00  0.00     0.037 C 
HETATM   30  C15 UNL     1       0.480   6.199  -1.506  1.00  0.00     0.037 C 
HETATM   31  C16 UNL     1       2.790   6.777  -0.851  1.00  0.00     0.037 C 
ENDBRANCH  26  28
ENDBRANCH  23  24
ENDBRANCH  22  23
ENDBRANCH   1  22
BRANCH   1  32
HETATM   32  C17 UNL     1       1.279  -0.153   0.196  1.00  0.00     0.134 C 
BRANCH  32  33
HETATM   33  O3  UNL     1       1.018  -1.420  -0.170  1.00  0.00    -0.358 OA
ATOM     34  H3  UNL     1       1.795  -1.961  -0.249  1.00  0.00     0.217 HD
ENDBRANCH  32  33
BRANCH  32  35
HETATM   35  C18 UNL     1       2.691   0.037   0.372  1.00  0.00     0.272 C 
HETATM   36  O4  UNL     1       3.261   1.091   0.737  1.00  0.00    -0.266 OA
HETATM   37  N3  UNL     1       3.604  -1.063   0.122  1.00  0.00    -0.355 N 
ATOM     38  H3  UNL     1       3.245  -1.963  -0.198  1.00  0.00     0.162 HD
BRANCH  37  39
HETATM   39  C19 UNL     1       5.009  -0.882   0.326  1.00  0.00     0.124 C 
BRANCH  39  40
HETATM   40  C20 UNL     1       5.744  -2.171  -0.028  1.00  0.00     0.039 C 
BRANCH  40  41
HETATM   41  C21 UNL     1       7.209  -1.962   0.253  1.00  0.00     0.126 C 
BRANCH  41  42
HETATM   42  N4  UNL     1       7.968  -3.174  -0.074  1.00  0.00    -0.364 N 
HETATM   43  C22 UNL     1       8.145  -4.221   0.912  1.00  0.00     0.152 C 
BRANCH  42  44
HETATM   44  C23 UNL     1       8.496  -3.284  -1.380  1.00  0.00     0.350 C 
HETATM   45  O5  UNL     1       9.149  -4.320  -1.689  1.00  0.00    -0.284 OA
ENDBRANCH  42  44
ENDBRANCH  41  42
ENDBRANCH  40  41
ENDBRANCH  39  40
ENDBRANCH  37  39
ENDBRANCH  32  35
ENDBRANCH   1  32
TORSDOF 16
