REMARK  12 active torsions:
REMARK  status: ('A' for Active; 'I' for Inactive)
REMARK    1  A    between atoms: S1_2  and  C2_3 
REMARK    2  A    between atoms: C2_3  and  C3_4 
REMARK    3  A    between atoms: C3_4  and  C4_5 
REMARK    4  A    between atoms: C4_5  and  N1_6 
REMARK    5  A    between atoms: C4_5  and  C16_23 
REMARK       I    between atoms: N1_6  and  C5_8 
REMARK    6  A    between atoms: C5_8  and  C6_10 
REMARK       I    between atoms: N2_14  and  C10_15 
REMARK    7  A    between atoms: C10_15  and  C11_17 
REMARK    8  A    between atoms: C11_17  and  C12_19 
REMARK       I    between atoms: C16_23  and  N3_25 
REMARK    9  A    between atoms: N3_25  and  C17_27 
REMARK   10  A    between atoms: C17_27  and  C19_29 
REMARK       I    between atoms: C19_29  and  N4_31 
REMARK       I    between atoms: N4_31  and  C20_33 
REMARK   11  A    between atoms: C20_33  and  C21_35 
REMARK   12  A    between atoms: C21_35  and  N5_36 
REMARK       I    between atoms: N5_36  and  C22_38 
ROOT
HETATM    1  C4  UNL     1      -1.156   2.055  -0.228  1.00  0.00     0.081 C 
ENDROOT
BRANCH   1   2
HETATM    2  C3  UNL     1      -0.416   3.261  -0.674  1.00  0.00     0.073 C 
BRANCH   2   3
HETATM    3  C2  UNL     1      -0.391   3.626  -2.101  1.00  0.00     0.080 C 
BRANCH   3   4
HETATM    4  S1  UNL     1      -1.931   4.049  -2.898  1.00  0.00    -0.173 SA
HETATM    5  C1  UNL     1      -2.652   5.591  -2.307  1.00  0.00     0.089 C 
ENDBRANCH   3   4
ENDBRANCH   2   3
ENDBRANCH   1   2
BRANCH   1   6
HETATM    6  N1  UNL     1      -2.542   2.015  -0.414  1.00  0.00    -0.324 N 
HETATM    7  C5  UNL     1      -3.541   1.058  -0.230  1.00  0.00     0.245 C 
HETATM    8  O1  UNL     1      -3.334  -0.090   0.131  1.00  0.00    -0.271 OA
ATOM      9  H1  UNL     1      -2.911   2.897  -0.769  1.00  0.00     0.169 HD
BRANCH   7  10
HETATM   10  C6  UNL     1      -4.964   1.491  -0.489  1.00  0.00     0.180 C 
HETATM   11  C7  UNL     1      -5.133   1.938  -1.893  1.00  0.00     0.037 C 
HETATM   12  C8  UNL     1      -6.073   0.891  -2.481  1.00  0.00     0.022 C 
HETATM   13  C9  UNL     1      -6.880   0.434  -1.286  1.00  0.00     0.127 C 
HETATM   14  N2  UNL     1      -5.958   0.553  -0.191  1.00  0.00    -0.332 N 
HETATM   15  C10 UNL     1      -6.156  -0.157   1.020  1.00  0.00     0.291 C 
HETATM   16  O2  UNL     1      -7.041  -1.104   1.006  1.00  0.00    -0.264 OA
BRANCH  15  17
HETATM   17  C11 UNL     1      -5.489   0.041   2.276  1.00  0.00     0.224 C 
HETATM   18  O3  UNL     1      -4.841   1.077   2.580  1.00  0.00    -0.286 OA
BRANCH  17  19
HETATM   19  C12 UNL     1      -5.522  -1.017   3.328  1.00  0.00     0.019 C 
HETATM   20  C13 UNL     1      -4.970  -2.325   2.744  1.00  0.00     0.023 C 
HETATM   21  C14 UNL     1      -6.909  -1.276   3.790  1.00  0.00     0.023 C 
HETATM   22  C15 UNL     1      -4.608  -0.678   4.488  1.00  0.00     0.023 C 
ENDBRANCH  17  19
ENDBRANCH  15  17
ENDBRANCH   7  10
ENDBRANCH   1   6
BRANCH   1  23
HETATM   23  C16 UNL     1      -0.356   0.800  -0.469  1.00  0.00     0.264 C 
HETATM   24  O4  UNL     1      -0.791  -0.357  -0.268  1.00  0.00    -0.266 OA
HETATM   25  N3  UNL     1       0.989   0.837  -0.952  1.00  0.00    -0.343 N 
ATOM     26  H3  UNL     1       1.414   1.738  -1.171  1.00  0.00     0.163 HD
BRANCH  25  27
HETATM   27  C17 UNL     1       1.769  -0.382  -1.139  1.00  0.00     0.173 C 
HETATM   28  C18 UNL     1       1.908  -0.751  -2.602  1.00  0.00     0.042 C 
BRANCH  27  29
HETATM   29  C19 UNL     1       3.097  -0.116  -0.581  1.00  0.00     0.246 C 
HETATM   30  O5  UNL     1       3.384   1.071  -0.176  1.00  0.00    -0.271 OA
HETATM   31  N4  UNL     1       4.145  -1.087  -0.435  1.00  0.00    -0.294 N 
HETATM   32  C20 UNL     1       5.407  -0.693   0.107  1.00  0.00     0.252 C 
ATOM     33  H4  UNL     1       3.989  -2.055  -0.717  1.00  0.00     0.171 HD
HETATM   34  O6  UNL     1       5.594   0.485   0.425  1.00  0.00    -0.270 OA
BRANCH  32  35
HETATM   35  C21 UNL     1       6.514  -1.683   0.294  1.00  0.00     0.114 C 
HETATM   36  C24 UNL     1       6.808  -2.404  -0.987  1.00  0.00     0.041 C 
HETATM   37  C25 UNL     1       6.275  -3.799  -0.878  1.00  0.00     0.003 C 
HETATM   38  C26 UNL     1       5.911  -4.037   0.554  1.00  0.00     0.003 C 
HETATM   39  C27 UNL     1       6.092  -2.749   1.288  1.00  0.00     0.041 C 
BRANCH  35  40
HETATM   40  N5  UNL     1       7.711  -1.001   0.739  1.00  0.00    -0.343 N 
HETATM   41  C22 UNL     1       8.948  -1.619   1.016  1.00  0.00     0.214 C 
HETATM   42  C23 UNL     1      10.145  -0.853   1.469  1.00  0.00     0.117 C 
HETATM   43  O7  UNL     1       9.092  -2.860   0.888  1.00  0.00    -0.274 OA
ATOM     44  H5  UNL     1       7.655   0.010   0.862  1.00  0.00     0.163 HD
ENDBRANCH  35  40
ENDBRANCH  32  35
ENDBRANCH  27  29
ENDBRANCH  25  27
ENDBRANCH   1  23
TORSDOF 12
