REMARK  3 active torsions:
REMARK  status: ('A' for Active; 'I' for Inactive)
REMARK    1  A    between atoms: C2_5  and  C3_6 
REMARK    2  A    between atoms: C6_15  and  N6_16 
REMARK    3  A    between atoms: C10_29  and  N9_30 
ROOT
HETATM    1  C3  UNL     1       1.319  -0.086  -0.037  1.00  0.00     0.185 A 
HETATM    2  N3  UNL     1       0.541  -1.178  -0.134  1.00  0.00    -0.318 N 
ATOM      3  H3  UNL     1       0.872  -2.136  -0.252  1.00  0.00     0.169 HD
HETATM    4  C4  UNL     1      -0.747  -0.797  -0.050  1.00  0.00     0.163 A 
HETATM    5  N4  UNL     1      -1.894  -1.507  -0.093  1.00  0.00    -0.172 N 
ATOM      6  H4  UNL     1      -1.878  -2.520  -0.207  1.00  0.00     0.186 HD
HETATM    7  C5  UNL     1      -3.054  -0.847   0.018  1.00  0.00     0.712 A 
HETATM    8  N5  UNL     1      -4.245  -1.511  -0.018  1.00  0.00    -0.021 N 
ATOM      9  H5  UNL     1      -4.231  -2.525  -0.132  1.00  0.00     0.203 HD
HETATM   10  C6  UNL     1      -5.431  -0.899   0.089  1.00  0.00     0.694 A 
HETATM   11  N7  UNL     1      -5.433   0.434   0.238  1.00  0.00    -0.140 N 
ATOM     12  H7  UNL     1      -6.317   0.935   0.322  1.00  0.00     0.189 HD
HETATM   13  C7  UNL     1      -4.277   1.108   0.277  1.00  0.00     0.362 A 
HETATM   14  O1  UNL     1      -4.288   2.350   0.417  1.00  0.00    -0.245 OA
HETATM   15  N8  UNL     1      -3.067   0.486   0.168  1.00  0.00    -0.055 N 
HETATM   16  C8  UNL     1      -1.940   1.219   0.214  1.00  0.00     0.308 A 
HETATM   17  O2  UNL     1      -1.936   2.470   0.355  1.00  0.00    -0.264 OA
HETATM   18  C9  UNL     1      -0.735   0.573   0.103  1.00  0.00     0.191 A 
HETATM   19  O3  UNL     1       0.531   0.922   0.102  1.00  0.00    -0.281 OA
ENDROOT
BRANCH   1  20
HETATM   20  C2  UNL     1       2.791  -0.128  -0.089  1.00  0.00     0.144 A 
HETATM   21  N2  UNL     1       3.685   0.842  -0.009  1.00  0.00    -0.286 N 
HETATM   22  N1  UNL     1       4.928   0.579  -0.078  1.00  0.00    -0.275 N 
ATOM     23  H2  UNL     1       3.377   1.807   0.109  1.00  0.00     0.188 HD
HETATM   24  C1  UNL     1       5.955   1.642   0.009  1.00  0.00     0.180 C 
HETATM   25  C10 UNL     1       5.308  -0.690  -0.233  1.00  0.00     0.161 A 
HETATM   26  S1  UNL     1       3.793  -1.495  -0.274  1.00  0.00    -0.029 SA
BRANCH  25  27
HETATM   27  N9  UNL     1       6.529  -1.166  -0.325  1.00  0.00    -0.378 N 
ATOM     28  H92 UNL     1       7.429  -0.688  -0.301  1.00  0.00     0.158 HD
ATOM     29  H91 UNL     1       6.820  -2.137  -0.444  1.00  0.00     0.158 HD
ENDBRANCH  25  27
ENDBRANCH   1  20
BRANCH  10  30
HETATM   30  N6  UNL     1      -6.544  -1.545   0.052  1.00  0.00    -0.234 N 
ATOM     31  H62 UNL     1      -6.542  -2.559  -0.061  1.00  0.00     0.174 HD
ATOM     32  H61 UNL     1      -7.448  -1.079   0.134  1.00  0.00     0.174 HD
ENDBRANCH  10  30
TORSDOF 3
