REMARK  7 active torsions:
REMARK  status: ('A' for Active; 'I' for Inactive)
REMARK    1  A    between atoms: C2_2  and  N1_3 
REMARK    2  A    between atoms: N1_3  and  C3_5 
REMARK    3  A    between atoms: C5_7  and  C6_8 
REMARK    4  A    between atoms: C7_9  and  C8_10 
REMARK    5  A    between atoms: C9_11  and  C10_12 
REMARK    6  A    between atoms: C16_24  and  N6_25 
REMARK    7  A    between atoms: N6_25  and  C17_27 
ROOT
HETATM    1  C8  UNL     1      -1.538   0.477   0.092  1.00  0.00     0.072 A 
HETATM    2  C9  UNL     1      -2.134   1.647  -0.281  1.00  0.00     0.067 A 
HETATM    3  N4  UNL     1      -3.359   1.505  -0.882  1.00  0.00    -0.343 N 
ATOM      4  H4  UNL     1      -3.833   2.359  -1.177  1.00  0.00     0.167 HD
HETATM    5  C14 UNL     1      -3.978   0.366  -1.112  1.00  0.00     0.118 A 
HETATM    6  N5  UNL     1      -5.267   0.298  -1.747  1.00  0.00    -0.083 NA
HETATM    7  C15 UNL     1      -3.369  -0.810  -0.728  1.00  0.00     0.076 A 
HETATM    8  C16 UNL     1      -2.136  -0.783  -0.117  1.00  0.00     0.053 A 
ENDROOT
BRANCH   1   9
HETATM    9  C7  UNL     1      -0.225   0.416   0.664  1.00  0.00    -0.057 C 
HETATM   10  C6  UNL     1       0.904   0.332   1.124  1.00  0.00    -0.061 C 
BRANCH  10  11
HETATM   11  C5  UNL     1       2.240   0.238   1.644  1.00  0.00     0.022 A 
HETATM   12  C4  UNL     1       3.277  -0.177   0.823  1.00  0.00     0.068 A 
HETATM   13  C3  UNL     1       4.579  -0.288   1.260  1.00  0.00     0.102 A 
HETATM   14  N7  UNL     1       4.814   0.031   2.557  1.00  0.00    -0.352 N 
HETATM   15  C22 UNL     1       3.845   0.437   3.392  1.00  0.00     0.091 A 
ATOM     16  H7  UNL     1       5.767  -0.041   2.913  1.00  0.00     0.166 HD
HETATM   17  C21 UNL     1       2.543   0.547   2.952  1.00  0.00     0.038 A 
BRANCH  13  18
HETATM   18  N1  UNL     1       5.533  -0.675   0.483  1.00  0.00    -0.377 N 
ATOM     19  H1  UNL     1       6.491  -0.751   0.825  1.00  0.00     0.161 HD
BRANCH  18  20
HETATM   20  C2  UNL     1       5.205  -0.996  -0.881  1.00  0.00     0.116 C 
HETATM   21  C1  UNL     1       6.437  -1.412  -1.656  1.00  0.00     0.026 C 
ENDBRANCH  18  20
ENDBRANCH  13  18
ENDBRANCH  10  11
ENDBRANCH   1   9
BRANCH   2  22
HETATM   22  C10 UNL     1      -1.563   2.963  -0.133  1.00  0.00     0.026 A 
HETATM   23  C11 UNL     1      -0.578   3.445   0.654  1.00  0.00     0.122 A 
HETATM   24  N2  UNL     1      -0.374   4.756   0.355  1.00  0.00    -0.310 N 
HETATM   25  N3  UNL     1      -1.195   5.141  -0.598  1.00  0.00    -0.307 N 
ATOM     26  H2  UNL     1       0.317   5.355   0.806  1.00  0.00     0.186 HD
HETATM   27  C12 UNL     1      -1.321   6.448  -1.219  1.00  0.00     0.177 C 
HETATM   28  C13 UNL     1      -1.938   4.058  -0.917  1.00  0.00     0.124 A 
ENDBRANCH   2  22
BRANCH   8  29
HETATM   29  N6  UNL     1      -1.545  -1.839   0.250  1.00  0.00    -0.380 N 
ATOM     30  H6  UNL     1      -0.637  -1.695   0.692  1.00  0.00     0.160 HD
BRANCH  29  31
HETATM   31  C17 UNL     1      -1.954  -3.196   0.140  1.00  0.00     0.019 C 
HETATM   32  C18 UNL     1      -2.091  -3.618  -1.294  1.00  0.00     0.037 C 
HETATM   33  C19 UNL     1      -0.869  -4.098   0.761  1.00  0.00     0.037 C 
HETATM   34  C20 UNL     1      -3.218  -3.501   0.910  1.00  0.00     0.037 C 
ENDBRANCH  29  31
ENDBRANCH   8  29
TORSDOF 7
