REMARK  10 active torsions:
REMARK  status: ('A' for Active; 'I' for Inactive)
REMARK    1  A    between atoms: C2_2  and  C3_3 
REMARK    2  A    between atoms: C3_3  and  S1_4 
REMARK    3  A    between atoms: S1_4  and  C4_5 
REMARK    4  A    between atoms: C5_10  and  C6_11 
REMARK    5  A    between atoms: C7_14  and  C8_15 
REMARK    6  A    between atoms: C8_15  and  C10_17 
REMARK    7  A    between atoms: C10_17  and  C11_18 
REMARK    8  A    between atoms: C13_20  and  C14_21 
REMARK    9  A    between atoms: C14_21  and  C15_22 
REMARK   10  A    between atoms: C15_22  and  C16_23 
ROOT
HETATM    1  C6  UNL     1       0.753   0.195   0.492  1.00  0.00     0.160 A 
HETATM    2  N3  UNL     1      -0.081   0.659  -0.466  1.00  0.00    -0.337 N 
ATOM      3  H3  UNL     1       0.187   1.306  -1.207  1.00  0.00     0.167 HD
HETATM    4  C7  UNL     1      -1.347   0.133  -0.300  1.00  0.00     0.058 A 
HETATM    5  C13 UNL     1      -1.255  -0.675   0.785  1.00  0.00     0.038 A 
HETATM    6  N4  UNL     1       0.017  -0.621   1.246  1.00  0.00    -0.340 N 
ATOM      7  H4  UNL     1       0.364  -1.133   2.057  1.00  0.00     0.167 HD
ENDROOT
BRANCH   1   8
HETATM    8  C5  UNL     1       2.141   0.531   0.777  1.00  0.00     0.209 A 
HETATM    9  N2  UNL     1       2.837   0.017   1.822  1.00  0.00    -0.274 N 
HETATM   10  N1  UNL     1       4.042   0.503   1.845  1.00  0.00    -0.272 N 
ATOM     11  H2  UNL     1       2.467  -0.655   2.494  1.00  0.00     0.189 HD
HETATM   12  C4  UNL     1       4.140   1.336   0.821  1.00  0.00     0.203 A 
ATOM     13  H1  UNL     1       4.772   0.284   2.522  1.00  0.00     0.189 HD
HETATM   14  O3  UNL     1       2.952   1.348   0.151  1.00  0.00    -0.264 OA
BRANCH  12  15
HETATM   15  S1  UNL     1       5.602   2.264   0.446  1.00  0.00    -0.085 SA
BRANCH  15  16
HETATM   16  C3  UNL     1       6.793   1.431  -0.584  1.00  0.00     0.082 C 
BRANCH  16  17
HETATM   17  C2  UNL     1       7.320   0.236   0.216  1.00  0.00     0.006 C 
HETATM   18  C1  UNL     1       8.347  -0.463  -0.635  1.00  0.00     0.006 C 
ENDBRANCH  16  17
ENDBRANCH  15  16
ENDBRANCH  12  15
ENDBRANCH   1   8
BRANCH   4  19
HETATM   19  C8  UNL     1      -2.530   0.596  -0.982  1.00  0.00    -0.055 C 
HETATM   20  C9  UNL     1      -2.893   0.163  -2.345  1.00  0.00     0.046 C 
BRANCH  19  21
HETATM   21  C10 UNL     1      -3.625   1.231  -0.185  1.00  0.00     0.036 C 
BRANCH  21  22
HETATM   22  C11 UNL     1      -4.808   1.691  -1.067  1.00  0.00    -0.000 C 
HETATM   23  C12 UNL     1      -5.748   2.407  -0.110  1.00  0.00     0.005 C 
ENDBRANCH  21  22
ENDBRANCH  19  21
ENDBRANCH   4  19
BRANCH   5  24
HETATM   24  C14 UNL     1      -2.265  -1.531   1.366  1.00  0.00     0.070 C 
BRANCH  24  25
HETATM   25  C15 UNL     1      -2.542  -2.777   0.492  1.00  0.00     0.119 C 
BRANCH  25  26
HETATM   26  C16 UNL     1      -3.591  -3.558   1.213  1.00  0.00     0.172 C 
HETATM   27  O1  UNL     1      -3.549  -3.843   2.424  1.00  0.00    -0.648 OA
HETATM   28  O2  UNL     1      -4.706  -4.000   0.451  1.00  0.00    -0.648 OA
ENDBRANCH  25  26
ENDBRANCH  24  25
ENDBRANCH   5  24
TORSDOF 10
