REMARK  10 active torsions:
REMARK  status: ('A' for Active; 'I' for Inactive)
REMARK    1  A    between atoms: O1_2  and  C2_3 
REMARK    2  A    between atoms: C2_3  and  C3_4 
REMARK    3  A    between atoms: C3_4  and  C4_5 
REMARK    4  A    between atoms: C3_4  and  N1_9 
REMARK    5  A    between atoms: C4_5  and  C5_6 
REMARK    6  A    between atoms: N1_9  and  C8_11 
REMARK    7  A    between atoms: C14_17  and  N2_18 
REMARK    8  A    between atoms: N2_18  and  C15_20 
REMARK    9  A    between atoms: C15_20  and  C16_21 
REMARK   10  A    between atoms: C16_21  and  C17_22 
ROOT
HETATM    1  C8  UNL     1      -0.254  -0.227  -1.296  1.00  0.00     0.061 A 
HETATM    2  C9  UNL     1      -0.672  -0.791  -2.471  1.00  0.00    -0.033 A 
HETATM    3  C10 UNL     1      -2.035  -0.550  -3.042  1.00  0.00     0.050 C 
HETATM    4  C11 UNL     1       0.174  -1.611  -3.174  1.00  0.00     0.009 A 
HETATM    5  C12 UNL     1       1.440  -1.862  -2.693  1.00  0.00     0.003 A 
HETATM    6  C13 UNL     1       1.865  -1.296  -1.511  1.00  0.00     0.031 A 
HETATM    7  C14 UNL     1       1.014  -0.458  -0.786  1.00  0.00     0.055 A 
ENDROOT
BRANCH   7   8
HETATM    8  N2  UNL     1       1.463   0.144   0.416  1.00  0.00    -0.388 N 
ATOM      9  H2  UNL     1       0.810   0.732   0.934  1.00  0.00     0.159 HD
BRANCH   8  10
HETATM   10  C15 UNL     1       2.768  -0.027   0.936  1.00  0.00     0.126 C 
BRANCH  10  11
HETATM   11  C16 UNL     1       3.878   0.651   0.210  1.00  0.00     0.081 C 
BRANCH  11  12
HETATM   12  C17 UNL     1       5.189   0.376   0.897  1.00  0.00     0.060 A 
HETATM   13  N3  UNL     1       5.863   1.250   1.686  1.00  0.00    -0.244 N 
HETATM   14  O2  UNL     1       6.942   0.667   2.100  1.00  0.00    -0.157 OA
ATOM     15  H3  UNL     1       5.571   2.200   1.913  1.00  0.00     0.196 HD
HETATM   16  N4  UNL     1       7.049  -0.543   1.648  1.00  0.00    -0.244 N 
HETATM   17  C18 UNL     1       5.950  -0.768   0.877  1.00  0.00     0.055 A 
ATOM     18  H4  UNL     1       7.808  -1.198   1.834  1.00  0.00     0.196 HD
HETATM   19  C19 UNL     1       5.642  -2.016   0.154  1.00  0.00     0.072 C 
ENDBRANCH  11  12
ENDBRANCH  10  11
ENDBRANCH   8  10
ENDBRANCH   7   8
BRANCH   1  20
HETATM   20  N1  UNL     1      -1.177   0.608  -0.616  1.00  0.00    -0.381 N 
ATOM     21  H1  UNL     1      -1.076   1.616  -0.739  1.00  0.00     0.160 HD
BRANCH  20  22
HETATM   22  C3  UNL     1      -2.239   0.150   0.229  1.00  0.00     0.106 C 
BRANCH  22  23
HETATM   23  C2  UNL     1      -1.807  -0.791   1.331  1.00  0.00     0.192 C 
BRANCH  23  24
HETATM   24  O1  UNL     1      -2.890  -1.194   2.110  1.00  0.00    -0.394 OA
HETATM   25  C1  UNL     1      -2.465  -2.056   3.118  1.00  0.00     0.201 C 
ENDBRANCH  23  24
ENDBRANCH  22  23
BRANCH  22  26
HETATM   26  C4  UNL     1      -2.945   1.316   0.888  1.00  0.00     0.031 C 
BRANCH  26  27
HETATM   27  C5  UNL     1      -3.455   2.348  -0.058  1.00  0.00    -0.021 C 
HETATM   28  C6  UNL     1      -4.127   3.442   0.786  1.00  0.00     0.009 C 
HETATM   29  C7  UNL     1      -4.544   1.774  -0.952  1.00  0.00     0.009 C 
ENDBRANCH  26  27
ENDBRANCH  22  26
ENDBRANCH  20  22
ENDBRANCH   1  20
TORSDOF 10
