REMARK  12 active torsions:
REMARK  status: ('A' for Active; 'I' for Inactive)
REMARK    1  A    between atoms: C2_2  and  O1_3 
REMARK    2  A    between atoms: O1_3  and  C3_4 
REMARK    3  A    between atoms: C3_4  and  C4_6 
REMARK    4  A    between atoms: C5_7  and  O3_8 
REMARK    5  A    between atoms: N1_11  and  C7_12 
REMARK    6  A    between atoms: C7_12  and  C9_14 
REMARK    7  A    between atoms: C9_14  and  C10_15 
REMARK    8  A    between atoms: C13_18  and  N2_19 
REMARK    9  A    between atoms: N2_19  and  C14_21 
REMARK   10  A    between atoms: C14_21  and  C15_22 
REMARK   11  A    between atoms: C15_22  and  S1_23 
REMARK   12  A    between atoms: S1_23  and  C16_24 
ROOT
HETATM    1  C4  UNL     1      -0.589   1.811  -0.538  1.00  0.00     0.117 A 
HETATM    2  C5  UNL     1      -1.997   1.730  -0.333  1.00  0.00     0.101 A 
HETATM    3  C6  UNL     1      -2.343   0.430  -0.200  1.00  0.00     0.130 A 
HETATM    4  N1  UNL     1      -1.239  -0.301  -0.309  1.00  0.00    -0.336 N 
HETATM    5  C13 UNL     1      -0.142   0.522  -0.518  1.00  0.00     0.123 A 
ENDROOT
BRANCH   5   6
HETATM    6  N2  UNL     1       1.162   0.015  -0.659  1.00  0.00    -0.374 N 
ATOM      7  H2  UNL     1       1.195  -1.003  -0.613  1.00  0.00     0.161 HD
BRANCH   6   8
HETATM    8  C14 UNL     1       2.428   0.588  -0.848  1.00  0.00     0.131 C 
BRANCH   8   9
HETATM    9  C15 UNL     1       3.535  -0.503  -0.931  1.00  0.00     0.093 C 
BRANCH   9  10
HETATM   10  S1  UNL     1       3.586  -1.469   0.582  1.00  0.00    -0.168 SA
BRANCH  10  11
HETATM   11  C16 UNL     1       4.110  -0.493   2.002  1.00  0.00     0.069 C 
HETATM   12  C17 UNL     1       5.558  -0.039   1.876  1.00  0.00     0.016 C 
ENDBRANCH  10  11
ENDBRANCH   9  10
ENDBRANCH   8   9
ENDBRANCH   6   8
ENDBRANCH   5   6
BRANCH   1  13
HETATM   13  C3  UNL     1       0.088   3.074  -0.718  1.00  0.00     0.299 C 
HETATM   14  O2  UNL     1       1.269   3.260  -0.899  1.00  0.00    -0.259 OA
BRANCH  13  15
HETATM   15  O1  UNL     1      -0.693   4.255  -0.686  1.00  0.00    -0.318 OA
BRANCH  15  16
HETATM   16  C2  UNL     1      -0.016   5.514  -0.866  1.00  0.00     0.174 C 
HETATM   17  C1  UNL     1      -1.043   6.592  -0.788  1.00  0.00     0.034 C 
ENDBRANCH  15  16
ENDBRANCH  13  15
ENDBRANCH   1  13
BRANCH   4  18
HETATM   18  C7  UNL     1      -1.199  -1.759  -0.221  1.00  0.00     0.087 C 
HETATM   19  C8  UNL     1      -0.939  -2.277  -1.623  1.00  0.00     0.033 C 
BRANCH  18  20
HETATM   20  C9  UNL     1      -2.533  -2.279   0.227  1.00  0.00     0.029 C 
BRANCH  20  21
HETATM   21  C10 UNL     1      -2.538  -3.790   0.338  1.00  0.00    -0.021 C 
HETATM   22  C11 UNL     1      -1.514  -4.246   1.332  1.00  0.00     0.009 C 
HETATM   23  C12 UNL     1      -3.907  -4.191   0.838  1.00  0.00     0.009 C 
ENDBRANCH  20  21
ENDBRANCH  18  20
ENDBRANCH   4  18
BRANCH   2  24
HETATM   24  O3  UNL     1      -2.868   2.802  -0.278  1.00  0.00    -0.358 OA
ATOM     25  H3  UNL     1      -3.807   2.748  -0.141  1.00  0.00     0.217 HD
ENDBRANCH   2  24
TORSDOF 12
