REMARK  10 active torsions:
REMARK  status: ('A' for Active; 'I' for Inactive)
REMARK    1  A    between atoms: O1_2  and  C2_3 
REMARK    2  A    between atoms: C4_5  and  C5_6 
REMARK    3  A    between atoms: C5_6  and  N1_7 
REMARK    4  A    between atoms: N1_7  and  C6_9 
REMARK    5  A    between atoms: C6_9  and  C7_10 
REMARK    6  A    between atoms: C7_10  and  C8_11 
REMARK    7  A    between atoms: C11_14  and  O2_15 
REMARK    8  A    between atoms: O2_15  and  C12_16 
REMARK    9  A    between atoms: C12_16  and  O3_19 
REMARK   10  A    between atoms: C15_21  and  O4_22 
ROOT
HETATM    1  C2  UNL     1      -1.581   2.290   0.574  1.00  0.00     0.105 A 
HETATM    2  C3  UNL     1      -0.440   1.561   0.391  1.00  0.00     0.055 A 
HETATM    3  C4  UNL     1      -0.473   0.207   0.149  1.00  0.00     0.018 A 
HETATM    4  C11 UNL     1      -1.731  -0.490   0.057  1.00  0.00     0.120 A 
HETATM    5  C15 UNL     1      -2.814   0.289   0.245  1.00  0.00     0.139 A 
HETATM    6  C17 UNL     1      -2.838   1.617   0.500  1.00  0.00     0.138 A 
HETATM    7  O5  UNL     1      -3.922   2.301   0.678  1.00  0.00    -0.351 OA
HETATM    8  C18 UNL     1      -5.013   2.996   0.763  1.00  0.00     0.210 C 
ENDROOT
BRANCH   1   9
HETATM    9  O1  UNL     1      -1.621   3.616   0.821  1.00  0.00    -0.353 OA
HETATM   10  C1  UNL     1      -0.565   4.499   0.893  1.00  0.00     0.210 C 
ENDBRANCH   1   9
BRANCH   5  11
HETATM   11  O4  UNL     1      -4.089  -0.330   0.172  1.00  0.00    -0.351 OA
HETATM   12  C16 UNL     1      -4.652  -0.054  -1.157  1.00  0.00     0.210 C 
ENDBRANCH   5  11
BRANCH   4  13
HETATM   13  O2  UNL     1      -1.664  -1.754  -0.207  1.00  0.00    -0.311 OA
BRANCH  13  14
HETATM   14  C12 UNL     1      -2.034  -2.957  -0.499  1.00  0.00     0.160 C 
HETATM   15  C13 UNL     1      -0.839  -3.954  -0.559  1.00  0.00     0.078 C 
HETATM   16  C14 UNL     1      -3.022  -3.613   0.438  1.00  0.00     0.078 C 
BRANCH  14  17
HETATM   17  O3  UNL     1      -2.529  -3.119  -1.856  1.00  0.00    -0.366 OA
ATOM     18  H3  UNL     1      -2.801  -4.004  -2.071  1.00  0.00     0.213 HD
ENDBRANCH  14  17
ENDBRANCH  13  14
ENDBRANCH   4  13
BRANCH   3  19
HETATM   19  C5  UNL     1       0.701  -0.637   0.381  1.00  0.00     0.101 C 
BRANCH  19  20
HETATM   20  N1  UNL     1       1.765  -0.805  -0.384  1.00  0.00    -0.378 N 
ATOM     21  H1  UNL     1       1.721  -1.756  -0.751  1.00  0.00     0.164 HD
BRANCH  20  22
HETATM   22  C6  UNL     1       2.883  -0.242  -0.880  1.00  0.00     0.061 C 
BRANCH  22  23
HETATM   23  C7  UNL     1       3.943   0.279   0.084  1.00  0.00     0.048 C 
BRANCH  23  24
HETATM   24  C8  UNL     1       5.202   0.538  -0.690  1.00  0.00    -0.018 C 
HETATM   25  C9  UNL     1       6.189   1.226   0.239  1.00  0.00     0.010 C 
HETATM   26  C10 UNL     1       5.860  -0.901  -0.857  1.00  0.00     0.010 C 
ENDBRANCH  23  24
ENDBRANCH  22  23
ENDBRANCH  20  22
ENDBRANCH  19  20
ENDBRANCH   3  19
TORSDOF 10
