REMARK  3 active torsions:
REMARK  status: ('A' for Active; 'I' for Inactive)
REMARK    1  A    between atoms: N1_1  and  C1_4 
REMARK    2  A    between atoms: C2_9  and  C3_10 
REMARK       I    between atoms: C3_10  and  N4_12 
REMARK    3  A    between atoms: N4_12  and  N5_14 
ROOT
HETATM    1  C1  UNL     1      -2.578   0.251  -0.080  1.00  0.00     0.693 A 
HETATM    2  N2  UNL     1      -1.665   0.773  -0.920  1.00  0.00    -0.132 N 
ATOM      3  H2  UNL     1      -1.980   1.359  -1.693  1.00  0.00     0.205 HD
HETATM    4  N3  UNL     1      -0.356   0.544  -0.769  1.00  0.00    -0.277 N 
ATOM      5  H3  UNL     1       0.300   0.960  -1.429  1.00  0.00     0.188 HD
HETATM    6  C2  UNL     1       0.118  -0.222   0.232  1.00  0.00     0.187 A 
HETATM    7  C4  UNL     1      -0.814  -0.758   1.095  1.00  0.00     0.293 A 
HETATM    8  O2  UNL     1      -0.396  -1.469   2.027  1.00  0.00    -0.265 OA
HETATM    9  N6  UNL     1      -2.140  -0.518   0.931  1.00  0.00    -0.153 N 
ATOM     10  H6  UNL     1      -2.811  -0.926   1.582  1.00  0.00     0.187 HD
ENDROOT
BRANCH   6  11
HETATM   11  C3  UNL     1       1.554  -0.470   0.394  1.00  0.00     0.293 C 
HETATM   12  O1  UNL     1       1.965  -1.179   1.324  1.00  0.00    -0.264 OA
HETATM   13  N4  UNL     1       2.509   0.081  -0.494  1.00  0.00    -0.271 N 
ATOM     14  H4  UNL     1       2.187   0.666  -1.265  1.00  0.00     0.189 HD
BRANCH  13  15
HETATM   15  N5  UNL     1       3.852  -0.146  -0.351  1.00  0.00    -0.342 N 
ATOM     16  H52 UNL     1       4.157  -0.733   0.425  1.00  0.00     0.176 HD
ATOM     17  H51 UNL     1       4.540   0.251  -0.991  1.00  0.00     0.176 HD
ENDBRANCH  13  15
ENDBRANCH   6  11
BRANCH   1  18
HETATM   18  N1  UNL     1      -3.844   0.487  -0.245  1.00  0.00    -0.233 N 
ATOM     19  H12 UNL     1      -4.177   1.071  -1.012  1.00  0.00     0.174 HD
ATOM     20  H11 UNL     1      -4.536   0.091   0.392  1.00  0.00     0.174 HD
ENDBRANCH   1  18
TORSDOF 3
