REMARK  5 active torsions:
REMARK  status: ('A' for Active; 'I' for Inactive)
REMARK    1  A    between atoms: C1_4  and  C2_6 
REMARK    2  A    between atoms: C2_6  and  N3_7 
REMARK    3  A    between atoms: C3_10  and  O1_11 
REMARK    4  A    between atoms: C3_10  and  N4_13 
REMARK    5  A    between atoms: N4_13  and  N5_15 
ROOT
HETATM    1  C2  UNL     1      -0.556   0.183  -0.285  1.00  0.00     0.132 C 
HETATM    2  C3  UNL     1       0.694  -0.458  -0.504  1.00  0.00     0.185 C 
ENDROOT
BRANCH   1   3
HETATM    3  C1  UNL     1      -1.034   0.709   0.967  1.00  0.00     0.141 C 
HETATM    4  N1  UNL     1      -0.519   0.737   2.092  1.00  0.00    -0.386 N 
ATOM      5  H12 UNL     1      -0.858   1.110   2.979  1.00  0.00     0.157 HD
ATOM      6  H11 UNL     1       0.405   0.305   2.101  1.00  0.00     0.157 HD
HETATM    7  N2  UNL     1      -2.376   1.337   0.954  1.00  0.00    -0.081 NA
ENDBRANCH   1   3
BRANCH   1   8
HETATM    8  N3  UNL     1      -1.375   0.326  -1.292  1.00  0.00    -0.313 N 
HETATM    9  S1  UNL     1      -1.113  -0.188  -2.917  1.00  0.00     0.043 SA
ATOM     10  H3  UNL     1      -2.262   0.790  -1.097  1.00  0.00     0.175 HD
ENDBRANCH   1   8
BRANCH   2  11
HETATM   11  O1  UNL     1       0.984  -0.884  -1.708  1.00  0.00    -0.343 OA
ATOM     12  H1  UNL     1       1.819  -1.312  -1.854  1.00  0.00     0.219 HD
ENDBRANCH   2  11
BRANCH   2  13
HETATM   13  N4  UNL     1       1.715  -0.710   0.442  1.00  0.00    -0.285 N 
ATOM     14  H4  UNL     1       1.591  -0.418   1.411  1.00  0.00     0.188 HD
BRANCH  13  15
HETATM   15  N5  UNL     1       2.906  -1.364   0.054  1.00  0.00    -0.343 N 
ATOM     16  H52 UNL     1       3.014  -1.650  -0.919  1.00  0.00     0.176 HD
ATOM     17  H51 UNL     1       3.642  -1.546   0.736  1.00  0.00     0.176 HD
ENDBRANCH  13  15
ENDBRANCH   2  13
TORSDOF 5
