REMARK  8 active torsions:
REMARK  status: ('A' for Active; 'I' for Inactive)
REMARK    1  A    between atoms: O1_1  and  C1_3 
REMARK    2  A    between atoms: C1_3  and  C2_4 
REMARK    3  A    between atoms: C2_4  and  C3_5 
REMARK    4  A    between atoms: C3_5  and  C4_6 
REMARK    5  A    between atoms: C5_8  and  N1_9 
REMARK    6  A    between atoms: N1_9  and  C6_11 
REMARK    7  A    between atoms: C11_16  and  O2_17 
REMARK    8  A    between atoms: C12_21  and  O3_22 
ROOT
HETATM    1  C4  UNL     1       2.468  -0.197   0.053  1.00  0.00     0.037 A 
HETATM    2  S1  UNL     1       1.653   1.099  -0.703  1.00  0.00    -0.054 SA
HETATM    3  C5  UNL     1       0.031   0.547  -0.465  1.00  0.00     0.147 A 
HETATM    4  N2  UNL     1       0.217  -0.598   0.180  1.00  0.00    -0.317 N 
ATOM      5  H2  UNL     1      -0.583  -1.165   0.461  1.00  0.00     0.170 HD
HETATM    6  C12 UNL     1       1.431  -0.994   0.452  1.00  0.00     0.155 A 
ENDROOT
BRANCH   3   7
HETATM    7  N1  UNL     1      -1.028   1.162  -0.852  1.00  0.00    -0.363 N 
ATOM      8  H1  UNL     1      -0.855   2.044  -1.335  1.00  0.00     0.162 HD
BRANCH   7   9
HETATM    9  C6  UNL     1      -2.383   0.824  -0.722  1.00  0.00     0.112 C 
HETATM   10  C7  UNL     1      -2.844  -0.412  -1.449  1.00  0.00     0.028 C 
HETATM   11  C8  UNL     1      -4.364  -0.448  -1.350  1.00  0.00     0.002 C 
HETATM   12  C9  UNL     1      -4.842  -0.470   0.071  1.00  0.00     0.003 C 
HETATM   13  C10 UNL     1      -3.659  -0.455   1.008  1.00  0.00     0.034 C 
HETATM   14  C11 UNL     1      -2.749   0.728   0.734  1.00  0.00     0.140 C 
BRANCH  14  15
HETATM   15  O2  UNL     1      -3.387   1.923   1.141  1.00  0.00    -0.394 OA
ATOM     16  H2  UNL     1      -3.618   1.862   2.060  1.00  0.00     0.210 HD
ENDBRANCH  14  15
ENDBRANCH   7   9
ENDBRANCH   3   7
BRANCH   1  17
HETATM   17  C3  UNL     1       3.952  -0.416   0.238  1.00  0.00     0.053 C 
BRANCH  17  18
HETATM   18  C2  UNL     1       4.611   0.785  -0.402  1.00  0.00     0.031 C 
BRANCH  18  19
HETATM   19  C1  UNL     1       6.098   0.730  -0.308  1.00  0.00     0.164 C 
BRANCH  19  20
HETATM   20  O1  UNL     1       6.537  -0.428  -0.965  1.00  0.00    -0.401 OA
ATOM     21  H1  UNL     1       7.484  -0.463  -0.905  1.00  0.00     0.209 HD
ENDBRANCH  19  20
ENDBRANCH  18  19
ENDBRANCH  17  18
ENDBRANCH   1  17
BRANCH   6  22
HETATM   22  O3  UNL     1       1.741  -2.205   1.138  1.00  0.00    -0.345 OA
ATOM     23  H3  UNL     1       1.021  -2.759   1.415  1.00  0.00     0.219 HD
ENDBRANCH   6  22
TORSDOF 8
