REMARK  11 active torsions:
REMARK  status: ('A' for Active; 'I' for Inactive)
REMARK    1  A    between atoms: O1_2  and  N1_3 
REMARK    2  A    between atoms: C2_5  and  C3_6 
REMARK    3  A    between atoms: C2_5  and  C14_43 
REMARK    4  A    between atoms: N2_8  and  C5_9 
REMARK    5  A    between atoms: C6_12  and  N4_13 
REMARK    6  A    between atoms: C7_18  and  N6_19 
REMARK    7  A    between atoms: N7_21  and  N8_23 
REMARK    8  A    between atoms: N8_23  and  C8_25 
REMARK    9  A    between atoms: C11_28  and  S1_29 
REMARK   10  A    between atoms: S1_29  and  N9_30 
REMARK   11  A    between atoms: C16_47  and  N14_48 
ROOT
HETATM    1  C5  UNL     1      -0.587  -0.550   0.866  1.00  0.00     0.733 A 
HETATM    2  N3  UNL     1      -0.097   0.683   1.169  1.00  0.00    -0.020 N 
ATOM      3  H3  UNL     1      -0.734   1.417   1.478  1.00  0.00     0.203 HD
HETATM    4  C6  UNL     1       1.218   0.945   1.065  1.00  0.00     0.705 A 
HETATM    5  N5  UNL     1       2.076  -0.004   0.660  1.00  0.00    -0.020 N 
ATOM      6  H5  UNL     1       3.071   0.206   0.585  1.00  0.00     0.203 HD
HETATM    7  C7  UNL     1       1.621  -1.237   0.352  1.00  0.00     0.727 A 
HETATM    8  N10 UNL     1       0.289  -1.475   0.465  1.00  0.00    -0.018 N 
ATOM      9  H10 UNL     1      -0.059  -2.405   0.232  1.00  0.00     0.203 HD
ENDROOT
BRANCH   1  10
HETATM   10  N2  UNL     1      -1.982  -0.767   0.994  1.00  0.00    -0.080 N 
HETATM   11  C4  UNL     1      -3.014  -0.171   0.336  1.00  0.00     0.170 A 
HETATM   12  C3  UNL     1      -4.191  -0.685   0.777  1.00  0.00     0.097 A 
HETATM   13  N12 UNL     1      -3.814  -1.614   1.725  1.00  0.00    -0.282 N 
HETATM   14  N11 UNL     1      -2.530  -1.628   1.817  1.00  0.00    -0.221 N 
ATOM     15  H12 UNL     1      -4.452  -2.197   2.267  1.00  0.00     0.188 HD
ATOM     16  H11 UNL     1      -2.006  -2.232   2.450  1.00  0.00     0.209 HD
BRANCH  12  17
HETATM   17  C2  UNL     1      -5.580  -0.391   0.504  1.00  0.00     0.101 C 
HETATM   18  N1  UNL     1      -6.417  -1.409   0.772  1.00  0.00    -0.264 N 
ATOM     19  H1  UNL     1      -7.417  -1.293   0.610  1.00  0.00     0.194 HD
BRANCH  18  20
HETATM   20  O1  UNL     1      -5.958  -2.568   1.246  1.00  0.00    -0.285 OA
HETATM   21  C1  UNL     1      -6.459  -3.784   0.702  1.00  0.00     0.237 C 
ENDBRANCH  18  20
BRANCH  17  22
HETATM   22  C14 UNL     1      -6.239   0.756  -0.005  1.00  0.00     0.079 A 
HETATM   23  C15 UNL     1      -7.548   0.612  -0.503  1.00  0.00     0.125 A 
HETATM   24  N13 UNL     1      -8.210   1.607  -1.087  1.00  0.00    -0.201 N 
HETATM   25  C16 UNL     1      -7.640   2.803  -1.223  1.00  0.00     0.678 A 
ATOM     26  H13 UNL     1      -9.158   1.453  -1.432  1.00  0.00     0.183 HD
HETATM   27  N15 UNL     1      -6.402   2.994  -0.768  1.00  0.00    -0.156 N 
HETATM   28  C17 UNL     1      -5.684   1.992  -0.156  1.00  0.00     0.273 A 
ATOM     29  H15 UNL     1      -5.973   3.913  -0.877  1.00  0.00     0.187 HD
HETATM   30  O4  UNL     1      -4.528   2.299   0.245  1.00  0.00    -0.267 OA
BRANCH  25  31
HETATM   31  N14 UNL     1      -8.264   3.804  -1.795  1.00  0.00    -0.234 N 
ATOM     32 2H14 UNL     1      -9.212   3.658  -2.143  1.00  0.00     0.174 HD
ATOM     33 1H14 UNL     1      -7.827   4.720  -1.899  1.00  0.00     0.174 HD
ENDBRANCH  25  31
ENDBRANCH  17  22
ENDBRANCH  12  17
ENDBRANCH   1  10
BRANCH   4  34
HETATM   34  N4  UNL     1       1.637   2.138   1.367  1.00  0.00    -0.234 N 
ATOM     35  H42 UNL     1       0.985   2.859   1.675  1.00  0.00     0.174 HD
ATOM     36  H41 UNL     1       2.634   2.337   1.288  1.00  0.00     0.174 HD
ENDBRANCH   4  34
BRANCH   7  37
HETATM   37  N6  UNL     1       2.500  -2.265  -0.080  1.00  0.00    -0.116 N 
HETATM   38  N7  UNL     1       3.560  -2.092  -0.713  1.00  0.00    -0.228 N 
ATOM     39  H7  UNL     1       4.096  -2.923  -0.961  1.00  0.00     0.209 HD
ATOM     40  H6  UNL     1       2.243  -3.226   0.147  1.00  0.00     0.207 HD
BRANCH  38  41
HETATM   41  N8  UNL     1       4.076  -0.857  -1.111  1.00  0.00    -0.286 N 
ATOM     42  H8  UNL     1       3.517  -0.230  -1.689  1.00  0.00     0.188 HD
BRANCH  41  43
HETATM   43  C8  UNL     1       5.372  -0.482  -0.710  1.00  0.00     0.049 A 
HETATM   44  C9  UNL     1       5.867   0.731  -1.107  1.00  0.00     0.032 A 
HETATM   45  C10 UNL     1       7.125   1.126  -0.733  1.00  0.00     0.027 A 
HETATM   46  C11 UNL     1       7.912   0.294   0.055  1.00  0.00     0.079 A 
HETATM   47  C12 UNL     1       7.398  -0.909   0.438  1.00  0.00     0.027 A 
HETATM   48  C13 UNL     1       6.140  -1.340   0.083  1.00  0.00     0.032 A 
BRANCH  46  49
HETATM   49  S1  UNL     1       9.507   0.851   0.499  1.00  0.00     0.256 S 
HETATM   50  O2  UNL     1       9.540   2.372   0.575  1.00  0.00    -0.201 OA
HETATM   51  O3  UNL     1       9.839   0.338   1.853  1.00  0.00    -0.201 OA
BRANCH  49  52
HETATM   52  N9  UNL     1      10.644   0.356  -0.677  1.00  0.00    -0.324 N 
ATOM     53  H92 UNL     1      10.410  -0.185  -1.510  1.00  0.00     0.169 HD
ATOM     54  H91 UNL     1      11.575   0.681  -0.418  1.00  0.00     0.169 HD
ENDBRANCH  49  52
ENDBRANCH  46  49
ENDBRANCH  41  43
ENDBRANCH  38  41
ENDBRANCH   7  37
TORSDOF 11
