REMARK  10 active torsions:
REMARK  status: ('A' for Active; 'I' for Inactive)
REMARK    1  A    between atoms: C2_2  and  C3_7 
REMARK    2  A    between atoms: N1_3  and  O1_5 
REMARK       I    between atoms: C3_7  and  N2_9 
REMARK    3  A    between atoms: N2_9  and  C4_11 
REMARK    4  A    between atoms: C6_13  and  S1_14 
REMARK    5  A    between atoms: S1_14  and  C7_15 
REMARK    6  A    between atoms: C9_17  and  N3_18 
REMARK    7  A    between atoms: N3_18  and  C10_20 
REMARK    8  A    between atoms: C13_28  and  C14_29 
REMARK    9  A    between atoms: C15_33  and  C16_34 
REMARK   10  A    between atoms: N7_41  and  O8_43 
ROOT
HETATM    1  C4  UNL     1      -3.211  -0.434  -0.515  1.00  0.00     0.170 C 
HETATM    2  C5  UNL     1      -1.934  -0.781   0.099  1.00  0.00     0.097 C 
HETATM    3  C6  UNL     1      -0.693   0.058  -0.290  1.00  0.00     0.016 C 
HETATM    4  C15 UNL     1      -0.818   0.341  -1.630  1.00  0.00     0.114 C 
HETATM    5  N6  UNL     1      -2.060  -0.089  -2.015  1.00  0.00    -0.159 NA
HETATM    6  C17 UNL     1      -3.264  -0.578  -2.076  1.00  0.00     0.246 C 
HETATM    7  O7  UNL     1      -4.229  -1.020  -2.745  1.00  0.00    -0.276 OA
HETATM    8  C18 UNL     1      -3.138   0.889  -1.102  1.00  0.00     0.129 C 
HETATM    9  N7  UNL     1      -3.536   2.008  -1.115  1.00  0.00    -0.258 N 
ATOM     10  H7  UNL     1      -3.086   2.598  -1.815  1.00  0.00     0.195 HD
ENDROOT
BRANCH   3  11
HETATM   11  S1  UNL     1       0.370   0.366   0.957  1.00  0.00    -0.085 SA
BRANCH  11  12
HETATM   12  C7  UNL     1       1.877   1.202   0.924  1.00  0.00     0.049 A 
HETATM   13  C8  UNL     1       3.140   0.670   0.721  1.00  0.00     0.057 A 
HETATM   14  C9  UNL     1       4.188   1.488   0.763  1.00  0.00     0.059 A 
HETATM   15  C13 UNL     1       3.964   2.813   1.005  1.00  0.00     0.109 A 
HETATM   16  S2  UNL     1       2.242   2.863   1.169  1.00  0.00    -0.074 SA
BRANCH  14  17
HETATM   17  N3  UNL     1       5.544   0.991   0.558  1.00  0.00    -0.343 N 
ATOM     18  H3  UNL     1       6.336   1.633   0.594  1.00  0.00     0.167 HD
BRANCH  17  19
HETATM   19  C10 UNL     1       5.757  -0.397   0.307  1.00  0.00     0.104 C 
HETATM   20  N4  UNL     1       5.386  -0.975  -0.778  1.00  0.00    -0.355 N 
HETATM   21  C11 UNL     1       5.740  -2.382  -0.738  1.00  0.00     0.356 C 
ATOM     22  H4  UNL     1       4.912  -0.513  -1.554  1.00  0.00     0.162 HD
HETATM   23  N5  UNL     1       6.091  -2.662   0.627  1.00  0.00    -0.053 N 
HETATM   24  C12 UNL     1       6.411  -1.369   1.208  1.00  0.00     0.309 C 
ATOM     25  H52 UNL     1       5.376  -3.179   1.139  1.00  0.00     0.279 HD
ATOM     26  H51 UNL     1       6.833  -3.355   0.729  1.00  0.00     0.279 HD
ENDBRANCH  17  19
ENDBRANCH  14  17
BRANCH  15  27
HETATM   27  C14 UNL     1       4.868   3.966   1.116  1.00  0.00     0.219 C 
HETATM   28  O3  UNL     1       4.349   5.084   1.350  1.00  0.00    -0.643 OA
HETATM   29  O4  UNL     1       6.205   3.850   0.976  1.00  0.00    -0.643 OA
ENDBRANCH  15  27
ENDBRANCH  11  12
ENDBRANCH   3  11
BRANCH   4  30
HETATM   30  C16 UNL     1       0.182   1.090  -2.400  1.00  0.00     0.223 C 
HETATM   31  O5  UNL     1       1.222   1.571  -2.004  1.00  0.00    -0.643 OA
HETATM   32  O6  UNL     1      -0.058   1.298  -3.782  1.00  0.00    -0.643 OA
ENDBRANCH   4  30
BRANCH   1  33
HETATM   33  N2  UNL     1      -4.353  -0.894   0.166  1.00  0.00    -0.332 N 
HETATM   34  C3  UNL     1      -5.711  -0.750  -0.074  1.00  0.00     0.266 C 
HETATM   35  O2  UNL     1      -6.165  -0.115  -1.042  1.00  0.00    -0.266 OA
ATOM     36  H2  UNL     1      -4.140  -1.441   1.000  1.00  0.00     0.164 HD
BRANCH  34  37
HETATM   37  C2  UNL     1      -6.684  -1.357   0.826  1.00  0.00     0.095 C 
HETATM   38  C1  UNL     1      -6.202  -2.142   2.020  1.00  0.00     0.076 C 
HETATM   39  N1  UNL     1      -7.941  -1.221   0.600  1.00  0.00    -0.268 N 
ATOM     40  H1  UNL     1      -8.260  -0.688  -0.209  1.00  0.00     0.194 HD
BRANCH  39  41
HETATM   41  O1  UNL     1      -8.856  -1.794   1.450  1.00  0.00    -0.290 OA
ATOM     42  H1  UNL     1      -9.786  -1.693   1.283  1.00  0.00     0.244 HD
ENDBRANCH  39  41
ENDBRANCH  34  37
ENDBRANCH   1  33
BRANCH   9  43
HETATM   43  O8  UNL     1      -4.469   2.647  -0.382  1.00  0.00    -0.289 OA
ATOM     44  H8  UNL     1      -4.787   3.542  -0.392  1.00  0.00     0.244 HD
ENDBRANCH   9  43
TORSDOF 10
