REMARK  14 active torsions:
REMARK  status: ('A' for Active; 'I' for Inactive)
REMARK    1  A    between atoms: C2_2  and  O1_3 
REMARK    2  A    between atoms: C2_2  and  C3_5 
REMARK    3  A    between atoms: C3_5  and  C9_28 
REMARK    4  A    between atoms: N1_6  and  O2_8 
REMARK    5  A    between atoms: O2_8  and  C4_9 
REMARK    6  A    between atoms: C4_9  and  C5_11 
REMARK    7  A    between atoms: C5_11  and  S1_12 
REMARK    8  A    between atoms: S1_12  and  C6_13 
REMARK    9  A    between atoms: C7_16  and  N3_17 
REMARK   10  A    between atoms: C8_22  and  N5_23 
REMARK   11  A    between atoms: N8_32  and  C11_33 
REMARK   12  A    between atoms: C11_33  and  C12_34 
REMARK       I    between atoms: C12_34  and  N9_36 
REMARK   13  A    between atoms: N9_36  and  N10_37 
REMARK       I    between atoms: N10_37  and  C13_39 
REMARK   14  A    between atoms: C13_39  and  C14_41 
ROOT
HETATM    1  C3  UNL     1      -1.226   0.559   0.255  1.00  0.00     0.090 C 
HETATM    2  N1  UNL     1      -1.600   1.579   0.831  1.00  0.00    -0.257 N 
ATOM      3  H1  UNL     1      -0.971   1.865   1.581  1.00  0.00     0.195 HD
ENDROOT
BRANCH   1   4
HETATM    4  C2  UNL     1      -1.871  -0.160  -0.880  1.00  0.00     0.168 C 
HETATM    5  C1  UNL     1      -2.039  -1.629  -0.677  1.00  0.00     0.046 C 
BRANCH   4   6
HETATM    6  O1  UNL     1      -0.958   0.044  -1.997  1.00  0.00    -0.390 OA
ATOM      7  H1  UNL     1      -0.851   0.979  -2.126  1.00  0.00     0.210 HD
ENDBRANCH   4   6
ENDBRANCH   1   4
BRANCH   1   8
HETATM    8  C9  UNL     1       0.133   0.050   0.665  1.00  0.00     0.093 A 
HETATM    9  C10 UNL     1       0.472  -1.273   0.955  1.00  0.00     0.142 A 
HETATM   10  N7  UNL     1       1.824  -1.277   0.992  1.00  0.00    -0.293 N 
HETATM   11  N8  UNL     1       2.303  -0.016   0.741  1.00  0.00    -0.224 N 
ATOM     12  H7  UNL     1       2.402  -2.096   1.179  1.00  0.00     0.187 HD
HETATM   13  N11 UNL     1       1.254   0.696   0.572  1.00  0.00    -0.280 N 
ATOM     14  H11 UNL     1       1.296   1.697   0.379  1.00  0.00     0.189 HD
BRANCH  11  15
HETATM   15  C11 UNL     1       3.713   0.231   0.693  1.00  0.00     0.290 C 
BRANCH  15  16
HETATM   16  C12 UNL     1       4.179   0.020  -0.732  1.00  0.00     0.333 C 
HETATM   17  O4  UNL     1       3.513  -0.008  -1.651  1.00  0.00    -0.253 OA
HETATM   18  N9  UNL     1       5.635  -0.149  -0.687  1.00  0.00    -0.282 NA
BRANCH  18  19
HETATM   19  N10 UNL     1       6.827  -0.289  -0.669  1.00  0.00    -0.195 N 
HETATM   20  C13 UNL     1       7.900   0.664  -0.411  1.00  0.00     0.287 C 
HETATM   21  O5  UNL     1       7.641   1.837  -0.210  1.00  0.00    -0.264 OA
ATOM     22  H10 UNL     1       7.144  -1.238  -0.868  1.00  0.00     0.205 HD
BRANCH  20  23
HETATM   23  C14 UNL     1       9.288   0.191  -0.386  1.00  0.00     0.075 A 
HETATM   24  C15 UNL     1       9.732  -1.106  -0.568  1.00  0.00     0.025 A 
HETATM   25  C16 UNL     1      11.035  -1.330  -0.494  1.00  0.00     0.009 A 
HETATM   26  C17 UNL     1      11.851  -0.266  -0.244  1.00  0.00     0.050 A 
HETATM   27  S2  UNL     1      10.729   1.012  -0.122  1.00  0.00    -0.097 SA
ENDBRANCH  20  23
ENDBRANCH  18  19
ENDBRANCH  15  16
ENDBRANCH  11  15
ENDBRANCH   1   8
BRANCH   2  28
HETATM   28  O2  UNL     1      -2.649   2.396   0.692  1.00  0.00    -0.199 OA
BRANCH  28  29
HETATM   29  C4  UNL     1      -3.944   1.865   0.917  1.00  0.00     0.290 C 
HETATM   30  O3  UNL     1      -4.089   0.735   1.195  1.00  0.00    -0.262 OA
BRANCH  29  31
HETATM   31  C5  UNL     1      -5.042   2.928   0.768  1.00  0.00     0.195 C 
BRANCH  31  32
HETATM   32  S1  UNL     1      -6.549   2.490   1.504  1.00  0.00    -0.083 SA
BRANCH  32  33
HETATM   33  C6  UNL     1      -7.493   1.213   0.795  1.00  0.00     0.174 A 
HETATM   34  N2  UNL     1      -8.639   1.501   0.021  1.00  0.00    -0.170 N 
HETATM   35  C7  UNL     1      -9.398   0.490  -0.381  1.00  0.00     0.692 A 
ATOM     36  H2  UNL     1      -8.877   2.462  -0.223  1.00  0.00     0.186 HD
HETATM   37  N4  UNL     1      -9.143  -0.788  -0.101  1.00  0.00    -0.023 N 
HETATM   38  C8  UNL     1      -8.037  -1.068   0.638  1.00  0.00     0.692 A 
ATOM     39  H4  UNL     1      -9.758  -1.532  -0.431  1.00  0.00     0.203 HD
HETATM   40  N6  UNL     1      -7.280  -0.065   1.037  1.00  0.00    -0.170 N 
ATOM     41  H6  UNL     1      -6.452  -0.300   1.584  1.00  0.00     0.186 HD
BRANCH  35  42
HETATM   42  N3  UNL     1     -10.476   0.715  -1.097  1.00  0.00    -0.234 N 
ATOM     43  H32 UNL     1     -10.671   1.693  -1.311  1.00  0.00     0.174 HD
ATOM     44  H31 UNL     1     -11.060  -0.062  -1.406  1.00  0.00     0.174 HD
ENDBRANCH  35  42
BRANCH  38  45
HETATM   45  N5  UNL     1      -7.805  -2.311   0.914  1.00  0.00    -0.234 N 
ATOM     46  H52 UNL     1      -8.391  -3.087   0.605  1.00  0.00     0.174 HD
ATOM     47  H51 UNL     1      -6.975  -2.521   1.469  1.00  0.00     0.174 HD
ENDBRANCH  38  45
ENDBRANCH  32  33
ENDBRANCH  31  32
ENDBRANCH  29  31
ENDBRANCH  28  29
ENDBRANCH   2  28
TORSDOF 14
