REMARK  10 active torsions:
REMARK  status: ('A' for Active; 'I' for Inactive)
REMARK       I    between atoms: N2_3  and  C2_4 
REMARK    1  A    between atoms: C2_4  and  C3_6 
REMARK    2  A    between atoms: C3_6  and  N3_7 
REMARK    3  A    between atoms: C3_6  and  C17_42 
REMARK    4  A    between atoms: N3_7  and  C4_9 
REMARK    5  A    between atoms: C4_9  and  C5_10 
REMARK    6  A    between atoms: C4_9  and  C11_24 
REMARK    7  A    between atoms: N7_17  and  C6_18 
REMARK    8  A    between atoms: C6_18  and  C7_19 
REMARK    9  A    between atoms: C16_37  and  N12_38 
REMARK   10  A    between atoms: C20_45  and  O4_46 
ROOT
HETATM    1  N1  UNL     1      -2.096  -5.205  -1.629  1.00  0.00    -0.156 NA
HETATM    2  C1  UNL     1      -1.776  -4.096  -1.515  1.00  0.00     0.271 C 
HETATM    3  N2  UNL     1      -1.415  -2.849  -1.341  1.00  0.00    -0.289 NA
HETATM    4  C2  UNL     1      -1.037  -1.541  -1.158  1.00  0.00     0.329 C 
HETATM    5  O1  UNL     1      -0.848  -0.720  -2.056  1.00  0.00    -0.254 OA
ENDROOT
BRANCH   4   6
HETATM    6  C3  UNL     1      -0.862  -1.136   0.303  1.00  0.00     0.220 C 
BRANCH   6   7
HETATM    7  N3  UNL     1      -0.660   0.212   0.537  1.00  0.00    -0.389 N 
ATOM      8  H3  UNL     1      -1.382   0.726   1.041  1.00  0.00     0.155 HD
BRANCH   7   9
HETATM    9  C4  UNL     1       0.502   0.924   0.113  1.00  0.00     0.204 C 
BRANCH   9  10
HETATM   10  C5  UNL     1       1.693   0.760   0.971  1.00  0.00     0.144 A 
HETATM   11  N4  UNL     1       1.756   0.969   2.302  1.00  0.00    -0.270 N 
HETATM   12  N5  UNL     1       2.963   0.809   2.777  1.00  0.00    -0.227 N 
ATOM     13  H4  UNL     1       0.951   1.224   2.874  1.00  0.00     0.190 HD
HETATM   14  N6  UNL     1       3.710   0.487   1.748  1.00  0.00    -0.224 N 
ATOM     15  H5  UNL     1       3.262   0.913   3.747  1.00  0.00     0.210 HD
HETATM   16  N7  UNL     1       2.935   0.450   0.629  1.00  0.00    -0.255 N 
ATOM     17  H6  UNL     1       4.711   0.295   1.781  1.00  0.00     0.210 HD
BRANCH  16  18
HETATM   18  C6  UNL     1       3.547   0.032  -0.594  1.00  0.00     0.217 C 
BRANCH  18  19
HETATM   19  C7  UNL     1       3.790  -1.460  -0.649  1.00  0.00     0.072 A 
HETATM   20  C8  UNL     1       2.900  -2.387  -1.041  1.00  0.00     0.036 A 
HETATM   21  C9  UNL     1       3.544  -3.632  -0.939  1.00  0.00     0.027 A 
HETATM   22  C10 UNL     1       4.811  -3.335  -0.478  1.00  0.00     0.142 A 
HETATM   23  O2  UNL     1       4.938  -2.042  -0.312  1.00  0.00    -0.325 OA
ENDBRANCH  18  19
ENDBRANCH  16  18
ENDBRANCH   9  10
BRANCH   9  24
HETATM   24  C11 UNL     1       0.042   2.370   0.245  1.00  0.00     0.120 A 
HETATM   25  C12 UNL     1      -0.662   2.865   1.322  1.00  0.00     0.156 A 
HETATM   26  C13 UNL     1      -1.148   2.204   2.517  1.00  0.00     0.120 C 
HETATM   27  N9  UNL     1      -0.927   4.181   1.131  1.00  0.00    -0.178 N 
HETATM   28  N8  UNL     1      -1.566   1.672   3.468  1.00  0.00    -0.190 NA
HETATM   29  C14 UNL     1      -0.394   4.513  -0.065  1.00  0.00     0.709 A 
ATOM     30  H9  UNL     1      -1.431   4.800   1.767  1.00  0.00     0.185 HD
HETATM   31  N10 UNL     1      -0.362   5.662  -0.764  1.00  0.00    -0.139 N 
HETATM   32  N13 UNL     1       0.198   3.399  -0.604  1.00  0.00     0.024 N 
HETATM   33  C15 UNL     1       0.216   5.783  -1.961  1.00  0.00     0.352 A 
ATOM     34  H10 UNL     1      -0.804   6.486  -0.357  1.00  0.00     0.189 HD
HETATM   35  O3  UNL     1       0.195   6.901  -2.541  1.00  0.00    -0.246 OA
HETATM   36  N11 UNL     1       0.789   4.689  -2.472  1.00  0.00    -0.140 N 
HETATM   37  C16 UNL     1       0.773   3.521  -1.794  1.00  0.00     0.701 A 
ATOM     38  H11 UNL     1       1.243   4.737  -3.384  1.00  0.00     0.189 HD
BRANCH  37  39
HETATM   39  N12 UNL     1       1.342   2.524  -2.345  1.00  0.00    -0.233 N 
ATOM     40 2H12 UNL     1       1.784   2.618  -3.260  1.00  0.00     0.174 HD
ATOM     41 1H12 UNL     1       1.330   1.642  -1.833  1.00  0.00     0.174 HD
ENDBRANCH  37  39
ENDBRANCH   9  24
ENDBRANCH   7   9
ENDBRANCH   6   7
BRANCH   6  42
HETATM   42  C17 UNL     1      -2.110  -1.588   0.957  1.00  0.00    -0.025 A 
HETATM   43  C18 UNL     1      -2.158  -2.002   2.283  1.00  0.00     0.012 A 
HETATM   44  C19 UNL     1      -3.340  -2.421   2.861  1.00  0.00     0.037 A 
HETATM   45  C20 UNL     1      -4.517  -2.442   2.130  1.00  0.00     0.065 A 
HETATM   46  C21 UNL     1      -4.489  -2.038   0.823  1.00  0.00     0.037 A 
HETATM   47  C22 UNL     1      -3.287  -1.613   0.245  1.00  0.00     0.012 A 
BRANCH  45  48
HETATM   48  O4  UNL     1      -5.724  -2.877   2.730  1.00  0.00    -0.361 OA
ATOM     49  H4  UNL     1      -6.531  -2.891   2.229  1.00  0.00     0.217 HD
ENDBRANCH  45  48
ENDBRANCH   6  42
ENDBRANCH   4   6
TORSDOF 10
