REMARK  6 active torsions:
REMARK  status: ('A' for Active; 'I' for Inactive)
REMARK    1  A    between atoms: C2_2  and  C3_3 
REMARK    2  A    between atoms: C3_3  and  C4_4 
REMARK    3  A    between atoms: C4_4  and  C5_5 
REMARK       I    between atoms: C5_5  and  N1_7 
REMARK    4  A    between atoms: C11_13  and  C12_14 
REMARK    5  A    between atoms: C12_14  and  O2_15 
REMARK    6  A    between atoms: C12_14  and  N2_17 
ROOT
HETATM    1  C5  UNL     1       3.390   1.009   0.686  1.00  0.00     0.251 C 
HETATM    2  O1  UNL     1       3.255   2.091   0.086  1.00  0.00    -0.268 OA
HETATM    3  N1  UNL     1       2.312   0.238   1.151  1.00  0.00    -0.342 N 
HETATM    4  C6  UNL     1       2.102  -0.993   1.855  1.00  0.00     0.133 C 
HETATM    5  C7  UNL     1       0.734  -1.112   1.266  1.00  0.00     0.031 C 
HETATM    6  C8  UNL     1       0.558  -1.632  -0.098  1.00  0.00    -0.002 C 
HETATM    7  C9  UNL     1       0.400  -0.420  -1.036  1.00  0.00     0.013 C 
HETATM    8  C10 UNL     1       0.394   0.644  -0.284  1.00  0.00     0.022 C 
HETATM    9  C11 UNL     1       0.111   2.065  -0.982  1.00  0.00     0.076 C 
HETATM   10  C16 UNL     1      -1.124   1.389  -1.532  1.00  0.00     0.093 C 
HETATM   11  C17 UNL     1      -1.803   0.532  -1.748  1.00  0.00    -0.181 C 
HETATM   12  C18 UNL     1      -2.397  -0.731  -1.869  1.00  0.00     0.089 C 
HETATM   13  C19 UNL     1      -1.982  -1.833  -0.922  1.00  0.00    -0.027 C 
HETATM   14  C20 UNL     1      -3.031  -1.488   0.243  1.00  0.00     0.017 C 
HETATM   15  C21 UNL     1      -2.712  -3.075  -1.540  1.00  0.00    -0.001 A 
HETATM   16  C22 UNL     1      -2.131  -3.896  -2.573  1.00  0.00     0.011 A 
HETATM   17  C23 UNL     1      -1.913  -4.212  -1.104  1.00  0.00    -0.009 A 
HETATM   18  C24 UNL     1      -0.547  -3.740  -0.644  1.00  0.00     0.011 C 
HETATM   19  C25 UNL     1      -0.842  -2.284  -0.272  1.00  0.00    -0.000 C 
HETATM   20  C26 UNL     1       0.837   0.370   1.057  1.00  0.00     0.098 C 
ENDROOT
BRANCH   9  21
HETATM   21  C12 UNL     1      -0.200   3.007   0.075  1.00  0.00     0.122 C 
BRANCH  21  22
HETATM   22  O2  UNL     1       0.380   4.171  -0.065  1.00  0.00    -0.349 OA
ATOM     23  H2  UNL     1       0.176   4.788   0.628  1.00  0.00     0.219 HD
ENDBRANCH  21  22
BRANCH  21  24
HETATM   24  N2  UNL     1      -0.993   2.882   1.186  1.00  0.00    -0.325 N 
HETATM   25  C13 UNL     1      -2.242   3.058   1.297  1.00  0.00     0.122 A 
HETATM   26  C14 UNL     1      -3.237   3.420   0.417  1.00  0.00     0.068 A 
HETATM   27  N4  UNL     1      -2.902   2.876   2.486  1.00  0.00    -0.286 N 
HETATM   28  C15 UNL     1      -4.426   3.448   1.061  1.00  0.00     0.111 A 
HETATM   29  N3  UNL     1      -4.187   3.109   2.334  1.00  0.00    -0.310 N 
ATOM     30  H3  UNL     1      -4.891   3.042   3.070  1.00  0.00     0.186 HD
ATOM     31  H4  UNL     1      -2.459   2.600   3.362  1.00  0.00     0.188 HD
ATOM     32  H2  UNL     1      -0.510   2.609   2.042  1.00  0.00     0.169 HD
ENDBRANCH  21  24
ENDBRANCH   9  21
BRANCH   1  33
HETATM   33  C4  UNL     1       4.805   0.560   0.887  1.00  0.00     0.129 C 
BRANCH  33  34
HETATM   34  C3  UNL     1       5.772   1.206   0.466  1.00  0.00    -0.123 C 
BRANCH  34  35
HETATM   35  C2  UNL     1       6.843   1.922   0.001  1.00  0.00     0.045 C 
HETATM   36  C1  UNL     1       6.686   3.100  -0.673  1.00  0.00     0.020 C 
ENDBRANCH  34  35
ENDBRANCH  33  34
ENDBRANCH   1  33
TORSDOF 6
