REMARK  1 active torsions:
REMARK  status: ('A' for Active; 'I' for Inactive)
REMARK    1  A    between atoms: C2_3  and  C3_6 
ROOT
HETATM    1  N1  UNL     1       4.753   0.817  -0.745  1.00  0.00    -0.190 NA
HETATM    2  C1  UNL     1       4.011   0.105  -0.230  1.00  0.00     0.145 C 
HETATM    3  C2  UNL     1       3.051  -0.785   0.437  1.00  0.00     0.371 C 
HETATM    4  F1  UNL     1       3.301  -2.064   0.106  1.00  0.00    -0.182 F 
HETATM    5  F2  UNL     1       3.223  -0.596   1.851  1.00  0.00    -0.182 F 
ENDROOT
BRANCH   3   6
HETATM    6  C3  UNL     1       1.677  -0.296   0.215  1.00  0.00     0.097 A 
HETATM    7  C4  UNL     1       0.571  -1.115   0.367  1.00  0.00     0.044 A 
HETATM    8  C5  UNL     1      -0.687  -0.485   0.234  1.00  0.00    -0.022 A 
HETATM    9  C6  UNL     1      -1.842  -1.242   0.382  1.00  0.00     0.012 A 
HETATM   10  C10 UNL     1      -0.774   0.843  -0.030  1.00  0.00    -0.011 A 
HETATM   11  C7  UNL     1      -3.086  -0.649   0.251  1.00  0.00     0.001 A 
HETATM   12  C8  UNL     1      -3.148   0.703  -0.034  1.00  0.00     0.001 A 
HETATM   13  C9  UNL     1      -2.006   1.432  -0.164  1.00  0.00     0.013 A 
HETATM   14  C11 UNL     1       0.367   1.634  -0.184  1.00  0.00     0.100 A 
HETATM   15  N2  UNL     1       1.531   1.029  -0.054  1.00  0.00    -0.363 N 
ATOM     16  H2  UNL     1       2.376   1.590  -0.162  1.00  0.00     0.165 HD
ENDBRANCH   3   6
TORSDOF 1
