REMARK  1 active torsions:
REMARK  status: ('A' for Active; 'I' for Inactive)
REMARK    1  A    between atoms: N1_9  and  C7_10 
ROOT
HETATM    1  F1  UNL     1      -0.203  -0.043  -2.610  1.00  0.00    -0.182 F 
HETATM    2  C1  UNL     1      -0.915  -0.219  -1.449  1.00  0.00     0.325 C 
HETATM    3  F2  UNL     1      -1.696  -1.363  -1.683  1.00  0.00    -0.182 F 
HETATM    4  C2  UNL     1      -1.849   0.940  -1.138  1.00  0.00     0.104 C 
HETATM    5  C3  UNL     1      -2.218   0.946   0.330  1.00  0.00     0.008 C 
HETATM    6  C4  UNL     1      -2.753  -0.361   0.797  1.00  0.00     0.002 C 
HETATM    7  C5  UNL     1      -1.761  -1.419   1.096  1.00  0.00     0.020 C 
HETATM    8  C6  UNL     1      -0.325  -1.061   0.932  1.00  0.00     0.130 C 
HETATM    9  N1  UNL     1      -0.013  -0.427  -0.337  1.00  0.00    -0.305 N 
ENDROOT
BRANCH   9  10
HETATM   10  C7  UNL     1       1.338   0.024  -0.424  1.00  0.00     0.107 A 
HETATM   11  C8  UNL     1       2.230  -0.294   0.600  1.00  0.00     0.048 A 
HETATM   12  C9  UNL     1       3.541   0.103   0.599  1.00  0.00     0.005 A 
HETATM   13  C10 UNL     1       3.967   0.854  -0.482  1.00  0.00     0.017 A 
HETATM   14  C11 UNL     1       3.063   1.150  -1.475  1.00  0.00     0.089 A 
HETATM   15  N2  UNL     1       1.791   0.752  -1.453  1.00  0.00    -0.352 N 
ATOM     16  H2  UNL     1       1.164   1.001  -2.218  1.00  0.00     0.166 HD
ENDBRANCH   9  10
TORSDOF 1
