REMARK  2 active torsions:
REMARK  status: ('A' for Active; 'I' for Inactive)
REMARK    1  A    between atoms: N1_1  and  C1_4 
REMARK    2  A    between atoms: C5_9  and  N2_10 
ROOT
HETATM    1  C1  UNL     1      -2.446   0.697   0.158  1.00  0.00     0.146 A 
HETATM    2  C2  UNL     1      -2.945  -0.500  -0.310  1.00  0.00     0.098 A 
HETATM    3  C3  UNL     1      -2.088  -1.540  -0.658  1.00  0.00     0.124 A 
HETATM    4  F1  UNL     1      -2.602  -2.707  -1.116  1.00  0.00    -0.206 F 
HETATM    5  C4  UNL     1      -0.730  -1.320  -0.516  1.00  0.00     0.099 A 
HETATM    6  C5  UNL     1      -0.293  -0.100  -0.042  1.00  0.00     0.158 A 
HETATM    7  O1  UNL     1      -1.149   0.868   0.280  1.00  0.00    -0.277 OA
ENDROOT
BRANCH   6   8
HETATM    8  N2  UNL     1       1.108   0.112   0.099  1.00  0.00    -0.313 N 
HETATM    9  C6  UNL     1       2.034  -0.759   0.497  1.00  0.00     0.098 A 
HETATM   10  C7  UNL     1       3.283  -0.184   0.507  1.00  0.00     0.019 A 
HETATM   11  C8  UNL     1       3.108   1.119   0.090  1.00  0.00     0.019 A 
HETATM   12  C9  UNL     1       1.762   1.261  -0.150  1.00  0.00     0.098 A 
ENDBRANCH   6   8
BRANCH   1  13
HETATM   13  N1  UNL     1      -3.304   1.632   0.467  1.00  0.00    -0.380 N 
ATOM     14  H12 UNL     1      -4.311   1.499   0.372  1.00  0.00     0.158 HD
ATOM     15  H11 UNL     1      -2.935   2.518   0.813  1.00  0.00     0.158 HD
ENDBRANCH   1  13
TORSDOF 2
