REMARK  10 active torsions:
REMARK  status: ('A' for Active; 'I' for Inactive)
REMARK    1  A    between atoms: O1_2  and  C2_3 
REMARK    2  A    between atoms: C4_5  and  C5_6 
REMARK    3  A    between atoms: C6_7  and  C7_8 
REMARK    4  A    between atoms: C9_11  and  O3_12 
REMARK    5  A    between atoms: C10_14  and  O4_15 
REMARK    6  A    between atoms: N1_17  and  C11_18 
REMARK    7  A    between atoms: C11_18  and  C12_19 
REMARK    8  A    between atoms: C12_19  and  C13_20 
REMARK    9  A    between atoms: C20_28  and  O5_29 
REMARK   10  A    between atoms: C22_31  and  O6_32 
ROOT
HETATM    1  C5  UNL     1      -0.679  -0.862   1.776  1.00  0.00     0.065 A 
HETATM    2  C6  UNL     1      -1.150  -0.740   3.102  1.00  0.00     0.075 A 
HETATM    3  C9  UNL     1      -0.163  -1.298   3.886  1.00  0.00     0.133 A 
HETATM    4  C10 UNL     1       0.893  -1.754   3.069  1.00  0.00     0.178 A 
HETATM    5  N1  UNL     1       0.525  -1.462   1.812  1.00  0.00    -0.324 N 
ENDROOT
BRANCH   1   6
HETATM    6  C4  UNL     1      -1.375  -0.308   0.630  1.00  0.00     0.019 A 
HETATM    7  C3  UNL     1      -1.526   1.076   0.487  1.00  0.00     0.055 A 
HETATM    8  C2  UNL     1      -2.226   1.655  -0.543  1.00  0.00     0.105 A 
HETATM    9  C22 UNL     1      -2.807   0.822  -1.479  1.00  0.00     0.136 A 
HETATM   10  C20 UNL     1      -2.686  -0.563  -1.379  1.00  0.00     0.127 A 
HETATM   11  C19 UNL     1      -1.968  -1.093  -0.315  1.00  0.00     0.083 A 
HETATM   12 CL1  UNL     1      -1.946  -2.831  -0.186  1.00  0.00    -0.080 Cl
BRANCH   8  13
HETATM   13  O1  UNL     1      -2.388   3.019  -0.706  1.00  0.00    -0.353 OA
HETATM   14  C1  UNL     1      -1.853   3.982   0.169  1.00  0.00     0.210 C 
ENDBRANCH   8  13
BRANCH   9  15
HETATM   15  O6  UNL     1      -3.512   1.360  -2.523  1.00  0.00    -0.351 OA
HETATM   16  C23 UNL     1      -4.905   1.604  -2.404  1.00  0.00     0.210 C 
ENDBRANCH   9  15
BRANCH  10  17
HETATM   17  O5  UNL     1      -3.256  -1.418  -2.299  1.00  0.00    -0.351 OA
HETATM   18  C21 UNL     1      -2.618  -1.872  -3.460  1.00  0.00     0.210 C 
ENDBRANCH  10  17
ENDBRANCH   1   6
BRANCH   2  19
HETATM   19  C7  UNL     1      -2.418  -0.168   3.505  1.00  0.00     0.160 C 
HETATM   20  C8  UNL     1      -2.831  -0.098   4.921  1.00  0.00     0.097 C 
HETATM   21  O2  UNL     1      -3.259   0.308   2.681  1.00  0.00    -0.293 OA
ENDBRANCH   2  19
BRANCH   5  22
HETATM   22  C11 UNL     1       1.385  -1.682   0.663  1.00  0.00     0.132 C 
BRANCH  22  23
HETATM   23  C12 UNL     1       2.357  -0.503   0.547  1.00  0.00     0.025 C 
BRANCH  23  24
HETATM   24  C13 UNL     1       3.274  -0.667  -0.621  1.00  0.00    -0.013 C 
HETATM   25  C14 UNL     1       4.194   0.535  -0.658  1.00  0.00     0.005 C 
HETATM   26  C15 UNL     1       5.220   0.405  -1.771  1.00  0.00     0.000 C 
HETATM   27  C16 UNL     1       4.474   0.399  -3.077  1.00  0.00     0.000 C 
HETATM   28  C17 UNL     1       2.979   0.333  -2.906  1.00  0.00     0.000 C 
HETATM   29  C18 UNL     1       2.562  -0.751  -1.940  1.00  0.00     0.005 C 
ENDBRANCH  23  24
ENDBRANCH  22  23
ENDBRANCH   5  22
BRANCH   3  30
HETATM   30  O3  UNL     1      -0.078  -1.455   5.244  1.00  0.00    -0.356 OA
ATOM     31  H3  UNL     1       0.602  -1.840   5.784  1.00  0.00     0.218 HD
ENDBRANCH   3  30
BRANCH   4  32
HETATM   32  O4  UNL     1       2.055  -2.370   3.479  1.00  0.00    -0.344 OA
ATOM     33  H4  UNL     1       2.766  -2.677   2.929  1.00  0.00     0.219 HD
ENDBRANCH   4  32
TORSDOF 10
