REMARK  9 active torsions:
REMARK  status: ('A' for Active; 'I' for Inactive)
REMARK    1  A    between atoms: C2_2  and  O1_3 
REMARK    2  A    between atoms: O1_3  and  C3_4 
REMARK    3  A    between atoms: C6_7  and  C7_8 
REMARK    4  A    between atoms: C8_13  and  S1_14 
REMARK    5  A    between atoms: S1_14  and  C9_15 
REMARK    6  A    between atoms: C9_15  and  C11_17 
REMARK    7  A    between atoms: C9_15  and  C12_20 
REMARK    8  A    between atoms: C19_29  and  O5_30 
REMARK    9  A    between atoms: O5_30  and  C20_31 
ROOT
HETATM    1  C7  UNL     1       1.236  -1.383  -0.598  1.00  0.00     0.175 A 
HETATM    2  N1  UNL     1       1.189  -2.512  -1.324  1.00  0.00    -0.277 N 
ATOM      3  H1  UNL     1       1.990  -3.003  -1.722  1.00  0.00     0.189 HD
HETATM    4  N2  UNL     1      -0.078  -2.876  -1.433  1.00  0.00    -0.272 N 
ATOM      5  H2  UNL     1      -0.421  -3.697  -1.931  1.00  0.00     0.189 HD
HETATM    6  C8  UNL     1      -0.838  -1.981  -0.777  1.00  0.00     0.205 A 
HETATM    7  O4  UNL     1      -0.004  -1.098  -0.288  1.00  0.00    -0.267 OA
ENDROOT
BRANCH   6   8
HETATM    8  S1  UNL     1      -2.616  -2.046  -0.642  1.00  0.00    -0.063 SA
BRANCH   8   9
HETATM    9  C9  UNL     1      -3.201  -0.622   0.343  1.00  0.00     0.105 C 
HETATM   10  C10 UNL     1      -2.711  -0.782   1.781  1.00  0.00     0.040 C 
BRANCH   9  11
HETATM   11  C11 UNL     1      -2.512   0.573  -0.207  1.00  0.00     0.193 C 
HETATM   12  O2  UNL     1      -1.777   1.305   0.507  1.00  0.00    -0.647 OA
HETATM   13  O3  UNL     1      -2.632   0.965  -1.547  1.00  0.00    -0.647 OA
ENDBRANCH   9  11
BRANCH   9  14
HETATM   14  C12 UNL     1      -4.696  -0.518   0.321  1.00  0.00     0.033 C 
HETATM   15  C13 UNL     1      -5.203   0.642   1.119  1.00  0.00     0.008 C 
HETATM   16  C14 UNL     1      -6.712   0.726   1.130  1.00  0.00     0.001 C 
HETATM   17  C15 UNL     1      -7.214   0.794  -0.274  1.00  0.00     0.002 C 
HETATM   18  C16 UNL     1      -6.087   0.685  -1.292  1.00  0.00     0.020 C 
HETATM   19  C17 UNL     1      -5.270  -0.555  -1.069  1.00  0.00     0.088 C 
HETATM   20 CL1  UNL     1      -6.287  -2.017  -1.320  1.00  0.00    -0.125 Cl
ENDBRANCH   9  14
ENDBRANCH   8   9
ENDBRANCH   6   8
BRANCH   1  21
HETATM   21  C6  UNL     1       2.455  -0.648  -0.243  1.00  0.00     0.019 A 
HETATM   22  C5  UNL     1       2.420   0.504   0.508  1.00  0.00     0.019 A 
HETATM   23  C4  UNL     1       3.587   1.191   0.832  1.00  0.00     0.040 A 
HETATM   24  C3  UNL     1       4.820   0.755   0.421  1.00  0.00     0.102 A 
HETATM   25  C19 UNL     1       4.854  -0.419  -0.344  1.00  0.00     0.102 A 
HETATM   26  C18 UNL     1       3.688  -1.100  -0.665  1.00  0.00     0.055 A 
BRANCH  24  27
HETATM   27  O1  UNL     1       6.010   1.367   0.693  1.00  0.00    -0.349 OA
BRANCH  27  28
HETATM   28  C2  UNL     1       6.259   2.523   1.410  1.00  0.00     0.171 C 
HETATM   29  C1  UNL     1       5.561   3.689   0.756  1.00  0.00     0.034 C 
ENDBRANCH  27  28
ENDBRANCH  24  27
BRANCH  25  30
HETATM   30  O5  UNL     1       6.085  -0.862  -0.758  1.00  0.00    -0.349 OA
BRANCH  30  31
HETATM   31  C20 UNL     1       6.407  -1.980  -1.504  1.00  0.00     0.171 C 
HETATM   32  C21 UNL     1       5.966  -3.221  -0.764  1.00  0.00     0.034 C 
ENDBRANCH  30  31
ENDBRANCH  25  30
ENDBRANCH   1  21
TORSDOF 9
