REMARK  14 active torsions:
REMARK  status: ('A' for Active; 'I' for Inactive)
REMARK    1  A    between atoms: C5_9  and  N4_10 
REMARK    2  A    between atoms: C9_19  and  C10_20 
REMARK    3  A    between atoms: C10_20  and  O1_21 
REMARK    4  A    between atoms: C10_20  and  N7_23 
REMARK    5  A    between atoms: N7_23  and  N8_24 
REMARK    6  A    between atoms: N8_24  and  C11_26 
REMARK    7  A    between atoms: C11_26  and  C12_27 
REMARK    8  A    between atoms: C12_27  and  O2_28 
REMARK    9  A    between atoms: C12_27  and  C13_30 
REMARK   10  A    between atoms: C13_30  and  O3_31 
REMARK   11  A    between atoms: C13_30  and  C14_33 
REMARK   12  A    between atoms: C14_33  and  N9_34 
REMARK   13  A    between atoms: C14_33  and  C15_38 
REMARK   14  A    between atoms: C17_41  and  N10_42 
ROOT
HETATM    1  C10 UNL     1      -0.138   0.775  -2.221  1.00  0.00     0.267 C 
ENDROOT
BRANCH   1   2
HETATM    2  C9  UNL     1       1.208   0.504  -1.810  1.00  0.00     0.133 A 
HETATM    3  C8  UNL     1       2.291   1.356  -2.110  1.00  0.00     0.151 A 
HETATM    4  N6  UNL     1       3.407   0.823  -1.562  1.00  0.00    -0.150 N 
HETATM    5  C7  UNL     1       4.748   1.339  -1.626  1.00  0.00     0.233 C 
HETATM    6  C18 UNL     1       3.084  -0.325  -0.934  1.00  0.00     0.691 A 
HETATM    7  N3  UNL     1       5.693   0.663  -0.802  1.00  0.00    -0.125 N 
HETATM    8  C4  UNL     1       5.428  -0.465  -0.164  1.00  0.00     0.175 A 
HETATM    9  C5  UNL     1       6.933   1.289  -0.694  1.00  0.00     0.686 A 
HETATM   10  C3  UNL     1       6.406  -1.058   0.643  1.00  0.00     0.124 A 
HETATM   11  N13 UNL     1       4.121  -0.979  -0.219  1.00  0.00    -0.172 N 
HETATM   12  N2  UNL     1       6.438  -2.138   1.392  1.00  0.00    -0.346 N 
HETATM   13  C6  UNL     1       7.629  -0.435   0.751  1.00  0.00     0.154 A 
HETATM   14  C2  UNL     1       7.635  -2.264   1.996  1.00  0.00     0.184 A 
ATOM     15  H2  UNL     1       5.662  -2.791   1.501  1.00  0.00     0.167 HD
HETATM   16  N1  UNL     1       8.362  -1.197   1.591  1.00  0.00    -0.331 N 
HETATM   17  C1  UNL     1       9.703  -0.848   2.017  1.00  0.00     0.158 C 
HETATM   18  N5  UNL     1       7.862   0.716   0.086  1.00  0.00    -0.174 N 
ATOM     19  H5  UNL     1       8.773   1.164   0.179  1.00  0.00     0.186 HD
ATOM     20  H13 UNL     1       3.911  -1.849   0.270  1.00  0.00     0.186 HD
HETATM   21  N12 UNL     1       1.752  -0.501  -1.095  1.00  0.00    -0.184 N 
ATOM     22  H12 UNL     1       1.227  -1.292  -0.723  1.00  0.00     0.184 HD
BRANCH   9  23
HETATM   23  N4  UNL     1       7.096   2.322  -1.359  1.00  0.00    -0.234 N 
ATOM     24  H42 UNL     1       6.390   2.758  -1.952  1.00  0.00     0.174 HD
ATOM     25  H41 UNL     1       8.004   2.780  -1.280  1.00  0.00     0.174 HD
ENDBRANCH   9  23
ENDBRANCH   1   2
BRANCH   1  26
HETATM   26  O1  UNL     1      -0.075   1.350  -3.469  1.00  0.00    -0.332 OA
ATOM     27  H1  UNL     1      -0.967   1.530  -3.741  1.00  0.00     0.220 HD
ENDBRANCH   1  26
BRANCH   1  28
HETATM   28  N7  UNL     1      -1.398   0.629  -1.671  1.00  0.00    -0.302 NA
BRANCH  28  29
HETATM   29  N8  UNL     1      -2.522   0.498  -1.181  1.00  0.00    -0.267 N 
ATOM     30  H8  UNL     1      -3.320   0.856  -1.706  1.00  0.00     0.195 HD
BRANCH  29  31
HETATM   31  C11 UNL     1      -2.778  -0.144   0.114  1.00  0.00     0.188 C 
BRANCH  31  32
HETATM   32  C12 UNL     1      -4.268   0.006   0.427  1.00  0.00     0.169 C 
BRANCH  32  33
HETATM   33  O2  UNL     1      -4.486   1.410   0.412  1.00  0.00    -0.391 OA
ATOM     34  H2  UNL     1      -5.411   1.503   0.606  1.00  0.00     0.210 HD
ENDBRANCH  32  33
BRANCH  32  35
HETATM   35  C13 UNL     1      -5.193  -0.666  -0.539  1.00  0.00     0.185 C 
BRANCH  35  36
HETATM   36  O3  UNL     1      -5.097  -2.020  -0.579  1.00  0.00    -0.390 OA
ATOM     37  H3  UNL     1      -5.684  -2.447  -1.192  1.00  0.00     0.210 HD
ENDBRANCH  35  36
BRANCH  35  38
HETATM   38  C14 UNL     1      -6.558  -0.090  -0.445  1.00  0.00     0.264 C 
BRANCH  38  39
HETATM   39  N9  UNL     1      -7.368  -0.479  -1.538  1.00  0.00    -0.067 N 
ATOM     40  H93 UNL     1      -6.927  -0.247  -2.428  1.00  0.00     0.275 HD
ATOM     41  H92 UNL     1      -7.399  -1.494  -1.635  1.00  0.00     0.275 HD
ATOM     42  H91 UNL     1      -8.306  -0.083  -1.473  1.00  0.00     0.275 HD
ENDBRANCH  38  39
BRANCH  38  43
HETATM   43  C15 UNL     1      -7.262  -0.375   0.892  1.00  0.00     0.051 A 
HETATM   44  C16 UNL     1      -7.857  -1.576   1.077  1.00  0.00     0.080 A 
HETATM   45  S1  UNL     1      -8.531  -1.391   2.671  1.00  0.00    -0.064 SA
HETATM   46  C17 UNL     1      -7.985   0.215   2.957  1.00  0.00     0.142 A 
HETATM   47  N11 UNL     1      -7.330   0.536   1.847  1.00  0.00    -0.338 N 
ATOM     48  H11 UNL     1      -6.895   1.452   1.736  1.00  0.00     0.168 HD
BRANCH  46  49
HETATM   49  N10 UNL     1      -8.187   0.901   4.077  1.00  0.00    -0.380 N 
ATOM     50 2H10 UNL     1      -8.690   0.654   4.929  1.00  0.00     0.158 HD
ATOM     51 1H10 UNL     1      -7.863   1.853   4.247  1.00  0.00     0.158 HD
ENDBRANCH  46  49
ENDBRANCH  38  43
ENDBRANCH  35  38
ENDBRANCH  32  35
ENDBRANCH  31  32
ENDBRANCH  29  31
ENDBRANCH  28  29
ENDBRANCH   1  28
TORSDOF 14
