REMARK  15 active torsions:
REMARK  status: ('A' for Active; 'I' for Inactive)
REMARK    1  A    between atoms: C2_2  and  N1_3 
REMARK    2  A    between atoms: C2_2  and  N14_48 
REMARK    3  A    between atoms: N1_3  and  C3_5 
REMARK    4  A    between atoms: C4_8  and  N3_9 
REMARK    5  A    between atoms: C7_16  and  C8_17 
REMARK    6  A    between atoms: C8_17  and  O2_19 
REMARK    7  A    between atoms: O2_19  and  C9_20 
REMARK    8  A    between atoms: C9_20  and  C10_21 
REMARK    9  A    between atoms: C10_21  and  C11_22 
REMARK   10  A    between atoms: C11_22  and  N5_23 
REMARK   11  A    between atoms: C13_25  and  C14_26 
REMARK   12  A    between atoms: C14_26  and  N6_27 
REMARK   13  A    between atoms: C14_26  and  O3_31 
REMARK   14  A    between atoms: N10_39  and  C15_40 
REMARK   15  A    between atoms: C16_43  and  N13_44 
REMARK       I    between atoms: N14_48  and  C17_50 
ROOT
HETATM    1  C3  UNL     1      -3.780   0.638   0.495  1.00  0.00     0.139 A 
HETATM    2  N2  UNL     1      -5.068   0.174   0.445  1.00  0.00    -0.176 N 
ATOM      3  H2  UNL     1      -5.820   0.837   0.255  1.00  0.00     0.186 HD
HETATM    4  C4  UNL     1      -5.379  -1.108   0.634  1.00  0.00     0.679 A 
HETATM    5  N4  UNL     1      -4.429  -2.008   0.886  1.00  0.00    -0.174 N 
ATOM      6  H4  UNL     1      -4.686  -2.985   1.028  1.00  0.00     0.186 HD
HETATM    7  C5  UNL     1      -3.154  -1.649   0.954  1.00  0.00     0.156 A 
HETATM    8  C6  UNL     1      -2.795  -0.311   0.761  1.00  0.00     0.089 A 
HETATM    9  C7  UNL     1      -1.451  -0.254   0.897  1.00  0.00     0.141 A 
HETATM   10  N9  UNL     1      -1.042  -1.546   1.161  1.00  0.00    -0.289 N 
ATOM     11  H9  UNL     1      -0.071  -1.821   1.311  1.00  0.00     0.187 HD
HETATM   12  N10 UNL     1      -2.044  -2.365   1.195  1.00  0.00    -0.249 N 
ENDROOT
BRANCH   9  13
HETATM   13  C8  UNL     1      -0.553   0.873   0.851  1.00  0.00     0.312 C 
HETATM   14  O1  UNL     1      -0.845   2.041   0.713  1.00  0.00    -0.258 OA
BRANCH  13  15
HETATM   15  O2  UNL     1       0.832   0.602   0.981  1.00  0.00    -0.316 OA
BRANCH  15  16
HETATM   16  C9  UNL     1       1.739   1.682   0.940  1.00  0.00     0.180 C 
BRANCH  16  17
HETATM   17  C10 UNL     1       3.131   1.147   1.096  1.00  0.00     0.048 C 
BRANCH  17  18
HETATM   18  C11 UNL     1       3.439   0.169  -0.042  1.00  0.00     0.152 C 
BRANCH  18  19
HETATM   19  N5  UNL     1       4.805  -0.330   0.149  1.00  0.00    -0.287 N 
HETATM   20  C12 UNL     1       5.917   0.229  -0.354  1.00  0.00     0.142 A 
HETATM   21  C13 UNL     1       6.972  -0.547   0.059  1.00  0.00     0.099 A 
HETATM   22  N7  UNL     1       6.428  -1.536   0.793  1.00  0.00    -0.285 N 
HETATM   23  N8  UNL     1       5.127  -1.418   0.855  1.00  0.00    -0.241 N 
ATOM     24  H7  UNL     1       6.961  -2.280   1.242  1.00  0.00     0.188 HD
ATOM     25  H8  UNL     1       4.483  -2.037   1.347  1.00  0.00     0.208 HD
BRANCH  21  26
HETATM   26  C14 UNL     1       8.412  -0.370  -0.220  1.00  0.00     0.370 C 
BRANCH  26  27
HETATM   27  N6  UNL     1       8.740   1.024  -0.025  1.00  0.00    -0.047 N 
ATOM     28  H63 UNL     1       8.152   1.648  -0.578  1.00  0.00     0.277 HD
ATOM     29  H62 UNL     1       8.473   1.366   0.898  1.00  0.00     0.277 HD
ATOM     30  H61 UNL     1       9.734   1.146  -0.218  1.00  0.00     0.277 HD
ENDBRANCH  26  27
BRANCH  26  31
HETATM   31  O3  UNL     1       8.678  -0.723  -1.545  1.00  0.00    -0.365 OA
ATOM     32  H3  UNL     1       9.604  -0.609  -1.724  1.00  0.00     0.212 HD
ENDBRANCH  26  31
ENDBRANCH  21  26
ENDBRANCH  18  19
ENDBRANCH  17  18
ENDBRANCH  16  17
ENDBRANCH  15  16
ENDBRANCH  13  15
ENDBRANCH   9  13
BRANCH   1  33
HETATM   33  N1  UNL     1      -3.535   1.990   0.265  1.00  0.00    -0.331 N 
ATOM     34  H1  UNL     1      -3.055   2.492   1.012  1.00  0.00     0.168 HD
BRANCH  33  35
HETATM   35  C2  UNL     1      -3.843   2.689  -0.784  1.00  0.00     0.082 C 
HETATM   36  C1  UNL     1      -4.530   2.156  -1.963  1.00  0.00     0.089 C 
BRANCH  35  37
HETATM   37  N14 UNL     1      -3.472   4.053  -0.733  1.00  0.00    -0.301 N 
HETATM   38  C17 UNL     1      -3.732   4.969  -1.769  1.00  0.00     0.334 C 
HETATM   39  N15 UNL     1      -3.311   6.351  -1.634  1.00  0.00    -0.040 NA
HETATM   40  O4  UNL     1      -4.322   4.604  -2.804  1.00  0.00    -0.251 OA
ATOM     41  H14 UNL     1      -2.990   4.391   0.100  1.00  0.00     0.171 HD
ENDBRANCH  35  37
ENDBRANCH  33  35
ENDBRANCH   1  33
BRANCH  12  42
HETATM   42  C15 UNL     1      -1.977  -3.799   1.447  1.00  0.00     0.266 C 
HETATM   43  N11 UNL     1      -0.844  -4.454   0.850  1.00  0.00    -0.115 NA
HETATM   44  N12 UNL     1      -1.686  -5.557   0.594  1.00  0.00    -0.109 NA
HETATM   45  C16 UNL     1      -2.774  -4.600   0.449  1.00  0.00     0.333 C 
BRANCH  45  46
HETATM   46  N13 UNL     1      -2.758  -4.064  -0.903  1.00  0.00    -0.057 N 
ATOM     47 3H13 UNL     1      -3.063  -3.091  -0.903  1.00  0.00     0.276 HD
ATOM     48 2H13 UNL     1      -1.798  -3.946  -1.227  1.00  0.00     0.276 HD
ATOM     49 1H13 UNL     1      -3.297  -4.606  -1.578  1.00  0.00     0.276 HD
ENDBRANCH  45  46
ENDBRANCH  12  42
BRANCH   4  50
HETATM   50  N3  UNL     1      -6.643  -1.437   0.562  1.00  0.00    -0.234 N 
ATOM     51  H32 UNL     1      -7.370  -0.748   0.369  1.00  0.00     0.174 HD
ATOM     52  H31 UNL     1      -6.881  -2.418   0.707  1.00  0.00     0.174 HD
ENDBRANCH   4  50
TORSDOF 15
