REMARK  15 active torsions:
REMARK  status: ('A' for Active; 'I' for Inactive)
REMARK    1  A    between atoms: O1_2  and  C2_3 
REMARK    2  A    between atoms: C2_3  and  C3_5 
REMARK    3  A    between atoms: C3_5  and  C4_6 
REMARK    4  A    between atoms: C3_5  and  N3_13 
REMARK    5  A    between atoms: C7_16  and  C8_17 
REMARK    6  A    between atoms: C9_20  and  C10_21 
REMARK    7  A    between atoms: C10_21  and  C11_22 
REMARK    8  A    between atoms: C11_22  and  N8_28 
REMARK    9  A    between atoms: N6_23  and  N7_25 
REMARK   10  A    between atoms: N8_28  and  C12_30 
REMARK   11  A    between atoms: C12_30  and  C13_31 
REMARK   12  A    between atoms: C16_34  and  N9_35 
REMARK   13  A    between atoms: C17_40  and  O3_41 
REMARK   14  A    between atoms: N12_46  and  N13_47 
REMARK   15  A    between atoms: C18_50  and  N14_51 
ROOT
HETATM    1  C8  UNL     1      -1.452  -1.062  -0.158  1.00  0.00     0.220 A 
HETATM    2  N5  UNL     1      -0.305  -0.397  -0.581  1.00  0.00    -0.320 N 
ATOM      3  H5  UNL     1      -0.293   0.539  -0.985  1.00  0.00     0.169 HD
HETATM    4  C9  UNL     1       0.781  -1.157  -0.384  1.00  0.00     0.111 A 
HETATM    5  N11 UNL     1       0.299  -2.280   0.162  1.00  0.00    -0.246 N 
ATOM      6  H11 UNL     1       0.845  -3.093   0.448  1.00  0.00     0.196 HD
HETATM    7  O4  UNL     1      -1.034  -2.144   0.265  1.00  0.00    -0.214 OA
ENDROOT
BRANCH   1   8
HETATM    8  C7  UNL     1      -2.740  -0.352  -0.376  1.00  0.00     0.213 A 
HETATM    9  N4  UNL     1      -3.965  -0.723  -0.091  1.00  0.00    -0.262 N 
HETATM   10  N3  UNL     1      -4.852   0.202  -0.530  1.00  0.00    -0.100 N 
ATOM     11  H4  UNL     1      -4.215  -1.586   0.393  1.00  0.00     0.189 HD
HETATM   12  C18 UNL     1      -4.184   1.187  -1.106  1.00  0.00     0.716 A 
HETATM   13  N12 UNL     1      -2.835   0.826  -0.997  1.00  0.00    -0.069 N 
BRANCH  10  14
HETATM   14  C3  UNL     1      -6.282   0.122  -0.385  1.00  0.00     0.277 C 
BRANCH  14  15
HETATM   15  C2  UNL     1      -6.879   1.110   0.566  1.00  0.00     0.290 C 
HETATM   16  O2  UNL     1      -7.773   0.902   1.362  1.00  0.00    -0.262 OA
BRANCH  15  17
HETATM   17  O1  UNL     1      -6.349   2.420   0.544  1.00  0.00    -0.325 OA
HETATM   18  C1  UNL     1      -6.777   3.486   1.329  1.00  0.00     0.213 C 
ENDBRANCH  15  17
ENDBRANCH  14  15
BRANCH  14  19
HETATM   19  C4  UNL     1      -6.810  -1.209  -0.182  1.00  0.00     0.061 A 
HETATM   20  C5  UNL     1      -6.339  -2.267   0.591  1.00  0.00     0.116 A 
HETATM   21  N1  UNL     1      -7.168  -3.340   0.499  1.00  0.00    -0.360 N 
HETATM   22  C6  UNL     1      -8.148  -2.942  -0.327  1.00  0.00     0.180 A 
ATOM     23  H1  UNL     1      -7.068  -4.246   0.956  1.00  0.00     0.166 HD
HETATM   24  N2  UNL     1      -7.940  -1.709  -0.727  1.00  0.00    -0.352 N 
ATOM     25  H2  UNL     1      -8.550  -1.197  -1.364  1.00  0.00     0.166 HD
ENDBRANCH  14  19
ENDBRANCH  10  14
BRANCH  12  26
HETATM   26  N14 UNL     1      -4.491   2.228  -1.782  1.00  0.00    -0.231 N 
ATOM     27 2H14 UNL     1      -5.473   2.491  -1.861  1.00  0.00     0.174 HD
ATOM     28 1H14 UNL     1      -3.976   2.988  -2.226  1.00  0.00     0.174 HD
ENDBRANCH  12  26
BRANCH  13  29
HETATM   29  N13 UNL     1      -1.794   1.639  -1.410  1.00  0.00    -0.322 N 
ATOM     30 2H13 UNL     1      -0.812   1.376  -1.331  1.00  0.00     0.178 HD
ATOM     31 1H13 UNL     1      -1.867   2.539  -1.884  1.00  0.00     0.178 HD
ENDBRANCH  13  29
ENDBRANCH   1   8
BRANCH   4  32
HETATM   32  C10 UNL     1       2.166  -0.735  -0.727  1.00  0.00     0.155 C 
BRANCH  32  33
HETATM   33  C11 UNL     1       3.151  -0.961   0.334  1.00  0.00     0.098 C 
HETATM   34  N6  UNL     1       2.761  -1.327   1.555  1.00  0.00    -0.295 N 
ATOM     35  H6  UNL     1       1.786  -1.461   1.821  1.00  0.00     0.187 HD
BRANCH  34  36
HETATM   36  N7  UNL     1       3.864  -1.512   2.453  1.00  0.00    -0.344 N 
ATOM     37  H72 UNL     1       4.835  -1.375   2.173  1.00  0.00     0.176 HD
ATOM     38  H71 UNL     1       3.566  -1.792   3.387  1.00  0.00     0.176 HD
ENDBRANCH  34  36
BRANCH  33  39
HETATM   39  N8  UNL     1       4.487  -0.763   0.041  1.00  0.00    -0.374 N 
ATOM     40  H8  UNL     1       5.158  -1.217   0.661  1.00  0.00     0.161 HD
BRANCH  39  41
HETATM   41  C12 UNL     1       5.055   0.033  -1.071  1.00  0.00     0.164 C 
BRANCH  41  42
HETATM   42  C13 UNL     1       6.472   0.318  -0.570  1.00  0.00     0.010 A 
HETATM   43  C14 UNL     1       6.693   0.911   0.636  1.00  0.00     0.017 A 
HETATM   44  C15 UNL     1       7.995   1.131   1.052  1.00  0.00     0.049 A 
HETATM   45  C16 UNL     1       9.062   0.760   0.280  1.00  0.00     0.100 A 
HETATM   46  N10 UNL     1       8.794   0.165  -0.938  1.00  0.00    -0.323 N 
HETATM   47  C17 UNL     1       7.506  -0.052  -1.368  1.00  0.00     0.149 A 
ATOM     48  H10 UNL     1       9.571  -0.121  -1.533  1.00  0.00     0.169 HD
BRANCH  45  49
HETATM   49  N9  UNL     1      10.281   0.854   0.654  1.00  0.00    -0.385 N 
ATOM     50  H92 UNL     1      10.479   1.293   1.553  1.00  0.00     0.157 HD
ATOM     51  H91 UNL     1      11.076   0.577   0.078  1.00  0.00     0.157 HD
ENDBRANCH  45  49
BRANCH  47  52
HETATM   52  O3  UNL     1       7.326  -0.641  -2.607  1.00  0.00    -0.346 OA
ATOM     53  H3  UNL     1       8.050  -0.900  -3.165  1.00  0.00     0.219 HD
ENDBRANCH  47  52
ENDBRANCH  41  42
ENDBRANCH  39  41
ENDBRANCH  33  39
ENDBRANCH  32  33
ENDBRANCH   4  32
TORSDOF 15
