REMARK  3 active torsions:
REMARK  status: ('A' for Active; 'I' for Inactive)
REMARK    1  A    between atoms: N1_2  and  C3_4 
REMARK    2  A    between atoms: C3_4  and  N2_5 
REMARK    3  A    between atoms: C4_7  and  C5_8 
ROOT
HETATM    1  N2  UNL     1      -0.155  -0.402  -0.243  1.00  0.00    -0.376 N 
ATOM      2  H2  UNL     1      -0.086  -0.652  -1.229  1.00  0.00     0.160 HD
HETATM    3  C4  UNL     1       0.789   0.236   0.323  1.00  0.00     0.090 C 
ENDROOT
BRANCH   3   4
HETATM    4  C5  UNL     1       2.019   0.644  -0.401  1.00  0.00     0.225 C 
HETATM    5  C6  UNL     1       2.828  -0.522  -0.957  1.00  0.00     0.066 C 
HETATM    6  C7  UNL     1       4.000   0.348  -0.548  1.00  0.00     0.235 C 
HETATM    7  N3  UNL     1       3.139   0.916   0.475  1.00  0.00    -0.066 N 
ATOM      8  H32 UNL     1       3.305   1.854   0.841  1.00  0.00     0.278 HD
ATOM      9  H31 UNL     1       3.156   0.563   1.432  1.00  0.00     0.278 HD
ENDBRANCH   3   4
BRANCH   1  10
HETATM   10  C3  UNL     1      -1.298  -0.761   0.501  1.00  0.00     0.393 C 
BRANCH  10  11
HETATM   11  N1  UNL     1      -2.532  -0.675  -0.259  1.00  0.00     0.097 N 
HETATM   12  C1  UNL     1      -3.581  -1.084   0.687  1.00  0.00     0.311 C 
HETATM   13  C2  UNL     1      -2.842   0.704  -0.611  1.00  0.00     0.311 C 
ENDBRANCH  10  11
ENDBRANCH   1  10
TORSDOF 3
