REMARK  2 active torsions:
REMARK  status: ('A' for Active; 'I' for Inactive)
REMARK       I    between atoms: C2_2  and  N1_4 
REMARK    1  A    between atoms: N1_4  and  N2_6 
REMARK    2  A    between atoms: N2_6  and  C3_8 
ROOT
HETATM    1  C1  UNL     1       2.833   0.090  -0.449  1.00  0.00     0.119 C 
HETATM    2  C2  UNL     1       1.539   0.230   0.209  1.00  0.00     0.232 C 
HETATM    3  O1  UNL     1       1.440   0.330   1.482  1.00  0.00    -0.272 OA
HETATM    4  N1  UNL     1       0.348   0.259  -0.552  1.00  0.00    -0.269 N 
ATOM      5  H1  UNL     1       0.370   0.184  -1.569  1.00  0.00     0.190 HD
ENDROOT
BRANCH   4   6
HETATM    6  N2  UNL     1      -0.874   0.396   0.143  1.00  0.00    -0.276 N 
ATOM      7  H2  UNL     1      -0.958   1.131   0.845  1.00  0.00     0.189 HD
BRANCH   6   8
HETATM    8  C3  UNL     1      -1.989  -0.447  -0.096  1.00  0.00     0.199 C 
HETATM    9  N3  UNL     1      -3.197  -0.296   0.607  1.00  0.00    -0.068 NA
HETATM   10  S1  UNL     1      -1.849  -1.619  -1.219  1.00  0.00    -0.043 SA
ENDBRANCH   6   8
ENDBRANCH   4   6
TORSDOF 2
