REMARK  2 active torsions:
REMARK  status: ('A' for Active; 'I' for Inactive)
REMARK    1  A    between atoms: N1_1  and  N2_4 
REMARK       I    between atoms: N2_4  and  C1_6 
REMARK       I    between atoms: C1_6  and  N3_8 
REMARK    2  A    between atoms: N3_8  and  C2_10 
ROOT
HETATM    1  N2  UNL     1       3.243   0.015  -0.291  1.00  0.00    -0.258 N 
ATOM      2  H2  UNL     1       3.209   0.824  -0.912  1.00  0.00     0.191 HD
HETATM    3  C1  UNL     1       2.020  -0.532   0.142  1.00  0.00     0.334 C 
HETATM    4  O1  UNL     1       2.007  -1.522   0.901  1.00  0.00    -0.246 OA
HETATM    5  N3  UNL     1       0.794   0.024  -0.272  1.00  0.00    -0.335 N 
ATOM      6  H3  UNL     1       0.817   0.833  -0.893  1.00  0.00     0.164 HD
ENDROOT
BRANCH   5   7
HETATM    7  C2  UNL     1      -0.499  -0.489   0.135  1.00  0.00     0.116 C 
HETATM    8  C3  UNL     1      -1.320   0.543   0.873  1.00  0.00     0.064 C 
HETATM    9  C4  UNL     1      -2.711   0.374   0.322  1.00  0.00     0.253 A 
HETATM   10  C5  UNL     1      -2.996   1.031  -0.991  1.00  0.00     0.308 A 
HETATM   11  N4  UNL     1      -2.628  -0.349  -0.900  1.00  0.00     0.099 N 
HETATM   12  C6  UNL     1      -1.287  -0.791  -1.103  1.00  0.00     0.298 C 
ENDBRANCH   5   7
BRANCH   1  13
HETATM   13  N1  UNL     1       4.492  -0.471   0.069  1.00  0.00    -0.341 N 
ATOM     14  H12 UNL     1       4.507  -1.280   0.690  1.00  0.00     0.177 HD
ATOM     15  H11 UNL     1       5.378  -0.075  -0.245  1.00  0.00     0.177 HD
ENDBRANCH   1  13
TORSDOF 2
