REMARK  2 active torsions:
REMARK  status: ('A' for Active; 'I' for Inactive)
REMARK    1  A    between atoms: S1_2  and  N1_4 
REMARK    2  A    between atoms: N1_4  and  C2_6 
ROOT
HETATM    1  N1  UNL     1      -0.467  -1.083  -0.355  1.00  0.00    -0.285 N 
ATOM      2  H1  UNL     1      -0.362  -2.094  -0.437  1.00  0.00     0.178 HD
ENDROOT
BRANCH   1   3
HETATM    3  S1  UNL     1       0.709  -0.069  -1.089  1.00  0.00     0.112 S 
HETATM    4  C1  UNL     1       1.858   0.573   0.105  1.00  0.00     0.152 C 
HETATM    5  O1  UNL     1       1.518  -0.919  -2.268  1.00  0.00    -0.236 OA
ENDBRANCH   1   3
BRANCH   1   6
HETATM    6  C2  UNL     1      -1.578  -0.570   0.361  1.00  0.00     0.192 C 
HETATM    7  N2  UNL     1      -1.743   0.842   0.488  1.00  0.00    -0.069 NA
HETATM    8  S2  UNL     1      -2.691  -1.512   1.055  1.00  0.00    -0.044 SA
ENDBRANCH   1   6
TORSDOF 2
