REMARK  3 active torsions:
REMARK  status: ('A' for Active; 'I' for Inactive)
REMARK    1  A    between atoms: S1_2  and  C2_3 
REMARK    2  A    between atoms: C3_6  and  N2_7 
REMARK    3  A    between atoms: N4_12  and  O1_13 
ROOT
HETATM    1  C2  UNL     1      -0.055   0.271   0.481  1.00  0.00     0.204 A 
HETATM    2  N1  UNL     1       0.921  -0.653   0.397  1.00  0.00    -0.166 N 
ATOM      3  H1  UNL     1       0.898  -1.589   0.802  1.00  0.00     0.186 HD
HETATM    4  C3  UNL     1       1.931  -0.125  -0.315  1.00  0.00     0.694 A 
HETATM    5  N3  UNL     1       1.601   1.124  -0.681  1.00  0.00    -0.104 N 
ATOM      6  H3  UNL     1       2.167   1.772  -1.228  1.00  0.00     0.208 HD
HETATM    7  N4  UNL     1       0.395   1.344  -0.189  1.00  0.00    -0.124 N 
ENDROOT
BRANCH   4   8
HETATM    8  N2  UNL     1       3.061  -0.692  -0.624  1.00  0.00    -0.233 N 
ATOM      9  H22 UNL     1       3.312  -1.641  -0.346  1.00  0.00     0.174 HD
ATOM     10  H21 UNL     1       3.828  -0.291  -1.164  1.00  0.00     0.174 HD
ENDBRANCH   4   8
BRANCH   1  11
HETATM   11  S1  UNL     1      -1.636   0.133   1.306  1.00  0.00    -0.094 SA
HETATM   12  C1  UNL     1      -2.899  -0.520   0.172  1.00  0.00     0.099 C 
ENDBRANCH   1  11
BRANCH   7  13
HETATM   13  O1  UNL     1      -0.254   2.558  -0.385  1.00  0.00    -0.265 OA
ATOM     14  H1  UNL     1       0.064   3.317  -0.859  1.00  0.00     0.247 HD
ENDBRANCH   7  13
TORSDOF 3
