REMARK  1 active torsions:
REMARK  status: ('A' for Active; 'I' for Inactive)
REMARK       I    between atoms: C2_2  and  N1_4 
REMARK       I    between atoms: N1_4  and  C3_6 
REMARK       I    between atoms: C3_6  and  N3_10 
REMARK    1  A    between atoms: N3_10  and  N4_12 
ROOT
HETATM    1  C1  UNL     1       1.717  -1.721   1.125  1.00  0.00     0.118 C 
HETATM    2  C2  UNL     1       0.882  -0.594   0.678  1.00  0.00     0.232 C 
HETATM    3  O1  UNL     1       0.637   0.334   1.464  1.00  0.00    -0.273 OA
HETATM    4  N1  UNL     1       0.364  -0.563  -0.627  1.00  0.00    -0.159 N 
ATOM      5  H1  UNL     1       0.583  -1.340  -1.250  1.00  0.00     0.187 HD
HETATM    6  C3  UNL     1      -0.444   0.485  -1.125  1.00  0.00     0.697 C 
HETATM    7  N2  UNL     1      -0.925   0.529  -2.312  1.00  0.00    -0.233 N 
ATOM      8  H21 UNL     1      -1.508   1.285  -2.671  1.00  0.00     0.174 HD
ATOM      9  H22 UNL     1      -0.721  -0.236  -2.955  1.00  0.00     0.174 HD
HETATM   10  N3  UNL     1      -0.728   1.551  -0.230  1.00  0.00    -0.072 N 
ATOM     11  H3  UNL     1       0.026   2.204  -0.016  1.00  0.00     0.212 HD
ENDROOT
BRANCH  10  12
HETATM   12  N4  UNL     1      -1.949   1.764   0.368  1.00  0.00    -0.024 N 
HETATM   13  O2  UNL     1      -2.020   2.448   1.400  1.00  0.00    -0.516 OA
HETATM   14  O3  UNL     1      -3.140   1.252  -0.121  1.00  0.00    -0.516 OA
ENDBRANCH  10  12
TORSDOF 1
