REMARK  2 active torsions:
REMARK  status: ('A' for Active; 'I' for Inactive)
REMARK    1  A    between atoms: N1_1  and  C1_4 
REMARK    2  A    between atoms: C2_7  and  C3_8 
ROOT
HETATM    1  C1  UNL     1      -1.229  -0.804  -0.185  1.00  0.00     0.681 A 
HETATM    2  N2  UNL     1       0.066  -1.137  -0.309  1.00  0.00    -0.174 N 
ATOM      3  H2  UNL     1       0.299  -2.094  -0.573  1.00  0.00     0.186 HD
HETATM    4  C2  UNL     1       1.078  -0.260  -0.099  1.00  0.00     0.163 A 
HETATM    5  N3  UNL     1       0.761   0.988   0.247  1.00  0.00    -0.291 N 
ATOM      6  H3  UNL     1       1.500   1.671   0.412  1.00  0.00     0.172 HD
HETATM    7  C4  UNL     1      -0.526   1.352   0.380  1.00  0.00     0.340 A 
HETATM    8  O2  UNL     1      -0.828   2.519   0.704  1.00  0.00    -0.246 OA
HETATM    9  N4  UNL     1      -1.524   0.460   0.164  1.00  0.00    -0.141 N 
ATOM     10  H4  UNL     1      -2.497   0.748   0.266  1.00  0.00     0.189 HD
ENDROOT
BRANCH   1  11
HETATM   11  N1  UNL     1      -2.174  -1.688  -0.400  1.00  0.00    -0.234 N 
ATOM     12  H12 UNL     1      -1.950  -2.647  -0.665  1.00  0.00     0.174 HD
ATOM     13  H11 UNL     1      -3.158  -1.435  -0.306  1.00  0.00     0.174 HD
ENDBRANCH   1  11
BRANCH   4  14
HETATM   14  C3  UNL     1       2.475  -0.644  -0.239  1.00  0.00     0.307 C 
HETATM   15  O1  UNL     1       2.831  -1.807  -0.563  1.00  0.00    -0.298 OA
ENDBRANCH   4  14
TORSDOF 2
