REMARK  16 active torsions:
REMARK  status: ('A' for Active; 'I' for Inactive)
REMARK    1  A    between atoms: O1_2  and  C2_3 
REMARK    2  A    between atoms: C2_3  and  O2_4 
REMARK    3  A    between atoms: O2_4  and  C3_5 
REMARK    4  A    between atoms: C4_6  and  O3_7 
REMARK    5  A    between atoms: C7_11  and  O4_12 
REMARK    6  A    between atoms: C8_14  and  O5_15 
REMARK    7  A    between atoms: O5_15  and  C9_16 
REMARK    8  A    between atoms: C9_16  and  C14_25 
REMARK    9  A    between atoms: C10_17  and  C11_18 
REMARK   10  A    between atoms: C14_25  and  C15_26 
REMARK   11  A    between atoms: C15_26  and  O7_28 
REMARK   12  A    between atoms: O7_28  and  C16_29 
REMARK   13  A    between atoms: N3_34  and  O8_36 
REMARK   14  A    between atoms: C22_38  and  C23_39 
REMARK   15  A    between atoms: C23_39  and  O9_40 
REMARK   16  A    between atoms: C23_39  and  O10_42 
ROOT
HETATM    1  C3  UNL     1      -4.003   0.467   0.585  1.00  0.00     0.158 C 
HETATM    2  C4  UNL     1      -3.564   0.700   2.023  1.00  0.00     0.148 C 
HETATM    3  C5  UNL     1      -2.266  -0.055   2.120  1.00  0.00     0.042 C 
HETATM    4  C6  UNL     1      -1.614   0.353   0.814  1.00  0.00     0.027 C 
HETATM    5  C7  UNL     1      -0.403  -0.400   0.435  1.00  0.00     0.158 C 
HETATM    6  C8  UNL     1      -0.126  -0.068  -1.036  1.00  0.00     0.205 C 
HETATM    7  C20 UNL     1      -1.266  -0.563  -1.840  1.00  0.00     0.051 C 
HETATM    8  N3  UNL     1      -1.051  -0.833  -3.077  1.00  0.00    -0.272 N 
ATOM      9  H3  UNL     1      -1.837  -1.174  -3.630  1.00  0.00     0.193 HD
HETATM   10  C22 UNL     1      -2.640  -0.738  -1.203  1.00  0.00     0.098 C 
HETATM   11  C25 UNL     1      -2.761   0.303  -0.177  1.00  0.00     0.038 C 
ENDROOT
BRANCH   6  12
HETATM   12  O5  UNL     1       1.106  -0.513  -1.489  1.00  0.00    -0.341 OA
BRANCH  12  13
HETATM   13  C9  UNL     1       2.309  -0.099  -0.950  1.00  0.00     0.060 C 
HETATM   14  C10 UNL     1       3.193  -0.879  -0.373  1.00  0.00     0.080 C 
BRANCH  14  15
HETATM   15  C11 UNL     1       3.029  -2.320  -0.215  1.00  0.00     0.099 C 
HETATM   16  N1  UNL     1       3.940  -3.048   0.372  1.00  0.00    -0.375 N 
HETATM   17  C12 UNL     1       3.558  -4.431   0.409  1.00  0.00     0.141 C 
ATOM     18  H1  UNL     1       4.811  -2.681   0.755  1.00  0.00     0.161 HD
HETATM   19  C13 UNL     1       2.101  -4.479  -0.006  1.00  0.00     0.141 C 
HETATM   20  N2  UNL     1       1.968  -3.159  -0.622  1.00  0.00    -0.375 N 
ATOM     21  H2  UNL     1       1.217  -2.884  -1.255  1.00  0.00     0.161 HD
ENDBRANCH  14  15
BRANCH  13  22
HETATM   22  C14 UNL     1       2.587   1.362  -1.057  1.00  0.00     0.175 C 
BRANCH  22  23
HETATM   23  C15 UNL     1       3.886   1.758  -0.492  1.00  0.00     0.265 C 
HETATM   24  O6  UNL     1       4.948   1.576  -1.182  1.00  0.00    -0.265 OA
BRANCH  23  25
HETATM   25  O7  UNL     1       4.034   2.320   0.752  1.00  0.00    -0.311 OA
BRANCH  25  26
HETATM   26  C16 UNL     1       5.261   2.715   1.334  1.00  0.00     0.060 C 
HETATM   27  C17 UNL     1       6.217   1.575   1.490  1.00  0.00     0.045 C 
HETATM   28  C18 UNL     1       4.913   3.336   2.692  1.00  0.00     0.045 C 
HETATM   29  C19 UNL     1       5.916   3.827   0.524  1.00  0.00     0.045 C 
ENDBRANCH  25  26
ENDBRANCH  23  25
ENDBRANCH  22  23
ENDBRANCH  13  22
ENDBRANCH  12  13
ENDBRANCH   6  12
BRANCH   5  30
HETATM   30  O4  UNL     1       0.660   0.102   1.227  1.00  0.00    -0.392 OA
ATOM     31  H4  UNL     1       1.440  -0.383   0.983  1.00  0.00     0.210 HD
ENDBRANCH   5  30
BRANCH   8  32
HETATM   32  O8  UNL     1       0.139  -0.699  -3.699  1.00  0.00    -0.285 OA
HETATM   33  C21 UNL     1       0.327  -1.181  -5.020  1.00  0.00     0.237 C 
ENDBRANCH   8  32
BRANCH  10  34
HETATM   34  C23 UNL     1      -2.901  -2.152  -0.912  1.00  0.00     0.266 C 
BRANCH  34  35
HETATM   35  O9  UNL     1      -2.848  -2.924  -2.133  1.00  0.00    -0.371 OA
ATOM     36  H9  UNL     1      -3.017  -3.840  -1.945  1.00  0.00     0.212 HD
ENDBRANCH  34  35
BRANCH  34  37
HETATM   37  O10 UNL     1      -4.176  -2.430  -0.448  1.00  0.00    -0.366 OA
HETATM   38  C24 UNL     1      -4.126  -3.368   0.616  1.00  0.00     0.204 C 
ENDBRANCH  34  37
ENDBRANCH  10  34
BRANCH   2  39
HETATM   39  O3  UNL     1      -3.351   2.059   2.253  1.00  0.00    -0.393 OA
ATOM     40  H3  UNL     1      -3.077   2.204   3.151  1.00  0.00     0.210 HD
ENDBRANCH   2  39
BRANCH   1  41
HETATM   41  O2  UNL     1      -4.687   1.613   0.113  1.00  0.00    -0.359 OA
BRANCH  41  42
HETATM   42  C2  UNL     1      -6.027   1.320  -0.134  1.00  0.00     0.337 C 
BRANCH  42  43
HETATM   43  O1  UNL     1      -6.617   2.497  -0.592  1.00  0.00    -0.372 OA
HETATM   44  C1  UNL     1      -6.525   3.522   0.349  1.00  0.00     0.204 C 
ENDBRANCH  42  43
ENDBRANCH  41  42
ENDBRANCH   1  41
TORSDOF 16
