REMARK  15 active torsions:
REMARK  status: ('A' for Active; 'I' for Inactive)
REMARK    1  A    between atoms: C2_2  and  O1_3 
REMARK    2  A    between atoms: O1_3  and  N1_4 
REMARK    3  A    between atoms: N1_4  and  C3_6 
REMARK    4  A    between atoms: C5_11  and  C6_12 
REMARK       I    between atoms: C6_12  and  N3_14 
REMARK    5  A    between atoms: N3_14  and  C7_16 
REMARK    6  A    between atoms: C7_16  and  O4_17 
REMARK    7  A    between atoms: C7_16  and  C8_19 
REMARK    8  A    between atoms: C8_19  and  C9_20 
REMARK    9  A    between atoms: C8_19  and  O5_26 
REMARK   10  A    between atoms: C9_20  and  C10_21 
REMARK   11  A    between atoms: C10_21  and  N4_22 
REMARK   12  A    between atoms: O5_26  and  C11_27 
REMARK   13  A    between atoms: C12_28  and  O6_29 
REMARK   14  A    between atoms: O6_29  and  C13_30 
REMARK   15  A    between atoms: C22_41  and  O9_42 
ROOT
HETATM    1  C8  UNL     1      -0.048   0.523   0.438  1.00  0.00     0.181 C 
ENDROOT
BRANCH   1   2
HETATM    2  C7  UNL     1       1.245  -0.037   0.328  1.00  0.00     0.250 C 
BRANCH   2   3
HETATM    3  N3  UNL     1       2.449  -0.173  -0.407  1.00  0.00    -0.327 N 
HETATM    4  C6  UNL     1       3.575   0.607   0.117  1.00  0.00     0.277 C 
HETATM    5  O3  UNL     1       3.325   1.452   1.042  1.00  0.00    -0.266 OA
ATOM      6  H3  UNL     1       2.526  -0.766  -1.234  1.00  0.00     0.165 HD
BRANCH   4   7
HETATM    7  C5  UNL     1       4.940   0.487  -0.264  1.00  0.00     0.185 A 
HETATM    8  C4  UNL     1       5.380  -0.618   0.615  1.00  0.00     0.293 A 
HETATM    9  N2  UNL     1       6.672  -0.976   0.610  1.00  0.00    -0.151 N 
HETATM   10  O2  UNL     1       4.560  -1.153   1.350  1.00  0.00    -0.265 OA
HETATM   11  C3  UNL     1       7.441  -0.294  -0.170  1.00  0.00     0.721 A 
ATOM     12  H2  UNL     1       7.025  -1.740   1.187  1.00  0.00     0.188 HD
HETATM   13  N6  UNL     1       7.121   0.728  -1.038  1.00  0.00    -0.126 N 
HETATM   14  N5  UNL     1       5.789   1.057  -1.011  1.00  0.00    -0.275 N 
HETATM   15  C23 UNL     1       8.157   1.328  -1.794  1.00  0.00     0.197 C 
ATOM     16  H5  UNL     1       5.465   1.802  -1.627  1.00  0.00     0.188 HD
BRANCH  11  17
HETATM   17  N1  UNL     1       8.692  -0.200   0.211  1.00  0.00    -0.095 N 
ATOM     18  H1  UNL     1       9.083   0.355  -0.550  1.00  0.00     0.213 HD
BRANCH  17  19
HETATM   19  O1  UNL     1       9.615  -0.351   0.861  1.00  0.00    -0.267 OA
BRANCH  19  20
HETATM   20  C2  UNL     1      10.632  -1.208   1.260  1.00  0.00     0.197 C 
HETATM   21  C1  UNL     1      11.856  -0.206   0.834  1.00  0.00     0.036 C 
ENDBRANCH  19  20
ENDBRANCH  17  19
ENDBRANCH  11  17
ENDBRANCH   4   7
ENDBRANCH   2   3
BRANCH   2  22
HETATM   22  O4  UNL     1       0.884  -1.548   0.215  1.00  0.00    -0.374 OA
ATOM     23  H4  UNL     1       0.077  -1.457   0.708  1.00  0.00     0.212 HD
ENDBRANCH   2  22
ENDBRANCH   1   2
BRANCH   1  24
HETATM   24  C9  UNL     1      -0.261   1.871   1.040  1.00  0.00     0.064 C 
BRANCH  24  25
HETATM   25  C10 UNL     1       0.287   3.085   0.365  1.00  0.00     0.232 C 
BRANCH  25  26
HETATM   26  N4  UNL     1      -0.024   3.402  -0.975  1.00  0.00    -0.079 N 
ATOM     27  H43 UNL     1       0.215   2.593  -1.549  1.00  0.00     0.274 HD
ATOM     28  H42 UNL     1      -1.040   3.432  -1.059  1.00  0.00     0.274 HD
ATOM     29  H41 UNL     1       0.350   4.231  -1.436  1.00  0.00     0.274 HD
ENDBRANCH  25  26
ENDBRANCH  24  25
ENDBRANCH   1  24
BRANCH   1  30
HETATM   30  O5  UNL     1      -0.995   0.168  -0.582  1.00  0.00    -0.317 OA
BRANCH  30  31
HETATM   31  C11 UNL     1      -2.302   0.412  -0.301  1.00  0.00     0.243 C 
HETATM   32  C12 UNL     1      -2.990  -0.414   0.442  1.00  0.00     0.241 C 
HETATM   33  O7  UNL     1      -4.324  -0.099   0.702  1.00  0.00    -0.310 OA
HETATM   34  C15 UNL     1      -5.210   0.406  -0.319  1.00  0.00     0.124 C 
HETATM   35  C16 UNL     1      -6.024   1.512   0.377  1.00  0.00     0.070 C 
HETATM   36  C21 UNL     1      -6.052  -0.734  -0.793  1.00  0.00     0.081 C 
HETATM   37  C22 UNL     1      -4.382   1.098  -1.366  1.00  0.00     0.301 C 
HETATM   38  C17 UNL     1      -7.276   1.794  -0.330  1.00  0.00     0.172 C 
HETATM   39  O8  UNL     1      -7.751   0.796  -1.179  1.00  0.00    -0.381 OA
HETATM   40  C18 UNL     1      -7.534  -0.468  -0.640  1.00  0.00     0.056 C 
HETATM   41  C19 UNL     1      -8.212  -1.508  -1.499  1.00  0.00     0.045 C 
HETATM   42  C20 UNL     1      -8.033  -0.621   0.768  1.00  0.00     0.045 C 
HETATM   43  O10 UNL     1      -3.104   1.531  -0.752  1.00  0.00    -0.292 OA
BRANCH  32  44
HETATM   44  O6  UNL     1      -2.566  -1.634   1.047  1.00  0.00    -0.327 OA
BRANCH  44  45
HETATM   45  C13 UNL     1      -2.576  -2.721   0.094  1.00  0.00     0.173 C 
HETATM   46  C14 UNL     1      -2.887  -4.000   0.767  1.00  0.00     0.034 C 
ENDBRANCH  44  45
ENDBRANCH  32  44
BRANCH  37  47
HETATM   47  O9  UNL     1      -4.056   0.355  -2.455  1.00  0.00    -0.368 OA
ATOM     48  H9  UNL     1      -3.533   0.792  -3.117  1.00  0.00     0.212 HD
ENDBRANCH  37  47
ENDBRANCH  30  31
ENDBRANCH   1  30
TORSDOF 15
