REMARK  5 active torsions:
REMARK  status: ('A' for Active; 'I' for Inactive)
REMARK    1  A    between atoms: N1_1  and  C1_5 
REMARK    2  A    between atoms: C1_5  and  N2_6 
REMARK    3  A    between atoms: N2_6  and  C2_8 
REMARK    4  A    between atoms: N3_9  and  O1_11 
REMARK    5  A    between atoms: O1_11  and  C3_12 
ROOT
HETATM    1  C2  UNL     1       1.284  -0.172   0.085  1.00  0.00     0.201 C 
HETATM    2  N3  UNL     1       0.189  -0.779   0.387  1.00  0.00    -0.262 N 
ATOM      3  H3  UNL     1       0.106  -1.787   0.256  1.00  0.00     0.195 HD
ENDROOT
BRANCH   1   4
HETATM    4  N2  UNL     1       2.360  -0.938  -0.430  1.00  0.00    -0.362 N 
ATOM      5  H2  UNL     1       2.209  -1.580  -1.208  1.00  0.00     0.161 HD
BRANCH   4   6
HETATM    6  C1  UNL     1       3.661  -0.802   0.152  1.00  0.00     0.352 C 
BRANCH   6   7
HETATM    7  N1  UNL     1       4.071   0.591   0.004  1.00  0.00    -0.064 N 
ATOM      8  H13 UNL     1       4.034   0.914  -0.963  1.00  0.00     0.276 HD
ATOM      9  H12 UNL     1       3.393   1.247   0.392  1.00  0.00     0.276 HD
ATOM     10  H11 UNL     1       4.998   0.688   0.419  1.00  0.00     0.276 HD
ENDBRANCH   6   7
ENDBRANCH   4   6
ENDBRANCH   1   4
BRANCH   2  11
HETATM   11  O1  UNL     1      -0.853  -0.065   0.881  1.00  0.00    -0.270 OA
BRANCH  11  12
HETATM   12  C3  UNL     1      -1.600   0.776  -0.003  1.00  0.00     0.175 A 
HETATM   13  C4  UNL     1      -2.595   1.434   0.315  1.00  0.00     0.003 A 
HETATM   14  C5  UNL     1      -3.339   1.386   0.329  1.00  0.00    -0.028 A 
HETATM   15  C6  UNL     1      -4.250   0.611   0.048  1.00  0.00     0.030 A 
HETATM   16  C7  UNL     1      -2.863  -0.465  -0.461  1.00  0.00     0.042 A 
ENDBRANCH  11  12
ENDBRANCH   2  11
TORSDOF 5
