REMARK  5 active torsions:
REMARK  status: ('A' for Active; 'I' for Inactive)
REMARK    1  A    between atoms: N1_1  and  C1_5 
REMARK    2  A    between atoms: C1_5  and  C2_6 
REMARK    3  A    between atoms: C2_6  and  C3_7 
REMARK    4  A    between atoms: C3_7  and  C4_8 
REMARK    5  A    between atoms: C4_8  and  C5_9 
ROOT
HETATM    1  C4  UNL     1       0.255  -1.441   0.386  1.00  0.00     0.076 C 
ENDROOT
BRANCH   1   2
HETATM    2  C3  UNL     1      -0.578  -0.594   1.319  1.00  0.00     0.009 C 
BRANCH   2   3
HETATM    3  C2  UNL     1      -1.294   0.506   0.574  1.00  0.00     0.027 C 
BRANCH   3   4
HETATM    4  C1  UNL     1      -2.231  -0.040  -0.475  1.00  0.00     0.229 C 
BRANCH   4   5
HETATM    5  N1  UNL     1      -2.886   1.044  -1.158  1.00  0.00    -0.079 N 
ATOM      6  H13 UNL     1      -3.361   1.673  -0.511  1.00  0.00     0.274 HD
ATOM      7  H12 UNL     1      -2.219   1.709  -1.549  1.00  0.00     0.274 HD
ATOM      8  H11 UNL     1      -3.519   0.675  -1.867  1.00  0.00     0.274 HD
ENDBRANCH   4   5
ENDBRANCH   3   4
ENDBRANCH   2   3
ENDBRANCH   1   2
BRANCH   1   9
HETATM    9  C5  UNL     1       1.298  -0.592  -0.295  1.00  0.00     0.080 A 
HETATM   10  N2  UNL     1       1.200   0.076  -1.457  1.00  0.00    -0.354 N 
HETATM   11  C6  UNL     1       2.323   0.727  -1.759  1.00  0.00     0.106 A 
ATOM     12  H2  UNL     1       0.363   0.084  -2.040  1.00  0.00     0.166 HD
HETATM   13  C7  UNL     1       3.183   0.449  -0.716  1.00  0.00     0.106 A 
HETATM   14  N3  UNL     1       2.549  -0.349   0.160  1.00  0.00    -0.354 N 
ATOM     15  H3  UNL     1       2.946  -0.712   1.026  1.00  0.00     0.166 HD
ENDBRANCH   1   9
TORSDOF 5
