REMARK  5 active torsions:
REMARK  status: ('A' for Active; 'I' for Inactive)
REMARK    1  A    between atoms: N1_2  and  C2_4 
REMARK    2  A    between atoms: C2_4  and  C3_5 
REMARK    3  A    between atoms: C3_5  and  C4_6 
REMARK    4  A    between atoms: C4_6  and  N2_7 
REMARK    5  A    between atoms: N2_7  and  C5_9 
ROOT
HETATM    1  N2  UNL     1       0.869  -1.015   0.365  1.00  0.00    -0.362 N 
ATOM      2  H2  UNL     1       0.623  -1.932   0.738  1.00  0.00     0.162 HD
ENDROOT
BRANCH   1   3
HETATM    3  C4  UNL     1      -0.165  -0.061   0.062  1.00  0.00     0.124 C 
BRANCH   3   4
HETATM    4  C3  UNL     1      -1.522  -0.407   0.557  1.00  0.00     0.039 C 
BRANCH   4   5
HETATM    5  C2  UNL     1      -2.447   0.767   0.128  1.00  0.00     0.115 C 
BRANCH   5   6
HETATM    6  N1  UNL     1      -3.759   0.661   0.597  1.00  0.00    -0.425 N 
HETATM    7  C1  UNL     1      -4.639  -0.322   0.126  1.00  0.00     0.139 C 
ATOM      8  H1  UNL     1      -4.086   1.320   1.304  1.00  0.00     0.152 HD
ENDBRANCH   5   6
ENDBRANCH   4   5
ENDBRANCH   3   4
ENDBRANCH   1   3
BRANCH   1   9
HETATM    9  C5  UNL     1       2.237  -0.680   0.144  1.00  0.00     0.171 C 
HETATM   10  N3  UNL     1       3.284  -1.443   0.183  1.00  0.00    -0.361 N 
HETATM   11  C6  UNL     1       4.490  -0.702  -0.095  1.00  0.00     0.142 C 
ATOM     12  H3  UNL     1       3.258  -2.442   0.385  1.00  0.00     0.162 HD
HETATM   13  C7  UNL     1       4.105   0.745  -0.194  1.00  0.00     0.142 C 
HETATM   14  N4  UNL     1       2.652   0.672  -0.172  1.00  0.00    -0.361 N 
ATOM     15  H4  UNL     1       2.022   1.453  -0.352  1.00  0.00     0.162 HD
ENDBRANCH   1   9
TORSDOF 5
