REMARK  5 active torsions:
REMARK  status: ('A' for Active; 'I' for Inactive)
REMARK    1  A    between atoms: N1_1  and  C1_5 
REMARK    2  A    between atoms: C1_5  and  C2_6 
REMARK    3  A    between atoms: C2_6  and  C3_7 
REMARK    4  A    between atoms: C3_7  and  C4_8 
REMARK    5  A    between atoms: C4_8  and  C5_9 
ROOT
HETATM    1  C4  UNL     1      -0.070   1.026   0.681  1.00  0.00     0.076 C 
ENDROOT
BRANCH   1   2
HETATM    2  C3  UNL     1      -1.037   0.050   1.232  1.00  0.00     0.009 C 
BRANCH   2   3
HETATM    3  C2  UNL     1      -1.611  -0.945   0.291  1.00  0.00     0.027 C 
BRANCH   3   4
HETATM    4  C1  UNL     1      -2.367  -0.301  -0.858  1.00  0.00     0.229 C 
BRANCH   4   5
HETATM    5  N1  UNL     1      -3.466   0.497  -0.314  1.00  0.00    -0.079 N 
ATOM      6  H13 UNL     1      -4.076  -0.046   0.297  1.00  0.00     0.274 HD
ATOM      7  H12 UNL     1      -3.148   1.180   0.374  1.00  0.00     0.274 HD
ATOM      8  H11 UNL     1      -3.974   0.930  -1.086  1.00  0.00     0.274 HD
ENDBRANCH   4   5
ENDBRANCH   3   4
ENDBRANCH   2   3
ENDBRANCH   1   2
BRANCH   1   9
HETATM    9  C5  UNL     1       1.152   0.409   0.115  1.00  0.00     0.072 C 
HETATM   10  N2  UNL     1       1.480  -0.822   0.141  1.00  0.00    -0.378 N 
HETATM   11  C6  UNL     1       2.733  -1.076  -0.502  1.00  0.00     0.140 C 
ATOM     12  H2  UNL     1       0.910  -1.549   0.574  1.00  0.00     0.160 HD
HETATM   13  C7  UNL     1       3.378   0.289  -0.545  1.00  0.00     0.140 C 
HETATM   14  N3  UNL     1       2.191   1.149  -0.559  1.00  0.00    -0.378 N 
ATOM     15  H3  UNL     1       2.115   2.082  -0.964  1.00  0.00     0.160 HD
ENDBRANCH   1   9
TORSDOF 5
