REMARK  5 active torsions:
REMARK  status: ('A' for Active; 'I' for Inactive)
REMARK    1  A    between atoms: N1_2  and  C2_4 
REMARK    2  A    between atoms: C2_4  and  C3_5 
REMARK    3  A    between atoms: C2_4  and  C5_12 
REMARK    4  A    between atoms: C3_5  and  N2_6 
REMARK    5  A    between atoms: C3_5  and  C4_10 
ROOT
HETATM    1  C2  UNL     1      -0.050   0.126  -0.021  1.00  0.00     0.117 C 
ENDROOT
BRANCH   1   2
HETATM    2  N1  UNL     1      -0.456   1.430  -0.242  1.00  0.00    -0.418 N 
HETATM    3  C1  UNL     1      -1.655   1.952   0.243  1.00  0.00     0.140 C 
ATOM      4  H1  UNL     1       0.152   2.041  -0.787  1.00  0.00     0.153 HD
ENDBRANCH   1   2
BRANCH   1   5
HETATM    5  C3  UNL     1      -0.845  -1.008  -0.574  1.00  0.00     0.266 C 
BRANCH   5   6
HETATM    6  N2  UNL     1      -0.201  -2.276  -0.212  1.00  0.00    -0.067 N 
ATOM      7  H23 UNL     1       0.776  -2.310  -0.504  1.00  0.00     0.275 HD
ATOM      8  H22 UNL     1      -0.055  -2.361   0.794  1.00  0.00     0.275 HD
ATOM      9  H21 UNL     1      -0.745  -3.052  -0.590  1.00  0.00     0.275 HD
ENDBRANCH   5   6
BRANCH   5  10
HETATM   10  C4  UNL     1      -2.210  -1.073  -0.015  1.00  0.00     0.266 C 
HETATM   11  O1  UNL     1      -2.597  -2.005   0.709  1.00  0.00    -0.305 OA
ENDBRANCH   5  10
ENDBRANCH   1   5
BRANCH   1  12
HETATM   12  C5  UNL     1       1.422   0.020  -0.469  1.00  0.00     0.010 A 
HETATM   13  C6  UNL     1       2.409   0.925   0.251  1.00  0.00     0.007 A 
HETATM   14  C7  UNL     1       2.429  -0.590   0.403  1.00  0.00     0.007 A 
ENDBRANCH   1  12
TORSDOF 5
