REMARK  8 active torsions:
REMARK  status: ('A' for Active; 'I' for Inactive)
REMARK       I    between atoms: C1_2  and  N1_3 
REMARK    1  A    between atoms: C1_2  and  C13_20 
REMARK    2  A    between atoms: N1_3  and  C2_5 
REMARK    3  A    between atoms: C2_5  and  C3_6 
REMARK    4  A    between atoms: N2_11  and  S1_12 
REMARK    5  A    between atoms: S1_12  and  C8_15 
REMARK    6  A    between atoms: N3_25  and  C18_26 
REMARK    7  A    between atoms: C18_26  and  O4_27 
REMARK    8  A    between atoms: C18_26  and  C19_29 
ROOT
HETATM    1  O1  UNL     1      -1.795  -0.661   1.210  1.00  0.00    -0.271 OA
HETATM    2  C1  UNL     1      -1.988   0.459   0.688  1.00  0.00     0.240 C 
HETATM    3  N1  UNL     1      -0.956   1.414   0.599  1.00  0.00    -0.357 N 
ATOM      4  H1  UNL     1      -1.190   2.308   0.166  1.00  0.00     0.162 HD
ENDROOT
BRANCH   3   5
HETATM    5  C2  UNL     1       0.399   1.247   1.062  1.00  0.00     0.148 C 
BRANCH   5   6
HETATM    6  C3  UNL     1       1.109   0.157   0.347  1.00  0.00     0.113 C 
HETATM    7  C4  UNL     1       1.229   0.349  -1.131  1.00  0.00     0.028 C 
HETATM    8  C5  UNL     1       1.483  -1.034  -1.727  1.00  0.00     0.004 C 
HETATM    9  C6  UNL     1       1.656  -2.098  -0.695  1.00  0.00     0.021 C 
HETATM   10  C7  UNL     1       2.584  -1.652   0.414  1.00  0.00     0.135 C 
HETATM   11  N2  UNL     1       2.331  -0.318   0.890  1.00  0.00    -0.304 N 
BRANCH  11  12
HETATM   12  S1  UNL     1       3.607   0.670   1.172  1.00  0.00     0.233 S 
HETATM   13  O2  UNL     1       3.914   0.622   2.679  1.00  0.00    -0.205 OA
HETATM   14  O3  UNL     1       3.253   2.148   0.965  1.00  0.00    -0.205 OA
BRANCH  12  15
HETATM   15  C8  UNL     1       5.137   0.470   0.382  1.00  0.00     0.129 C 
HETATM   16  C9  UNL     1       5.188   0.604  -1.093  1.00  0.00     0.022 C 
HETATM   17  C10 UNL     1       6.418  -0.189  -1.525  1.00  0.00     0.001 C 
HETATM   18  C11 UNL     1       6.613  -1.241  -0.461  1.00  0.00     0.001 C 
HETATM   19  C12 UNL     1       5.961  -0.721   0.797  1.00  0.00     0.022 C 
ENDBRANCH  12  15
ENDBRANCH  11  12
ENDBRANCH   5   6
ENDBRANCH   3   5
BRANCH   2  20
HETATM   20  C13 UNL     1      -3.345   0.801   0.143  1.00  0.00     0.178 C 
HETATM   21  C14 UNL     1      -3.188   0.986  -1.382  1.00  0.00     0.035 C 
HETATM   22  C15 UNL     1      -4.480   0.585  -2.038  1.00  0.00     0.004 C 
HETATM   23  C16 UNL     1      -4.543  -0.941  -1.999  1.00  0.00     0.020 C 
HETATM   24  C17 UNL     1      -4.024  -1.417  -0.654  1.00  0.00     0.125 C 
HETATM   25  N3  UNL     1      -4.221  -0.322   0.341  1.00  0.00    -0.352 N 
BRANCH  25  26
HETATM   26  C18 UNL     1      -5.210  -0.522   1.305  1.00  0.00     0.118 C 
BRANCH  26  27
HETATM   27  O4  UNL     1      -5.816  -1.677   1.207  1.00  0.00    -0.349 OA
ATOM     28  H4  UNL     1      -6.489  -1.813   1.863  1.00  0.00     0.219 HD
ENDBRANCH  26  27
BRANCH  26  29
HETATM   29  C19 UNL     1      -5.678   0.325   2.391  1.00  0.00     0.060 A 
HETATM   30  C20 UNL     1      -6.085   1.732   2.005  1.00  0.00     0.013 A 
HETATM   31  C21 UNL     1      -4.984   1.458   3.003  1.00  0.00     0.013 A 
ENDBRANCH  26  29
ENDBRANCH  25  26
ENDBRANCH   2  20
TORSDOF 8
