REMARK  10 active torsions:
REMARK  status: ('A' for Active; 'I' for Inactive)
REMARK    1  A    between atoms: C2_3  and  C3_4 
REMARK    2  A    between atoms: C3_4  and  C4_5 
REMARK    3  A    between atoms: C10_12  and  C11_13 
REMARK    4  A    between atoms: C11_13  and  C12_14 
REMARK    5  A    between atoms: C12_14  and  C13_15 
REMARK    6  A    between atoms: C13_15  and  C14_16 
REMARK    7  A    between atoms: C17_21  and  O3_22 
REMARK    8  A    between atoms: N2_24  and  C18_25 
REMARK    9  A    between atoms: C18_25  and  C19_26 
REMARK   10  A    between atoms: C22_29  and  N3_30 
ROOT
HETATM    1  O1  UNL     1       3.115  -0.792   0.713  1.00  0.00    -0.267 OA
HETATM    2  C1  UNL     1       1.935  -1.094   0.428  1.00  0.00     0.258 A 
HETATM    3  C2  UNL     1       1.718  -2.295  -0.209  1.00  0.00     0.035 A 
HETATM    4  C8  UNL     1       0.395  -2.582  -0.501  1.00  0.00     0.019 A 
HETATM    5  C9  UNL     1      -0.650  -1.707  -0.169  1.00  0.00     0.031 A 
HETATM    6  C10 UNL     1      -0.362  -0.519   0.469  1.00  0.00     0.037 A 
HETATM    7  N2  UNL     1       0.957  -0.232   0.760  1.00  0.00    -0.308 N 
ENDROOT
BRANCH   6   8
HETATM    8  C11 UNL     1      -1.279   0.323   0.801  1.00  0.00     0.030 C 
BRANCH   8   9
HETATM    9  C12 UNL     1      -2.689   0.396   0.687  1.00  0.00     0.003 C 
BRANCH   9  10
HETATM   10  C13 UNL     1      -3.606  -0.368   0.197  1.00  0.00     0.016 C 
BRANCH  10  11
HETATM   11  C14 UNL     1      -5.033   0.076   0.271  1.00  0.00     0.016 A 
HETATM   12  C15 UNL     1      -5.521   1.234   0.810  1.00  0.00     0.033 A 
HETATM   13  C16 UNL     1      -6.910   1.257   0.672  1.00  0.00     0.091 A 
HETATM   14  N1  UNL     1      -7.244   0.120   0.055  1.00  0.00    -0.346 N 
HETATM   15  C17 UNL     1      -6.137  -0.612  -0.200  1.00  0.00     0.150 A 
ATOM     16  H1  UNL     1      -8.196  -0.155  -0.188  1.00  0.00     0.167 HD
BRANCH  15  17
HETATM   17  O3  UNL     1      -6.094  -1.857  -0.832  1.00  0.00    -0.345 OA
ATOM     18  H3  UNL     1      -6.852  -2.329  -1.155  1.00  0.00     0.219 HD
ENDBRANCH  15  17
ENDBRANCH  10  11
ENDBRANCH   9  10
ENDBRANCH   8   9
ENDBRANCH   6   8
BRANCH   7  19
HETATM   19  C18 UNL     1       1.369   0.980   1.414  1.00  0.00     0.197 C 
BRANCH  19  20
HETATM   20  C19 UNL     1       1.648   2.110   0.479  1.00  0.00     0.074 A 
HETATM   21  C20 UNL     1       2.929   2.395  -0.000  1.00  0.00     0.039 A 
HETATM   22  C21 UNL     1       2.777   3.488  -0.821  1.00  0.00     0.065 A 
HETATM   23  C22 UNL     1       1.436   3.844  -0.827  1.00  0.00     0.215 A 
HETATM   24  O6  UNL     1       0.834   2.990  -0.042  1.00  0.00    -0.291 OA
BRANCH  23  25
HETATM   25  N3  UNL     1       0.858   4.930  -1.556  1.00  0.00    -0.090 N 
HETATM   26  O4  UNL     1       1.558   5.661  -2.266  1.00  0.00    -0.530 OA
HETATM   27  O5  UNL     1      -0.480   5.158  -1.465  1.00  0.00    -0.530 OA
ENDBRANCH  23  25
ENDBRANCH  19  20
ENDBRANCH   7  19
BRANCH   3  28
HETATM   28  C3  UNL     1       2.683  -3.128  -0.529  1.00  0.00     0.054 C 
BRANCH  28  29
HETATM   29  C4  UNL     1       4.097  -2.930  -0.272  1.00  0.00     0.075 A 
HETATM   30  C5  UNL     1       4.940  -2.359  -1.218  1.00  0.00     0.039 A 
HETATM   31  C6  UNL     1       6.200  -2.318  -0.666  1.00  0.00     0.027 A 
HETATM   32  C7  UNL     1       6.062  -2.865   0.587  1.00  0.00     0.142 A 
HETATM   33  O2  UNL     1       4.824  -3.199   0.756  1.00  0.00    -0.323 OA
ENDBRANCH  28  29
ENDBRANCH   3  28
TORSDOF 10
