REMARK  7 active torsions:
REMARK  status: ('A' for Active; 'I' for Inactive)
REMARK       I    between atoms: C1_2  and  N1_3 
REMARK       I    between atoms: C1_2  and  N4_17 
REMARK    1  A    between atoms: N1_3  and  N2_5 
REMARK    2  A    between atoms: C2_7  and  C3_8 
REMARK    3  A    between atoms: C6_11  and  N3_12 
REMARK    4  A    between atoms: N4_17  and  S1_19 
REMARK    5  A    between atoms: S1_19  and  C9_22 
REMARK    6  A    between atoms: C12_25  and  N5_26 
REMARK    7  A    between atoms: C13_28  and  C14_29 
ROOT
HETATM    1  O1  UNL     1      -1.860   1.732   0.022  1.00  0.00    -0.245 OA
HETATM    2  C1  UNL     1      -1.454   0.886   0.846  1.00  0.00     0.348 C 
HETATM    3  N1  UNL     1      -2.380   0.045   1.489  1.00  0.00    -0.251 N 
ATOM      4  H1  UNL     1      -2.032  -0.640   2.160  1.00  0.00     0.191 HD
HETATM    5  N4  UNL     1      -0.085   0.787   1.122  1.00  0.00    -0.231 N 
ATOM      6  H4  UNL     1       0.178   0.070   1.798  1.00  0.00     0.183 HD
ENDROOT
BRANCH   5   7
HETATM    7  S1  UNL     1       1.196   1.700   0.483  1.00  0.00     0.266 S 
HETATM    8  O4  UNL     1       0.692   2.563  -0.632  1.00  0.00    -0.200 OA
HETATM    9  O5  UNL     1       1.737   2.605   1.587  1.00  0.00    -0.200 OA
BRANCH   7  10
HETATM   10  C9  UNL     1       2.499   0.705  -0.136  1.00  0.00     0.080 A 
HETATM   11  C10 UNL     1       2.672   0.433  -1.472  1.00  0.00     0.027 A 
HETATM   12  C11 UNL     1       3.714  -0.359  -1.932  1.00  0.00     0.031 A 
HETATM   13  C12 UNL     1       4.636  -0.918  -1.062  1.00  0.00     0.031 A 
HETATM   14  C17 UNL     1       4.465  -0.648   0.283  1.00  0.00     0.031 A 
HETATM   15  C18 UNL     1       3.425   0.142   0.737  1.00  0.00     0.027 A 
BRANCH  13  16
HETATM   16  N5  UNL     1       5.708  -1.720  -1.501  1.00  0.00    -0.369 N 
HETATM   17  C13 UNL     1       6.902  -1.328  -1.700  1.00  0.00     0.066 C 
ATOM     18  H5  UNL     1       5.509  -2.705  -1.675  1.00  0.00     0.165 HD
BRANCH  17  19
HETATM   19  C14 UNL     1       7.324   0.052  -1.491  1.00  0.00     0.024 A 
HETATM   20  C15 UNL     1       8.715   0.374  -1.066  1.00  0.00     0.010 A 
HETATM   21  C16 UNL     1       7.629   0.457  -0.047  1.00  0.00     0.010 A 
ENDBRANCH  17  19
ENDBRANCH  13  16
ENDBRANCH   7  10
ENDBRANCH   5   7
BRANCH   3  22
HETATM   22  N2  UNL     1      -3.731   0.106   1.254  1.00  0.00    -0.307 N 
HETATM   23  C2  UNL     1      -4.481  -0.872   0.886  1.00  0.00     0.118 C 
ATOM     24  H2  UNL     1      -4.182   1.012   1.383  1.00  0.00     0.186 HD
BRANCH  23  25
HETATM   25  C3  UNL     1      -5.913  -0.625   0.678  1.00  0.00    -0.019 A 
HETATM   26  C4  UNL     1      -6.393   0.684   0.798  1.00  0.00     0.015 A 
HETATM   27  C5  UNL     1      -7.726   0.990   0.635  1.00  0.00     0.037 A 
HETATM   28  C6  UNL     1      -8.588  -0.072   0.343  1.00  0.00     0.102 A 
HETATM   29  C7  UNL     1      -8.109  -1.360   0.226  1.00  0.00     0.037 A 
HETATM   30  C8  UNL     1      -6.756  -1.656   0.392  1.00  0.00     0.015 A 
BRANCH  28  31
HETATM   31  N3  UNL     1      -9.960   0.208   0.178  1.00  0.00    -0.116 N 
HETATM   32  O2  UNL     1     -10.757  -0.714  -0.019  1.00  0.00    -0.532 OA
HETATM   33  O3  UNL     1     -10.411   1.490   0.249  1.00  0.00    -0.532 OA
ENDBRANCH  28  31
ENDBRANCH  23  25
ENDBRANCH   3  22
TORSDOF 7
