REMARK  9 active torsions:
REMARK  status: ('A' for Active; 'I' for Inactive)
REMARK    1  A    between atoms: C3_4  and  C4_5 
REMARK    2  A    between atoms: C4_5  and  O1_6 
REMARK    3  A    between atoms: O1_6  and  C5_7 
REMARK    4  A    between atoms: C5_7  and  C6_8 
REMARK    5  A    between atoms: C6_8  and  C7_9 
REMARK    6  A    between atoms: C7_9  and  C8_10 
REMARK    7  A    between atoms: C8_10  and  C9_11 
REMARK    8  A    between atoms: C9_11  and  C10_12 
REMARK    9  A    between atoms: C10_12  and  N2_13 
ROOT
HETATM    1  N1  UNL     1       3.387   2.612  -3.700  1.00  0.00    -0.182 NA
HETATM    2  C1  UNL     1       3.802   2.193  -2.717  1.00  0.00     0.152 C 
HETATM    3  C2  UNL     1       4.290   1.688  -1.503  1.00  0.00     0.015 C 
HETATM    4  C3  UNL     1       4.696   1.269  -0.454  1.00  0.00    -0.064 C 
ENDROOT
BRANCH   4   5
HETATM    5  C4  UNL     1       5.177   0.757   0.852  1.00  0.00     0.271 C 
BRANCH   5   6
HETATM    6  O1  UNL     1       4.213  -0.111   1.371  1.00  0.00    -0.327 OA
BRANCH   6   7
HETATM    7  C5  UNL     1       3.856  -1.281   0.614  1.00  0.00     0.127 C 
HETATM    8  N5  UNL     1       4.625  -1.500  -0.352  1.00  0.00    -0.277 N 
HETATM    9  C19 UNL     1       4.692  -2.445  -1.310  1.00  0.00     0.183 C 
ATOM     10  H5  UNL     1       5.368  -0.806  -0.430  1.00  0.00     0.180 HD
HETATM   11  N6  UNL     1       4.777  -3.245  -2.142  1.00  0.00    -0.172 NA
BRANCH   7  12
HETATM   12  C6  UNL     1       2.679  -2.027   1.073  1.00  0.00     0.085 C 
BRANCH  12  13
HETATM   13  C7  UNL     1       1.831  -2.664   0.030  1.00  0.00     0.008 C 
BRANCH  13  14
HETATM   14  C8  UNL     1       1.211  -1.727  -0.953  1.00  0.00     0.002 C 
BRANCH  14  15
HETATM   15  C9  UNL     1       0.292  -0.712  -0.305  1.00  0.00     0.020 C 
BRANCH  15  16
HETATM   16  C10 UNL     1      -0.861  -1.327   0.431  1.00  0.00     0.132 C 
BRANCH  16  17
HETATM   17  N2  UNL     1      -1.656  -0.253   0.984  1.00  0.00    -0.322 N 
HETATM   18  C11 UNL     1      -1.488   0.291   2.196  1.00  0.00     0.179 A 
HETATM   19  S1  UNL     1      -0.382  -0.108   3.325  1.00  0.00    -0.040 SA
HETATM   20  N3  UNL     1      -2.427   1.251   2.314  1.00  0.00    -0.331 N 
HETATM   21  C12 UNL     1      -3.186   1.315   1.181  1.00  0.00     0.063 A 
ATOM     22  H3  UNL     1      -2.553   1.845   3.133  1.00  0.00     0.168 HD
HETATM   23  C13 UNL     1      -4.237   2.109   0.827  1.00  0.00     0.063 A 
HETATM   24  C18 UNL     1      -2.675   0.346   0.348  1.00  0.00     0.065 A 
HETATM   25  C14 UNL     1      -4.863   1.980  -0.421  1.00  0.00     0.055 A 
HETATM   26  N4  UNL     1      -5.881   2.695  -0.857  1.00  0.00    -0.316 N 
HETATM   27  C16 UNL     1      -4.359   1.021  -1.248  1.00  0.00     0.039 A 
HETATM   28  C15 UNL     1      -6.354   2.438  -2.075  1.00  0.00     0.289 A 
ATOM     29  H4  UNL     1      -6.295   3.425  -0.277  1.00  0.00     0.170 HD
HETATM   30  O2  UNL     1      -7.333   3.025  -2.666  1.00  0.00    -0.260 OA
HETATM   31  S2  UNL     1      -5.358   1.171  -2.626  1.00  0.00    -0.027 SA
HETATM   32  C17 UNL     1      -3.276   0.205  -0.880  1.00  0.00     0.053 A 
ENDBRANCH  16  17
ENDBRANCH  15  16
ENDBRANCH  14  15
ENDBRANCH  13  14
ENDBRANCH  12  13
ENDBRANCH   7  12
ENDBRANCH   6   7
ENDBRANCH   5   6
ENDBRANCH   4   5
TORSDOF 9
