REMARK  8 active torsions:
REMARK  status: ('A' for Active; 'I' for Inactive)
REMARK    1  A    between atoms: C2_2  and  C3_3 
REMARK    2  A    between atoms: C4_4  and  O1_5 
REMARK    3  A    between atoms: N2_12  and  S1_14 
REMARK    4  A    between atoms: S1_14  and  C8_17 
REMARK    5  A    between atoms: C11_20  and  N3_21 
REMARK    6  A    between atoms: N4_23  and  N5_25 
REMARK       I    between atoms: N5_25  and  C12_26 
REMARK       I    between atoms: N5_25  and  C14_29 
REMARK    7  A    between atoms: C14_29  and  O6_31 
REMARK    8  A    between atoms: O6_31  and  C15_32 
ROOT
HETATM    1  C8  UNL     1      -0.699   0.065  -0.533  1.00  0.00     0.080 A 
HETATM    2  C9  UNL     1      -0.059   1.230  -0.214  1.00  0.00     0.027 A 
HETATM    3  C10 UNL     1       0.864   1.249   0.809  1.00  0.00     0.032 A 
HETATM    4  C11 UNL     1       1.171   0.097   1.542  1.00  0.00     0.049 A 
HETATM    5  C17 UNL     1       0.496  -1.071   1.185  1.00  0.00     0.032 A 
HETATM    6  C18 UNL     1      -0.428  -1.084   0.159  1.00  0.00     0.027 A 
ENDROOT
BRANCH   1   7
HETATM    7  S1  UNL     1      -1.858   0.050  -1.835  1.00  0.00     0.264 S 
HETATM    8  O2  UNL     1      -1.871  -1.269  -2.564  1.00  0.00    -0.200 OA
HETATM    9  O3  UNL     1      -1.469   1.100  -2.868  1.00  0.00    -0.200 OA
BRANCH   7  10
HETATM   10  N2  UNL     1      -3.385   0.477  -1.238  1.00  0.00    -0.265 N 
HETATM   11  C7  UNL     1      -4.287  -0.203  -0.672  1.00  0.00     0.127 A 
HETATM   12  C3  UNL     1      -5.453   0.474  -0.297  1.00  0.00     0.041 A 
HETATM   13  N1  UNL     1      -4.156  -1.512  -0.453  1.00  0.00    -0.351 N 
HETATM   14  C4  UNL     1      -6.451  -0.277   0.306  1.00  0.00     0.081 A 
HETATM   15  C5  UNL     1      -6.273  -1.646   0.516  1.00  0.00     0.054 A 
HETATM   16  C6  UNL     1      -5.108  -2.256   0.127  1.00  0.00     0.092 A 
ATOM     17  H1  UNL     1      -3.290  -1.969  -0.741  1.00  0.00     0.166 HD
ATOM     18  H2  UNL     1      -3.619   1.463  -1.357  1.00  0.00     0.180 HD
BRANCH  12  19
HETATM   19  C2  UNL     1      -5.633   1.877  -0.550  1.00  0.00     0.008 C 
HETATM   20  C1  UNL     1      -4.754   2.826  -0.648  1.00  0.00     0.012 C 
ENDBRANCH  12  19
BRANCH  14  21
HETATM   21  O1  UNL     1      -7.644   0.283   0.719  1.00  0.00    -0.360 OA
ATOM     22  H1  UNL     1      -8.328  -0.231   1.132  1.00  0.00     0.217 HD
ENDBRANCH  14  21
ENDBRANCH   7  10
ENDBRANCH   1   7
BRANCH   4  23
HETATM   23  N3  UNL     1       2.097   0.160   2.571  1.00  0.00    -0.286 N 
HETATM   24  N4  UNL     1       3.276  -0.141   2.528  1.00  0.00    -0.228 N 
ATOM     25  H4  UNL     1       3.829  -0.035   3.379  1.00  0.00     0.209 HD
ATOM     26  H3  UNL     1       1.751   0.498   3.469  1.00  0.00     0.188 HD
BRANCH  24  27
HETATM   27  N5  UNL     1       3.919  -0.623   1.383  1.00  0.00    -0.151 N 
HETATM   28  C12 UNL     1       4.013  -2.008   1.110  1.00  0.00     0.244 C 
HETATM   29  C13 UNL     1       4.673  -2.530  -0.101  1.00  0.00     0.119 C 
HETATM   30  O4  UNL     1       3.525  -2.875   1.908  1.00  0.00    -0.272 OA
HETATM   31  C14 UNL     1       4.492   0.353   0.537  1.00  0.00     0.390 C 
HETATM   32  O5  UNL     1       4.446   1.603   0.794  1.00  0.00    -0.236 OA
BRANCH  31  33
HETATM   33  O6  UNL     1       5.141   0.014  -0.628  1.00  0.00    -0.303 OA
BRANCH  33  34
HETATM   34  C15 UNL     1       5.703   1.023  -1.448  1.00  0.00     0.176 C 
HETATM   35  C16 UNL     1       6.741   1.793  -0.666  1.00  0.00     0.034 C 
ENDBRANCH  33  34
ENDBRANCH  31  33
ENDBRANCH  24  27
ENDBRANCH   4  23
TORSDOF 8
