REMARK  7 active torsions:
REMARK  status: ('A' for Active; 'I' for Inactive)
REMARK    1  A    between atoms: C2_3  and  C3_4 
REMARK    2  A    between atoms: C3_4  and  C4_5 
REMARK    3  A    between atoms: C4_5  and  C5_6 
REMARK    4  A    between atoms: C5_6  and  C6_7 
REMARK    5  A    between atoms: C6_7  and  N2_8 
REMARK    6  A    between atoms: N3_11  and  C8_12 
REMARK    7  A    between atoms: C10_14  and  N4_15 
ROOT
HETATM    1  N1  UNL     1       7.441   0.711  -0.842  1.00  0.00    -0.197 NA
HETATM    2  C1  UNL     1       6.596   1.065  -0.157  1.00  0.00     0.059 C 
HETATM    3  C2  UNL     1       5.511   1.510   0.689  1.00  0.00     0.124 C 
ENDROOT
BRANCH   3   4
HETATM    4  C3  UNL     1       4.262   0.676   0.501  1.00  0.00     0.014 C 
BRANCH   4   5
HETATM    5  C4  UNL     1       3.214   1.231   1.426  1.00  0.00     0.002 C 
BRANCH   5   6
HETATM    6  C5  UNL     1       1.890   0.507   1.365  1.00  0.00     0.020 C 
BRANCH   6   7
HETATM    7  C6  UNL     1       1.261   0.532   0.020  1.00  0.00     0.134 C 
BRANCH   7   8
HETATM    8  N2  UNL     1      -0.011  -0.085  -0.102  1.00  0.00    -0.295 N 
HETATM    9  C7  UNL     1      -1.120   0.690   0.094  1.00  0.00     0.337 A 
HETATM   10  O1  UNL     1      -0.928   1.920   0.384  1.00  0.00    -0.246 OA
HETATM   11  N3  UNL     1      -2.339   0.170  -0.018  1.00  0.00    -0.222 N 
HETATM   12  C13 UNL     1      -2.591  -1.107  -0.319  1.00  0.00     0.292 A 
HETATM   13  O5  UNL     1      -3.758  -1.585  -0.421  1.00  0.00    -0.264 OA
HETATM   14  C14 UNL     1      -1.488  -1.915  -0.521  1.00  0.00     0.172 A 
HETATM   15  O6  UNL     1      -1.456  -3.184  -0.822  1.00  0.00    -0.302 OA
HETATM   16  C21 UNL     1      -0.209  -1.378  -0.406  1.00  0.00     0.091 A 
HETATM   17  C15 UNL     1      -0.194  -3.526  -0.914  1.00  0.00     0.089 A 
HETATM   18  C16 UNL     1       0.331  -4.780  -1.215  1.00  0.00     0.038 A 
HETATM   19  C20 UNL     1       0.634  -2.453  -0.667  1.00  0.00     0.028 A 
HETATM   20  C17 UNL     1       1.700  -4.879  -1.248  1.00  0.00     0.003 A 
HETATM   21  C18 UNL     1       2.528  -3.818  -1.002  1.00  0.00     0.001 A 
HETATM   22  C19 UNL     1       2.003  -2.553  -0.699  1.00  0.00     0.017 A 
BRANCH  11  23
HETATM   23  C8  UNL     1      -3.460   1.014   0.194  1.00  0.00     0.117 A 
HETATM   24  C9  UNL     1      -3.983   1.764  -0.839  1.00  0.00     0.073 A 
HETATM   25  C10 UNL     1      -5.083   2.589  -0.616  1.00  0.00     0.120 A 
HETATM   26  C11 UNL     1      -5.630   2.639   0.643  1.00  0.00     0.127 A 
HETATM   27  N5  UNL     1      -5.118   1.901   1.670  1.00  0.00    -0.329 N 
HETATM   28  C12 UNL     1      -4.048   1.103   1.437  1.00  0.00     0.273 A 
ATOM     29  H5  UNL     1      -5.535   1.949   2.600  1.00  0.00     0.168 HD
HETATM   30  O4  UNL     1      -3.560   0.415   2.369  1.00  0.00    -0.266 OA
BRANCH  25  31
HETATM   31  N4  UNL     1      -5.604   3.351  -1.697  1.00  0.00    -0.114 N 
HETATM   32  O2  UNL     1      -5.094   3.292  -2.833  1.00  0.00    -0.532 OA
HETATM   33  O3  UNL     1      -6.686   4.174  -1.515  1.00  0.00    -0.532 OA
ENDBRANCH  25  31
ENDBRANCH  11  23
ENDBRANCH   7   8
ENDBRANCH   6   7
ENDBRANCH   5   6
ENDBRANCH   4   5
ENDBRANCH   3   4
TORSDOF 7
