REMARK  8 active torsions:
REMARK  status: ('A' for Active; 'I' for Inactive)
REMARK    1  A    between atoms: C2_2  and  N1_3 
REMARK    2  A    between atoms: N1_3  and  C3_4 
REMARK       I    between atoms: N1_3  and  C7_13 
REMARK    3  A    between atoms: C3_4  and  C4_5 
REMARK    4  A    between atoms: C7_13  and  C8_15 
REMARK    5  A    between atoms: C8_15  and  S1_16 
REMARK    6  A    between atoms: S1_16  and  C9_17 
REMARK    7  A    between atoms: C10_22  and  C11_23 
REMARK    8  A    between atoms: N6_31  and  N7_32 
ROOT
HETATM    1  C9  UNL     1      -0.076  -0.609   0.953  1.00  0.00     0.182 A 
HETATM    2  N4  UNL     1       0.071   0.623   1.470  1.00  0.00    -0.277 N 
ATOM      3  H4  UNL     1       0.944   1.022   1.815  1.00  0.00     0.189 HD
HETATM    4  N5  UNL     1      -1.111   1.236   1.457  1.00  0.00    -0.285 N 
ATOM      5  H5  UNL     1      -1.291   2.183   1.792  1.00  0.00     0.188 HD
HETATM    6  C10 UNL     1      -2.035   0.402   0.929  1.00  0.00     0.124 A 
HETATM    7  N6  UNL     1      -1.385  -0.724   0.626  1.00  0.00    -0.225 N 
ENDROOT
BRANCH   1   8
HETATM    8  S1  UNL     1       1.127  -1.903   0.704  1.00  0.00    -0.081 SA
BRANCH   8   9
HETATM    9  C8  UNL     1       2.757  -1.371   1.259  1.00  0.00     0.185 C 
BRANCH   9  10
HETATM   10  C7  UNL     1       3.216  -0.274   0.354  1.00  0.00     0.229 C 
HETATM   11  N1  UNL     1       3.950  -0.575  -0.823  1.00  0.00    -0.344 N 
HETATM   12  O2  UNL     1       2.945   0.904   0.647  1.00  0.00    -0.273 OA
BRANCH  11  13
HETATM   13  C2  UNL     1       4.254  -1.959  -1.140  1.00  0.00     0.122 C 
HETATM   14  C1  UNL     1       5.550  -2.415  -0.559  1.00  0.00     0.026 C 
ENDBRANCH  11  13
BRANCH  11  15
HETATM   15  C3  UNL     1       4.368   0.520  -1.670  1.00  0.00     0.212 C 
BRANCH  15  16
HETATM   16  C4  UNL     1       5.721   0.979  -1.212  1.00  0.00     0.166 A 
HETATM   17  N2  UNL     1       6.048   1.926  -0.324  1.00  0.00    -0.326 N 
HETATM   18  C5  UNL     1       7.383   2.014  -0.212  1.00  0.00     0.100 A 
ATOM     19  H2  UNL     1       5.380   2.498   0.193  1.00  0.00     0.169 HD
HETATM   20  C6  UNL     1       8.114   2.939   0.665  1.00  0.00     0.091 C 
HETATM   21  N3  UNL     1       7.865   1.082  -1.068  1.00  0.00    -0.247 N 
HETATM   22  O1  UNL     1       6.874   0.485  -1.646  1.00  0.00    -0.221 OA
ATOM     23  H3  UNL     1       8.852   0.883  -1.231  1.00  0.00     0.196 HD
ENDBRANCH  15  16
ENDBRANCH  11  15
ENDBRANCH   9  10
ENDBRANCH   8   9
ENDBRANCH   1   8
BRANCH   7  24
HETATM   24  N7  UNL     1      -1.981  -1.844   0.056  1.00  0.00    -0.335 N 
ATOM     25  H72 UNL     1      -1.484  -2.704  -0.176  1.00  0.00     0.177 HD
ATOM     26  H71 UNL     1      -2.967  -1.931  -0.190  1.00  0.00     0.177 HD
ENDBRANCH   7  24
BRANCH   6  27
HETATM   27  C11 UNL     1      -3.454   0.742   0.758  1.00  0.00     0.057 C 
HETATM   28  C12 UNL     1      -3.833   0.796  -0.687  1.00  0.00     0.012 C 
HETATM   29  C13 UNL     1      -4.749  -0.277  -1.165  1.00  0.00     0.001 C 
HETATM   30  C14 UNL     1      -6.109   0.237  -1.575  1.00  0.00     0.000 C 
HETATM   31  C15 UNL     1      -6.974   0.669  -0.444  1.00  0.00     0.000 C 
HETATM   32  C16 UNL     1      -6.760  -0.140   0.831  1.00  0.00     0.000 C 
HETATM   33  C17 UNL     1      -5.722   0.556   1.645  1.00  0.00     0.001 C 
HETATM   34  C18 UNL     1      -4.361  -0.101   1.622  1.00  0.00     0.012 C 
ENDBRANCH   6  27
TORSDOF 8
