REMARK  12 active torsions:
REMARK  status: ('A' for Active; 'I' for Inactive)
REMARK    1  A    between atoms: C2_2  and  O1_3 
REMARK    2  A    between atoms: O1_3  and  C3_4 
REMARK    3  A    between atoms: C3_4  and  C4_6 
REMARK    4  A    between atoms: C5_7  and  O3_8 
REMARK    5  A    between atoms: C7_12  and  N1_13 
REMARK    6  A    between atoms: N1_13  and  C8_15 
REMARK    7  A    between atoms: C8_15  and  C9_16 
REMARK    8  A    between atoms: C8_15  and  N2_20 
REMARK    9  A    between atoms: C9_16  and  C10_17 
REMARK   10  A    between atoms: C14_23  and  C15_24 
REMARK   11  A    between atoms: C15_24  and  O6_26 
REMARK   12  A    between atoms: O6_26  and  C16_27 
ROOT
HETATM    1  C8  UNL     1       0.955  -0.752   0.102  1.00  0.00     0.093 C 
ENDROOT
BRANCH   1   2
HETATM    2  N1  UNL     1       1.593  -0.885  -1.003  1.00  0.00    -0.339 N 
ATOM      3  H1  UNL     1       1.265  -0.304  -1.774  1.00  0.00     0.168 HD
BRANCH   2   4
HETATM    4  C7  UNL     1       2.690  -1.729  -1.297  1.00  0.00     0.094 A 
HETATM    5  C4  UNL     1       4.044  -1.441  -1.101  1.00  0.00     0.106 A 
HETATM    6  C5  UNL     1       4.915  -2.396  -1.478  1.00  0.00     0.091 A 
HETATM    7  C6  UNL     1       4.404  -3.544  -2.013  1.00  0.00     0.089 A 
HETATM    8  S1  UNL     1       2.733  -3.290  -1.986  1.00  0.00    -0.080 SA
BRANCH   5   9
HETATM    9  C3  UNL     1       4.481  -0.137  -0.516  1.00  0.00     0.298 C 
HETATM   10  O2  UNL     1       5.693   0.126  -0.351  1.00  0.00    -0.259 OA
BRANCH   9  11
HETATM   11  O1  UNL     1       3.592   0.827  -0.134  1.00  0.00    -0.318 OA
BRANCH  11  12
HETATM   12  C2  UNL     1       3.957   2.072   0.423  1.00  0.00     0.174 C 
HETATM   13  C1  UNL     1       2.783   2.926   0.760  1.00  0.00     0.034 C 
ENDBRANCH  11  12
ENDBRANCH   9  11
ENDBRANCH   5   9
BRANCH   6  14
HETATM   14  O3  UNL     1       6.335  -2.240  -1.336  1.00  0.00    -0.359 OA
ATOM     15  H3  UNL     1       6.950  -2.914  -1.602  1.00  0.00     0.217 HD
ENDBRANCH   6  14
ENDBRANCH   2   4
ENDBRANCH   1   2
BRANCH   1  16
HETATM   16  C9  UNL     1       1.278  -1.504   1.324  1.00  0.00     0.154 C 
BRANCH  16  17
HETATM   17  C10 UNL     1       0.337  -2.551   1.719  1.00  0.00     0.130 C 
HETATM   18  C11 UNL     1       0.324  -3.869   0.984  1.00  0.00     0.091 C 
HETATM   19  O4  UNL     1      -0.481  -2.477   2.618  1.00  0.00    -0.298 OA
ENDBRANCH  16  17
ENDBRANCH   1  16
BRANCH   1  20
HETATM   20  N2  UNL     1      -0.131   0.162   0.076  1.00  0.00    -0.307 N 
HETATM   21  C12 UNL     1      -0.870   0.604   1.226  1.00  0.00     0.134 C 
HETATM   22  C13 UNL     1      -2.345   0.336   0.904  1.00  0.00     0.035 C 
HETATM   23  C14 UNL     1      -2.732   1.335  -0.154  1.00  0.00     0.096 C 
HETATM   24  C18 UNL     1      -1.903   1.288  -1.395  1.00  0.00     0.118 C 
HETATM   25  C19 UNL     1      -0.537   0.770  -1.174  1.00  0.00     0.226 C 
HETATM   26  O7  UNL     1       0.300   0.859  -2.105  1.00  0.00    -0.273 OA
BRANCH  23  27
HETATM   27  C15 UNL     1      -4.158   1.138  -0.506  1.00  0.00     0.263 C 
HETATM   28  O5  UNL     1      -4.843   0.331   0.145  1.00  0.00    -0.265 OA
BRANCH  27  29
HETATM   29  O6  UNL     1      -4.735   1.841  -1.547  1.00  0.00    -0.322 OA
BRANCH  29  30
HETATM   30  C16 UNL     1      -6.085   1.687  -1.909  1.00  0.00     0.174 C 
HETATM   31  C17 UNL     1      -6.985   2.088  -0.755  1.00  0.00     0.034 C 
ENDBRANCH  29  30
ENDBRANCH  27  29
ENDBRANCH  23  27
ENDBRANCH   1  20
TORSDOF 12
