REMARK  7 active torsions:
REMARK  status: ('A' for Active; 'I' for Inactive)
REMARK    1  A    between atoms: N1_2  and  C1_4 
REMARK    2  A    between atoms: C4_7  and  C5_8 
REMARK    3  A    between atoms: N2_9  and  N3_11 
REMARK    4  A    between atoms: C6_12  and  O3_13 
REMARK    5  A    between atoms: C7_15  and  C8_16 
REMARK    6  A    between atoms: N4_23  and  O4_24 
REMARK    7  A    between atoms: C14_26  and  C15_27 
ROOT
HETATM    1  N3  UNL     1      -0.042   0.385   0.196  1.00  0.00    -0.211 N 
HETATM    2  C6  UNL     1      -0.931  -0.625   0.374  1.00  0.00     0.194 A 
HETATM    3  C7  UNL     1      -2.220  -0.212   0.063  1.00  0.00     0.127 A 
HETATM    4  N4  UNL     1      -2.042   1.071  -0.300  1.00  0.00    -0.198 N 
HETATM    5  C14 UNL     1      -0.728   1.436  -0.221  1.00  0.00     0.191 A 
ENDROOT
BRANCH   1   6
HETATM    6  N2  UNL     1       1.353   0.359   0.405  1.00  0.00    -0.299 N 
HETATM    7  C5  UNL     1       2.020  -0.557  -0.209  1.00  0.00     0.145 C 
ATOM      8  H2  UNL     1       1.813   1.035   1.015  1.00  0.00     0.186 HD
BRANCH   7   9
HETATM    9  C4  UNL     1       3.470  -0.679  -0.068  1.00  0.00     0.095 A 
HETATM   10  C3  UNL     1       4.240   0.146   0.711  1.00  0.00     0.043 A 
HETATM   11  C2  UNL     1       5.535  -0.287   0.581  1.00  0.00     0.065 A 
HETATM   12  C1  UNL     1       5.516  -1.365  -0.274  1.00  0.00     0.215 A 
HETATM   13  O6  UNL     1       4.272  -1.549  -0.623  1.00  0.00    -0.287 OA
BRANCH  12  14
HETATM   14  N1  UNL     1       6.665  -2.095  -0.662  1.00  0.00    -0.090 N 
HETATM   15  O1  UNL     1       6.597  -3.065  -1.439  1.00  0.00    -0.530 OA
HETATM   16  O2  UNL     1       7.905  -1.757  -0.191  1.00  0.00    -0.530 OA
ENDBRANCH  12  14
ENDBRANCH   7   9
ENDBRANCH   1   6
BRANCH   2  17
HETATM   17  O3  UNL     1      -0.484  -1.847   0.809  1.00  0.00    -0.343 OA
ATOM     18  H3  UNL     1      -1.106  -2.554   0.934  1.00  0.00     0.219 HD
ENDBRANCH   2  17
BRANCH   5  19
HETATM   19  C15 UNL     1      -0.181   2.759  -0.544  1.00  0.00     0.123 A 
HETATM   20  C16 UNL     1       0.493   3.069  -1.701  1.00  0.00     0.043 A 
HETATM   21  C17 UNL     1       0.842   4.420  -1.616  1.00  0.00     0.027 A 
HETATM   22  C18 UNL     1       0.350   4.836  -0.403  1.00  0.00     0.142 A 
HETATM   23  O5  UNL     1      -0.253   3.825   0.212  1.00  0.00    -0.319 OA
ENDBRANCH   5  19
BRANCH   3  24
HETATM   24  C8  UNL     1      -3.426  -0.986   0.124  1.00  0.00    -0.002 A 
HETATM   25  C9  UNL     1      -3.464  -2.305   0.519  1.00  0.00     0.017 A 
HETATM   26  C10 UNL     1      -4.616  -3.071   0.585  1.00  0.00     0.043 A 
HETATM   27  C11 UNL     1      -5.813  -2.498   0.239  1.00  0.00     0.116 A 
HETATM   28  F1  UNL     1      -6.947  -3.237   0.300  1.00  0.00    -0.206 F 
HETATM   29  C12 UNL     1      -5.828  -1.179  -0.163  1.00  0.00     0.043 A 
HETATM   30  C13 UNL     1      -4.644  -0.444  -0.216  1.00  0.00     0.017 A 
ENDBRANCH   3  24
BRANCH   4  31
HETATM   31  O4  UNL     1      -2.965   1.980  -0.709  1.00  0.00    -0.281 OA
ATOM     32  H4  UNL     1      -2.839   2.886  -0.965  1.00  0.00     0.245 HD
ENDBRANCH   4  31
TORSDOF 7
