REMARK  5 active torsions:
REMARK  status: ('A' for Active; 'I' for Inactive)
REMARK    1  A    between atoms: N1_2  and  C1_4 
REMARK    2  A    between atoms: C5_8  and  N2_9 
REMARK    3  A    between atoms: C6_12  and  N3_13 
REMARK    4  A    between atoms: N3_13  and  N4_15 
REMARK    5  A    between atoms: C7_17  and  C8_18 
ROOT
HETATM    1  N3  UNL     1       1.323  -0.793   0.281  1.00  0.00    -0.296 N 
ATOM      2  H3  UNL     1       1.466  -1.783   0.479  1.00  0.00     0.187 HD
ENDROOT
BRANCH   1   3
HETATM    3  C6  UNL     1       2.459   0.013   0.074  1.00  0.00     0.114 A 
HETATM    4  C1  UNL     1       3.217  -0.100  -1.069  1.00  0.00     0.133 A 
HETATM    5  C2  UNL     1       4.352   0.706  -1.276  1.00  0.00     0.038 A 
HETATM    6  C3  UNL     1       4.688   1.615  -0.307  1.00  0.00     0.005 A 
HETATM    7  C4  UNL     1       3.933   1.730   0.832  1.00  0.00     0.038 A 
HETATM    8  C5  UNL     1       2.814   0.945   1.053  1.00  0.00     0.133 A 
BRANCH   4   9
HETATM    9  N1  UNL     1       2.904  -1.020  -2.095  1.00  0.00    -0.113 N 
HETATM   10  O1  UNL     1       3.228  -0.826  -3.295  1.00  0.00    -0.532 OA
HETATM   11  O2  UNL     1       2.214  -2.166  -1.791  1.00  0.00    -0.532 OA
ENDBRANCH   4   9
BRANCH   8  12
HETATM   12  N2  UNL     1       2.047   1.070   2.224  1.00  0.00    -0.113 N 
HETATM   13  O3  UNL     1       2.024   2.200   2.766  1.00  0.00    -0.532 OA
HETATM   14  O4  UNL     1       1.368   0.019   2.737  1.00  0.00    -0.532 OA
ENDBRANCH   8  12
ENDBRANCH   1   3
BRANCH   1  15
HETATM   15  N4  UNL     1       0.022  -0.319   0.232  1.00  0.00    -0.310 N 
HETATM   16  C7  UNL     1      -1.024  -1.053   0.108  1.00  0.00     0.119 C 
ATOM     17  H4  UNL     1      -0.115   0.689   0.300  1.00  0.00     0.186 HD
BRANCH  16  18
HETATM   18  C8  UNL     1      -2.367  -0.441   0.077  1.00  0.00    -0.005 A 
HETATM   19  C9  UNL     1      -2.461   0.940   0.227  1.00  0.00     0.015 A 
HETATM   20  C10 UNL     1      -3.697   1.537   0.236  1.00  0.00     0.022 A 
HETATM   21  C11 UNL     1      -4.836   0.762   0.094  1.00  0.00     0.040 A 
HETATM   22 BR1  UNL     1      -6.549   1.577   0.117  1.00  0.00    -0.049 Br
HETATM   23  C12 UNL     1      -4.744  -0.606  -0.056  1.00  0.00     0.085 A 
HETATM   24  N5  UNL     1      -5.648  -1.619  -0.208  1.00  0.00    -0.260 N 
HETATM   25  C14 UNL     1      -3.488  -1.188  -0.062  1.00  0.00     0.030 A 
HETATM   26  O5  UNL     1      -4.974  -2.742  -0.302  1.00  0.00    -0.249 OA
ATOM     27  H5  UNL     1      -6.663  -1.521  -0.242  1.00  0.00     0.195 HD
HETATM   28  C13 UNL     1      -3.694  -2.519  -0.219  1.00  0.00     0.182 A 
ENDBRANCH  16  18
ENDBRANCH   1  15
TORSDOF 5
