REMARK  6 active torsions:
REMARK  status: ('A' for Active; 'I' for Inactive)
REMARK    1  A    between atoms: N1_2  and  N3_5 
REMARK       I    between atoms: N3_5  and  C3_6 
REMARK    2  A    between atoms: C3_6  and  C4_8 
REMARK    3  A    between atoms: N6_12  and  C5_13 
REMARK    4  A    between atoms: C11_21  and  N7_22 
REMARK    5  A    between atoms: N7_22  and  N8_24 
REMARK    6  A    between atoms: C12_26  and  C13_27 
ROOT
HETATM    1  C1  UNL     1      -2.821  -5.082   0.227  1.00  0.00     0.206 C 
HETATM    2  N1  UNL     1      -3.215  -3.871  -0.518  1.00  0.00    -0.162 N 
HETATM    3  C2  UNL     1      -4.603  -3.738  -0.869  1.00  0.00     0.211 C 
HETATM    4  N2  UNL     1      -5.718  -3.593  -1.131  1.00  0.00    -0.169 NA
ENDROOT
BRANCH   2   5
HETATM    5  N3  UNL     1      -2.378  -2.890  -0.843  1.00  0.00    -0.268 NA
HETATM    6  C3  UNL     1      -1.526  -1.895  -1.176  1.00  0.00     0.368 C 
HETATM    7  O1  UNL     1      -0.685  -1.813  -2.049  1.00  0.00    -0.247 OA
BRANCH   6   8
HETATM    8  C4  UNL     1      -1.695  -0.647  -0.267  1.00  0.00     0.178 A 
HETATM    9  N4  UNL     1      -2.649  -0.381   0.559  1.00  0.00    -0.274 N 
HETATM   10  N5  UNL     1      -2.534   0.845   1.037  1.00  0.00    -0.013 NA
ATOM     11  H4  UNL     1      -3.394  -1.031   0.810  1.00  0.00     0.184 HD
HETATM   12  N6  UNL     1      -1.414   1.411   0.483  1.00  0.00    -0.220 N 
HETATM   13  C11 UNL     1      -0.896   0.467  -0.324  1.00  0.00     0.175 A 
BRANCH  12  14
HETATM   14  C5  UNL     1      -1.074   2.750   0.753  1.00  0.00     0.058 A 
HETATM   15  C6  UNL     1      -1.626   3.722  -0.131  1.00  0.00     0.034 A 
HETATM   16  C7  UNL     1      -1.449   5.062   0.022  1.00  0.00     0.046 A 
HETATM   17  C8  UNL     1      -0.695   5.526   1.083  1.00  0.00     0.138 A 
HETATM   18  F1  UNL     1      -0.539   6.870   1.200  1.00  0.00    -0.204 F 
HETATM   19  C9  UNL     1      -0.132   4.619   1.967  1.00  0.00     0.074 A 
HETATM   20 CL1  UNL     1       0.790   5.222   3.300  1.00  0.00    -0.081 Cl
HETATM   21  C10 UNL     1      -0.333   3.242   1.785  1.00  0.00     0.058 A 
ENDBRANCH  12  14
BRANCH  13  22
HETATM   22  N7  UNL     1       0.283   0.605  -1.086  1.00  0.00    -0.282 N 
ATOM     23  H7  UNL     1       0.136   1.046  -1.994  1.00  0.00     0.188 HD
BRANCH  22  24
HETATM   24  N8  UNL     1       1.563   0.268  -0.848  1.00  0.00    -0.309 N 
HETATM   25  C12 UNL     1       2.214  -0.711  -0.445  1.00  0.00     0.127 C 
ATOM     26  H8  UNL     1       2.184   1.048  -1.062  1.00  0.00     0.186 HD
BRANCH  25  27
HETATM   27  C13 UNL     1       3.696  -0.637  -0.343  1.00  0.00     0.045 A 
HETATM   28  S1  UNL     1       4.646   0.778  -0.735  1.00  0.00    -0.097 SA
HETATM   29  C14 UNL     1       6.209   0.096  -0.358  1.00  0.00     0.076 A 
HETATM   30  C15 UNL     1       5.912  -1.139   0.042  1.00  0.00     0.063 A 
HETATM   31 CL2  UNL     1       7.224  -2.265   0.554  1.00  0.00    -0.082 Cl
HETATM   32  C16 UNL     1       4.601  -1.520   0.048  1.00  0.00     0.074 A 
HETATM   33 CL3  UNL     1       4.099  -3.187   0.548  1.00  0.00    -0.081 Cl
ENDBRANCH  25  27
ENDBRANCH  22  24
ENDBRANCH  13  22
ENDBRANCH   6   8
ENDBRANCH   2   5
TORSDOF 6
