REMARK  7 active torsions:
REMARK  status: ('A' for Active; 'I' for Inactive)
REMARK    1  A    between atoms: C2_2  and  O1_3 
REMARK    2  A    between atoms: O1_3  and  C3_4 
REMARK    3  A    between atoms: C3_4  and  C4_6 
REMARK    4  A    between atoms: C5_9  and  C6_10 
REMARK    5  A    between atoms: C6_10  and  S1_11 
REMARK    6  A    between atoms: S1_11  and  C7_12 
REMARK    7  A    between atoms: N4_19  and  C9_20 
ROOT
HETATM    1  C7  UNL     1       1.802  -0.357   1.067  1.00  0.00     0.170 A 
HETATM    2  N2  UNL     1       0.914  -0.030   1.996  1.00  0.00    -0.275 N 
ATOM      3  H2  UNL     1       0.034  -0.521   2.156  1.00  0.00     0.189 HD
HETATM    4  N3  UNL     1       1.322   1.012   2.681  1.00  0.00    -0.249 N 
ATOM      5  H3  UNL     1       0.831   1.467   3.451  1.00  0.00     0.192 HD
HETATM    6  C8  UNL     1       2.507   1.360   2.172  1.00  0.00     0.348 A 
HETATM    7  O3  UNL     1       3.219   2.324   2.570  1.00  0.00    -0.245 OA
HETATM    8  N4  UNL     1       2.826   0.515   1.159  1.00  0.00    -0.236 N 
ENDROOT
BRANCH   1   9
HETATM    9  S1  UNL     1       1.764  -1.676  -0.136  1.00  0.00    -0.084 SA
BRANCH   9  10
HETATM   10  C6  UNL     1       0.269  -2.665  -0.002  1.00  0.00     0.167 C 
BRANCH  10  11
HETATM   11  C5  UNL     1      -0.920  -1.865  -0.364  1.00  0.00     0.136 A 
HETATM   12  N1  UNL     1      -1.697  -1.118   0.450  1.00  0.00    -0.331 N 
HETATM   13  C4  UNL     1      -2.671  -0.553  -0.272  1.00  0.00     0.159 A 
ATOM     14  H1  UNL     1      -1.563  -1.003   1.455  1.00  0.00     0.168 HD
HETATM   15  C15 UNL     1      -2.448  -0.993  -1.565  1.00  0.00     0.192 A 
HETATM   16  O4  UNL     1      -1.406  -1.763  -1.571  1.00  0.00    -0.280 OA
HETATM   17  N5  UNL     1      -3.249  -0.641  -2.686  1.00  0.00    -0.072 NA
BRANCH  13  18
HETATM   18  C3  UNL     1      -3.745   0.331   0.156  1.00  0.00     0.314 C 
HETATM   19  O2  UNL     1      -3.861   0.671   1.353  1.00  0.00    -0.257 OA
BRANCH  18  20
HETATM   20  O1  UNL     1      -4.669   0.822  -0.749  1.00  0.00    -0.317 OA
BRANCH  20  21
HETATM   21  C2  UNL     1      -5.731   1.684  -0.381  1.00  0.00     0.175 C 
HETATM   22  C1  UNL     1      -6.575   0.938   0.633  1.00  0.00     0.034 C 
ENDBRANCH  20  21
ENDBRANCH  18  20
ENDBRANCH  13  18
ENDBRANCH  10  11
ENDBRANCH   9  10
ENDBRANCH   1   9
BRANCH   8  23
HETATM   23  C9  UNL     1       4.022   0.580   0.379  1.00  0.00     0.108 A 
HETATM   24  C10 UNL     1       4.199   1.488  -0.643  1.00  0.00     0.066 A 
HETATM   25 CL1  UNL     1       2.918   2.623  -1.022  1.00  0.00    -0.082 Cl
HETATM   26  C11 UNL     1       5.377   1.515  -1.374  1.00  0.00     0.052 A 
HETATM   27  C12 UNL     1       6.416   0.644  -1.117  1.00  0.00     0.060 A 
HETATM   28 CL2  UNL     1       7.903   0.697  -2.059  1.00  0.00    -0.082 Cl
HETATM   29  C13 UNL     1       6.241  -0.266  -0.095  1.00  0.00     0.096 A 
HETATM   30 CL3  UNL     1       7.532  -1.399   0.277  1.00  0.00    -0.079 Cl
HETATM   31  C14 UNL     1       5.068  -0.290   0.631  1.00  0.00     0.168 A 
HETATM   32  F1  UNL     1       4.875  -1.184   1.648  1.00  0.00    -0.202 F 
ENDBRANCH   8  23
TORSDOF 7
