REMARK  7 active torsions:
REMARK  status: ('A' for Active; 'I' for Inactive)
REMARK    1  A    between atoms: C2_2  and  O1_3 
REMARK    2  A    between atoms: O1_3  and  C3_4 
REMARK    3  A    between atoms: C3_4  and  C4_6 
REMARK    4  A    between atoms: C6_8  and  N1_9 
REMARK    5  A    between atoms: N1_9  and  S1_11 
REMARK    6  A    between atoms: S1_11  and  C7_14 
REMARK    7  A    between atoms: C10_20  and  N3_21 
ROOT
HETATM    1  N1  UNL     1      -1.038  -1.148   1.512  1.00  0.00    -0.279 N 
ATOM      2  H1  UNL     1      -1.260  -2.033   1.969  1.00  0.00     0.179 HD
ENDROOT
BRANCH   1   3
HETATM    3  C6  UNL     1       0.027  -1.127   0.577  1.00  0.00     0.065 A 
HETATM    4  C5  UNL     1       0.951  -0.108   0.487  1.00  0.00     0.051 A 
HETATM    5  C4  UNL     1       1.973  -0.156  -0.440  1.00  0.00     0.063 A 
HETATM    6  C13 UNL     1       2.057  -1.243  -1.281  1.00  0.00     0.052 A 
HETATM    7  C12 UNL     1       1.147  -2.287  -1.222  1.00  0.00     0.051 A 
HETATM    8 CL3  UNL     1       3.367  -1.296  -2.467  1.00  0.00    -0.083 Cl
HETATM    9  C11 UNL     1       0.133  -2.223  -0.289  1.00  0.00     0.063 A 
HETATM   10 CL2  UNL     1      -1.046  -3.512  -0.177  1.00  0.00    -0.082 Cl
BRANCH   5  11
HETATM   11  C3  UNL     1       2.974   0.911  -0.561  1.00  0.00     0.295 C 
HETATM   12  O2  UNL     1       2.694   2.117  -0.743  1.00  0.00    -0.259 OA
BRANCH  11  13
HETATM   13  O1  UNL     1       4.334   0.573  -0.467  1.00  0.00    -0.318 OA
BRANCH  13  14
HETATM   14  C2  UNL     1       5.372   1.517  -0.567  1.00  0.00     0.174 C 
HETATM   15  C1  UNL     1       6.680   0.736  -0.410  1.00  0.00     0.034 C 
ENDBRANCH  13  14
ENDBRANCH  11  13
ENDBRANCH   5  11
ENDBRANCH   1   3
BRANCH   1  16
HETATM   16  S1  UNL     1      -1.967   0.218   1.915  1.00  0.00     0.268 S 
HETATM   17  O3  UNL     1      -1.956   0.500   3.373  1.00  0.00    -0.200 OA
HETATM   18  O4  UNL     1      -1.419   1.455   1.214  1.00  0.00    -0.200 OA
BRANCH  16  19
HETATM   19  C7  UNL     1      -3.676   0.016   1.435  1.00  0.00     0.143 A 
HETATM   20  C8  UNL     1      -4.580  -0.543   2.308  1.00  0.00     0.102 A 
HETATM   21 CL1  UNL     1      -4.267  -1.132   3.955  1.00  0.00    -0.074 Cl
HETATM   22  S2  UNL     1      -6.038  -0.523   1.427  1.00  0.00    -0.059 SA
HETATM   23  C9  UNL     1      -5.477   0.185  -0.013  1.00  0.00     0.123 A 
HETATM   24  N2  UNL     1      -6.243   0.487  -1.200  1.00  0.00    -0.092 NA
HETATM   25  C10 UNL     1      -4.144   0.391   0.235  1.00  0.00     0.159 A 
BRANCH  25  26
HETATM   26  N3  UNL     1      -3.341   1.002  -0.817  1.00  0.00    -0.111 N 
HETATM   27  O5  UNL     1      -2.588   0.271  -1.467  1.00  0.00    -0.532 OA
HETATM   28  O6  UNL     1      -3.420   2.339  -1.091  1.00  0.00    -0.532 OA
ENDBRANCH  25  26
ENDBRANCH  16  19
ENDBRANCH   1  16
TORSDOF 7
