REMARK  6 active torsions:
REMARK  status: ('A' for Active; 'I' for Inactive)
REMARK    1  A    between atoms: C1_4  and  C2_5 
REMARK    2  A    between atoms: C1_4  and  C7_16 
REMARK    3  A    between atoms: C3_6  and  C4_8 
REMARK    4  A    between atoms: N4_18  and  C9_19 
REMARK    5  A    between atoms: C9_19  and  C10_20 
REMARK    6  A    between atoms: N5_22  and  C12_23 
ROOT
HETATM    1  C7  UNL     1      -1.881   1.512   1.405  1.00  0.00     0.089 A 
HETATM    2  C8  UNL     1      -1.265   0.279   1.454  1.00  0.00     0.141 A 
HETATM    3  N4  UNL     1      -0.057   0.401   2.063  1.00  0.00    -0.279 N 
HETATM    4  N8  UNL     1       0.050   1.680   2.372  1.00  0.00    -0.020 NA
HETATM    5  N9  UNL     1      -1.019   2.358   1.992  1.00  0.00    -0.281 N 
ATOM      6  H9  UNL     1      -1.165   3.359   2.123  1.00  0.00     0.184 HD
ENDROOT
BRANCH   3   7
HETATM    7  C9  UNL     1       0.892  -0.674   2.305  1.00  0.00     0.206 C 
BRANCH   7   8
HETATM    8  C10 UNL     1       1.837  -0.843   1.195  1.00  0.00     0.064 A 
HETATM    9  C11 UNL     1       3.075  -0.249   0.991  1.00  0.00     0.146 A 
HETATM   10  N5  UNL     1       3.603  -0.691  -0.161  1.00  0.00    -0.250 N 
HETATM   11  N6  UNL     1       2.730  -1.533  -0.666  1.00  0.00    -0.236 N 
HETATM   12  N7  UNL     1       1.662  -1.642   0.127  1.00  0.00    -0.287 N 
ATOM     13  H6  UNL     1       2.852  -2.035  -1.545  1.00  0.00     0.209 HD
ATOM     14  H7  UNL     1       0.849  -2.233  -0.048  1.00  0.00     0.188 HD
BRANCH  10  15
HETATM   15  C12 UNL     1       4.857  -0.321  -0.722  1.00  0.00     0.080 A 
HETATM   16  C13 UNL     1       5.095   0.989  -1.143  1.00  0.00     0.033 A 
HETATM   17  C14 UNL     1       6.317   1.329  -1.684  1.00  0.00     0.004 A 
HETATM   18  C15 UNL     1       7.339   0.414  -1.832  1.00  0.00     0.026 A 
HETATM   19  C16 UNL     1       7.116  -0.876  -1.421  1.00  0.00     0.058 A 
HETATM   20 CL3  UNL     1       8.402  -2.055  -1.601  1.00  0.00    -0.082 Cl
HETATM   21  C17 UNL     1       5.892  -1.212  -0.881  1.00  0.00     0.084 A 
HETATM   22 CL4  UNL     1       5.611  -2.875  -0.354  1.00  0.00    -0.080 Cl
ENDBRANCH  10  15
ENDBRANCH   7   8
ENDBRANCH   3   7
BRANCH   1  23
HETATM   23  C1  UNL     1      -3.183   1.788   0.832  1.00  0.00     0.057 C 
HETATM   24  N1  UNL     1      -3.620   2.986   0.862  1.00  0.00    -0.397 N 
ATOM     25  H12 UNL     1      -4.536   3.180   0.459  1.00  0.00     0.156 HD
ATOM     26  H11 UNL     1      -3.057   3.725   1.283  1.00  0.00     0.156 HD
BRANCH  23  27
HETATM   27  C2  UNL     1      -3.984   0.738   0.233  1.00  0.00     0.057 C 
HETATM   28  C3  UNL     1      -5.163   0.894  -0.306  1.00  0.00     0.064 C 
HETATM   29 CL1  UNL     1      -5.902   2.468  -0.346  1.00  0.00    -0.082 Cl
BRANCH  28  30
HETATM   30  C4  UNL     1      -5.875  -0.229  -0.876  1.00  0.00     0.072 A 
HETATM   31  C5  UNL     1      -7.118  -0.258  -1.482  1.00  0.00     0.121 A 
HETATM   32  N2  UNL     1      -7.404  -1.512  -1.873  1.00  0.00    -0.340 N 
HETATM   33  C6  UNL     1      -6.357  -2.270  -1.520  1.00  0.00     0.179 A 
ATOM     34  H2  UNL     1      -8.252  -1.825  -2.346  1.00  0.00     0.167 HD
HETATM   35 CL2  UNL     1      -6.280  -3.994  -1.830  1.00  0.00    -0.045 Cl
HETATM   36  N3  UNL     1      -5.439  -1.501  -0.921  1.00  0.00    -0.330 N 
ATOM     37  H3  UNL     1      -4.545  -1.829  -0.555  1.00  0.00     0.168 HD
ENDBRANCH  28  30
ENDBRANCH  23  27
ENDBRANCH   1  23
TORSDOF 6
