REMARK  8 active torsions:
REMARK  status: ('A' for Active; 'I' for Inactive)
REMARK    1  A    between atoms: O1_1  and  N1_3 
REMARK    2  A    between atoms: N1_3  and  C1_5 
REMARK    3  A    between atoms: C2_6  and  O2_7 
REMARK    4  A    between atoms: C3_11  and  C4_12 
REMARK    5  A    between atoms: C10_23  and  C11_25 
REMARK    6  A    between atoms: C19_35  and  C20_36 
REMARK    7  A    between atoms: C20_36  and  C21_37 
REMARK    8  A    between atoms: C21_37  and  O3_38 
ROOT
HETATM    1  C4  UNL     1      -0.838   1.443  -0.000  1.00  0.00    -0.006 C 
HETATM    2  C5  UNL     1      -0.365   0.958  -1.261  1.00  0.00     0.058 C 
HETATM    3  C6  UNL     1       1.007   1.243  -1.469  1.00  0.00     0.144 C 
HETATM    4  F1  UNL     1       1.130   2.359  -2.456  1.00  0.00    -0.204 F 
HETATM    5  C7  UNL     1       2.190   0.440  -1.277  1.00  0.00     0.109 C 
HETATM    6  N3  UNL     1       3.275   1.343  -1.518  1.00  0.00    -0.298 N 
ATOM      7  H3  UNL     1       3.896   1.526  -2.306  1.00  0.00     0.187 HD
HETATM    8  N4  UNL     1       3.121   1.916  -0.119  1.00  0.00    -0.304 N 
ATOM      9  H4  UNL     1       3.595   2.761   0.199  1.00  0.00     0.186 HD
HETATM   10  C8  UNL     1       2.248   1.152   0.699  1.00  0.00     0.029 C 
HETATM   11  C9  UNL     1       1.637  -0.015   0.678  1.00  0.00     0.114 C 
HETATM   12  C10 UNL     1       2.136  -0.776  -0.731  1.00  0.00     0.182 C 
HETATM   13  F2  UNL     1       1.299  -1.766  -0.869  1.00  0.00    -0.230 F 
HETATM   14  C17 UNL     1       1.249   2.193   1.405  1.00  0.00     0.027 C 
HETATM   15  C18 UNL     1      -0.016   2.164   0.970  1.00  0.00     0.016 C 
ENDROOT
BRANCH   1  16
HETATM   16  C3  UNL     1      -2.255   1.189   0.302  1.00  0.00     0.057 A 
HETATM   17  N2  UNL     1      -2.899   2.249   0.977  1.00  0.00    -0.334 N 
HETATM   18  C2  UNL     1      -4.153   1.938   1.256  1.00  0.00     0.170 A 
ATOM     19  H2  UNL     1      -2.456   3.136   1.217  1.00  0.00     0.168 HD
HETATM   20  C1  UNL     1      -4.348   0.672   0.772  1.00  0.00     0.117 A 
HETATM   21  C19 UNL     1      -3.159   0.198   0.174  1.00  0.00     0.049 A 
BRANCH  18  22
HETATM   22  O2  UNL     1      -5.064   2.755   1.910  1.00  0.00    -0.344 OA
ATOM     23  H2  UNL     1      -4.929   3.633   2.246  1.00  0.00     0.219 HD
ENDBRANCH  18  22
BRANCH  20  24
HETATM   24  N1  UNL     1      -5.557  -0.035   0.945  1.00  0.00    -0.264 N 
ATOM     25  H1  UNL     1      -5.566  -1.047   0.821  1.00  0.00     0.194 HD
BRANCH  24  26
HETATM   26  O1  UNL     1      -6.607   0.550   1.244  1.00  0.00    -0.289 OA
ATOM     27  H1  UNL     1      -7.421   0.074   1.360  1.00  0.00     0.244 HD
ENDBRANCH  24  26
ENDBRANCH  20  24
BRANCH  21  28
HETATM   28  C20 UNL     1      -3.062  -1.115  -0.456  1.00  0.00     0.210 A 
HETATM   29  O4  UNL     1      -1.789  -1.598  -0.885  1.00  0.00    -0.289 OA
HETATM   30  C22 UNL     1      -2.421  -2.279   0.148  1.00  0.00     0.303 A 
HETATM   31  O5  UNL     1      -2.345  -3.244   0.955  1.00  0.00    -0.261 OA
BRANCH  28  32
HETATM   32  C21 UNL     1      -4.083  -1.444  -1.579  1.00  0.00     0.218 C 
BRANCH  32  33
HETATM   33  O3  UNL     1      -5.349  -1.097  -1.438  1.00  0.00    -0.397 OA
ATOM     34  H3  UNL     1      -5.974  -1.298  -2.125  1.00  0.00     0.209 HD
ENDBRANCH  32  33
ENDBRANCH  28  32
ENDBRANCH  21  28
ENDBRANCH   1  16
BRANCH  12  35
HETATM   35  C11 UNL     1       3.517  -1.251  -0.310  1.00  0.00    -0.009 A 
HETATM   36  C12 UNL     1       3.748  -1.770   0.943  1.00  0.00     0.014 A 
HETATM   37  C13 UNL     1       4.990  -2.220   1.334  1.00  0.00     0.046 A 
HETATM   38  C14 UNL     1       6.058  -2.160   0.456  1.00  0.00     0.154 A 
HETATM   39  F3  UNL     1       7.279  -2.610   0.861  1.00  0.00    -0.203 F 
HETATM   40  C15 UNL     1       5.843  -1.645  -0.797  1.00  0.00     0.155 A 
HETATM   41  F4  UNL     1       6.835  -1.556  -1.699  1.00  0.00    -0.203 F 
HETATM   42  C16 UNL     1       4.576  -1.189  -1.185  1.00  0.00     0.056 A 
ENDBRANCH  12  35
TORSDOF 8
