REMARK  8 active torsions:
REMARK  status: ('A' for Active; 'I' for Inactive)
REMARK    1  A    between atoms: C3_4  and  C4_5 
REMARK    2  A    between atoms: C4_5  and  O2_7 
REMARK    3  A    between atoms: O2_7  and  N2_8 
REMARK    4  A    between atoms: C5_9  and  N3_10 
REMARK    5  A    between atoms: N3_10  and  C7_12 
REMARK    6  A    between atoms: C7_12  and  C8_13 
REMARK    7  A    between atoms: C9_14  and  C10_15 
REMARK    8  A    between atoms: C9_14  and  C15_23 
ROOT
HETATM    1  N2  UNL     1      -1.621  -1.420   0.698  1.00  0.00    -0.050 N 
HETATM    2  C5  UNL     1      -0.838  -1.949  -0.338  1.00  0.00     0.707 A 
HETATM    3  N4  UNL     1      -1.130  -3.178  -0.765  1.00  0.00    -0.162 N 
ATOM      4  H4  UNL     1      -0.594  -3.587  -1.530  1.00  0.00     0.187 HD
HETATM    5  C16 UNL     1      -2.170  -3.917  -0.171  1.00  0.00     0.204 A 
HETATM    6  N5  UNL     1      -2.491  -5.221  -0.657  1.00  0.00    -0.063 NA
HETATM    7  N6  UNL     1      -2.836  -3.453   0.790  1.00  0.00    -0.336 N 
ATOM      8  H6  UNL     1      -3.583  -4.038   1.165  1.00  0.00     0.164 HD
HETATM    9  C17 UNL     1      -2.640  -2.203   1.389  1.00  0.00     0.144 A 
HETATM   10  C18 UNL     1      -3.904  -1.464   1.707  1.00  0.00     0.066 C 
HETATM   11  C19 UNL     1      -1.992  -2.447   2.802  1.00  0.00     0.066 C 
ENDROOT
BRANCH   2  12
HETATM   12  N3  UNL     1       0.259  -1.326  -0.912  1.00  0.00    -0.217 N 
HETATM   13  C6  UNL     1       1.162  -2.223  -1.724  1.00  0.00     0.169 C 
BRANCH  12  14
HETATM   14  C7  UNL     1       0.735   0.009  -0.897  1.00  0.00     0.169 C 
BRANCH  14  15
HETATM   15  C8  UNL     1       2.019   0.198  -1.641  1.00  0.00     0.007 C 
HETATM   16  C9  UNL     1       3.178   0.610  -1.294  1.00  0.00     0.018 C 
BRANCH  16  17
HETATM   17  C10 UNL     1       3.677   1.054   0.026  1.00  0.00     0.029 A 
HETATM   18  C11 UNL     1       4.493   2.166   0.121  1.00  0.00    -0.006 A 
HETATM   19  C12 UNL     1       4.910   3.174  -0.891  1.00  0.00     0.057 C 
HETATM   20  S1  UNL     1       4.943   2.206   1.766  1.00  0.00    -0.079 SA
HETATM   21  C13 UNL     1       4.107   0.835   2.312  1.00  0.00     0.114 A 
HETATM   22 CL1  UNL     1       4.036   0.149   3.954  1.00  0.00    -0.073 Cl
HETATM   23  C14 UNL     1       3.489   0.374   1.172  1.00  0.00     0.157 A 
HETATM   24  F1  UNL     1       2.785  -0.817   1.300  1.00  0.00    -0.203 F 
ENDBRANCH  16  17
BRANCH  16  25
HETATM   25  C15 UNL     1       4.249   0.574  -2.379  1.00  0.00     0.387 C 
HETATM   26  F2  UNL     1       5.413   0.028  -1.886  1.00  0.00    -0.209 F 
HETATM   27  F3  UNL     1       3.796  -0.222  -3.454  1.00  0.00    -0.209 F 
ENDBRANCH  16  25
ENDBRANCH  14  15
ENDBRANCH  12  14
ENDBRANCH   2  12
BRANCH   1  28
HETATM   28  O2  UNL     1      -1.425  -0.102   1.058  1.00  0.00    -0.176 OA
BRANCH  28  29
HETATM   29  C4  UNL     1      -2.205   0.871   0.443  1.00  0.00     0.307 C 
HETATM   30  O1  UNL     1      -3.032   0.524  -0.411  1.00  0.00    -0.258 OA
BRANCH  29  31
HETATM   31  C3  UNL     1      -2.068   2.270   0.782  1.00  0.00     0.105 C 
HETATM   32  C2  UNL     1      -2.791   3.188   0.216  1.00  0.00     0.026 C 
HETATM   33  C1  UNL     1      -3.812   2.915  -0.815  1.00  0.00     0.065 C 
HETATM   34  N1  UNL     1      -2.560   4.560   0.641  1.00  0.00    -0.107 NA
ENDBRANCH  29  31
ENDBRANCH  28  29
ENDBRANCH   1  28
TORSDOF 8
