REMARK  7 active torsions:
REMARK  status: ('A' for Active; 'I' for Inactive)
REMARK    1  A    between atoms: C1_2  and  C2_3 
REMARK       I    between atoms: C1_2  and  N4_25 
REMARK    2  A    between atoms: C2_3  and  S1_4 
REMARK    3  A    between atoms: S1_4  and  C3_5 
REMARK    4  A    between atoms: C4_10  and  C5_11 
REMARK    5  A    between atoms: C9_17  and  N3_18 
REMARK    6  A    between atoms: C10_21  and  O4_22 
REMARK    7  A    between atoms: N4_25  and  C11_27 
ROOT
HETATM    1  C3  UNL     1      -0.185   1.315  -0.342  1.00  0.00     0.204 A 
HETATM    2  N1  UNL     1       0.089   0.180  -0.985  1.00  0.00    -0.272 N 
ATOM      3  H1  UNL     1       0.991  -0.062  -1.395  1.00  0.00     0.189 HD
HETATM    4  N2  UNL     1      -0.981  -0.577  -1.008  1.00  0.00    -0.277 N 
ATOM      5  H2  UNL     1      -1.052  -1.500  -1.436  1.00  0.00     0.189 HD
HETATM    6  C4  UNL     1      -1.995   0.092  -0.352  1.00  0.00     0.178 A 
HETATM    7  O5  UNL     1      -1.444   1.202   0.012  1.00  0.00    -0.267 OA
ENDROOT
BRANCH   1   8
HETATM    8  S1  UNL     1       0.843   2.727   0.010  1.00  0.00    -0.075 SA
BRANCH   8   9
HETATM    9  C2  UNL     1       1.755   2.588   1.551  1.00  0.00     0.186 C 
BRANCH   9  10
HETATM   10  C1  UNL     1       2.871   1.582   1.380  1.00  0.00     0.232 C 
HETATM   11  O1  UNL     1       3.442   1.235   2.424  1.00  0.00    -0.272 OA
HETATM   12  N4  UNL     1       3.206   1.102   0.118  1.00  0.00    -0.324 N 
ATOM     13  H4  UNL     1       2.654   1.485  -0.649  1.00  0.00     0.169 HD
BRANCH  12  14
HETATM   14  C11 UNL     1       4.192   0.166  -0.266  1.00  0.00     0.073 A 
HETATM   15  C12 UNL     1       5.064  -0.363   0.635  1.00  0.00     0.036 A 
HETATM   16  C13 UNL     1       6.043  -1.291   0.236  1.00  0.00     0.044 A 
HETATM   17  C14 UNL     1       6.135  -1.681  -1.076  1.00  0.00     0.119 A 
HETATM   18  F1  UNL     1       7.055  -2.572  -1.525  1.00  0.00    -0.206 F 
HETATM   19  C15 UNL     1       5.248  -1.139  -1.984  1.00  0.00     0.086 A 
HETATM   20  C16 UNL     1       4.291  -0.234  -1.605  1.00  0.00     0.145 A 
HETATM   21  F2  UNL     1       3.415   0.305  -2.477  1.00  0.00    -0.204 F 
ENDBRANCH  12  14
ENDBRANCH   9  10
ENDBRANCH   8   9
ENDBRANCH   1   8
BRANCH   6  22
HETATM   22  C5  UNL     1      -3.338  -0.464  -0.192  1.00  0.00     0.054 A 
HETATM   23  C6  UNL     1      -3.626  -1.726  -0.672  1.00  0.00     0.044 A 
HETATM   24  C7  UNL     1      -4.891  -2.259  -0.554  1.00  0.00     0.059 A 
HETATM   25 CL1  UNL     1      -5.271  -3.842  -1.150  1.00  0.00    -0.082 Cl
HETATM   26  C8  UNL     1      -5.874  -1.526   0.048  1.00  0.00     0.091 A 
HETATM   27 CL2  UNL     1      -7.523  -2.161   0.225  1.00  0.00    -0.080 Cl
HETATM   28  C9  UNL     1      -5.635  -0.277   0.536  1.00  0.00     0.160 A 
HETATM   29  C10 UNL     1      -4.333   0.255   0.408  1.00  0.00     0.115 A 
BRANCH  28  30
HETATM   30  N3  UNL     1      -6.677   0.482   1.154  1.00  0.00    -0.111 N 
HETATM   31  O2  UNL     1      -7.571   0.978   0.447  1.00  0.00    -0.532 OA
HETATM   32  O3  UNL     1      -6.713   0.674   2.507  1.00  0.00    -0.532 OA
ENDBRANCH  28  30
BRANCH  29  33
HETATM   33  O4  UNL     1      -4.211   1.521   0.937  1.00  0.00    -0.357 OA
ATOM     34  H4  UNL     1      -4.903   2.021   1.354  1.00  0.00     0.217 HD
ENDBRANCH  29  33
ENDBRANCH   6  22
TORSDOF 7
