REMARK  6 active torsions:
REMARK  status: ('A' for Active; 'I' for Inactive)
REMARK    1  A    between atoms: C2_3  and  C3_4 
REMARK       I    between atoms: C3_4  and  N2_6 
REMARK    2  A    between atoms: N2_6  and  N3_7 
REMARK    3  A    between atoms: C4_9  and  C5_10 
REMARK    4  A    between atoms: C6_12  and  N4_13 
REMARK    5  A    between atoms: N6_23  and  C10_24 
REMARK    6  A    between atoms: C10_24  and  C11_25 
ROOT
HETATM    1  N1  UNL     1      -1.903  -2.874  -0.830  1.00  0.00    -0.080 NA
HETATM    2  C1  UNL     1      -1.567  -1.811   0.040  1.00  0.00     0.154 A 
HETATM    3  C2  UNL     1      -0.320  -1.205   0.236  1.00  0.00     0.161 A 
HETATM    4  N5  UNL     1      -0.414  -0.301   1.224  1.00  0.00    -0.324 N 
ATOM      5  H5  UNL     1       0.337   0.288   1.583  1.00  0.00     0.168 HD
HETATM    6  C9  UNL     1      -1.754  -0.324   1.670  1.00  0.00     0.183 A 
HETATM    7 CL2  UNL     1      -2.340   0.725   2.945  1.00  0.00    -0.044 Cl
HETATM    8  N6  UNL     1      -2.397  -1.219   0.957  1.00  0.00    -0.305 N 
ENDROOT
BRANCH   3   9
HETATM    9  C3  UNL     1       0.880  -1.524  -0.603  1.00  0.00     0.365 C 
HETATM   10  O1  UNL     1       0.629  -2.408  -1.522  1.00  0.00    -0.247 OA
HETATM   11  N2  UNL     1       2.037  -0.912  -0.364  1.00  0.00    -0.280 NA
BRANCH  11  12
HETATM   12  N3  UNL     1       3.166  -0.323  -0.139  1.00  0.00    -0.240 N 
HETATM   13  C4  UNL     1       3.634   0.687   0.439  1.00  0.00     0.160 C 
ATOM     14  H3  UNL     1       3.922  -0.852  -0.573  1.00  0.00     0.201 HD
BRANCH  13  15
HETATM   15  C5  UNL     1       5.060   0.918   0.395  1.00  0.00     0.117 A 
HETATM   16  O2  UNL     1       5.732   1.940   0.898  1.00  0.00    -0.285 OA
HETATM   17  C6  UNL     1       7.006   1.837   0.679  1.00  0.00     0.217 A 
HETATM   18  C7  UNL     1       7.222   0.686  -0.007  1.00  0.00     0.089 A 
HETATM   19  C8  UNL     1       5.997   0.085  -0.202  1.00  0.00     0.073 A 
HETATM   20 CL1  UNL     1       5.680  -1.430  -1.031  1.00  0.00    -0.081 Cl
BRANCH  17  21
HETATM   21  N4  UNL     1       8.009   2.764   1.095  1.00  0.00    -0.090 N 
HETATM   22  O3  UNL     1       9.194   2.553   0.803  1.00  0.00    -0.530 OA
HETATM   23  O4  UNL     1       7.718   3.884   1.785  1.00  0.00    -0.530 OA
ENDBRANCH  17  21
ENDBRANCH  13  15
ENDBRANCH  11  12
ENDBRANCH   3   9
BRANCH   8  24
HETATM   24  C10 UNL     1      -3.815  -1.541   0.920  1.00  0.00     0.173 C 
BRANCH  24  25
HETATM   25  C11 UNL     1      -4.621  -0.424   0.282  1.00  0.00    -0.018 A 
HETATM   26  C12 UNL     1      -4.397  -0.028  -1.030  1.00  0.00     0.012 A 
HETATM   27  C13 UNL     1      -4.987   1.123  -1.531  1.00  0.00     0.024 A 
HETATM   28  C14 UNL     1      -5.794   1.900  -0.761  1.00  0.00     0.035 A 
HETATM   29 CL3  UNL     1      -6.517   3.350  -1.467  1.00  0.00    -0.084 Cl
HETATM   30  C15 UNL     1      -6.035   1.534   0.530  1.00  0.00     0.048 A 
HETATM   31  C16 UNL     1      -5.448   0.381   1.033  1.00  0.00     0.043 A 
HETATM   32 CL4  UNL     1      -5.877  -0.176   2.664  1.00  0.00    -0.084 Cl
ENDBRANCH  24  25
ENDBRANCH   8  24
TORSDOF 6
