REMARK  6 active torsions:
REMARK  status: ('A' for Active; 'I' for Inactive)
REMARK    1  A    between atoms: C3_7  and  N3_8 
REMARK    2  A    between atoms: N3_8  and  C4_10 
REMARK    3  A    between atoms: C4_10  and  C5_11 
REMARK    4  A    between atoms: C5_11  and  C6_12 
REMARK    5  A    between atoms: C6_12  and  C7_13 
REMARK    6  A    between atoms: C7_13  and  N4_14 
ROOT
HETATM    1  C1  UNL     1      -4.702   2.891   0.260  1.00  0.00     0.147 C 
HETATM    2  N1  UNL     1      -3.393   2.465   0.156  1.00  0.00    -0.379 N 
ATOM      3  H1  UNL     1      -2.735   3.159   0.511  1.00  0.00     0.160 HD
HETATM    4  C2  UNL     1      -2.820   1.451  -0.261  1.00  0.00     0.139 A 
HETATM    5  N2  UNL     1      -1.428   1.415  -0.185  1.00  0.00    -0.175 N 
ATOM      6  H2  UNL     1      -0.932   2.218   0.202  1.00  0.00     0.186 HD
HETATM    7  C3  UNL     1      -0.728   0.362  -0.604  1.00  0.00     0.679 A 
HETATM    8  N5  UNL     1      -1.331  -0.717  -1.121  1.00  0.00    -0.194 N 
ATOM      9  H5  UNL     1      -0.767  -1.508  -1.432  1.00  0.00     0.184 HD
HETATM   10  C9  UNL     1      -2.656  -0.771  -1.234  1.00  0.00     0.047 A 
HETATM   11  C10 UNL     1      -3.339  -1.960  -1.808  1.00  0.00     0.070 C 
HETATM   12  C11 UNL     1      -3.396   0.337  -0.793  1.00  0.00     0.111 A 
HETATM   13  C12 UNL     1      -4.822   0.234  -0.932  1.00  0.00     0.105 C 
HETATM   14  N6  UNL     1      -5.977   0.116  -1.059  1.00  0.00    -0.191 NA
ENDROOT
BRANCH   7  15
HETATM   15  N3  UNL     1       0.588   0.399  -0.504  1.00  0.00    -0.226 N 
ATOM     16  H3  UNL     1       1.036   1.227  -0.111  1.00  0.00     0.177 HD
BRANCH  15  17
HETATM   17  C4  UNL     1       1.403  -0.702  -0.937  1.00  0.00     0.138 C 
BRANCH  17  18
HETATM   18  C5  UNL     1       2.875  -0.343  -0.946  1.00  0.00     0.022 C 
BRANCH  18  19
HETATM   19  C6  UNL     1       3.372   0.063   0.402  1.00  0.00     0.029 C 
BRANCH  19  20
HETATM   20  C7  UNL     1       3.205  -1.059   1.406  1.00  0.00     0.231 C 
BRANCH  20  21
HETATM   21  N4  UNL     1       3.704  -0.609   2.695  1.00  0.00    -0.079 N 
HETATM   22  C8  UNL     1       5.147  -0.448   2.614  1.00  0.00     0.266 C 
ATOM     23  H42 UNL     1       3.236   0.238   3.019  1.00  0.00     0.276 HD
ATOM     24  H41 UNL     1       3.424  -1.227   3.457  1.00  0.00     0.276 HD
ENDBRANCH  20  21
ENDBRANCH  19  20
ENDBRANCH  18  19
ENDBRANCH  17  18
ENDBRANCH  15  17
ENDBRANCH   7  15
TORSDOF 6
