REMARK  5 active torsions:
REMARK  status: ('A' for Active; 'I' for Inactive)
REMARK       I    between atoms: C1_4  and  N2_5 
REMARK       I    between atoms: C1_4  and  N4_15 
REMARK    1  A    between atoms: N2_5  and  C2_7 
REMARK    2  A    between atoms: C2_7  and  C3_8 
REMARK    3  A    between atoms: C3_8  and  C4_9 
REMARK    4  A    between atoms: C4_9  and  N3_10 
REMARK    5  A    between atoms: N4_15  and  C9_17 
ROOT
HETATM    1  N1  UNL     1      -2.243  -0.977   0.835  1.00  0.00    -0.235 N 
ATOM      2  H11 UNL     1      -3.233  -0.846   1.040  1.00  0.00     0.174 HD
ATOM      3  H12 UNL     1      -1.728  -1.728   1.294  1.00  0.00     0.174 HD
HETATM    4  C1  UNL     1      -1.656  -0.208   0.012  1.00  0.00     0.667 C 
HETATM    5  N2  UNL     1      -0.281  -0.390  -0.273  1.00  0.00    -0.227 N 
ATOM      6  H2  UNL     1       0.017  -0.945  -1.075  1.00  0.00     0.177 HD
HETATM    7  N4  UNL     1      -2.374   0.840  -0.629  1.00  0.00    -0.222 N 
ATOM      8  H4  UNL     1      -1.867   1.676  -0.920  1.00  0.00     0.178 HD
ENDROOT
BRANCH   5   9
HETATM    9  C2  UNL     1       0.688   0.228   0.599  1.00  0.00     0.140 C 
BRANCH   9  10
HETATM   10  C3  UNL     1       2.111  -0.066   0.143  1.00  0.00     0.050 C 
BRANCH  10  11
HETATM   11  C4  UNL     1       3.048   0.598   1.084  1.00  0.00     0.274 C 
BRANCH  11  12
HETATM   12  N3  UNL     1       4.429   0.433   0.810  1.00  0.00     0.088 N 
HETATM   13  C5  UNL     1       4.895   1.091  -0.383  1.00  0.00     0.272 C 
HETATM   14  C6  UNL     1       6.372   0.668  -0.382  1.00  0.00     0.032 C 
HETATM   15  C7  UNL     1       6.334  -0.716   0.255  1.00  0.00     0.032 C 
HETATM   16  C8  UNL     1       4.867  -0.912   0.625  1.00  0.00     0.272 C 
ENDBRANCH  11  12
ENDBRANCH  10  11
ENDBRANCH   9  10
ENDBRANCH   5   9
BRANCH   7  17
HETATM   17  C9  UNL     1      -3.798   0.765  -0.884  1.00  0.00     0.102 C 
HETATM   18  C10 UNL     1      -4.142  -0.433  -1.748  1.00  0.00     0.053 C 
HETATM   19  C11 UNL     1      -5.652  -0.624  -1.659  1.00  0.00     0.234 C 
HETATM   20  N5  UNL     1      -5.904  -1.120  -0.331  1.00  0.00    -0.075 N 
HETATM   21  C12 UNL     1      -5.524  -0.219   0.697  1.00  0.00     0.234 C 
ATOM     22  H52 UNL     1      -6.882  -1.391  -0.228  1.00  0.00     0.277 HD
ATOM     23  H51 UNL     1      -5.459  -2.028  -0.196  1.00  0.00     0.277 HD
HETATM   24  C13 UNL     1      -4.626   0.903   0.342  1.00  0.00     0.053 C 
ENDBRANCH   7  17
TORSDOF 5
