REMARK  7 active torsions:
REMARK  status: ('A' for Active; 'I' for Inactive)
REMARK    1  A    between atoms: C2_2  and  N1_3 
REMARK    2  A    between atoms: N1_3  and  C3_5 
REMARK    3  A    between atoms: C4_8  and  N3_9 
REMARK    4  A    between atoms: N3_9  and  C5_11 
REMARK    5  A    between atoms: C11_17  and  N4_18 
REMARK    6  A    between atoms: N4_18  and  C12_20 
REMARK    7  A    between atoms: C12_20  and  C13_22 
ROOT
HETATM    1  C3  UNL     1       1.628  -2.000  -0.008  1.00  0.00     0.681 A 
HETATM    2  N2  UNL     1       0.338  -1.845  -0.331  1.00  0.00    -0.177 N 
ATOM      3  H2  UNL     1      -0.208  -2.665  -0.596  1.00  0.00     0.185 HD
HETATM    4  C4  UNL     1      -0.263  -0.631  -0.316  1.00  0.00     0.120 A 
HETATM    5  C10 UNL     1       0.501   0.449   0.045  1.00  0.00     0.097 A 
HETATM    6  C11 UNL     1       1.851   0.290   0.383  1.00  0.00     0.125 A 
HETATM    7  N5  UNL     1       2.370  -0.939   0.345  1.00  0.00    -0.177 N 
ATOM      8  H5  UNL     1       3.351  -1.075   0.589  1.00  0.00     0.186 HD
ENDROOT
BRANCH   6   9
HETATM    9  N4  UNL     1       2.558   1.286   0.717  1.00  0.00    -0.331 N 
ATOM     10  H4  UNL     1       3.539   1.149   0.961  1.00  0.00     0.168 HD
BRANCH   9  11
HETATM   11  C12 UNL     1       2.003   2.586   0.756  1.00  0.00     0.151 C 
HETATM   12  S1  UNL     1       1.021   3.128   1.952  1.00  0.00    -0.059 SA
BRANCH  11  13
HETATM   13  C13 UNL     1       2.335   3.522  -0.347  1.00  0.00     0.292 C 
HETATM   14  C14 UNL     1       3.848   3.699  -0.314  1.00  0.00     0.098 C 
HETATM   15  F1  UNL     1       1.681   4.723  -0.212  1.00  0.00    -0.199 F 
HETATM   16  F2  UNL     1       1.993   2.947  -1.535  1.00  0.00    -0.199 F 
ENDBRANCH  11  13
ENDBRANCH   9  11
ENDBRANCH   6   9
BRANCH   4  17
HETATM   17  N3  UNL     1      -1.616  -0.564  -0.659  1.00  0.00    -0.371 N 
ATOM     18  H3  UNL     1      -2.107  -1.420  -0.917  1.00  0.00     0.161 HD
BRANCH  17  19
HETATM   19  C5  UNL     1      -2.333   0.683  -0.657  1.00  0.00     0.083 C 
HETATM   20  C6  UNL     1      -2.437   1.225   0.729  1.00  0.00     0.025 C 
HETATM   21  C7  UNL     1      -3.898   1.183   1.124  1.00  0.00     0.002 C 
HETATM   22  C8  UNL     1      -4.612   1.258  -0.208  1.00  0.00     0.002 C 
HETATM   23  C9  UNL     1      -3.740   0.541  -1.191  1.00  0.00     0.025 C 
ENDBRANCH  17  19
ENDBRANCH   4  17
BRANCH   1  24
HETATM   24  N1  UNL     1       2.194  -3.171  -0.026  1.00  0.00    -0.226 N 
ATOM     25  H1  UNL     1       3.178  -3.273   0.222  1.00  0.00     0.177 HD
BRANCH  24  26
HETATM   26  C2  UNL     1       1.409  -4.330  -0.403  1.00  0.00     0.133 C 
HETATM   27  C1  UNL     1       2.317  -5.537  -0.290  1.00  0.00     0.027 C 
ENDBRANCH  24  26
ENDBRANCH   1  24
TORSDOF 7
