REMARK  4 active torsions:
REMARK  status: ('A' for Active; 'I' for Inactive)
REMARK       I    between atoms: C1_4  and  N2_5 
REMARK       I    between atoms: C1_4  and  N4_15 
REMARK    1  A    between atoms: N2_5  and  C2_7 
REMARK    2  A    between atoms: C2_7  and  C3_8 
REMARK    3  A    between atoms: C3_8  and  N3_9 
REMARK    4  A    between atoms: N4_15  and  C9_17 
ROOT
HETATM    1  N1  UNL     1      -0.873  -0.930  -1.444  1.00  0.00    -0.235 N 
ATOM      2  H11 UNL     1      -1.428  -0.260  -1.977  1.00  0.00     0.174 HD
ATOM      3  H12 UNL     1      -0.363  -1.681  -1.908  1.00  0.00     0.174 HD
HETATM    4  C1  UNL     1      -0.820  -0.821  -0.172  1.00  0.00     0.667 C 
HETATM    5  N2  UNL     1      -0.053  -1.747   0.565  1.00  0.00    -0.225 N 
ATOM      6  H2  UNL     1      -0.519  -2.348   1.244  1.00  0.00     0.177 HD
HETATM    7  N4  UNL     1      -1.525   0.217   0.469  1.00  0.00    -0.222 N 
ATOM      8  H4  UNL     1      -0.991   0.844   1.070  1.00  0.00     0.178 HD
ENDROOT
BRANCH   5   9
HETATM    9  C2  UNL     1       1.393  -1.868   0.381  1.00  0.00     0.157 C 
BRANCH   9  10
HETATM   10  C3  UNL     1       2.000  -0.610   0.900  1.00  0.00     0.142 C 
BRANCH  10  11
HETATM   11  N3  UNL     1       3.407  -0.503   0.828  1.00  0.00    -0.392 N 
HETATM   12  C4  UNL     1       3.839   0.747   1.347  1.00  0.00     0.122 C 
HETATM   13  C5  UNL     1       3.911   1.712   0.164  1.00  0.00     0.020 C 
HETATM   14  C6  UNL     1       5.114   1.262  -0.636  1.00  0.00     0.007 C 
HETATM   15  C7  UNL     1       5.236  -0.201  -0.803  1.00  0.00     0.044 C 
HETATM   16  C8  UNL     1       4.084  -1.009  -0.289  1.00  0.00     0.058 C 
ENDBRANCH  10  11
ENDBRANCH   9  10
ENDBRANCH   5   9
BRANCH   7  17
HETATM   17  C9  UNL     1      -2.925   0.463   0.346  1.00  0.00     0.099 C 
HETATM   18  C10 UNL     1      -3.368   0.765  -1.081  1.00  0.00     0.026 C 
HETATM   19  C11 UNL     1      -4.756   1.398  -0.941  1.00  0.00     0.002 C 
HETATM   20  C12 UNL     1      -5.723   0.526  -0.217  1.00  0.00     0.000 C 
HETATM   21  C13 UNL     1      -5.181  -0.221   0.946  1.00  0.00     0.002 C 
HETATM   22  C14 UNL     1      -3.773  -0.727   0.786  1.00  0.00     0.026 C 
ENDBRANCH   7  17
TORSDOF 4
