REMARK  1 active torsions:
REMARK  status: ('A' for Active; 'I' for Inactive)
REMARK    1  A    between atoms: N1_2  and  C2_5 
ROOT
HETATM    1  C2  UNL     1       0.947  -0.591  -0.015  1.00  0.00     0.193 C 
HETATM    2  C3  UNL     1      -0.015  -1.575   0.636  1.00  0.00     0.038 C 
HETATM    3  C4  UNL     1      -1.368  -1.109   0.143  1.00  0.00    -0.011 C 
HETATM    4  C5  UNL     1      -2.475  -1.422   1.103  1.00  0.00     0.010 C 
HETATM    5  C6  UNL     1      -1.220   0.403   0.041  1.00  0.00     0.008 C 
HETATM    6  C7  UNL     1      -1.836   0.798  -1.263  1.00  0.00     0.087 C 
HETATM    7  S1  UNL     1      -1.784   2.641  -1.305  1.00  0.00    -0.089 SA
HETATM    8  C8  UNL     1      -0.220   2.983  -0.454  1.00  0.00     0.220 C 
HETATM    9  O1  UNL     1      -0.065   4.002   0.140  1.00  0.00    -0.282 OA
HETATM   10  C9  UNL     1       0.755   1.864  -0.600  1.00  0.00     0.257 C 
HETATM   11  F1  UNL     1       0.817   1.568  -1.945  1.00  0.00    -0.240 F 
HETATM   12  C10 UNL     1       0.229   0.709   0.208  1.00  0.00     0.064 C 
ENDROOT
BRANCH   1  13
HETATM   13  N1  UNL     1       2.199  -0.686   0.703  1.00  0.00    -0.074 N 
HETATM   14  C1  UNL     1       3.357  -0.488  -0.132  1.00  0.00     0.267 C 
ATOM     15  H12 UNL     1       2.262  -1.573   1.203  1.00  0.00     0.277 HD
ATOM     16  H11 UNL     1       2.211  -0.043   1.495  1.00  0.00     0.277 HD
ENDBRANCH   1  13
TORSDOF 1
