REMARK  2 active torsions:
REMARK  status: ('A' for Active; 'I' for Inactive)
REMARK    1  A    between atoms: C2_3  and  S1_4 
REMARK    2  A    between atoms: C2_3  and  C3_6 
ROOT
HETATM    1  N1  UNL     1       2.845  -3.347  -0.475  1.00  0.00    -0.196 NA
HETATM    2  C1  UNL     1       2.827  -2.207  -0.595  1.00  0.00     0.081 C 
HETATM    3  C2  UNL     1       2.819  -0.761  -0.748  1.00  0.00     0.217 C 
ENDROOT
BRANCH   3   4
HETATM    4  S1  UNL     1       3.831   0.000   0.582  1.00  0.00    -0.034 SA
HETATM    5 CL1  UNL     1       3.840   2.082   0.387  1.00  0.00    -0.042 Cl
ENDBRANCH   3   4
BRANCH   3   6
HETATM    6  C3  UNL     1       1.459  -0.206  -0.607  1.00  0.00     0.039 C 
HETATM    7  N2  UNL     1       0.860   0.530  -1.488  1.00  0.00    -0.349 N 
HETATM    8  C4  UNL     1      -0.342   0.788  -0.939  1.00  0.00     0.077 C 
ATOM      9  H2  UNL     1       1.217   0.843  -2.391  1.00  0.00     0.167 HD
HETATM   10  C5  UNL     1      -1.527   1.533  -1.041  1.00  0.00     0.076 C 
HETATM   11  N3  UNL     1       0.071   1.025   0.402  1.00  0.00    -0.370 N 
HETATM   12  C6  UNL     1      -2.380   0.838   0.057  1.00  0.00     0.007 C 
HETATM   13  C7  UNL     1      -1.951  -0.403   0.639  1.00  0.00     0.003 C 
HETATM   14  C8  UNL     1      -0.646  -1.095   0.614  1.00  0.00     0.031 C 
HETATM   15  C9  UNL     1       0.597  -0.328   0.601  1.00  0.00     0.131 C 
ATOM     16  H3  UNL     1       0.019   1.844   1.008  1.00  0.00     0.161 HD
ENDBRANCH   3   6
TORSDOF 2
