REMARK  1 active torsions:
REMARK  status: ('A' for Active; 'I' for Inactive)
REMARK    1  A    between atoms: N2_7  and  N3_9 
ROOT
HETATM    1  N3  UNL     1      -0.066   1.540   1.022  1.00  0.00    -0.306 N 
ATOM      2  H3  UNL     1      -0.141   1.845   1.993  1.00  0.00     0.186 HD
HETATM    3  C5  UNL     1      -1.125   1.054   0.423  1.00  0.00     0.007 C 
HETATM    4  C6  UNL     1      -2.393   0.966   1.180  1.00  0.00     0.059 C 
HETATM    5  C7  UNL     1      -3.368   0.060   0.461  1.00  0.00    -0.003 C 
HETATM    6  C8  UNL     1      -2.576  -1.159  -0.017  1.00  0.00     0.049 C 
HETATM    7  C9  UNL     1      -2.230  -0.341  -1.242  1.00  0.00     0.109 C 
HETATM    8  F1  UNL     1      -2.227  -0.999  -2.427  1.00  0.00    -0.243 F 
HETATM    9  C10 UNL     1      -1.082   0.597  -0.978  1.00  0.00     0.097 C 
HETATM   10  C11 UNL     1      -3.526   0.438  -0.996  1.00  0.00     0.049 C 
ENDROOT
BRANCH   1  11
HETATM   11  N2  UNL     1       1.150   1.651   0.374  1.00  0.00    -0.265 N 
HETATM   12  C4  UNL     1       2.051   0.759   0.330  1.00  0.00     0.243 A 
HETATM   13  N1  UNL     1       1.992  -0.451   0.900  1.00  0.00    -0.329 N 
HETATM   14  O1  UNL     1       3.204   0.842  -0.274  1.00  0.00    -0.282 OA
HETATM   15  C3  UNL     1       3.143  -1.118   0.632  1.00  0.00     0.124 A 
ATOM     16  H1  UNL     1       1.210  -0.812   1.446  1.00  0.00     0.168 HD
HETATM   17  C2  UNL     1       3.894  -0.262  -0.120  1.00  0.00     0.068 A 
HETATM   18  C1  UNL     1       5.240  -0.559  -0.648  1.00  0.00     0.078 C 
ATOM     19  H2  UNL     1       1.340   2.528  -0.112  1.00  0.00     0.190 HD
ENDBRANCH   1  11
TORSDOF 1
