REMARK  5 active torsions:
REMARK  status: ('A' for Active; 'I' for Inactive)
REMARK    1  A    between atoms: N1_1  and  C1_5 
REMARK    2  A    between atoms: C3_7  and  N2_8 
REMARK    3  A    between atoms: C3_7  and  C4_12 
REMARK    4  A    between atoms: C4_12  and  O1_13 
REMARK    5  A    between atoms: O1_13  and  C5_14 
ROOT
HETATM    1  C1  UNL     1      -2.617  -0.400  -0.073  1.00  0.00     0.223 A 
HETATM    2  C2  UNL     1      -1.897   0.094   1.202  1.00  0.00     0.078 A 
HETATM    3  C3  UNL     1      -1.287   0.257  -0.125  1.00  0.00     0.174 A 
ENDROOT
BRANCH   3   4
HETATM    4  N2  UNL     1      -1.165   1.569  -0.749  1.00  0.00    -0.066 N 
ATOM      5  H23 UNL     1      -1.541   1.517  -1.696  1.00  0.00     0.275 HD
ATOM      6  H22 UNL     1      -1.827   2.205  -0.305  1.00  0.00     0.275 HD
ATOM      7  H21 UNL     1      -0.251   2.020  -0.785  1.00  0.00     0.275 HD
ENDBRANCH   3   4
BRANCH   3   8
HETATM    8  C4  UNL     1      -0.089  -0.634  -0.414  1.00  0.00     0.211 C 
BRANCH   8   9
HETATM    9  O1  UNL     1       1.049   0.016   0.096  1.00  0.00    -0.365 OA
BRANCH   9  10
HETATM   10  C5  UNL     1       2.198  -0.723  -0.121  1.00  0.00     0.245 C 
HETATM   11  C6  UNL     1       3.310   0.001  -0.830  1.00  0.00     0.180 C 
HETATM   12  N3  UNL     1       3.960   0.222   0.455  1.00  0.00    -0.142 NA
HETATM   13  N4  UNL     1       3.127  -0.798   0.968  1.00  0.00    -0.115 NA
ENDBRANCH   9  10
ENDBRANCH   8   9
ENDBRANCH   3   8
BRANCH   1  14
HETATM   14  N1  UNL     1      -3.828   0.300  -0.389  1.00  0.00    -0.072 N 
ATOM     15  H13 UNL     1      -4.466   0.280   0.407  1.00  0.00     0.274 HD
ATOM     16  H12 UNL     1      -3.651   1.303  -0.449  1.00  0.00     0.274 HD
ATOM     17  H11 UNL     1      -4.303  -0.026  -1.231  1.00  0.00     0.274 HD
ENDBRANCH   1  14
TORSDOF 5
