REMARK  4 active torsions:
REMARK  status: ('A' for Active; 'I' for Inactive)
REMARK    1  A    between atoms: N1_3  and  C3_5 
REMARK    2  A    between atoms: C3_5  and  C4_6 
REMARK    3  A    between atoms: C4_6  and  N2_7 
REMARK    4  A    between atoms: C6_13  and  N5_14 
ROOT
HETATM    1  C1  UNL     1       4.334   0.326   0.510  1.00  0.00     0.036 C 
HETATM    2  C2  UNL     1       3.415  -0.365   0.118  1.00  0.00    -0.006 C 
HETATM    3  N1  UNL     1       2.351  -1.165  -0.304  1.00  0.00    -0.349 N 
ATOM      4  H1  UNL     1       2.491  -2.174  -0.364  1.00  0.00     0.169 HD
ENDROOT
BRANCH   3   5
HETATM    5  C3  UNL     1       1.056  -0.619  -0.660  1.00  0.00     0.152 C 
BRANCH   5   6
HETATM    6  C4  UNL     1       0.408  -0.085   0.613  1.00  0.00     0.188 C 
BRANCH   6   7
HETATM    7  N2  UNL     1      -0.901   0.455   0.226  1.00  0.00    -0.122 N 
HETATM    8  N3  UNL     1      -1.154   1.707  -0.150  1.00  0.00    -0.279 N 
HETATM    9  C5  UNL     1      -2.462   1.824  -0.421  1.00  0.00     0.215 A 
ATOM     10  H3  UNL     1      -0.465   2.456  -0.220  1.00  0.00     0.188 HD
HETATM   11  N4  UNL     1      -3.057   0.633  -0.217  1.00  0.00    -0.185 N 
HETATM   12  C6  UNL     1      -2.076  -0.183   0.178  1.00  0.00     0.693 A 
ATOM     13  H4  UNL     1      -4.044   0.404  -0.338  1.00  0.00     0.185 HD
BRANCH  12  14
HETATM   14  N5  UNL     1      -2.226  -1.437   0.478  1.00  0.00    -0.233 N 
ATOM     15  H52 UNL     1      -1.477  -2.060   0.780  1.00  0.00     0.174 HD
ATOM     16  H51 UNL     1      -3.122  -1.923   0.441  1.00  0.00     0.174 HD
ENDBRANCH  12  14
ENDBRANCH   6   7
ENDBRANCH   5   6
ENDBRANCH   3   5
TORSDOF 4
