REMARK  5 active torsions:
REMARK  status: ('A' for Active; 'I' for Inactive)
REMARK    1  A    between atoms: C2_2  and  C3_3 
REMARK    2  A    between atoms: C3_3  and  C4_4 
REMARK    3  A    between atoms: C4_4  and  C5_5 
REMARK    4  A    between atoms: C10_11  and  O1_12 
REMARK    5  A    between atoms: C11_14  and  O2_15 
ROOT
HETATM    1  C5  UNL     1      -0.619  -0.411   0.593  1.00  0.00     0.149 C 
HETATM    2  C6  UNL     1      -0.846  -1.728   1.222  1.00  0.00     0.098 C 
HETATM    3  N1  UNL     1      -1.013  -2.769   1.708  1.00  0.00    -0.194 NA
HETATM    4  C7  UNL     1       0.408   0.382   1.378  1.00  0.00     0.061 C 
HETATM    5  C8  UNL     1       1.212   0.974   0.228  1.00  0.00     0.021 C 
HETATM    6  C9  UNL     1       2.599   1.353   0.642  1.00  0.00     0.041 C 
HETATM    7  C10 UNL     1       3.618   0.735  -0.322  1.00  0.00     0.147 C 
HETATM    8  C11 UNL     1       3.520  -0.777  -0.084  1.00  0.00     0.149 C 
HETATM    9  C12 UNL     1       2.127  -1.262  -0.317  1.00  0.00     0.066 C 
HETATM   10  C13 UNL     1       1.170  -0.186  -0.736  1.00  0.00     0.130 C 
HETATM   11  O3  UNL     1      -0.129  -0.617  -0.661  1.00  0.00    -0.360 OA
ENDROOT
BRANCH   1  12
HETATM   12  C4  UNL     1      -1.912   0.334   0.649  1.00  0.00     0.053 C 
BRANCH  12  13
HETATM   13  C3  UNL     1      -3.041  -0.337  -0.064  1.00  0.00     0.004 C 
BRANCH  13  14
HETATM   14  C2  UNL     1      -4.271   0.564   0.101  1.00  0.00    -0.004 C 
HETATM   15  C1  UNL     1      -5.471  -0.056  -0.603  1.00  0.00     0.005 C 
ENDBRANCH  13  14
ENDBRANCH  12  13
ENDBRANCH   1  12
BRANCH   7  16
HETATM   16  O1  UNL     1       4.875   1.189   0.033  1.00  0.00    -0.393 OA
ATOM     17  H1  UNL     1       5.507   0.806  -0.564  1.00  0.00     0.210 HD
ENDBRANCH   7  16
BRANCH   8  18
HETATM   18  O2  UNL     1       4.469  -1.448  -0.856  1.00  0.00    -0.393 OA
ATOM     19  H2  UNL     1       4.408  -2.385  -0.709  1.00  0.00     0.210 HD
ENDBRANCH   8  18
TORSDOF 5
