REMARK  4 active torsions:
REMARK  status: ('A' for Active; 'I' for Inactive)
REMARK    1  A    between atoms: C2_2  and  O1_4 
REMARK    2  A    between atoms: O1_4  and  C4_5 
REMARK    3  A    between atoms: N1_8  and  C7_9 
REMARK    4  A    between atoms: C9_11  and  N2_12 
ROOT
HETATM    1  C7  UNL     1      -2.716   0.483   0.067  1.00  0.00     0.107 A 
HETATM    2  C8  UNL     1      -3.490  -0.459  -0.569  1.00  0.00     0.096 A 
HETATM    3  C9  UNL     1      -4.868  -0.255  -0.698  1.00  0.00     0.103 A 
HETATM    4  N3  UNL     1      -5.454   0.851  -0.207  1.00  0.00    -0.339 N 
ATOM      5  H3  UNL     1      -6.459   1.001  -0.299  1.00  0.00     0.168 HD
HETATM    6  C10 UNL     1      -4.669   1.752   0.409  1.00  0.00     0.183 A 
HETATM    7  N4  UNL     1      -3.345   1.573   0.541  1.00  0.00    -0.339 N 
ATOM      8  H4  UNL     1      -2.797   2.289   1.018  1.00  0.00     0.168 HD
ENDROOT
BRANCH   1   9
HETATM    9  N1  UNL     1      -1.291   0.321   0.227  1.00  0.00    -0.367 N 
HETATM   10  C6  UNL     1      -0.606  -0.852  -0.262  1.00  0.00     0.127 C 
HETATM   11  C5  UNL     1       0.584  -1.094   0.672  1.00  0.00     0.051 C 
HETATM   12  C4  UNL     1       1.613   0.011   0.570  1.00  0.00     0.125 C 
HETATM   13  C12 UNL     1       0.936   1.338   0.338  1.00  0.00     0.051 C 
HETATM   14  C11 UNL     1      -0.493   1.331   0.883  1.00  0.00     0.127 C 
BRANCH  12  15
HETATM   15  O1  UNL     1       2.499  -0.333  -0.441  1.00  0.00    -0.381 OA
BRANCH  15  16
HETATM   16  C2  UNL     1       3.802  -0.491   0.012  1.00  0.00     0.113 C 
HETATM   17  C1  UNL     1       4.338  -1.875  -0.147  1.00  0.00     0.039 C 
HETATM   18  C3  UNL     1       4.756   0.502  -0.576  1.00  0.00     0.039 C 
ENDBRANCH  15  16
ENDBRANCH  12  15
ENDBRANCH   1   9
BRANCH   3  19
HETATM   19  N2  UNL     1      -5.585  -1.145  -1.297  1.00  0.00    -0.385 N 
ATOM     20  H22 UNL     1      -5.140  -1.984  -1.669  1.00  0.00     0.157 HD
ATOM     21  H21 UNL     1      -6.590  -0.996  -1.391  1.00  0.00     0.157 HD
ENDBRANCH   3  19
TORSDOF 4
