REMARK  2 active torsions:
REMARK  status: ('A' for Active; 'I' for Inactive)
REMARK    1  A    between atoms: C4_4  and  C5_5 
REMARK    2  A    between atoms: C5_5  and  C6_6 
ROOT
HETATM    1  C1  UNL     1      -1.329  -1.857   0.707  1.00  0.00     0.020 C 
HETATM    2  C2  UNL     1      -0.825  -0.949  -0.410  1.00  0.00     0.007 C 
HETATM    3  C3  UNL     1      -0.752  -1.718  -1.676  1.00  0.00     0.020 C 
HETATM    4  C4  UNL     1      -1.442   0.404  -0.423  1.00  0.00     0.009 C 
HETATM    5  C7  UNL     1      -0.483   0.737   0.726  1.00  0.00     0.068 C 
HETATM    6  C8  UNL     1       0.460  -0.286   0.053  1.00  0.00     0.143 C 
HETATM    7  N1  UNL     1       1.189   0.444  -0.955  1.00  0.00    -0.339 N 
ATOM      8  H1  UNL     1       0.956   0.240  -1.927  1.00  0.00     0.164 HD
HETATM    9  C9  UNL     1       2.193   1.413  -0.732  1.00  0.00     0.136 C 
HETATM   10  N2  UNL     1       2.477   2.162  -1.729  1.00  0.00    -0.380 N 
ATOM     11  H21 UNL     1       3.202   2.861  -1.568  1.00  0.00     0.158 HD
ATOM     12  H22 UNL     1       1.932   1.961  -2.567  1.00  0.00     0.158 HD
HETATM   13  S1  UNL     1       3.144   1.764   0.731  1.00  0.00    -0.092 SA
HETATM   14  C10 UNL     1       3.079   0.252   1.775  1.00  0.00     0.108 C 
HETATM   15  C11 UNL     1       2.541  -0.915   0.933  1.00  0.00     0.181 C 
HETATM   16  O2  UNL     1       1.188  -1.008   0.939  1.00  0.00    -0.359 OA
ENDROOT
BRANCH   4  17
HETATM   17  C5  UNL     1      -2.872   0.544  -0.056  1.00  0.00     0.075 C 
BRANCH  17  18
HETATM   18  C6  UNL     1      -3.250   1.970  -0.142  1.00  0.00     0.231 C 
HETATM   19  O1  UNL     1      -2.962   2.743   0.738  1.00  0.00    -0.307 OA
ENDBRANCH  17  18
ENDBRANCH   4  17
TORSDOF 2
