REMARK  4 active torsions:
REMARK  status: ('A' for Active; 'I' for Inactive)
REMARK    1  A    between atoms: C2_2  and  C3_3 
REMARK    2  A    between atoms: C3_3  and  C4_4 
REMARK    3  A    between atoms: C5_7  and  N2_8 
REMARK    4  A    between atoms: N2_8  and  C6_10 
ROOT
HETATM    1  C4  UNL     1      -1.626  -0.539   0.343  1.00  0.00     0.101 A 
HETATM    2  N1  UNL     1      -0.636   0.367   0.482  1.00  0.00    -0.180 N 
ATOM      3  H1  UNL     1      -0.847   1.238   0.970  1.00  0.00     0.185 HD
HETATM    4  C5  UNL     1       0.615   0.189   0.014  1.00  0.00     0.682 A 
HETATM    5  N3  UNL     1       0.893  -0.952  -0.626  1.00  0.00    -0.166 N 
ATOM      6  H3  UNL     1       1.828  -1.124  -0.994  1.00  0.00     0.186 HD
HETATM    7  C10 UNL     1      -0.080  -1.871  -0.777  1.00  0.00     0.193 A 
HETATM    8  S1  UNL     1       0.312  -3.246  -1.565  1.00  0.00    -0.040 SA
HETATM    9  N4  UNL     1      -1.319  -1.670  -0.301  1.00  0.00    -0.317 N 
HETATM   10  C11 UNL     1      -2.340  -2.678  -0.475  1.00  0.00     0.160 C 
ENDROOT
BRANCH   4  11
HETATM   11  N2  UNL     1       1.522   1.120   0.190  1.00  0.00    -0.221 N 
ATOM     12  H2  UNL     1       1.296   1.986   0.680  1.00  0.00     0.178 HD
BRANCH  11  13
HETATM   13  C6  UNL     1       2.841   0.887  -0.326  1.00  0.00     0.099 C 
HETATM   14  C7  UNL     1       3.656   0.022   0.620  1.00  0.00     0.026 C 
HETATM   15  C8  UNL     1       4.424   1.220   1.085  1.00  0.00     0.004 C 
HETATM   16  C9  UNL     1       3.829   2.009  -0.063  1.00  0.00     0.026 C 
ENDBRANCH  11  13
ENDBRANCH   4  11
BRANCH   1  17
HETATM   17  C3  UNL     1      -2.986  -0.242   0.906  1.00  0.00     0.077 C 
BRANCH  17  18
HETATM   18  C2  UNL     1      -3.835   0.478  -0.121  1.00  0.00     0.003 C 
HETATM   19  C1  UNL     1      -3.105   1.766  -0.459  1.00  0.00     0.005 C 
ENDBRANCH  17  18
ENDBRANCH   1  17
TORSDOF 4
