REMARK  1 active torsions:
REMARK  status: ('A' for Active; 'I' for Inactive)
REMARK    1  A    between atoms: C2_2  and  C5_5 
ROOT
HETATM    1  C5  UNL     1       0.130  -0.103  -0.328  1.00  0.00     0.115 C 
HETATM    2  C6  UNL     1       1.184   0.542   0.484  1.00  0.00     0.098 C 
HETATM    3  C7  UNL     1       2.509  -0.067   0.209  1.00  0.00     0.110 C 
HETATM    4  N1  UNL     1       3.642   0.658   0.697  1.00  0.00    -0.086 NA
HETATM    5  N2  UNL     1       2.641  -1.175  -0.427  1.00  0.00    -0.280 N 
ATOM      6  H2  UNL     1       3.567  -1.566  -0.600  1.00  0.00     0.189 HD
HETATM    7  N3  UNL     1       1.507  -1.830  -0.874  1.00  0.00    -0.245 N 
ATOM      8  H3  UNL     1       1.542  -2.480  -1.659  1.00  0.00     0.203 HD
HETATM    9  N4  UNL     1       0.311  -1.561  -0.201  1.00  0.00    -0.119 NA
ENDROOT
BRANCH   1  10
HETATM   10  C2  UNL     1      -1.273   0.218   0.064  1.00  0.00    -0.032 C 
HETATM   11  C1  UNL     1      -1.591  -0.191   1.485  1.00  0.00     0.016 C 
HETATM   12  C3  UNL     1      -2.189  -0.632  -0.833  1.00  0.00     0.016 C 
HETATM   13  C4  UNL     1      -1.691   1.626  -0.151  1.00  0.00     0.016 C 
ENDBRANCH   1  10
TORSDOF 1
