REMARK  2 active torsions:
REMARK  status: ('A' for Active; 'I' for Inactive)
REMARK    1  A    between atoms: C2_2  and  N1_4 
REMARK    2  A    between atoms: C4_7  and  C5_8 
ROOT
HETATM    1  C5  UNL     1       2.964   0.538   0.794  1.00  0.00     0.202 C 
HETATM    2  C6  UNL     1       3.765  -0.638   1.135  1.00  0.00     0.066 C 
HETATM    3  N3  UNL     1       4.388  -1.586   1.416  1.00  0.00    -0.197 NA
ENDROOT
BRANCH   1   4
HETATM    4  C4  UNL     1       1.661   0.123   0.180  1.00  0.00     0.123 C 
HETATM    5  N2  UNL     1       0.467   0.370   0.605  1.00  0.00    -0.272 N 
HETATM    6  N1  UNL     1      -0.438  -0.230  -0.310  1.00  0.00    -0.212 N 
ATOM      7  H2  UNL     1       0.220   0.898   1.442  1.00  0.00     0.189 HD
HETATM    8  N5  UNL     1       0.300  -1.117  -1.097  1.00  0.00    -0.003 NA
HETATM    9  N4  UNL     1       1.595  -0.641  -1.016  1.00  0.00    -0.270 N 
ATOM     10  H4  UNL     1       2.351  -0.805  -1.681  1.00  0.00     0.185 HD
BRANCH   6  11
HETATM   11  C2  UNL     1      -1.848  -0.008  -0.449  1.00  0.00     0.117 C 
HETATM   12  C1  UNL     1      -2.191   1.426  -0.776  1.00  0.00     0.035 C 
HETATM   13  C3  UNL     1      -2.551  -0.485   0.805  1.00  0.00     0.035 C 
ENDBRANCH   6  11
ENDBRANCH   1   4
TORSDOF 2
