REMARK  7 active torsions:
REMARK  status: ('A' for Active; 'I' for Inactive)
REMARK    1  A    between atoms: C2_2  and  C4_4 
REMARK    2  A    between atoms: C5_6  and  C6_7 
REMARK    3  A    between atoms: C6_7  and  C7_8 
REMARK    4  A    between atoms: C7_8  and  C8_9 
REMARK    5  A    between atoms: C8_9  and  C9_10 
REMARK    6  A    between atoms: C10_12  and  C11_13 
REMARK    7  A    between atoms: C11_13  and  N1_14 
ROOT
HETATM    1  C4  UNL     1       1.997   0.174   0.538  1.00  0.00     0.036 A 
HETATM    2  S1  UNL     1       0.558   0.156   1.536  1.00  0.00    -0.078 SA
HETATM    3  C5  UNL     1      -0.624   0.158   0.325  1.00  0.00     0.069 A 
HETATM    4  C10 UNL     1       0.110   0.173  -0.824  1.00  0.00     0.018 A 
HETATM    5  C12 UNL     1       1.447   0.181  -0.713  1.00  0.00     0.073 A 
HETATM    6  N2  UNL     1       2.314   0.197  -1.892  1.00  0.00    -0.100 NA
ENDROOT
BRANCH   3   7
HETATM    7  C6  UNL     1      -2.056   0.147   0.521  1.00  0.00    -0.059 C 
BRANCH   7   8
HETATM    8  C7  UNL     1      -3.253   0.130   0.665  1.00  0.00    -0.099 C 
BRANCH   8   9
HETATM    9  C8  UNL     1      -4.712   0.111   0.866  1.00  0.00     0.109 C 
BRANCH   9  10
HETATM   10  C9  UNL     1      -5.037  -1.240   1.466  1.00  0.00     0.126 C 
HETATM   11 CL1  UNL     1      -4.148  -1.361   3.002  1.00  0.00    -0.130 Cl
ENDBRANCH   9  10
ENDBRANCH   8   9
ENDBRANCH   7   8
ENDBRANCH   3   7
BRANCH   4  12
HETATM   12  C11 UNL     1      -0.639   0.183  -2.148  1.00  0.00     0.272 C 
BRANCH  12  13
HETATM   13  N1  UNL     1       0.243   0.199  -3.271  1.00  0.00    -0.075 N 
ATOM     14  H13 UNL     1       0.898   0.978  -3.213  1.00  0.00     0.274 HD
ATOM     15  H12 UNL     1       0.906  -0.575  -3.229  1.00  0.00     0.274 HD
ATOM     16  H11 UNL     1      -0.259   0.206  -4.159  1.00  0.00     0.274 HD
ENDBRANCH  12  13
ENDBRANCH   4  12
BRANCH   1  17
HETATM   17  C2  UNL     1       3.368   0.178   1.026  1.00  0.00    -0.052 C 
HETATM   18  C1  UNL     1       4.399   0.194   0.281  1.00  0.00     0.020 C 
HETATM   19  C3  UNL     1       3.535   0.162   2.525  1.00  0.00     0.049 C 
ENDBRANCH   1  17
TORSDOF 7
