REMARK  5 active torsions:
REMARK  status: ('A' for Active; 'I' for Inactive)
REMARK    1  A    between atoms: C2_2  and  C4_4 
REMARK    2  A    between atoms: C4_4  and  C5_5 
REMARK    3  A    between atoms: C9_12  and  C10_13 
REMARK    4  A    between atoms: C10_13  and  C12_15 
REMARK    5  A    between atoms: N2_19  and  C14_20 
ROOT
HETATM    1  C10 UNL     1       0.011   0.311  -1.450  1.00  0.00     0.051 C 
HETATM    2  C11 UNL     1       0.491   1.634  -0.906  1.00  0.00     0.015 C 
ENDROOT
BRANCH   1   3
HETATM    3  C9  UNL     1      -1.014  -0.278  -0.554  1.00  0.00     0.193 C 
HETATM    4  N1  UNL     1      -0.605  -0.547   0.791  1.00  0.00    -0.067 N 
HETATM    5  C7  UNL     1      -1.704  -1.171   1.490  1.00  0.00     0.182 C 
ATOM      6  H12 UNL     1      -0.260   0.286   1.269  1.00  0.00     0.278 HD
ATOM      7  H11 UNL     1       0.251  -1.099   0.836  1.00  0.00     0.278 HD
HETATM    8  C6  UNL     1      -2.954  -0.346   1.529  1.00  0.00     0.037 C 
HETATM    9  C8  UNL     1      -2.050  -2.534   0.969  1.00  0.00     0.040 C 
HETATM   10  C5  UNL     1      -3.383   0.137   0.148  1.00  0.00    -0.010 C 
HETATM   11  C20 UNL     1      -2.130   0.776  -0.456  1.00  0.00     0.038 C 
BRANCH  10  12
HETATM   12  C4  UNL     1      -4.395   1.248   0.295  1.00  0.00     0.008 C 
BRANCH  12  13
HETATM   13  C2  UNL     1      -5.629   0.799   1.039  1.00  0.00    -0.022 C 
HETATM   14  C1  UNL     1      -6.588   1.946   1.148  1.00  0.00     0.009 C 
HETATM   15  C3  UNL     1      -6.283  -0.330   0.305  1.00  0.00     0.009 C 
ENDBRANCH  12  13
ENDBRANCH  10  12
ENDBRANCH   1   3
BRANCH   1  16
HETATM   16  C12 UNL     1       1.102  -0.568  -1.910  1.00  0.00     0.231 C 
HETATM   17  O1  UNL     1       1.956   0.228  -2.755  1.00  0.00    -0.288 OA
HETATM   18  C13 UNL     1       3.173   0.418  -2.154  1.00  0.00     0.372 C 
HETATM   19  O2  UNL     1       4.126   1.196  -2.506  1.00  0.00    -0.238 OA
HETATM   20  N2  UNL     1       3.231  -0.423  -1.012  1.00  0.00    -0.240 N 
HETATM   21  C19 UNL     1       2.009  -1.135  -0.934  1.00  0.00     0.260 C 
HETATM   22  O3  UNL     1       1.796  -2.079  -0.147  1.00  0.00    -0.270 OA
BRANCH  20  23
HETATM   23  C14 UNL     1       4.363  -0.518  -0.097  1.00  0.00     0.192 C 
HETATM   24  C15 UNL     1       5.588  -1.051  -0.810  1.00  0.00     0.047 C 
HETATM   25  C16 UNL     1       6.737  -1.272   0.137  1.00  0.00     0.005 C 
HETATM   26  C17 UNL     1       6.878  -0.080   1.028  1.00  0.00     0.019 C 
HETATM   27  C18 UNL     1       6.029   1.088   0.579  1.00  0.00     0.115 C 
HETATM   28  N3  UNL     1       4.658   0.718   0.525  1.00  0.00    -0.401 N 
ATOM     29  H3  UNL     1       3.926   1.312   0.914  1.00  0.00     0.155 HD
ENDBRANCH  20  23
ENDBRANCH   1  16
TORSDOF 5
