REMARK  6 active torsions:
REMARK  status: ('A' for Active; 'I' for Inactive)
REMARK    1  A    between atoms: C2_2  and  C3_3 
REMARK    2  A    between atoms: C3_3  and  N1_6 
REMARK    3  A    between atoms: N1_6  and  C6_8 
REMARK    4  A    between atoms: C9_13  and  C10_14 
REMARK    5  A    between atoms: C10_14  and  N3_15 
REMARK    6  A    between atoms: N3_15  and  N4_17 
REMARK       I    between atoms: N4_17  and  C11_19 
REMARK       I    between atoms: C11_19  and  N5_21 
ROOT
HETATM    1  C6  UNL     1      -2.997  -0.116  -0.229  1.00  0.00     0.681 A 
HETATM    2  N2  UNL     1      -3.128  -0.006  -1.558  1.00  0.00    -0.194 N 
ATOM      3  H2  UNL     1      -4.010  -0.071  -2.065  1.00  0.00     0.184 HD
HETATM    4  C7  UNL     1      -1.921   0.204  -2.128  1.00  0.00     0.051 A 
HETATM    5  C8  UNL     1      -1.630   0.381  -3.582  1.00  0.00     0.071 C 
HETATM    6  C9  UNL     1      -0.992   0.227  -1.108  1.00  0.00     0.090 A 
HETATM    7  N6  UNL     1      -1.687   0.028   0.029  1.00  0.00    -0.184 N 
HETATM    8  C18 UNL     1      -1.070  -0.016   1.331  1.00  0.00     0.175 C 
ENDROOT
BRANCH   6   9
HETATM    9  C10 UNL     1       0.443   0.427  -1.264  1.00  0.00     0.139 C 
BRANCH   9  10
HETATM   10  N3  UNL     1       1.264   0.439  -0.277  1.00  0.00    -0.306 N 
ATOM     11  H3  UNL     1       0.902   0.303   0.667  1.00  0.00     0.186 HD
BRANCH  10  12
HETATM   12  N4  UNL     1       2.619   0.630  -0.449  1.00  0.00    -0.252 N 
HETATM   13  C11 UNL     1       3.481   1.059   0.593  1.00  0.00     0.337 C 
HETATM   14  O1  UNL     1       2.989   1.278   1.742  1.00  0.00    -0.245 OA
HETATM   15  N5  UNL     1       4.868   1.257   0.426  1.00  0.00    -0.333 N 
HETATM   16  C12 UNL     1       5.618   1.695   1.592  1.00  0.00     0.127 C 
HETATM   17  C17 UNL     1       5.428   1.010  -0.888  1.00  0.00     0.127 C 
HETATM   18  C13 UNL     1       6.215   0.511   2.327  1.00  0.00     0.020 C 
HETATM   19  C14 UNL     1       6.042  -0.771   1.537  1.00  0.00     0.002 C 
HETATM   20  C15 UNL     1       6.715  -0.743   0.203  1.00  0.00     0.002 C 
HETATM   21  C16 UNL     1       5.745  -0.479  -0.940  1.00  0.00     0.020 C 
ATOM     22  H4  UNL     1       3.021   0.454  -1.370  1.00  0.00     0.191 HD
ENDBRANCH  10  12
ENDBRANCH   9  10
ENDBRANCH   6   9
BRANCH   1  23
HETATM   23  N1  UNL     1      -3.879  -0.317   0.678  1.00  0.00    -0.217 N 
ATOM     24  H1  UNL     1      -3.533  -0.363   1.636  1.00  0.00     0.178 HD
BRANCH  23  25
HETATM   25  C3  UNL     1      -5.278  -0.483   0.513  1.00  0.00     0.039 C 
HETATM   26  C4  UNL     1      -5.834  -0.975   1.848  1.00  0.00     0.038 C 
HETATM   27  C5  UNL     1      -5.698  -1.434  -0.553  1.00  0.00     0.038 C 
BRANCH  25  28
HETATM   28  C2  UNL     1      -5.859   0.903   0.201  1.00  0.00     0.026 C 
HETATM   29  C1  UNL     1      -7.349   0.873   0.107  1.00  0.00     0.007 C 
ENDBRANCH  25  28
ENDBRANCH  23  25
ENDBRANCH   1  23
TORSDOF 6
