REMARK  12 active torsions:
REMARK  status: ('A' for Active; 'I' for Inactive)
REMARK    1  A    between atoms: N1_1  and  C1_4 
REMARK    2  A    between atoms: C3_9  and  C4_10 
REMARK    3  A    between atoms: C4_10  and  C5_11 
REMARK    4  A    between atoms: C5_11  and  N4_12 
REMARK    5  A    between atoms: N4_12  and  C6_15 
REMARK    6  A    between atoms: C6_15  and  N5_16 
REMARK    7  A    between atoms: N6_20  and  C7_21 
REMARK    8  A    between atoms: C7_21  and  O1_22 
REMARK    9  A    between atoms: O1_22  and  C8_23 
REMARK   10  A    between atoms: C9_27  and  N8_28 
REMARK   11  A    between atoms: C10_32  and  C11_33 
REMARK   12  A    between atoms: C11_33  and  O2_34 
ROOT
HETATM    1  C1  UNL     1       0.886  -1.176   2.646  1.00  0.00     0.681 A 
HETATM    2  N2  UNL     1       2.028  -1.892   2.591  1.00  0.00    -0.177 N 
ATOM      3  H2  UNL     1       2.440  -2.421   3.360  1.00  0.00     0.185 HD
HETATM    4  C2  UNL     1       2.540  -1.786   1.324  1.00  0.00     0.155 A 
HETATM    5  N3  UNL     1       3.724  -2.422   0.900  1.00  0.00    -0.080 NA
HETATM    6  C3  UNL     1       1.687  -0.988   0.603  1.00  0.00     0.074 A 
HETATM    7  N6  UNL     1       0.670  -0.621   1.440  1.00  0.00    -0.162 N 
ENDROOT
BRANCH   7   8
HETATM    8  C7  UNL     1      -0.423   0.224   1.026  1.00  0.00     0.322 C 
BRANCH   8   9
HETATM    9  O1  UNL     1      -1.488  -0.513   0.514  1.00  0.00    -0.318 OA
BRANCH   9  10
HETATM   10  C8  UNL     1      -2.531   0.298   0.114  1.00  0.00     0.473 C 
HETATM   11  N7  UNL     1      -2.798   0.061  -1.281  1.00  0.00     0.007 N 
HETATM   12  C9  UNL     1      -4.191  -0.304  -1.406  1.00  0.00     0.416 C 
ATOM     13  H72 UNL     1      -2.540   0.850  -1.874  1.00  0.00     0.285 HD
ATOM     14  H71 UNL     1      -2.169  -0.628  -1.693  1.00  0.00     0.285 HD
HETATM   15  C10 UNL     1      -4.750   0.178  -0.080  1.00  0.00     0.208 C 
HETATM   16  O3  UNL     1      -3.705   0.093   0.828  1.00  0.00    -0.327 OA
BRANCH  12  17
HETATM   17  N8  UNL     1      -4.393  -1.740  -1.446  1.00  0.00    -0.047 N 
ATOM     18  H83 UNL     1      -3.835  -2.167  -2.185  1.00  0.00     0.276 HD
ATOM     19  H82 UNL     1      -3.968  -2.192  -0.636  1.00  0.00     0.276 HD
ATOM     20  H81 UNL     1      -5.376  -1.998  -1.534  1.00  0.00     0.276 HD
ENDBRANCH  12  17
BRANCH  15  21
HETATM   21  C11 UNL     1      -5.250   1.572  -0.279  1.00  0.00     0.200 C 
BRANCH  21  22
HETATM   22  O2  UNL     1      -5.712   2.097   0.912  1.00  0.00    -0.398 OA
ATOM     23  H2  UNL     1      -6.030   2.983   0.785  1.00  0.00     0.209 HD
ENDBRANCH  21  22
ENDBRANCH  15  21
ENDBRANCH   9  10
ENDBRANCH   8   9
ENDBRANCH   7   8
BRANCH   1  24
HETATM   24  N1  UNL     1       0.113  -1.038   3.689  1.00  0.00    -0.234 N 
ATOM     25  H12 UNL     1       0.277  -1.459   4.604  1.00  0.00     0.174 HD
ATOM     26  H11 UNL     1      -0.750  -0.497   3.731  1.00  0.00     0.174 HD
ENDBRANCH   1  24
BRANCH   6  27
HETATM   27  C4  UNL     1       1.824  -0.574  -0.796  1.00  0.00     0.089 C 
BRANCH  27  28
HETATM   28  C5  UNL     1       2.753   0.552  -1.065  1.00  0.00     0.240 C 
BRANCH  28  29
HETATM   29  N4  UNL     1       4.120   0.362  -0.667  1.00  0.00    -0.051 N 
ATOM     30  H42 UNL     1       4.234   0.158   0.326  1.00  0.00     0.279 HD
ATOM     31  H41 UNL     1       4.533  -0.503  -1.015  1.00  0.00     0.279 HD
BRANCH  29  32
HETATM   32  C6  UNL     1       4.829   1.579  -1.109  1.00  0.00     0.460 C 
BRANCH  32  33
HETATM   33  N5  UNL     1       6.211   1.413  -0.721  1.00  0.00    -0.056 N 
ATOM     34  H53 UNL     1       6.330   1.214   0.272  1.00  0.00     0.276 HD
ATOM     35  H52 UNL     1       6.629   0.552  -1.074  1.00  0.00     0.276 HD
ATOM     36  H51 UNL     1       6.701   2.254  -1.026  1.00  0.00     0.276 HD
ENDBRANCH  32  33
ENDBRANCH  29  32
ENDBRANCH  28  29
ENDBRANCH  27  28
ENDBRANCH   6  27
TORSDOF 12
