REMARK  9 active torsions:
REMARK  status: ('A' for Active; 'I' for Inactive)
REMARK    1  A    between atoms: C4_5  and  O1_6 
REMARK    2  A    between atoms: C4_5  and  N2_8 
REMARK    3  A    between atoms: N2_8  and  C5_9 
REMARK    4  A    between atoms: N2_8  and  C10_16 
REMARK    5  A    between atoms: C5_9  and  C6_10 
REMARK    6  A    between atoms: C5_9  and  C7_13 
REMARK    7  A    between atoms: C6_10  and  O2_11 
REMARK    8  A    between atoms: C14_20  and  C15_21 
REMARK    9  A    between atoms: C15_21  and  C17_23 
ROOT
HETATM    1  C1  UNL     1      -1.986   1.249   3.439  1.00  0.00     0.041 C 
HETATM    2  C2  UNL     1      -1.445   1.340   2.064  1.00  0.00     0.136 C 
HETATM    3  C3  UNL     1      -0.842  -0.034   1.704  1.00  0.00     0.164 C 
HETATM    4  N1  UNL     1      -0.984  -0.201   0.272  1.00  0.00    -0.315 N 
HETATM    5  C4  UNL     1       0.051  -0.226  -0.619  1.00  0.00     0.226 C 
HETATM    6  C14 UNL     1      -2.431  -0.311  -0.007  1.00  0.00     0.026 C 
HETATM    7  C18 UNL     1      -3.124   0.947   0.461  1.00  0.00     0.164 C 
HETATM    8  C19 UNL     1      -4.291   0.652   1.405  1.00  0.00     0.046 C 
HETATM    9  O3  UNL     1      -2.235   1.832   1.084  1.00  0.00    -0.374 OA
ENDROOT
BRANCH   5  10
HETATM   10  O1  UNL     1      -0.495  -0.299  -1.846  1.00  0.00    -0.332 OA
ATOM     11  H1  UNL     1       0.225  -0.316  -2.466  1.00  0.00     0.221 HD
ENDBRANCH   5  10
BRANCH   5  12
HETATM   12  N2  UNL     1       1.461  -0.202  -0.663  1.00  0.00    -0.309 N 
BRANCH  12  13
HETATM   13  C5  UNL     1       2.459  -0.122   0.330  1.00  0.00     0.020 C 
BRANCH  13  14
HETATM   14  C6  UNL     1       2.643  -1.328   1.225  1.00  0.00     0.217 C 
BRANCH  14  15
HETATM   15  O2  UNL     1       2.954  -2.453   0.471  1.00  0.00    -0.395 OA
ATOM     16  H2  UNL     1       3.070  -3.210   1.033  1.00  0.00     0.209 HD
ENDBRANCH  14  15
ENDBRANCH  13  14
BRANCH  13  17
HETATM   17  C7  UNL     1       2.613   1.150   1.103  1.00  0.00     0.026 C 
HETATM   18  C8  UNL     1       3.748   1.041   2.128  1.00  0.00     0.016 C 
HETATM   19  C9  UNL     1       3.013   2.355   0.251  1.00  0.00     0.016 C 
ENDBRANCH  13  17
ENDBRANCH  12  13
BRANCH  12  20
HETATM   20  C10 UNL     1       1.952  -0.291  -2.091  1.00  0.00     0.029 C 
HETATM   21  C11 UNL     1       1.422  -1.594  -2.712  1.00  0.00     0.038 C 
HETATM   22  C12 UNL     1       1.405   0.850  -2.912  1.00  0.00     0.038 C 
HETATM   23  C13 UNL     1       3.415  -0.333  -2.252  1.00  0.00     0.038 C 
ENDBRANCH  12  20
ENDBRANCH   5  12
BRANCH   6  24
HETATM   24  C15 UNL     1      -2.927  -0.832  -1.243  1.00  0.00     0.044 C 
HETATM   25  C16 UNL     1      -4.495  -0.748  -1.160  1.00  0.00     0.017 C 
BRANCH  24  26
HETATM   26  C17 UNL     1      -2.757  -2.327  -1.474  1.00  0.00     0.124 C 
HETATM   27 CL1  UNL     1      -3.639  -3.208  -0.164  1.00  0.00    -0.130 Cl
ENDBRANCH  24  26
ENDBRANCH   6  24
TORSDOF 9
