REMARK  4 active torsions:
REMARK  status: ('A' for Active; 'I' for Inactive)
REMARK    1  A    between atoms: C6_7  and  N1_8 
REMARK    2  A    between atoms: N2_11  and  C9_12 
REMARK    3  A    between atoms: C9_12  and  C10_13 
REMARK       I    between atoms: C10_13  and  N3_15 
REMARK    4  A    between atoms: N3_15  and  C11_17 
ROOT
HETATM    1  N1  UNL     1       3.763   0.339   0.100  1.00  0.00    -0.377 N 
HETATM    2  C7  UNL     1       3.480  -0.523   1.217  1.00  0.00     0.153 C 
HETATM    3  C8  UNL     1       2.156  -0.106   1.819  1.00  0.00     0.292 C 
HETATM    4  N2  UNL     1       1.183  -0.110   0.719  1.00  0.00     0.100 N 
HETATM    5  C19 UNL     1       1.432   1.156   0.034  1.00  0.00     0.292 C 
HETATM    6  C20 UNL     1       2.797   1.168  -0.553  1.00  0.00     0.153 C 
ENDROOT
BRANCH   4   7
HETATM    7  C9  UNL     1      -0.165  -0.148   1.260  1.00  0.00     0.374 C 
BRANCH   7   8
HETATM    8  C10 UNL     1      -1.156  -0.334   0.207  1.00  0.00     0.246 C 
HETATM    9  O1  UNL     1      -0.815  -0.466  -0.986  1.00  0.00    -0.272 OA
HETATM   10  N3  UNL     1      -2.535  -0.370   0.523  1.00  0.00    -0.355 N 
ATOM     11  H3  UNL     1      -2.814  -0.261   1.498  1.00  0.00     0.162 HD
BRANCH  10  12
HETATM   12  C11 UNL     1      -3.565  -0.554  -0.472  1.00  0.00     0.084 C 
HETATM   13  C12 UNL     1      -4.362  -1.794  -0.192  1.00  0.00     0.025 C 
HETATM   14  C13 UNL     1      -5.228  -1.697   1.023  1.00  0.00     0.002 C 
HETATM   15  C14 UNL     1      -6.174  -0.564   1.051  1.00  0.00     0.000 C 
HETATM   16  C15 UNL     1      -6.731  -0.140  -0.259  1.00  0.00     0.004 C 
HETATM   17  C16 UNL     1      -5.742   0.310  -1.271  1.00  0.00    -0.017 C 
HETATM   18  C17 UNL     1      -6.281   1.525  -2.013  1.00  0.00     0.010 C 
HETATM   19  C18 UNL     1      -4.429   0.673  -0.639  1.00  0.00     0.029 C 
ENDBRANCH  10  12
ENDBRANCH   7   8
ENDBRANCH   4   7
BRANCH   1  20
HETATM   20  C6  UNL     1       5.119   0.371  -0.397  1.00  0.00     0.032 A 
HETATM   21  C5  UNL     1       5.460   1.236  -1.410  1.00  0.00     0.053 A 
HETATM   22  C4  UNL     1       6.736   1.300  -1.913  1.00  0.00     0.036 A 
HETATM   23  C3  UNL     1       7.685   0.453  -1.358  1.00  0.00     0.030 A 
HETATM   24 CL1  UNL     1       7.188   2.406  -3.213  1.00  0.00    -0.084 Cl
HETATM   25  C2  UNL     1       7.363  -0.419  -0.343  1.00  0.00    -0.058 A 
HETATM   26  C1  UNL     1       8.365  -1.330   0.259  1.00  0.00     0.048 C 
HETATM   27  C21 UNL     1       6.075  -0.453   0.132  1.00  0.00     0.036 A 
ENDBRANCH   1  20
TORSDOF 4
