REMARK  4 active torsions:
REMARK  status: ('A' for Active; 'I' for Inactive)
REMARK    1  A    between atoms: O1_2  and  C2_3 
REMARK    2  A    between atoms: C4_5  and  C5_6 
REMARK    3  A    between atoms: C9_10  and  C10_11 
REMARK    4  A    between atoms: C15_17  and  N1_18 
REMARK       I    between atoms: C16_20  and  N3_22 
ROOT
HETATM    1  C2  UNL     1      -0.355   0.007  -0.341  1.00  0.00     0.095 A 
HETATM    2  C3  UNL     1       1.048  -0.094  -0.363  1.00  0.00     0.048 A 
HETATM    3  C4  UNL     1       1.704  -1.232  -0.010  1.00  0.00    -0.029 A 
HETATM    4  C13 UNL     1       0.915  -2.322   0.385  1.00  0.00     0.043 A 
HETATM    5 CL1  UNL     1       1.680  -3.875   0.834  1.00  0.00    -0.084 Cl
HETATM    6  C14 UNL     1      -0.442  -2.209   0.395  1.00  0.00     0.056 A 
HETATM    7  C15 UNL     1      -1.152  -1.056   0.036  1.00  0.00     0.069 A 
ENDROOT
BRANCH   7   8
HETATM    8  N1  UNL     1      -2.562  -1.005   0.030  1.00  0.00    -0.328 N 
HETATM    9  C16 UNL     1      -3.243  -0.141   0.681  1.00  0.00     0.191 C 
HETATM   10  N2  UNL     1      -2.688   0.875   1.506  1.00  0.00    -0.063 NA
HETATM   11  N3  UNL     1      -4.682  -0.131   0.567  1.00  0.00    -0.351 N 
HETATM   12  C17 UNL     1      -5.396  -1.114  -0.245  1.00  0.00     0.151 C 
HETATM   13  C20 UNL     1      -5.429   0.858   1.258  1.00  0.00     0.151 C 
HETATM   14  C18 UNL     1      -6.834  -0.631  -0.351  1.00  0.00     0.187 C 
HETATM   15  O2  UNL     1      -6.931   0.724  -0.642  1.00  0.00    -0.388 OA
HETATM   16  C19 UNL     1      -6.376   1.542   0.301  1.00  0.00     0.187 C 
ATOM     17  H1  UNL     1      -3.066  -1.696  -0.525  1.00  0.00     0.168 HD
ENDBRANCH   7   8
BRANCH   1  18
HETATM   18  O1  UNL     1      -0.962   1.202  -0.711  1.00  0.00    -0.354 OA
HETATM   19  C1  UNL     1      -0.397   2.396  -1.092  1.00  0.00     0.210 C 
ENDBRANCH   1  18
BRANCH   3  20
HETATM   20  C5  UNL     1       3.149  -1.324   0.064  1.00  0.00     0.025 C 
HETATM   21  C6  UNL     1       3.764  -2.166  -1.068  1.00  0.00     0.010 C 
HETATM   22  C7  UNL     1       5.224  -1.675  -0.960  1.00  0.00     0.001 C 
HETATM   23  C8  UNL     1       4.976  -0.210  -1.121  1.00  0.00     0.005 C 
HETATM   24  C9  UNL     1       3.780   0.062  -0.228  1.00  0.00    -0.002 C 
BRANCH  24  25
HETATM   25  C10 UNL     1       4.128   0.773   1.034  1.00  0.00    -0.010 A 
HETATM   26  C11 UNL     1       4.750   2.124   0.924  1.00  0.00     0.005 A 
HETATM   27  C12 UNL     1       5.493   0.934   1.522  1.00  0.00     0.005 A 
ENDBRANCH  24  25
ENDBRANCH   3  20
TORSDOF 4
