REMARK  3 active torsions:
REMARK  status: ('A' for Active; 'I' for Inactive)
REMARK    1  A    between atoms: C2_2  and  C3_3 
REMARK    2  A    between atoms: C3_3  and  N1_4 
REMARK    3  A    between atoms: N1_4  and  N3_8 
ROOT
HETATM    1  N1  UNL     1       0.758  -0.443   0.128  1.00  0.00    -0.239 N 
HETATM    2  N2  UNL     1       0.913  -1.473  -0.599  1.00  0.00    -0.329 N 
ATOM      3  H21 UNL     1       0.084  -1.894  -1.018  1.00  0.00     0.178 HD
ATOM      4  H22 UNL     1       1.823  -1.896  -0.780  1.00  0.00     0.178 HD
ENDROOT
BRANCH   1   5
HETATM    5  C3  UNL     1       1.934   0.154   0.722  1.00  0.00     0.195 C 
BRANCH   5   6
HETATM    6  C2  UNL     1       3.165  -0.589   0.352  1.00  0.00    -0.014 C 
HETATM    7  C1  UNL     1       4.133   0.028  -0.300  1.00  0.00     0.008 C 
ENDBRANCH   5   6
ENDBRANCH   1   5
BRANCH   1   8
HETATM    8  N3  UNL     1      -0.484   0.134   0.375  1.00  0.00    -0.298 N 
HETATM    9  C4  UNL     1      -1.363   0.962   1.142  1.00  0.00     0.177 A 
HETATM   10  C5  UNL     1      -1.856   0.261  -0.068  1.00  0.00     0.060 A 
HETATM   11  C6  UNL     1      -2.203   1.102  -1.247  1.00  0.00     0.041 C 
HETATM   12  C7  UNL     1      -2.665  -1.012   0.066  1.00  0.00     0.041 C 
ENDBRANCH   1   8
TORSDOF 3
