REMARK  3 active torsions:
REMARK  status: ('A' for Active; 'I' for Inactive)
REMARK    1  A    between atoms: C5_6  and  O2_7 
REMARK    2  A    between atoms: O2_7  and  C6_8 
REMARK    3  A    between atoms: C14_17  and  C15_18 
ROOT
HETATM    1  C6  UNL     1      -0.667  -0.013  -0.270  1.00  0.00     0.095 A 
HETATM    2  C7  UNL     1      -1.057   1.284  -0.046  1.00  0.00    -0.021 A 
HETATM    3  C8  UNL     1      -0.065   2.408   0.117  1.00  0.00     0.052 C 
HETATM    4  C9  UNL     1      -2.407   1.561   0.018  1.00  0.00    -0.046 A 
HETATM    5  C10 UNL     1      -2.867   2.954   0.263  1.00  0.00     0.049 C 
HETATM    6  C11 UNL     1      -3.372   0.600  -0.132  1.00  0.00    -0.033 A 
HETATM    7  C12 UNL     1      -4.822   0.933  -0.019  1.00  0.00     0.050 C 
HETATM    8  C13 UNL     1      -2.943  -0.709  -0.359  1.00  0.00     0.053 A 
HETATM    9 CL1  UNL     1      -4.248  -1.880  -0.539  1.00  0.00    -0.083 Cl
HETATM   10  C14 UNL     1      -1.605  -1.066  -0.436  1.00  0.00     0.022 A 
ENDROOT
BRANCH   1  11
HETATM   11  O2  UNL     1       0.610  -0.362  -0.359  1.00  0.00    -0.301 OA
BRANCH  11  12
HETATM   12  C5  UNL     1       1.835  -0.146   0.037  1.00  0.00     0.174 A 
HETATM   13  C4  UNL     1       2.335  -0.365   1.287  1.00  0.00     0.211 A 
HETATM   14  C3  UNL     1       3.670  -0.096   1.568  1.00  0.00     0.090 A 
HETATM   15  O1  UNL     1       1.649  -0.803   2.224  1.00  0.00    -0.285 OA
HETATM   16  C2  UNL     1       4.496   0.394   0.587  1.00  0.00     0.055 A 
HETATM   17  C1  UNL     1       5.909   0.688   0.829  1.00  0.00     0.077 C 
HETATM   18  O3  UNL     1       4.007   0.601  -0.597  1.00  0.00    -0.298 OA
HETATM   19  C18 UNL     1       2.766   0.357  -0.885  1.00  0.00     0.195 A 
HETATM   20  N1  UNL     1       2.341   0.620  -2.236  1.00  0.00    -0.071 NA
ENDBRANCH  11  12
ENDBRANCH   1  11
BRANCH  10  21
HETATM   21  C15 UNL     1      -1.241  -2.456  -0.520  1.00  0.00    -0.073 C 
HETATM   22  C16 UNL     1      -0.654  -3.004  -1.775  1.00  0.00     0.044 C 
HETATM   23  C17 UNL     1      -0.803  -3.175   0.707  1.00  0.00     0.044 C 
ENDBRANCH  10  21
TORSDOF 3
