REMARK  5 active torsions:
REMARK  status: ('A' for Active; 'I' for Inactive)
REMARK    1  A    between atoms: C2_2  and  O1_3 
REMARK    2  A    between atoms: O1_3  and  C3_4 
REMARK    3  A    between atoms: C3_4  and  C4_6 
REMARK    4  A    between atoms: C6_11  and  C7_12 
REMARK    5  A    between atoms: C14_23  and  C15_24 
ROOT
HETATM    1  C4  UNL     1      -1.661   1.132   0.056  1.00  0.00     0.091 A 
HETATM    2  S1  UNL     1      -0.524   2.454   0.081  1.00  0.00    -0.063 SA
HETATM    3  C5  UNL     1       0.920   1.580   0.051  1.00  0.00     0.104 A 
HETATM    4  N1  UNL     1       2.280   1.684   0.043  1.00  0.00    -0.334 N 
ATOM      5  H1  UNL     1       2.820   2.549   0.060  1.00  0.00     0.168 HD
HETATM    6  C6  UNL     1       2.768   0.457   0.009  1.00  0.00     0.120 A 
HETATM    7  N2  UNL     1       1.711  -0.396  -0.004  1.00  0.00    -0.339 N 
ATOM      8  H2  UNL     1       1.795  -1.412  -0.030  1.00  0.00     0.167 HD
HETATM    9  C13 UNL     1       0.518   0.277   0.022  1.00  0.00     0.076 A 
HETATM   10  C14 UNL     1      -0.830   0.036   0.024  1.00  0.00     0.002 A 
ENDROOT
BRANCH   6  11
HETATM   11  C7  UNL     1       4.195   0.055  -0.011  1.00  0.00     0.047 A 
HETATM   12  C8  UNL     1       4.599  -1.256  -0.046  1.00  0.00     0.021 A 
HETATM   13  C9  UNL     1       5.960  -1.569  -0.064  1.00  0.00     0.043 A 
HETATM   14  C10 UNL     1       6.906  -0.566  -0.047  1.00  0.00     0.119 A 
HETATM   15  F1  UNL     1       8.228  -0.842  -0.063  1.00  0.00    -0.206 F 
HETATM   16  C11 UNL     1       6.512   0.753  -0.011  1.00  0.00     0.085 A 
HETATM   17  C12 UNL     1       5.163   1.033   0.006  1.00  0.00     0.133 A 
HETATM   18  F2  UNL     1       4.785   2.330   0.040  1.00  0.00    -0.205 F 
ENDBRANCH   6  11
BRANCH  10  19
HETATM   19  C15 UNL     1      -1.421  -1.364  -0.026  1.00  0.00    -0.020 C 
HETATM   20  C16 UNL     1      -2.264  -1.573  -1.270  1.00  0.00     0.019 C 
HETATM   21  C17 UNL     1      -0.347  -2.458   0.010  1.00  0.00     0.019 C 
HETATM   22  C18 UNL     1      -2.283  -1.653   1.179  1.00  0.00     0.019 C 
ENDBRANCH  10  19
BRANCH   1  23
HETATM   23  C3  UNL     1      -3.111   1.310   0.076  1.00  0.00     0.301 C 
HETATM   24  O2  UNL     1      -4.030   0.502   0.070  1.00  0.00    -0.259 OA
BRANCH  23  25
HETATM   25  O1  UNL     1      -3.551   2.672   0.108  1.00  0.00    -0.317 OA
BRANCH  25  26
HETATM   26  C2  UNL     1      -4.946   2.951   0.130  1.00  0.00     0.174 C 
HETATM   27  C1  UNL     1      -5.653   2.402  -1.083  1.00  0.00     0.034 C 
ENDBRANCH  25  26
ENDBRANCH  23  25
ENDBRANCH   1  23
TORSDOF 5
