REMARK  6 active torsions:
REMARK  status: ('A' for Active; 'I' for Inactive)
REMARK    1  A    between atoms: C5_6  and  N2_7 
REMARK       I    between atoms: N2_7  and  C6_9 
REMARK    2  A    between atoms: C6_9  and  C7_11 
REMARK    3  A    between atoms: N3_13  and  C9_14 
REMARK    4  A    between atoms: C9_14  and  C10_15 
REMARK    5  A    between atoms: C10_15  and  N4_16 
REMARK    6  A    between atoms: C13_19  and  C14_20 
ROOT
HETATM    1  C1  UNL     1       9.322  -1.229  -1.583  1.00  0.00     0.229 C 
HETATM    2  N1  UNL     1       8.262  -0.978  -1.164  1.00  0.00    -0.428 NA
HETATM    3  C2  UNL     1       7.002  -0.699  -0.659  1.00  0.00     0.120 A 
HETATM    4  C3  UNL     1       6.672   0.595  -0.316  1.00  0.00     0.050 A 
HETATM    5  C4  UNL     1       5.420   0.837   0.179  1.00  0.00     0.052 A 
HETATM    6  C5  UNL     1       4.469  -0.138   0.356  1.00  0.00     0.107 A 
HETATM    7  N5  UNL     1       4.818  -1.387   0.014  1.00  0.00    -0.349 N 
ATOM      8  H5  UNL     1       4.144  -2.145   0.128  1.00  0.00     0.167 HD
HETATM    9  C20 UNL     1       6.055  -1.661  -0.482  1.00  0.00     0.134 A 
ENDROOT
BRANCH   6  10
HETATM   10  N2  UNL     1       3.339   0.135   0.814  1.00  0.00    -0.309 N 
HETATM   11  C6  UNL     1       2.235  -0.673   1.075  1.00  0.00     0.259 C 
HETATM   12  O1  UNL     1       2.419  -1.717   1.752  1.00  0.00    -0.267 OA
ATOM     13  H2  UNL     1       3.201   1.121   1.035  1.00  0.00     0.170 HD
BRANCH  11  14
HETATM   14  C7  UNL     1       0.870  -0.355   0.592  1.00  0.00     0.055 A 
HETATM   15  C8  UNL     1      -0.232  -1.116   0.784  1.00  0.00     0.108 A 
HETATM   16  N3  UNL     1      -1.333  -0.512   0.188  1.00  0.00    -0.356 N 
HETATM   17  C13 UNL     1      -0.927   0.626  -0.380  1.00  0.00     0.026 A 
HETATM   18  C18 UNL     1       0.468   0.729  -0.124  1.00  0.00    -0.021 A 
HETATM   19  C19 UNL     1       1.337   1.816  -0.536  1.00  0.00     0.051 C 
BRANCH  16  20
HETATM   20  C9  UNL     1      -2.577  -1.197   0.359  1.00  0.00     0.158 C 
BRANCH  20  21
HETATM   21  C10 UNL     1      -3.159  -0.768   1.721  1.00  0.00     0.291 C 
BRANCH  21  22
HETATM   22  N4  UNL     1      -4.411  -1.385   2.007  1.00  0.00     0.081 N 
HETATM   23  C11 UNL     1      -5.507  -0.979   1.189  1.00  0.00     0.309 C 
HETATM   24  C12 UNL     1      -4.328  -2.810   2.202  1.00  0.00     0.309 C 
ENDBRANCH  21  22
ENDBRANCH  20  21
ENDBRANCH  16  20
BRANCH  17  25
HETATM   25  C14 UNL     1      -1.694   1.589  -1.125  1.00  0.00    -0.008 C 
HETATM   26  C15 UNL     1      -1.708   2.984  -0.555  1.00  0.00     0.021 C 
HETATM   27  C16 UNL     1      -0.994   1.763  -2.512  1.00  0.00     0.021 C 
HETATM   28  C17 UNL     1      -3.118   1.216  -1.387  1.00  0.00     0.021 C 
ENDBRANCH  17  25
ENDBRANCH  11  14
ENDBRANCH   6  10
TORSDOF 6
