REMARK  5 active torsions:
REMARK  status: ('A' for Active; 'I' for Inactive)
REMARK    1  A    between atoms: C4_4  and  N1_5 
REMARK    2  A    between atoms: N1_5  and  N2_7 
REMARK    3  A    between atoms: C6_9  and  C7_11 
REMARK    4  A    between atoms: C7_11  and  C8_12 
REMARK       I    between atoms: C8_12  and  N4_14 
REMARK    5  A    between atoms: N4_14  and  C10_16 
ROOT
HETATM    1  C8  UNL     1       0.841  -0.147   0.284  1.00  0.00     0.226 C 
HETATM    2  O1  UNL     1       0.708   0.823   1.079  1.00  0.00    -0.273 OA
HETATM    3  N4  UNL     1      -0.373  -0.732  -0.234  1.00  0.00    -0.351 N 
HETATM    4  C9  UNL     1      -0.161  -1.863  -1.118  1.00  0.00     0.153 C 
ENDROOT
BRANCH   3   5
HETATM    5  C10 UNL     1      -1.680  -0.219   0.135  1.00  0.00     0.096 C 
HETATM    6  C11 UNL     1      -2.479  -1.198   0.912  1.00  0.00     0.035 C 
HETATM    7  C12 UNL     1      -3.936  -1.189   0.773  1.00  0.00    -0.045 C 
HETATM    8  C13 UNL     1      -4.625  -0.976   2.137  1.00  0.00     0.015 C 
HETATM    9  C14 UNL     1      -4.466  -2.569   0.330  1.00  0.00     0.015 C 
HETATM   10  C15 UNL     1      -4.552  -0.204  -0.155  1.00  0.00     0.018 C 
HETATM   11  C16 UNL     1      -3.704   0.996  -0.489  1.00  0.00    -0.038 C 
HETATM   12  C17 UNL     1      -4.478   1.729  -1.592  1.00  0.00     0.015 C 
HETATM   13  C18 UNL     1      -3.628   1.938   0.655  1.00  0.00     0.015 C 
HETATM   14  C19 UNL     1      -2.378   0.467  -0.979  1.00  0.00    -0.020 C 
HETATM   15  C20 UNL     1      -1.543   1.700  -1.352  1.00  0.00     0.018 C 
HETATM   16  C21 UNL     1      -2.573  -0.302  -2.236  1.00  0.00     0.018 C 
ENDBRANCH   3   5
BRANCH   1  17
HETATM   17  C7  UNL     1       2.168  -0.629  -0.071  1.00  0.00     0.177 C 
BRANCH  17  18
HETATM   18  C6  UNL     1       2.912  -0.959   1.186  1.00  0.00     0.116 C 
HETATM   19  N2  UNL     1       3.991  -0.356   1.507  1.00  0.00    -0.293 N 
ATOM     20  H2  UNL     1       4.434  -0.640   2.381  1.00  0.00     0.187 HD
HETATM   21  N3  UNL     1       2.430  -1.967   2.075  1.00  0.00    -0.086 NA
BRANCH  19  22
HETATM   22  N1  UNL     1       4.619   0.646   0.785  1.00  0.00    -0.326 N 
HETATM   23  C5  UNL     1       4.235   2.039   0.868  1.00  0.00     0.171 C 
BRANCH  22  24
HETATM   24  C4  UNL     1       5.727   0.287  -0.108  1.00  0.00     0.106 A 
HETATM   25  C2  UNL     1       7.042   0.931   0.173  1.00  0.00     0.008 A 
HETATM   26  C1  UNL     1       7.843   1.318  -1.069  1.00  0.00     0.012 C 
HETATM   27  C3  UNL     1       6.874  -0.508   0.508  1.00  0.00     0.033 A 
ENDBRANCH  22  24
ENDBRANCH  19  22
ENDBRANCH  17  18
ENDBRANCH   1  17
TORSDOF 5
