REMARK  4 active torsions:
REMARK  status: ('A' for Active; 'I' for Inactive)
REMARK    1  A    between atoms: C2_2  and  C4_5 
REMARK    2  A    between atoms: N2_8  and  C7_9 
REMARK    3  A    between atoms: C7_9  and  C8_10 
REMARK       I    between atoms: C8_10  and  N3_12 
REMARK    4  A    between atoms: N3_12  and  C9_14 
ROOT
HETATM    1  C1  UNL     1       7.319   0.306  -0.663  1.00  0.00     0.026 C 
HETATM    2  C2  UNL     1       6.129  -0.453  -0.128  1.00  0.00     0.093 C 
HETATM    3  C3  UNL     1       6.578  -1.124   1.106  1.00  0.00     0.064 C 
HETATM    4  N1  UNL     1       6.927  -1.659   2.057  1.00  0.00    -0.197 NA
ENDROOT
BRANCH   2   5
HETATM    5  C4  UNL     1       4.961   0.457   0.179  1.00  0.00     0.006 C 
HETATM    6  C5  UNL     1       4.491   1.188  -1.046  1.00  0.00     0.036 C 
HETATM    7  C6  UNL     1       3.572   0.229  -1.770  1.00  0.00     0.273 C 
HETATM    8  N2  UNL     1       2.297   0.254  -1.063  1.00  0.00     0.097 N 
HETATM    9  C21 UNL     1       2.470   0.089   0.357  1.00  0.00     0.273 C 
HETATM   10  C22 UNL     1       3.829  -0.259   0.843  1.00  0.00     0.036 C 
BRANCH   8  11
HETATM   11  C7  UNL     1       1.562  -0.886  -1.580  1.00  0.00     0.374 C 
BRANCH  11  12
HETATM   12  C8  UNL     1       0.162  -0.984  -1.173  1.00  0.00     0.246 C 
HETATM   13  O1  UNL     1      -0.460  -2.014  -1.605  1.00  0.00    -0.272 OA
HETATM   14  N3  UNL     1      -0.526  -0.071  -0.382  1.00  0.00    -0.350 N 
ATOM     15  H3  UNL     1      -0.015   0.747  -0.050  1.00  0.00     0.163 HD
BRANCH  14  16
HETATM   16  C9  UNL     1      -1.918  -0.197   0.006  1.00  0.00     0.034 C 
HETATM   17  C10 UNL     1      -2.209  -1.439   0.786  1.00  0.00     0.035 C 
HETATM   18  C11 UNL     1      -3.680  -1.411   1.157  1.00  0.00    -0.011 C 
HETATM   19  C12 UNL     1      -4.544  -1.394  -0.074  1.00  0.00     0.014 C 
HETATM   20  C18 UNL     1      -4.046  -0.223   2.000  1.00  0.00     0.014 C 
HETATM   21  C13 UNL     1      -4.265  -0.130  -0.840  1.00  0.00    -0.041 C 
HETATM   22  C14 UNL     1      -5.041  -0.152  -2.159  1.00  0.00     0.015 C 
HETATM   23  C15 UNL     1      -4.535   1.113  -0.053  1.00  0.00     0.018 C 
HETATM   24  C20 UNL     1      -2.785  -0.120  -1.208  1.00  0.00     0.040 C 
HETATM   25  C16 UNL     1      -3.718   1.025   1.218  1.00  0.00    -0.041 C 
HETATM   26  C17 UNL     1      -4.031   2.246   2.032  1.00  0.00     0.015 C 
HETATM   27  C19 UNL     1      -2.257   0.994   0.900  1.00  0.00     0.040 C 
ENDBRANCH  14  16
ENDBRANCH  11  12
ENDBRANCH   8  11
ENDBRANCH   2   5
TORSDOF 4
