REMARK  8 active torsions:
REMARK  status: ('A' for Active; 'I' for Inactive)
REMARK    1  A    between atoms: C2_2  and  C4_4 
REMARK    2  A    between atoms: N1_6  and  S1_7 
REMARK    3  A    between atoms: C8_12  and  C9_13 
REMARK    4  A    between atoms: C12_16  and  C13_17 
REMARK       I    between atoms: C13_17  and  N2_19 
REMARK    5  A    between atoms: N2_19  and  S2_21 
REMARK    6  A    between atoms: S2_21  and  C14_24 
REMARK    7  A    between atoms: C17_27  and  C18_28 
REMARK    8  A    between atoms: C21_32  and  C22_33 
ROOT
HETATM    1  C9  UNL     1       1.341   0.296  -0.503  1.00  0.00    -0.052 A 
HETATM    2  C10 UNL     1       1.114   1.634  -0.730  1.00  0.00     0.009 A 
HETATM    3  C11 UNL     1      -0.156   2.018  -0.990  1.00  0.00     0.018 A 
HETATM    4  C12 UNL     1      -1.231   1.098  -1.031  1.00  0.00     0.044 A 
HETATM    5  C17 UNL     1      -1.032  -0.227  -0.812  1.00  0.00     0.028 A 
HETATM    6  C25 UNL     1       0.298  -0.599  -0.545  1.00  0.00     0.021 A 
ENDROOT
BRANCH   1   7
HETATM    7  C8  UNL     1       2.719  -0.173  -0.209  1.00  0.00     0.038 C 
HETATM    8  C4  UNL     1       3.778   0.419  -1.059  1.00  0.00     0.013 C 
HETATM    9  C5  UNL     1       4.696   1.120  -0.046  1.00  0.00     0.113 C 
HETATM   10  N1  UNL     1       4.518   0.302   1.110  1.00  0.00    -0.210 NA
HETATM   11  C7  UNL     1       3.095   0.100   1.238  1.00  0.00     0.117 C 
BRANCH   8  12
HETATM   12  C2  UNL     1       4.634  -0.571  -1.809  1.00  0.00    -0.017 C 
HETATM   13  C1  UNL     1       5.735   0.239  -2.493  1.00  0.00     0.010 C 
HETATM   14  C3  UNL     1       5.310  -1.565  -0.909  1.00  0.00     0.010 C 
ENDBRANCH   8  12
BRANCH  10  15
HETATM   15  S1  UNL     1       5.269   0.850   2.530  1.00  0.00     0.207 S 
HETATM   16  C6  UNL     1       7.027   0.909   2.257  1.00  0.00     0.180 C 
HETATM   17  O1  UNL     1       5.011  -0.177   3.614  1.00  0.00    -0.212 OA
HETATM   18  O2  UNL     1       4.775   2.174   3.015  1.00  0.00    -0.212 OA
ENDBRANCH  10  15
ENDBRANCH   1   7
BRANCH   5  19
HETATM   19  C18 UNL     1      -2.043  -1.268  -0.904  1.00  0.00     0.326 C 
HETATM   20  F1  UNL     1      -2.335  -1.386  -2.287  1.00  0.00    -0.203 F 
HETATM   21  C19 UNL     1      -3.346  -1.114  -0.236  1.00  0.00     0.083 C 
HETATM   22  C20 UNL     1      -4.108  -2.429  -0.108  1.00  0.00     0.020 C 
HETATM   23  C21 UNL     1      -3.705  -3.427  -1.130  1.00  0.00     0.122 C 
HETATM   24  C23 UNL     1      -2.230  -3.563  -1.303  1.00  0.00     0.290 C 
HETATM   25  N3  UNL     1      -1.470  -2.582  -0.589  1.00  0.00     0.129 N 
HETATM   26  C24 UNL     1      -1.418  -2.893   0.795  1.00  0.00     0.314 C 
BRANCH  23  27
HETATM   27  C22 UNL     1      -4.455  -4.711  -0.909  1.00  0.00     0.393 C 
HETATM   28  F2  UNL     1      -5.839  -4.501  -1.013  1.00  0.00    -0.171 F 
HETATM   29  F3  UNL     1      -4.284  -5.266   0.339  1.00  0.00    -0.171 F 
HETATM   30  F4  UNL     1      -4.118  -5.690  -1.825  1.00  0.00    -0.171 F 
ENDBRANCH  23  27
ENDBRANCH   5  19
BRANCH   4  31
HETATM   31  C13 UNL     1      -2.497   1.745  -1.267  1.00  0.00     0.265 C 
HETATM   32  O3  UNL     1      -2.849   1.970  -2.439  1.00  0.00    -0.267 OA
HETATM   33  N2  UNL     1      -3.314   2.128  -0.199  1.00  0.00    -0.250 N 
ATOM     34  H2  UNL     1      -2.988   1.925   0.746  1.00  0.00     0.181 HD
BRANCH  33  35
HETATM   35  S2  UNL     1      -4.833   2.919  -0.370  1.00  0.00     0.237 S 
HETATM   36  O4  UNL     1      -4.908   3.405  -1.799  1.00  0.00    -0.205 OA
HETATM   37  O5  UNL     1      -5.938   1.951  -0.068  1.00  0.00    -0.205 OA
BRANCH  35  38
HETATM   38  C14 UNL     1      -4.939   4.327   0.689  1.00  0.00     0.130 A 
HETATM   39  C15 UNL     1      -6.381   4.835   0.845  1.00  0.00     0.023 A 
HETATM   40  C16 UNL     1      -5.668   4.207   2.009  1.00  0.00     0.023 A 
ENDBRANCH  35  38
ENDBRANCH  33  35
ENDBRANCH   4  31
TORSDOF 8
