REMARK  6 active torsions:
REMARK  status: ('A' for Active; 'I' for Inactive)
REMARK       I    between atoms: C2_2  and  N1_4 
REMARK    1  A    between atoms: N1_4  and  C3_6 
REMARK    2  A    between atoms: C3_6  and  C4_7 
REMARK    3  A    between atoms: C4_7  and  C5_8 
REMARK    4  A    between atoms: C4_7  and  C7_14 
REMARK    5  A    between atoms: C5_8  and  N2_10 
REMARK    6  A    between atoms: C9_19  and  N4_20 
REMARK       I    between atoms: N4_20  and  C10_22 
ROOT
HETATM    1  C7  UNL     1      -0.497  -0.061  -0.894  1.00  0.00     0.124 C 
HETATM    2  N3  UNL     1      -1.287  -0.708  -1.915  1.00  0.00    -0.352 N 
ATOM      3  H3  UNL     1      -1.102  -1.440  -2.601  1.00  0.00     0.163 HD
HETATM    4  C8  UNL     1      -2.439   0.088  -1.583  1.00  0.00     0.242 C 
HETATM    5  O2  UNL     1      -3.568   0.256  -2.105  1.00  0.00    -0.271 OA
HETATM    6  C9  UNL     1      -1.715   0.600  -0.390  1.00  0.00     0.199 C 
ENDROOT
BRANCH   1   7
HETATM    7  C4  UNL     1       0.240  -0.975   0.042  1.00  0.00     0.058 C 
BRANCH   7   8
HETATM    8  C3  UNL     1       0.982  -0.035   1.009  1.00  0.00     0.131 C 
BRANCH   8   9
HETATM    9  N1  UNL     1       1.938   0.795   0.317  1.00  0.00    -0.361 N 
HETATM   10  C2  UNL     1       2.708   1.711   1.055  1.00  0.00     0.213 C 
HETATM   11  C1  UNL     1       3.721   2.610   0.430  1.00  0.00     0.117 C 
HETATM   12  O1  UNL     1       2.574   1.815   2.301  1.00  0.00    -0.274 OA
ATOM     13  H1  UNL     1       2.054   0.718  -0.694  1.00  0.00     0.162 HD
ENDBRANCH   8   9
ENDBRANCH   7   8
BRANCH   7  14
HETATM   14  C5  UNL     1       1.294  -1.820  -0.582  1.00  0.00     0.187 C 
HETATM   15  C6  UNL     1       0.811  -2.836  -1.571  1.00  0.00     0.040 C 
BRANCH  14  16
HETATM   16  N2  UNL     1       1.992  -2.539   0.465  1.00  0.00    -0.075 N 
ATOM     17  H23 UNL     1       2.364  -1.918   1.184  1.00  0.00     0.274 HD
ATOM     18  H22 UNL     1       1.360  -3.077   1.057  1.00  0.00     0.274 HD
ATOM     19  H21 UNL     1       2.714  -3.118   0.037  1.00  0.00     0.274 HD
ENDBRANCH  14  16
ENDBRANCH   7  14
ENDBRANCH   1   7
BRANCH   6  20
HETATM   20  N4  UNL     1      -2.280   0.180   0.855  1.00  0.00    -0.350 N 
HETATM   21  C10 UNL     1      -3.473   0.875   1.279  1.00  0.00     0.182 C 
HETATM   22  N5  UNL     1      -4.468   0.228   1.764  1.00  0.00    -0.374 N 
HETATM   23  N6  UNL     1      -3.489   2.272   1.138  1.00  0.00    -0.064 NA
ATOM     24  H52 UNL     1      -4.456  -0.787   1.866  1.00  0.00     0.158 HD
ATOM     25  H51 UNL     1      -5.311   0.719   2.063  1.00  0.00     0.158 HD
ATOM     26  H4  UNL     1      -1.864  -0.567   1.411  1.00  0.00     0.163 HD
ENDBRANCH   6  20
TORSDOF 6
