REMARK  7 active torsions:
REMARK  status: ('A' for Active; 'I' for Inactive)
REMARK    1  A    between atoms: C3_3  and  C4_4 
REMARK    2  A    between atoms: C4_4  and  N1_5 
REMARK    3  A    between atoms: C4_4  and  C8_17 
REMARK       I    between atoms: N1_5  and  C5_7 
REMARK    4  A    between atoms: C5_7  and  C6_9 
REMARK    5  A    between atoms: C6_9  and  N2_10 
REMARK    6  A    between atoms: C6_9  and  C7_14 
REMARK    7  A    between atoms: C8_17  and  N4_19 
REMARK       I    between atoms: N4_19  and  C10_21 
ROOT
HETATM    1  N1  UNL     1       0.636  -0.033  -0.543  1.00  0.00    -0.349 N 
ATOM      2  H1  UNL     1       0.746  -1.044  -0.471  1.00  0.00     0.163 HD
HETATM    3  C5  UNL     1       1.790   0.760  -0.634  1.00  0.00     0.258 C 
HETATM    4  O1  UNL     1       1.736   2.011  -0.726  1.00  0.00    -0.271 OA
ENDROOT
BRANCH   1   5
HETATM    5  C4  UNL     1      -0.703   0.515  -0.546  1.00  0.00     0.129 C 
BRANCH   5   6
HETATM    6  C3  UNL     1      -1.455   0.044  -1.729  1.00  0.00    -0.004 C 
HETATM    7  C2  UNL     1      -2.229   0.868  -2.393  1.00  0.00    -0.033 C 
HETATM    8  C1  UNL     1      -2.367   2.303  -1.965  1.00  0.00     0.036 C 
ENDBRANCH   5   6
BRANCH   5   9
HETATM    9  C8  UNL     1      -1.432   0.219   0.746  1.00  0.00     0.108 C 
HETATM   10  C9  UNL     1      -0.553   0.754   1.882  1.00  0.00     0.034 C 
BRANCH   9  11
HETATM   11  N4  UNL     1      -1.603  -1.181   0.980  1.00  0.00    -0.339 N 
HETATM   12  C10 UNL     1      -2.898  -1.720   1.140  1.00  0.00     0.329 C 
HETATM   13  N5  UNL     1      -3.149  -3.082   1.372  1.00  0.00    -0.040 NA
HETATM   14  O3  UNL     1      -3.881  -0.916   1.066  1.00  0.00    -0.251 OA
ATOM     15  H4  UNL     1      -0.788  -1.792   1.031  1.00  0.00     0.164 HD
ENDBRANCH   9  11
ENDBRANCH   5   9
ENDBRANCH   1   5
BRANCH   3  16
HETATM   16  C6  UNL     1       3.135   0.140  -0.625  1.00  0.00     0.362 C 
BRANCH  16  17
HETATM   17  N2  UNL     1       3.001  -1.300  -0.515  1.00  0.00    -0.058 N 
ATOM     18  H23 UNL     1       2.444  -1.575   0.294  1.00  0.00     0.275 HD
ATOM     19  H22 UNL     1       2.402  -1.689  -1.243  1.00  0.00     0.275 HD
ATOM     20  H21 UNL     1       3.927  -1.727  -0.509  1.00  0.00     0.275 HD
ENDBRANCH  16  17
BRANCH  16  21
HETATM   21  C7  UNL     1       3.942   0.667   0.492  1.00  0.00     0.271 C 
HETATM   22  N3  UNL     1       4.448  -0.230   1.460  1.00  0.00    -0.060 NA
HETATM   23  O2  UNL     1       4.179   1.894   0.585  1.00  0.00    -0.274 OA
ENDBRANCH  16  21
ENDBRANCH   3  16
TORSDOF 7
