REMARK  4 active torsions:
REMARK  status: ('A' for Active; 'I' for Inactive)
REMARK    1  A    between atoms: C3_3  and  C4_4 
REMARK    2  A    between atoms: C4_4  and  C5_5 
REMARK    3  A    between atoms: C7_7  and  C8_8 
REMARK    4  A    between atoms: C10_11  and  C11_12 
ROOT
HETATM    1  C1  UNL     1      -0.670   1.000  -3.254  1.00  0.00     0.098 C 
HETATM    2  C2  UNL     1      -0.886   0.677  -2.091  1.00  0.00    -0.177 C 
HETATM    3  C3  UNL     1      -1.194   0.291  -0.691  1.00  0.00     0.024 A 
HETATM    4  C9  UNL     1      -2.602   0.762  -0.203  1.00  0.00     0.037 A 
HETATM    5  C10 UNL     1      -2.323  -0.647  -0.576  1.00  0.00     0.096 A 
ENDROOT
BRANCH   3   6
HETATM    6  C4  UNL     1      -0.139   0.517   0.311  1.00  0.00     0.027 C 
BRANCH   6   7
HETATM    7  C5  UNL     1       1.155  -0.179   0.180  1.00  0.00    -0.006 A 
HETATM    8  C6  UNL     1       2.121  -0.090  -0.903  1.00  0.00     0.012 A 
HETATM    9  C7  UNL     1       2.415   0.691   0.339  1.00  0.00     0.019 A 
BRANCH   9  10
HETATM   10  C8  UNL     1       3.432   0.222   1.328  1.00  0.00     0.227 C 
HETATM   11  F1  UNL     1       4.476   1.142   1.315  1.00  0.00    -0.255 F 
ENDBRANCH   9  10
ENDBRANCH   6   7
ENDBRANCH   3   6
BRANCH   5  12
HETATM   12  C11 UNL     1      -2.507  -1.674   0.431  1.00  0.00     0.236 C 
HETATM   13  N1  UNL     1      -2.025  -1.524   1.744  1.00  0.00    -0.062 NA
HETATM   14  O1  UNL     1      -3.109  -2.738   0.154  1.00  0.00    -0.276 OA
ENDBRANCH   5  12
TORSDOF 4
