REMARK  3 active torsions:
REMARK  status: ('A' for Active; 'I' for Inactive)
REMARK    1  A    between atoms: N1_1  and  N2_4 
REMARK    2  A    between atoms: N3_6  and  C1_8 
REMARK    3  A    between atoms: C4_17  and  C5_18 
REMARK       I    between atoms: C5_18  and  N6_20 
REMARK       I    between atoms: N6_20  and  C6_22 
ROOT
HETATM    1  C1  UNL     1       1.470  -0.344   0.014  1.00  0.00     0.146 A 
HETATM    2  N4  UNL     1       2.393  -1.301   0.053  1.00  0.00    -0.292 N 
ATOM      3  H4  UNL     1       3.378  -1.039   0.098  1.00  0.00     0.172 HD
HETATM    4  C2  UNL     1       2.066  -2.590   0.035  1.00  0.00     0.328 A 
HETATM    5  O1  UNL     1       2.963  -3.483   0.072  1.00  0.00    -0.247 OA
HETATM    6  N5  UNL     1       0.785  -2.981  -0.023  1.00  0.00    -0.275 N 
ATOM      7  H5  UNL     1       0.532  -3.969  -0.037  1.00  0.00     0.173 HD
HETATM    8  C3  UNL     1      -0.172  -1.999  -0.063  1.00  0.00     0.269 A 
HETATM    9  O2  UNL     1      -1.342  -2.435  -0.116  1.00  0.00    -0.267 OA
HETATM   10  C4  UNL     1       0.098  -0.668  -0.047  1.00  0.00     0.145 A 
ENDROOT
BRANCH   1  11
HETATM   11  N3  UNL     1       1.829   1.009   0.034  1.00  0.00    -0.270 N 
HETATM   12  N2  UNL     1       2.951   1.441   0.425  1.00  0.00    -0.248 N 
ATOM     13  H2  UNL     1       3.662   0.788   0.754  1.00  0.00     0.207 HD
ATOM     14  H3  UNL     1       1.141   1.690  -0.288  1.00  0.00     0.190 HD
BRANCH  12  15
HETATM   15  N1  UNL     1       3.217   2.808   0.407  1.00  0.00    -0.331 N 
ATOM     16  H12 UNL     1       2.495   3.448   0.075  1.00  0.00     0.178 HD
ATOM     17  H11 UNL     1       4.122   3.157   0.722  1.00  0.00     0.178 HD
ENDBRANCH  12  15
ENDBRANCH   1  11
BRANCH  10  18
HETATM   18  C5  UNL     1      -0.884   0.387  -0.088  1.00  0.00     0.268 C 
HETATM   19  O3  UNL     1      -0.458   1.599  -0.066  1.00  0.00    -0.267 OA
HETATM   20  N6  UNL     1      -2.263   0.224  -0.149  1.00  0.00    -0.277 N 
HETATM   21  C6  UNL     1      -3.143   1.361  -0.185  1.00  0.00     0.335 C 
ATOM     22  H6  UNL     1      -2.657  -0.717  -0.169  1.00  0.00     0.173 HD
HETATM   23  N7  UNL     1      -4.560   1.221  -0.249  1.00  0.00    -0.040 NA
HETATM   24  O4  UNL     1      -2.628   2.487  -0.159  1.00  0.00    -0.251 OA
ENDBRANCH  10  18
TORSDOF 3
