REMARK  3 active torsions:
REMARK  status: ('A' for Active; 'I' for Inactive)
REMARK    1  A    between atoms: C3_4  and  C4_5 
REMARK    2  A    between atoms: C4_5  and  N2_6 
REMARK       I    between atoms: N2_6  and  C5_8 
REMARK       I    between atoms: C5_8  and  N3_10 
REMARK       I    between atoms: N3_10  and  C6_12 
REMARK       I    between atoms: C6_12  and  N5_16 
REMARK       I    between atoms: N5_16  and  C7_18 
REMARK       I    between atoms: C7_18  and  N6_20 
REMARK    3  A    between atoms: N6_20  and  N7_22 
ROOT
HETATM    1  N2  UNL     1      -0.785  -0.239  -0.948  1.00  0.00    -0.337 N 
ATOM      2  H2  UNL     1      -0.266  -0.968  -1.437  1.00  0.00     0.164 HD
HETATM    3  C5  UNL     1      -0.088   0.703  -0.166  1.00  0.00     0.334 C 
HETATM    4  O1  UNL     1      -0.532   1.597   0.540  1.00  0.00    -0.246 OA
HETATM    5  N3  UNL     1       1.422   0.564  -0.248  1.00  0.00    -0.141 N 
ATOM      6  H3  UNL     1       1.899  -0.147  -0.802  1.00  0.00     0.189 HD
HETATM    7  C6  UNL     1       2.062   1.493   0.499  1.00  0.00     0.683 C 
HETATM    8  N4  UNL     1       2.628   2.299   1.148  1.00  0.00    -0.234 N 
ATOM      9  H41 UNL     1       3.110   2.999   1.711  1.00  0.00     0.174 HD
ATOM     10  H42 UNL     1       1.712   2.646   1.434  1.00  0.00     0.174 HD
HETATM   11  N5  UNL     1       3.630   0.898   0.010  1.00  0.00    -0.140 N 
ATOM     12  H5  UNL     1       4.461   1.426   0.276  1.00  0.00     0.189 HD
HETATM   13  C7  UNL     1       3.774  -0.173  -0.668  1.00  0.00     0.352 C 
HETATM   14  O2  UNL     1       3.044  -1.076  -1.112  1.00  0.00    -0.245 OA
HETATM   15  N6  UNL     1       5.212  -0.469  -1.061  1.00  0.00    -0.258 N 
ATOM     16  H6  UNL     1       5.977   0.181  -0.879  1.00  0.00     0.191 HD
ENDROOT
BRANCH   1  17
HETATM   17  C4  UNL     1      -2.202  -0.190  -1.066  1.00  0.00     0.184 C 
BRANCH  17  18
HETATM   18  C3  UNL     1      -3.023  -0.638   0.053  1.00  0.00     0.062 A 
HETATM   19  C2  UNL     1      -3.751   0.206   0.851  1.00  0.00     0.139 A 
HETATM   20  N1  UNL     1      -4.398  -0.599   1.724  1.00  0.00    -0.291 N 
HETATM   21  C1  UNL     1      -5.313  -0.105   2.775  1.00  0.00     0.178 C 
HETATM   22  N9  UNL     1      -4.080  -1.842   1.474  1.00  0.00    -0.241 N 
HETATM   23  N8  UNL     1      -3.236  -1.891   0.449  1.00  0.00    -0.287 N 
ATOM     24  H9  UNL     1      -4.427  -2.652   1.988  1.00  0.00     0.208 HD
ATOM     25  H8  UNL     1      -2.827  -2.732   0.041  1.00  0.00     0.188 HD
ENDBRANCH  17  18
ENDBRANCH   1  17
BRANCH  15  26
HETATM   26  N7  UNL     1       5.400  -1.670  -1.676  1.00  0.00    -0.341 N 
ATOM     27  H72 UNL     1       4.625  -2.310  -1.852  1.00  0.00     0.177 HD
ATOM     28  H71 UNL     1       6.365  -1.869  -1.940  1.00  0.00     0.177 HD
ENDBRANCH  15  26
TORSDOF 3
