REMARK  2 active torsions:
REMARK  status: ('A' for Active; 'I' for Inactive)
REMARK    1  A    between atoms: C7_10  and  C8_11 
REMARK    2  A    between atoms: C8_11  and  N2_12 
ROOT
HETATM    1  N1  UNL     1      -3.034   1.733  -0.428  1.00  0.00    -0.384 N 
ATOM      2  H11 UNL     1      -2.811   2.665  -0.778  1.00  0.00     0.157 HD
ATOM      3  H12 UNL     1      -4.015   1.746  -0.150  1.00  0.00     0.157 HD
HETATM    4  C1  UNL     1      -2.201   0.751  -0.365  1.00  0.00     0.112 C 
HETATM    5  C2  UNL     1      -2.525  -0.606   0.144  1.00  0.00     0.086 C 
HETATM    6  C3  UNL     1      -1.196  -1.024   0.742  1.00  0.00     0.047 C 
HETATM    7  C4  UNL     1      -0.221  -0.406  -0.208  1.00  0.00     0.074 C 
HETATM    8  C5  UNL     1       0.418  -1.321  -1.204  1.00  0.00     0.039 C 
HETATM    9  C6  UNL     1       1.733  -0.601  -0.955  1.00  0.00     0.012 C 
HETATM   10  C7  UNL     1       1.153  -0.129   0.363  1.00  0.00     0.046 C 
HETATM   11  O1  UNL     1      -0.868   0.733  -0.742  1.00  0.00    -0.328 OA
ENDROOT
BRANCH  10  12
HETATM   12  C8  UNL     1       1.421   1.328   0.662  1.00  0.00     0.237 C 
BRANCH  12  13
HETATM   13  N2  UNL     1       2.751   1.454   1.196  1.00  0.00    -0.079 N 
ATOM     14  H23 UNL     1       2.904   0.855   2.007  1.00  0.00     0.274 HD
ATOM     15  H22 UNL     1       3.457   1.045   0.584  1.00  0.00     0.274 HD
ATOM     16  H21 UNL     1       2.932   2.437   1.398  1.00  0.00     0.274 HD
ENDBRANCH  12  13
ENDBRANCH  10  12
TORSDOF 2
