REMARK  2 active torsions:
REMARK  status: ('A' for Active; 'I' for Inactive)
REMARK    1  A    between atoms: C2_2  and  C3_3 
REMARK    2  A    between atoms: C9_12  and  N2_13 
ROOT
HETATM    1  C3  UNL     1       0.266  -0.173  -0.211  1.00  0.00    -0.010 C 
HETATM    2  C4  UNL     1       1.059   0.410  -1.392  1.00  0.00     0.018 C 
HETATM    3  C5  UNL     1      -0.112   0.945   0.669  1.00  0.00     0.017 C 
HETATM    4  C6  UNL     1       0.654   2.242   0.363  1.00  0.00     0.012 C 
HETATM    5  C7  UNL     1      -1.543   1.320   0.747  1.00  0.00     0.237 C 
HETATM    6  N1  UNL     1      -2.407   0.689  -0.211  1.00  0.00    -0.073 N 
ATOM      7  H11 UNL     1      -2.282   1.042  -1.160  1.00  0.00     0.277 HD
ATOM      8  H12 UNL     1      -3.387   0.953  -0.104  1.00  0.00     0.277 HD
HETATM    9  C8  UNL     1      -2.184  -0.740  -0.099  1.00  0.00     0.265 C 
HETATM   10  C9  UNL     1      -0.865  -0.956  -0.812  1.00  0.00     0.217 C 
ENDROOT
BRANCH  10  11
HETATM   11  N2  UNL     1      -0.644  -2.381  -0.822  1.00  0.00    -0.073 N 
ATOM     12  H23 UNL     1       0.236  -2.605  -1.287  1.00  0.00     0.274 HD
ATOM     13  H22 UNL     1      -0.432  -2.719   0.117  1.00  0.00     0.274 HD
ATOM     14  H21 UNL     1      -1.412  -2.913  -1.230  1.00  0.00     0.274 HD
ENDBRANCH  10  11
BRANCH   1  15
HETATM   15  C2  UNL     1       1.185  -1.196   0.418  1.00  0.00     0.007 C 
HETATM   16  C1  UNL     1       2.482  -0.613   0.914  1.00  0.00     0.006 C 
ENDBRANCH   1  15
TORSDOF 2
