REMARK  2 active torsions:
REMARK  status: ('A' for Active; 'I' for Inactive)
REMARK    1  A    between atoms: O1_1  and  C1_3 
REMARK    2  A    between atoms: C1_3  and  C2_4 
ROOT
HETATM    1  C1  UNL     1      -0.625   0.431   0.439  1.00  0.00     0.063 C 
HETATM    2  C6  UNL     1      -1.406  -0.695   1.077  1.00  0.00     0.038 C 
HETATM    3  C7  UNL     1      -2.319  -1.207  -0.027  1.00  0.00     0.003 C 
HETATM    4  C8  UNL     1      -2.575   0.052  -0.821  1.00  0.00     0.003 C 
HETATM    5  C9  UNL     1      -1.192   0.661  -0.907  1.00  0.00     0.038 C 
ENDROOT
BRANCH   1   6
HETATM    6  O1  UNL     1      -0.845   1.568   1.217  1.00  0.00    -0.389 OA
ATOM      7  H1  UNL     1      -1.770   1.783   1.180  1.00  0.00     0.210 HD
ENDBRANCH   1   6
BRANCH   1   8
HETATM    8  C2  UNL     1       0.816   0.096   0.496  1.00  0.00     0.047 C 
HETATM    9  C3  UNL     1       1.726   1.189  -0.020  1.00  0.00     0.036 C 
HETATM   10  C4  UNL     1       3.032   0.407  -0.094  1.00  0.00     0.232 C 
HETATM   11  N1  UNL     1       2.695  -0.959  -0.339  1.00  0.00    -0.075 N 
HETATM   12  C5  UNL     1       1.248  -1.069  -0.325  1.00  0.00     0.239 C 
ATOM     13  H12 UNL     1       3.111  -1.321  -1.197  1.00  0.00     0.277 HD
ATOM     14  H11 UNL     1       3.147  -1.601   0.312  1.00  0.00     0.277 HD
ENDBRANCH   1   8
TORSDOF 2
