REMARK  6 active torsions:
REMARK  status: ('A' for Active; 'I' for Inactive)
REMARK    1  A    between atoms: C2_2  and  C3_3 
REMARK    2  A    between atoms: C3_3  and  N1_4 
REMARK    3  A    between atoms: N1_4  and  C4_6 
REMARK    4  A    between atoms: C6_8  and  N2_9 
REMARK    5  A    between atoms: C8_15  and  C9_16 
REMARK       I    between atoms: C9_16  and  N4_18 
REMARK    6  A    between atoms: N4_18  and  C10_20 
ROOT
HETATM    1  C4  UNL     1       1.179   0.124   0.867  1.00  0.00     0.049 A 
HETATM    2  C5  UNL     1       2.348   0.900   0.922  1.00  0.00     0.078 A 
HETATM    3  C6  UNL     1       2.442   2.102   0.261  1.00  0.00     0.100 A 
HETATM    4  N3  UNL     1       1.412   2.566  -0.456  1.00  0.00    -0.352 N 
ATOM      5  H3  UNL     1       1.490   3.459  -0.942  1.00  0.00     0.166 HD
HETATM    6  C7  UNL     1       0.278   1.856  -0.535  1.00  0.00     0.109 A 
HETATM    7  C8  UNL     1       0.144   0.614   0.130  1.00  0.00     0.073 A 
ENDROOT
BRANCH   7   8
HETATM    8  C9  UNL     1      -1.078  -0.093  -0.066  1.00  0.00     0.255 C 
HETATM    9  O1  UNL     1      -1.263  -1.236   0.397  1.00  0.00    -0.268 OA
HETATM   10  N4  UNL     1      -2.165   0.446  -0.794  1.00  0.00    -0.353 N 
ATOM     11  H4  UNL     1      -2.077   1.379  -1.197  1.00  0.00     0.163 HD
BRANCH  10  12
HETATM   12  C10 UNL     1      -3.410  -0.294  -0.986  1.00  0.00     0.076 C 
HETATM   13  C11 UNL     1      -3.550  -0.590  -2.478  1.00  0.00     0.032 C 
HETATM   14  C12 UNL     1      -4.604   0.435  -0.468  1.00  0.00     0.032 C 
ENDBRANCH  10  12
ENDBRANCH   7   8
BRANCH   1  15
HETATM   15  N1  UNL     1       1.128  -1.030   1.620  1.00  0.00    -0.386 N 
ATOM     16  H1  UNL     1       0.207  -1.430   1.797  1.00  0.00     0.160 HD
BRANCH  15  17
HETATM   17  C3  UNL     1       2.279  -1.730   2.187  1.00  0.00     0.146 C 
BRANCH  17  18
HETATM   18  C2  UNL     1       3.042  -2.385   1.092  1.00  0.00    -0.018 C 
HETATM   19  C1  UNL     1       4.310  -2.168   0.794  1.00  0.00     0.008 C 
ENDBRANCH  17  18
ENDBRANCH  15  17
ENDBRANCH   1  15
BRANCH   3  20
HETATM   20  N2  UNL     1       3.508   2.823   0.303  1.00  0.00    -0.385 N 
ATOM     21  H22 UNL     1       4.293   2.469   0.850  1.00  0.00     0.157 HD
ATOM     22  H21 UNL     1       3.578   3.715  -0.187  1.00  0.00     0.157 HD
ENDBRANCH   3  20
TORSDOF 6
