REMARK  5 active torsions:
REMARK  status: ('A' for Active; 'I' for Inactive)
REMARK    1  A    between atoms: C2_2  and  C3_3 
REMARK    2  A    between atoms: C3_3  and  N1_4 
REMARK    3  A    between atoms: N1_4  and  C4_6 
REMARK    4  A    between atoms: C5_7  and  N2_8 
REMARK       I    between atoms: N2_8  and  C6_10 
REMARK    5  A    between atoms: C10_18  and  O1_19 
ROOT
HETATM    1  C4  UNL     1      -0.066   0.544  -0.128  1.00  0.00     0.089 A 
HETATM    2  C5  UNL     1       1.168  -0.027   0.172  1.00  0.00     0.064 A 
HETATM    3  C7  UNL     1       2.112   0.664   0.879  1.00  0.00     0.032 A 
HETATM    4  C8  UNL     1       1.872   1.966   1.326  1.00  0.00     0.005 A 
HETATM    5  C9  UNL     1       0.649   2.508   1.018  1.00  0.00     0.039 A 
HETATM    6  C10 UNL     1      -0.322   1.831   0.305  1.00  0.00     0.096 A 
ENDROOT
BRANCH   2   7
HETATM    7  N2  UNL     1       1.427  -1.350  -0.275  1.00  0.00    -0.329 N 
HETATM    8  C6  UNL     1       2.681  -1.963   0.016  1.00  0.00     0.186 C 
HETATM    9  N3  UNL     1       2.676  -2.947   0.842  1.00  0.00    -0.373 N 
HETATM   10  N4  UNL     1       3.894  -1.530  -0.563  1.00  0.00    -0.064 NA
ATOM     11  H32 UNL     1       1.800  -3.260   1.260  1.00  0.00     0.158 HD
ATOM     12  H31 UNL     1       3.573  -3.386   1.050  1.00  0.00     0.158 HD
ATOM     13  H2  UNL     1       0.718  -1.860  -0.802  1.00  0.00     0.168 HD
ENDBRANCH   2   7
BRANCH   1  14
HETATM   14  N1  UNL     1      -1.033  -0.180  -0.860  1.00  0.00    -0.382 N 
ATOM     15  H1  UNL     1      -1.050  -0.120  -1.878  1.00  0.00     0.160 HD
BRANCH  14  16
HETATM   16  C3  UNL     1      -2.001  -1.008  -0.170  1.00  0.00     0.146 C 
BRANCH  16  17
HETATM   17  C2  UNL     1      -2.918  -1.674  -1.161  1.00  0.00    -0.018 C 
HETATM   18  C1  UNL     1      -2.989  -2.975  -1.232  1.00  0.00     0.008 C 
ENDBRANCH  16  17
ENDBRANCH  14  16
ENDBRANCH   1  14
BRANCH   6  19
HETATM   19  O1  UNL     1      -1.538   2.383   0.005  1.00  0.00    -0.354 OA
HETATM   20  C11 UNL     1      -1.954   3.676   0.370  1.00  0.00     0.210 C 
ENDBRANCH   6  19
TORSDOF 5
