REMARK  6 active torsions:
REMARK  status: ('A' for Active; 'I' for Inactive)
REMARK    1  A    between atoms: C5_5  and  O1_6 
REMARK    2  A    between atoms: C6_8  and  O2_9 
REMARK    3  A    between atoms: C7_11  and  C9_13 
REMARK    4  A    between atoms: C9_13  and  C10_14 
REMARK    5  A    between atoms: C10_14  and  O3_15 
REMARK    6  A    between atoms: N1_17  and  O4_19 
ROOT
HETATM    1  C1  UNL     1      -2.002   3.525   1.681  1.00  0.00     0.043 C 
HETATM    2  C2  UNL     1      -1.192   2.995   0.523  1.00  0.00    -0.087 C 
HETATM    3  C3  UNL     1       0.128   3.077   0.515  1.00  0.00    -0.022 C 
HETATM    4  C4  UNL     1       1.001   2.586  -0.573  1.00  0.00     0.061 C 
HETATM    5  C5  UNL     1       2.233   1.850  -0.062  1.00  0.00     0.151 C 
HETATM    6  C6  UNL     1       1.919   0.707   0.825  1.00  0.00     0.155 C 
HETATM    7  C7  UNL     1       2.037  -0.667   0.278  1.00  0.00    -0.006 C 
HETATM    8  C8  UNL     1       2.009  -0.714  -1.238  1.00  0.00     0.018 C 
HETATM    9  C11 UNL     1       0.909  -1.534   0.855  1.00  0.00     0.044 C 
HETATM   10  C12 UNL     1      -0.050  -2.060  -0.151  1.00  0.00     0.118 C 
HETATM   11  C13 UNL     1       0.177  -3.575  -0.277  1.00  0.00     0.039 C 
HETATM   12  O5  UNL     1      -1.375  -1.962   0.344  1.00  0.00    -0.385 OA
HETATM   13  C14 UNL     1      -2.210  -1.849  -0.759  1.00  0.00     0.176 C 
HETATM   14  C15 UNL     1      -3.489  -1.105  -0.459  1.00  0.00    -0.026 C 
HETATM   15  C16 UNL     1      -4.488  -1.521  -1.540  1.00  0.00     0.017 C 
HETATM   16  C17 UNL     1      -4.029  -1.637   0.852  1.00  0.00     0.017 C 
HETATM   17  C18 UNL     1      -3.384   0.375  -0.486  1.00  0.00     0.011 C 
HETATM   18  C19 UNL     1      -1.964   0.884  -0.495  1.00  0.00     0.005 C 
HETATM   19  C20 UNL     1      -1.941   2.376  -0.602  1.00  0.00     0.033 C 
ENDROOT
BRANCH   7  20
HETATM   20  C9  UNL     1       3.294  -1.417   0.663  1.00  0.00     0.097 C 
BRANCH  20  21
HETATM   21  C10 UNL     1       4.563  -0.866   0.263  1.00  0.00     0.136 C 
HETATM   22  N1  UNL     1       5.274  -1.476  -0.621  1.00  0.00    -0.251 N 
ATOM     23  H1  UNL     1       4.938  -2.346  -1.035  1.00  0.00     0.196 HD
BRANCH  21  24
HETATM   24  O3  UNL     1       5.057   0.300   0.790  1.00  0.00    -0.348 OA
ATOM     25  H3  UNL     1       5.894   0.663   0.526  1.00  0.00     0.219 HD
ENDBRANCH  21  24
BRANCH  22  26
HETATM   26  O4  UNL     1       6.480  -0.956  -1.004  1.00  0.00    -0.288 OA
ATOM     27  H4  UNL     1       7.004  -1.406  -1.656  1.00  0.00     0.244 HD
ENDBRANCH  22  26
ENDBRANCH  20  21
ENDBRANCH   7  20
BRANCH   6  28
HETATM   28  O2  UNL     1       2.567   0.759   2.068  1.00  0.00    -0.392 OA
ATOM     29  H2  UNL     1       2.366   0.026   2.637  1.00  0.00     0.210 HD
ENDBRANCH   6  28
BRANCH   5  30
HETATM   30  O1  UNL     1       2.957   2.870   0.618  1.00  0.00    -0.393 OA
ATOM     31  H1  UNL     1       3.725   2.411   0.937  1.00  0.00     0.210 HD
ENDBRANCH   5  30
TORSDOF 6
