REMARK  5 active torsions:
REMARK  status: ('A' for Active; 'I' for Inactive)
REMARK    1  A    between atoms: C8_8  and  C9_9 
REMARK    2  A    between atoms: C18_22  and  O2_23 
REMARK    3  A    between atoms: C18_22  and  C19_25 
REMARK    4  A    between atoms: C19_25  and  O3_26 
REMARK    5  A    between atoms: C20_28  and  O4_29 
ROOT
HETATM    1  C1  UNL     1      -3.065  -0.878   1.613  1.00  0.00     0.018 C 
HETATM    2  C2  UNL     1      -2.991  -1.010   0.114  1.00  0.00    -0.018 C 
HETATM    3  C3  UNL     1      -4.389  -0.981  -0.469  1.00  0.00     0.018 C 
HETATM    4  C4  UNL     1      -2.331  -2.294  -0.328  1.00  0.00     0.016 C 
HETATM    5  C5  UNL     1      -0.870  -2.336   0.044  1.00  0.00     0.036 C 
HETATM    6  C6  UNL     1      -0.268  -1.013   0.213  1.00  0.00    -0.069 C 
HETATM    7  C7  UNL     1      -0.870   0.154  -0.030  1.00  0.00    -0.037 C 
HETATM    8  C8  UNL     1      -0.032   1.362   0.223  1.00  0.00     0.077 C 
HETATM    9  C12 UNL     1       1.352   1.258  -0.382  1.00  0.00     0.029 C 
HETATM   10  C13 UNL     1       1.934  -0.078  -0.309  1.00  0.00    -0.003 C 
HETATM   11  C14 UNL     1       1.886  -0.751  -1.684  1.00  0.00     0.019 C 
HETATM   12  C15 UNL     1       1.121  -0.909   0.694  1.00  0.00     0.026 C 
HETATM   13  C16 UNL     1       1.900  -2.175   0.673  1.00  0.00     0.013 C 
HETATM   14  C17 UNL     1       3.327  -1.668   0.758  1.00  0.00     0.041 C 
HETATM   15  C18 UNL     1       3.299  -0.232   0.220  1.00  0.00     0.087 C 
HETATM   16  C20 UNL     1      -2.261   0.191  -0.504  1.00  0.00     0.156 C 
ENDROOT
BRANCH   8  17
HETATM   17  C9  UNL     1      -0.619   2.603  -0.336  1.00  0.00     0.080 A 
HETATM   18  C10 UNL     1      -0.890   2.877  -1.660  1.00  0.00     0.124 A 
HETATM   19  N1  UNL     1      -1.410   4.104  -1.708  1.00  0.00    -0.335 N 
HETATM   20  C11 UNL     1      -1.465   4.582  -0.469  1.00  0.00     0.219 A 
ATOM     21  H1  UNL     1      -1.713   4.592  -2.551  1.00  0.00     0.168 HD
HETATM   22  S1  UNL     1      -2.032   6.067   0.007  1.00  0.00    -0.033 SA
HETATM   23  O1  UNL     1      -0.988   3.670   0.329  1.00  0.00    -0.287 OA
ENDBRANCH   8  17
BRANCH  16  24
HETATM   24  O4  UNL     1      -2.979   1.294  -0.044  1.00  0.00    -0.390 OA
ATOM     25  H4  UNL     1      -2.527   2.037  -0.426  1.00  0.00     0.210 HD
ENDBRANCH  16  24
BRANCH  15  26
HETATM   26  O2  UNL     1       4.218  -0.153  -0.834  1.00  0.00    -0.387 OA
ATOM     27  H2  UNL     1       5.099  -0.252  -0.493  1.00  0.00     0.210 HD
ENDBRANCH  15  26
BRANCH  15  28
HETATM   28  C19 UNL     1       3.680   0.722   1.313  1.00  0.00     0.202 C 
BRANCH  28  29
HETATM   29  O3  UNL     1       4.943   0.408   1.793  1.00  0.00    -0.398 OA
ATOM     30  H3  UNL     1       5.184   1.012   2.485  1.00  0.00     0.209 HD
ENDBRANCH  28  29
ENDBRANCH  15  28
TORSDOF 5
