REMARK  4 active torsions:
REMARK  status: ('A' for Active; 'I' for Inactive)
REMARK    1  A    between atoms: C2_2  and  C4_4 
REMARK    2  A    between atoms: C2_2  and  N3_14 
REMARK    3  A    between atoms: C4_4  and  C5_5 
REMARK    4  A    between atoms: N3_14  and  C8_16 
ROOT
HETATM    1  C1  UNL     1       0.021  -2.491  -0.037  1.00  0.00     0.038 C 
HETATM    2  C2  UNL     1       0.646  -1.140  -0.265  1.00  0.00     0.024 C 
HETATM    3  C3  UNL     1       0.751  -1.022  -1.788  1.00  0.00     0.038 C 
ENDROOT
BRANCH   2   4
HETATM    4  C4  UNL     1       2.050  -1.217   0.334  1.00  0.00     0.096 C 
BRANCH   4   5
HETATM    5  C5  UNL     1       2.804   0.026   0.194  1.00  0.00     0.074 A 
HETATM    6  C6  UNL     1       2.408   1.193  -0.415  1.00  0.00     0.124 A 
HETATM    7  N1  UNL     1       3.395   2.108  -0.331  1.00  0.00    -0.330 N 
HETATM    8  C7  UNL     1       4.383   1.492   0.328  1.00  0.00     0.222 A 
ATOM      9  H1  UNL     1       3.389   3.062  -0.691  1.00  0.00     0.168 HD
HETATM   10  N2  UNL     1       5.512   2.076   0.599  1.00  0.00    -0.365 N 
HETATM   11  O1  UNL     1       4.028   0.283   0.628  1.00  0.00    -0.283 OA
ATOM     12  H22 UNL     1       5.792   3.028   0.363  1.00  0.00     0.159 HD
ATOM     13  H21 UNL     1       6.265   1.606   1.101  1.00  0.00     0.159 HD
ENDBRANCH   4   5
ENDBRANCH   2   4
BRANCH   2  14
HETATM   14  N3  UNL     1      -0.120  -0.148   0.325  1.00  0.00    -0.407 N 
ATOM     15  H3  UNL     1       0.319   0.323   1.116  1.00  0.00     0.154 HD
BRANCH  14  16
HETATM   16  C8  UNL     1      -1.374   0.297   0.011  1.00  0.00     0.101 C 
HETATM   17  C9  UNL     1      -2.477  -0.703   0.168  1.00  0.00     0.029 C 
HETATM   18  C10 UNL     1      -3.850  -0.082  -0.174  1.00  0.00     0.028 C 
HETATM   19  C11 UNL     1      -4.047   1.220   0.531  1.00  0.00     0.167 C 
HETATM   20  O2  UNL     1      -2.934   2.027   0.295  1.00  0.00    -0.389 OA
HETATM   21  C12 UNL     1      -1.805   1.496   0.906  1.00  0.00     0.192 C 
ENDBRANCH  14  16
ENDBRANCH   2  14
TORSDOF 4
