REMARK  5 active torsions:
REMARK  status: ('A' for Active; 'I' for Inactive)
REMARK    1  A    between atoms: C2_2  and  C3_3 
REMARK    2  A    between atoms: C3_3  and  N1_4 
REMARK    3  A    between atoms: N1_4  and  C4_5 
REMARK    4  A    between atoms: N1_4  and  C6_7 
REMARK    5  A    between atoms: C7_10  and  N3_11 
ROOT
HETATM    1  C6  UNL     1      -0.016   0.637  -0.818  1.00  0.00     0.129 A 
HETATM    2  N2  UNL     1      -0.160   0.842  -2.138  1.00  0.00    -0.176 N 
ATOM      3  H2  UNL     1       0.654   1.123  -2.684  1.00  0.00     0.186 HD
HETATM    4  C7  UNL     1      -1.340   0.689  -2.763  1.00  0.00     0.679 A 
HETATM    5  N4  UNL     1      -2.412   0.318  -2.048  1.00  0.00    -0.177 N 
ATOM      6  H4  UNL     1      -3.303   0.203  -2.530  1.00  0.00     0.186 HD
HETATM    7  C8  UNL     1      -2.365   0.092  -0.734  1.00  0.00     0.127 A 
HETATM    8  C9  UNL     1      -1.120   0.259  -0.107  1.00  0.00     0.031 A 
HETATM    9  C10 UNL     1      -1.028   0.022   1.329  1.00  0.00     0.048 C 
HETATM   10  C11 UNL     1      -2.033  -1.059   1.723  1.00  0.00     0.024 C 
HETATM   11  C12 UNL     1      -3.443  -0.609   1.417  1.00  0.00     0.121 C 
HETATM   12  N5  UNL     1      -3.512  -0.299   0.005  1.00  0.00    -0.375 N 
ATOM     13  H5  UNL     1      -4.411  -0.363  -0.473  1.00  0.00     0.161 HD
ENDROOT
BRANCH   1  14
HETATM   14  N1  UNL     1       1.234   0.808  -0.202  1.00  0.00    -0.367 N 
BRANCH  14  15
HETATM   15  C3  UNL     1       2.216  -0.248  -0.055  1.00  0.00     0.124 C 
BRANCH  15  16
HETATM   16  C2  UNL     1       1.802  -1.558  -0.630  1.00  0.00     0.015 C 
HETATM   17  C1  UNL     1       2.929  -2.542  -0.395  1.00  0.00     0.006 C 
ENDBRANCH  15  16
ENDBRANCH  14  15
BRANCH  14  18
HETATM   18  C4  UNL     1       1.576   2.124   0.311  1.00  0.00     0.120 C 
HETATM   19  C5  UNL     1       1.685   2.204   1.794  1.00  0.00     0.026 C 
ENDBRANCH  14  18
ENDBRANCH   1  14
BRANCH   4  20
HETATM   20  N3  UNL     1      -1.441   0.897  -4.039  1.00  0.00    -0.234 N 
ATOM     21  H32 UNL     1      -0.626   1.179  -4.583  1.00  0.00     0.174 HD
ATOM     22  H31 UNL     1      -2.337   0.781  -4.513  1.00  0.00     0.174 HD
ENDBRANCH   4  20
TORSDOF 5
