REMARK  19 active torsions:
REMARK  status: ('A' for Active; 'I' for Inactive)
REMARK    1  A    between atoms: C3_5  and  N2_6 
REMARK    2  A    between atoms: C4_11  and  N4_12 
REMARK    3  A    between atoms: C5_15  and  C6_16 
REMARK    4  A    between atoms: C6_16  and  C7_17 
REMARK    5  A    between atoms: C7_17  and  C8_18 
REMARK    6  A    between atoms: C9_19  and  C10_20 
REMARK    7  A    between atoms: C10_20  and  C11_21 
REMARK    8  A    between atoms: C11_21  and  C12_22 
REMARK    9  A    between atoms: C12_22  and  C13_23 
REMARK   10  A    between atoms: C16_26  and  S1_27 
REMARK   11  A    between atoms: S1_27  and  N5_30 
REMARK   12  A    between atoms: N5_30  and  C17_32 
REMARK   13  A    between atoms: C17_32  and  C18_34 
REMARK   14  A    between atoms: C18_34  and  C19_35 
REMARK   15  A    between atoms: C19_35  and  C20_36 
REMARK   16  A    between atoms: C20_36  and  N6_37 
REMARK       I    between atoms: C21_39  and  N8_41 
REMARK   17  A    between atoms: N11_49  and  C24_50 
REMARK   18  A    between atoms: C24_50  and  C25_51 
REMARK   19  A    between atoms: C25_51  and  C26_52 
ROOT
HETATM    1  C8  UNL     1      -2.559  -0.590   0.178  1.00  0.00     0.081 A 
HETATM    2  C9  UNL     1      -1.564  -0.731   1.115  1.00  0.00     0.056 A 
HETATM    3  N9  UNL     1      -2.129  -1.513   2.106  1.00  0.00    -0.288 N 
ATOM      4  H9  UNL     1      -1.659  -1.809   2.961  1.00  0.00     0.188 HD
HETATM    5  N10 UNL     1      -3.340  -1.810   1.783  1.00  0.00    -0.236 N 
ATOM      6  H10 UNL     1      -3.965  -2.381   2.352  1.00  0.00     0.209 HD
HETATM    7  N11 UNL     1      -3.671  -1.274   0.607  1.00  0.00    -0.255 N 
ENDROOT
BRANCH   2   8
HETATM    8  C10 UNL     1      -0.155  -0.317   1.189  1.00  0.00     0.061 C 
BRANCH   8   9
HETATM    9  C11 UNL     1       0.771  -1.367   0.696  1.00  0.00     0.013 C 
BRANCH   9  10
HETATM   10  C12 UNL     1       0.642  -1.832  -0.700  1.00  0.00     0.065 C 
BRANCH  10  11
HETATM   11  C13 UNL     1       1.627  -2.863  -1.115  1.00  0.00     0.054 A 
HETATM   12  C14 UNL     1       1.588  -4.235  -1.035  1.00  0.00     0.036 A 
HETATM   13  C15 UNL     1       2.765  -4.702  -1.571  1.00  0.00     0.054 A 
HETATM   14  C16 UNL     1       3.496  -3.577  -1.967  1.00  0.00     0.190 A 
HETATM   15  O3  UNL     1       2.764  -2.549  -1.666  1.00  0.00    -0.302 OA
BRANCH  14  16
HETATM   16  S1  UNL     1       5.051  -3.686  -2.700  1.00  0.00     0.282 S 
HETATM   17  O1  UNL     1       4.988  -2.911  -4.018  1.00  0.00    -0.198 OA
HETATM   18  O2  UNL     1       5.396  -5.098  -3.100  1.00  0.00    -0.198 OA
BRANCH  16  19
HETATM   19  N5  UNL     1       6.257  -2.953  -1.765  1.00  0.00    -0.296 N 
ATOM     20  H5  UNL     1       6.799  -2.162  -2.112  1.00  0.00     0.174 HD
BRANCH  19  21
HETATM   21  C17 UNL     1       6.472  -3.495  -0.481  1.00  0.00     0.190 C 
HETATM   22 CL1  UNL     1       8.040  -4.468  -0.528  1.00  0.00    -0.102 Cl
BRANCH  21  23
HETATM   23  C18 UNL     1       6.704  -2.485   0.576  1.00  0.00     0.043 C 
BRANCH  23  24
HETATM   24  C19 UNL     1       5.693  -1.457   0.862  1.00  0.00     0.023 C 
BRANCH  24  25
HETATM   25  C20 UNL     1       5.393  -0.466  -0.217  1.00  0.00     0.122 C 
BRANCH  25  26
HETATM   26  N6  UNL     1       4.379   0.492   0.241  1.00  0.00    -0.365 N 
HETATM   27  C21 UNL     1       4.598   1.723   0.477  1.00  0.00     0.185 C 
HETATM   28  N7  UNL     1       3.523   2.531   0.912  1.00  0.00    -0.064 NA
HETATM   29  N8  UNL     1       5.885   2.268   0.308  1.00  0.00    -0.364 N 
HETATM   30  C22 UNL     1       6.244   2.884  -0.941  1.00  0.00     0.151 C 
HETATM   31  C23 UNL     1       6.861   2.225   1.373  1.00  0.00     0.151 C 
ATOM     32  H6  UNL     1       3.430   0.145   0.380  1.00  0.00     0.162 HD
ENDBRANCH  25  26
ENDBRANCH  24  25
ENDBRANCH  23  24
ENDBRANCH  21  23
ENDBRANCH  19  21
ENDBRANCH  16  19
ENDBRANCH  14  16
ENDBRANCH  10  11
ENDBRANCH   9  10
ENDBRANCH   8   9
ENDBRANCH   2   8
BRANCH   1  33
HETATM   33  C7  UNL     1      -2.483   0.118  -1.084  1.00  0.00     0.034 C 
BRANCH  33  34
HETATM   34  C6  UNL     1      -2.453   1.577  -1.200  1.00  0.00     0.020 C 
BRANCH  34  35
HETATM   35  C5  UNL     1      -3.526   2.434  -0.764  1.00  0.00     0.031 A 
HETATM   36  C2  UNL     1      -3.709   2.949   0.486  1.00  0.00     0.036 A 
HETATM   37  C1  UNL     1      -2.693   2.755   1.585  1.00  0.00     0.070 C 
HETATM   38  N1  UNL     1      -4.795   3.711   0.764  1.00  0.00    -0.195 N 
HETATM   39  C3  UNL     1      -5.709   3.986  -0.156  1.00  0.00     0.677 A 
ATOM     40  H1  UNL     1      -4.912   4.083   1.707  1.00  0.00     0.184 HD
HETATM   41  N3  UNL     1      -5.548   3.495  -1.392  1.00  0.00    -0.176 N 
HETATM   42  C4  UNL     1      -4.504   2.737  -1.729  1.00  0.00     0.127 A 
ATOM     43  H3  UNL     1      -6.249   3.709  -2.101  1.00  0.00     0.186 HD
BRANCH  39  44
HETATM   44  N2  UNL     1      -6.756   4.721   0.115  1.00  0.00    -0.234 N 
ATOM     45  H22 UNL     1      -6.879   5.095   1.056  1.00  0.00     0.174 HD
ATOM     46  H21 UNL     1      -7.459   4.933  -0.593  1.00  0.00     0.174 HD
ENDBRANCH  39  44
BRANCH  42  47
HETATM   47  N4  UNL     1      -4.382   2.278  -2.949  1.00  0.00    -0.384 N 
ATOM     48  H42 UNL     1      -5.091   2.498  -3.649  1.00  0.00     0.157 HD
ATOM     49  H41 UNL     1      -3.583   1.698  -3.207  1.00  0.00     0.157 HD
ENDBRANCH  42  47
ENDBRANCH  34  35
ENDBRANCH  33  34
ENDBRANCH   1  33
BRANCH   7  50
HETATM   50  C24 UNL     1      -4.891  -1.426  -0.061  1.00  0.00     0.091 C 
BRANCH  50  51
HETATM   51  C25 UNL     1      -6.052  -0.566   0.146  1.00  0.00     0.050 C 
BRANCH  51  52
HETATM   52  C26 UNL     1      -6.713  -0.504   1.475  1.00  0.00    -0.018 C 
HETATM   53  C27 UNL     1      -7.928   0.458   1.340  1.00  0.00     0.010 C 
HETATM   54  C28 UNL     1      -5.852   0.146   2.524  1.00  0.00     0.010 C 
ENDBRANCH  51  52
ENDBRANCH  50  51
ENDBRANCH   7  50
TORSDOF 19
