REMARK  6 active torsions:
REMARK  status: ('A' for Active; 'I' for Inactive)
REMARK    1  A    between atoms: C1_2  and  C2_3 
REMARK       I    between atoms: C1_2  and  N1_11 
REMARK    2  A    between atoms: C2_3  and  C3_4 
REMARK    3  A    between atoms: C3_4  and  C4_5 
REMARK    4  A    between atoms: N1_11  and  C10_12 
REMARK    5  A    between atoms: N1_11  and  C16_20 
REMARK    6  A    between atoms: C10_12  and  C11_13 
ROOT
HETATM    1  O1  UNL     1      -0.290  -1.812  -0.997  1.00  0.00    -0.273 OA
HETATM    2  C1  UNL     1      -0.328  -0.640  -0.544  1.00  0.00     0.220 C 
HETATM    3  N1  UNL     1      -1.599  -0.035  -0.360  1.00  0.00    -0.342 N 
ENDROOT
BRANCH   3   4
HETATM    4  C10 UNL     1      -1.659   1.294   0.175  1.00  0.00     0.183 C 
BRANCH   4   5
HETATM    5  C11 UNL     1      -1.740   1.394   1.638  1.00  0.00     0.027 A 
HETATM    6  C12 UNL     1      -1.498   0.337   2.477  1.00  0.00     0.027 A 
HETATM    7  C13 UNL     1      -1.585   0.448   3.844  1.00  0.00     0.003 A 
HETATM    8  C14 UNL     1      -1.926   1.660   4.391  1.00  0.00     0.017 A 
HETATM    9  C15 UNL     1      -2.170   2.727   3.536  1.00  0.00     0.088 A 
HETATM   10  N2  UNL     1      -2.071   2.565   2.203  1.00  0.00    -0.368 N 
ATOM     11  H2  UNL     1      -2.255   3.365   1.598  1.00  0.00     0.165 HD
ENDBRANCH   4   5
ENDBRANCH   3   4
BRANCH   3  12
HETATM   12  C16 UNL     1      -2.769  -0.786  -0.741  1.00  0.00     0.090 C 
HETATM   13  C17 UNL     1      -3.499  -0.110  -1.910  1.00  0.00     0.053 C 
HETATM   14  C18 UNL     1      -4.401  -1.172  -2.503  1.00  0.00     0.234 C 
HETATM   15  N3  UNL     1      -4.643  -2.235  -1.540  1.00  0.00    -0.075 N 
HETATM   16  C19 UNL     1      -5.042  -1.598  -0.297  1.00  0.00     0.234 C 
ATOM     17  H32 UNL     1      -5.315  -2.929  -1.869  1.00  0.00     0.277 HD
ATOM     18  H31 UNL     1      -3.849  -2.865  -1.431  1.00  0.00     0.277 HD
HETATM   19  C20 UNL     1      -3.791  -0.965   0.333  1.00  0.00     0.053 C 
ENDBRANCH   3  12
BRANCH   2  20
HETATM   20  C2  UNL     1       0.972  -0.011  -0.252  1.00  0.00     0.103 C 
BRANCH  20  21
HETATM   21  C3  UNL     1       2.129  -0.896  -0.572  1.00  0.00     0.014 C 
BRANCH  21  22
HETATM   22  C4  UNL     1       3.443  -0.261  -0.273  1.00  0.00    -0.014 C 
HETATM   23  C5  UNL     1       3.659   0.996  -1.046  1.00  0.00     0.004 C 
HETATM   24  C6  UNL     1       4.973   1.658  -0.678  1.00  0.00     0.000 C 
HETATM   25  C7  UNL     1       5.987   0.667  -0.157  1.00  0.00     0.000 C 
HETATM   26  C8  UNL     1       5.848  -0.621  -0.939  1.00  0.00     0.000 C 
HETATM   27  C9  UNL     1       4.526  -1.264  -0.692  1.00  0.00     0.004 C 
ENDBRANCH  21  22
ENDBRANCH  20  21
ENDBRANCH   2  20
TORSDOF 6
