REMARK  6 active torsions:
REMARK  status: ('A' for Active; 'I' for Inactive)
REMARK    1  A    between atoms: C2_2  and  C3_3 
REMARK    2  A    between atoms: C3_3  and  C4_4 
REMARK    3  A    between atoms: C5_5  and  C6_6 
REMARK    4  A    between atoms: C7_7  and  C8_8 
REMARK    5  A    between atoms: C12_14  and  C13_15 
REMARK    6  A    between atoms: C13_15  and  N1_16 
ROOT
HETATM    1  C6  UNL     1       0.860   0.957   0.845  1.00  0.00     0.036 C 
HETATM    2  C7  UNL     1       0.936   2.398   0.418  1.00  0.00     0.100 C 
HETATM    3  C9  UNL     1      -0.349   3.050   0.961  1.00  0.00     0.004 C 
HETATM    4  C10 UNL     1      -0.802   2.300   2.207  1.00  0.00     0.007 C 
HETATM    5  C11 UNL     1      -1.369   0.938   1.766  1.00  0.00     0.016 C 
HETATM    6  C12 UNL     1      -0.583   0.531   0.551  1.00  0.00    -0.000 C 
HETATM    7  C18 UNL     1      -1.154   1.379  -0.597  1.00  0.00     0.020 C 
HETATM    8  C19 UNL     1      -1.402   2.794  -0.098  1.00  0.00    -0.013 C 
HETATM    9  C20 UNL     1      -1.231   3.814  -1.201  1.00  0.00     0.010 C 
ENDROOT
BRANCH   6  10
HETATM   10  C13 UNL     1      -0.671  -0.884   0.132  1.00  0.00     0.068 C 
BRANCH  10  11
HETATM   11  N1  UNL     1      -1.913  -1.445  -0.186  1.00  0.00    -0.389 N 
HETATM   12  C14 UNL     1      -2.889  -1.716   0.778  1.00  0.00     0.148 C 
HETATM   13  C15 UNL     1      -4.232  -1.836   0.016  1.00  0.00     0.187 C 
HETATM   14  O3  UNL     1      -4.161  -3.003  -0.706  1.00  0.00    -0.388 OA
HETATM   15  C16 UNL     1      -3.210  -2.848  -1.706  1.00  0.00     0.187 C 
HETATM   16  C17 UNL     1      -1.841  -2.514  -1.159  1.00  0.00     0.148 C 
ENDBRANCH  10  11
ENDBRANCH   6  10
BRANCH   1  17
HETATM   17  C5  UNL     1       1.839   0.096   0.169  1.00  0.00    -0.024 C 
HETATM   18  C4  UNL     1       2.775  -0.636   0.767  1.00  0.00    -0.030 C 
BRANCH  18  19
HETATM   19  C3  UNL     1       3.732  -1.485   0.015  1.00  0.00     0.026 C 
BRANCH  19  20
HETATM   20  C2  UNL     1       3.642  -2.950   0.378  1.00  0.00    -0.001 C 
HETATM   21  C1  UNL     1       4.668  -3.677  -0.466  1.00  0.00     0.005 C 
ENDBRANCH  19  20
ENDBRANCH  18  19
ENDBRANCH   1  17
BRANCH   2  22
HETATM   22  C8  UNL     1       2.042   3.146   0.993  1.00  0.00     0.178 C 
HETATM   23  O1  UNL     1       2.825   2.641   1.817  1.00  0.00    -0.648 OA
HETATM   24  O2  UNL     1       2.245   4.459   0.627  1.00  0.00    -0.648 OA
ENDBRANCH   2  22
TORSDOF 6
