REMARK  7 active torsions:
REMARK  status: ('A' for Active; 'I' for Inactive)
REMARK    1  A    between atoms: O1_2  and  C2_3 
REMARK    2  A    between atoms: C2_3  and  C3_4 
REMARK    3  A    between atoms: C3_4  and  N1_5 
REMARK    4  A    between atoms: N1_5  and  C5_7 
REMARK    5  A    between atoms: C8_10  and  N2_11 
REMARK       I    between atoms: N2_11  and  C9_13 
REMARK    6  A    between atoms: C9_13  and  C10_15 
REMARK    7  A    between atoms: C10_15  and  C11_16 
ROOT
HETATM    1  N2  UNL     1      -1.119  -0.133  -0.118  1.00  0.00    -0.356 N 
ATOM      2  H2  UNL     1      -1.291  -1.125   0.045  1.00  0.00     0.162 HD
HETATM    3  C9  UNL     1      -2.221   0.754  -0.237  1.00  0.00     0.227 C 
HETATM    4  O2  UNL     1      -1.953   1.967  -0.434  1.00  0.00    -0.273 OA
ENDROOT
BRANCH   1   5
HETATM    5  C8  UNL     1       0.244   0.343  -0.224  1.00  0.00     0.084 C 
HETATM    6  C7  UNL     1       1.030   0.184   1.045  1.00  0.00     0.027 C 
HETATM    7  C6  UNL     1       2.474   0.576   0.746  1.00  0.00     0.027 C 
HETATM    8  C5  UNL     1       3.061  -0.179  -0.399  1.00  0.00     0.079 C 
HETATM    9  C20 UNL     1       2.049  -1.210  -0.855  1.00  0.00     0.027 C 
HETATM   10  C19 UNL     1       0.863  -0.428  -1.379  1.00  0.00     0.027 C 
BRANCH   8  11
HETATM   11  N1  UNL     1       4.326  -0.765  -0.202  1.00  0.00    -0.410 N 
HETATM   12  C4  UNL     1       4.401  -2.093   0.265  1.00  0.00     0.143 C 
BRANCH  11  13
HETATM   13  C3  UNL     1       5.399   0.115   0.067  1.00  0.00     0.143 C 
BRANCH  13  14
HETATM   14  C2  UNL     1       6.633  -0.282  -0.708  1.00  0.00     0.186 C 
BRANCH  14  15
HETATM   15  O1  UNL     1       7.724   0.538  -0.497  1.00  0.00    -0.394 OA
HETATM   16  C1  UNL     1       8.163   0.587   0.816  1.00  0.00     0.201 C 
ENDBRANCH  14  15
ENDBRANCH  13  14
ENDBRANCH  11  13
ENDBRANCH   8  11
ENDBRANCH   1   5
BRANCH   3  17
HETATM   17  C10 UNL     1      -3.611   0.226  -0.127  1.00  0.00     0.047 C 
HETATM   18  C15 UNL     1      -3.840  -0.848  -1.149  1.00  0.00     0.020 C 
HETATM   19  C16 UNL     1      -4.455  -2.031  -0.481  1.00  0.00     0.001 C 
HETATM   20  C17 UNL     1      -4.612  -1.683   0.976  1.00  0.00     0.001 C 
HETATM   21  C18 UNL     1      -3.693  -0.530   1.173  1.00  0.00     0.020 C 
BRANCH  17  22
HETATM   22  C11 UNL     1      -4.611   1.346  -0.202  1.00  0.00    -0.035 C 
HETATM   23  C12 UNL     1      -4.360   2.300   0.942  1.00  0.00     0.015 C 
HETATM   24  C13 UNL     1      -4.488   2.117  -1.509  1.00  0.00     0.015 C 
HETATM   25  C14 UNL     1      -6.033   0.892  -0.101  1.00  0.00     0.015 C 
ENDBRANCH  17  22
ENDBRANCH   3  17
TORSDOF 7
