REMARK  6 active torsions:
REMARK  status: ('A' for Active; 'I' for Inactive)
REMARK    1  A    between atoms: C2_2  and  N1_3 
REMARK    2  A    between atoms: N1_3  and  C3_4 
REMARK    3  A    between atoms: N1_3  and  C9_10 
REMARK    4  A    between atoms: C3_4  and  C4_5 
REMARK    5  A    between atoms: N3_22  and  C17_23 
REMARK    6  A    between atoms: C17_23  and  C18_24 
ROOT
HETATM    1  C9  UNL     1      -0.379  -0.375  -0.950  1.00  0.00     0.528 C 
HETATM    2  N2  UNL     1      -0.627  -1.575  -0.205  1.00  0.00    -0.008 N 
ATOM      3  H21 UNL     1       0.167  -1.854   0.372  1.00  0.00     0.283 HD
ATOM      4  H22 UNL     1      -0.665  -2.406  -0.795  1.00  0.00     0.283 HD
HETATM    5  C10 UNL     1      -1.818  -1.381   0.552  1.00  0.00     0.210 C 
HETATM    6  C11 UNL     1      -1.807  -2.055   1.895  1.00  0.00     0.049 C 
HETATM    7  C12 UNL     1      -3.170  -2.636   2.188  1.00  0.00     0.003 C 
HETATM    8  C13 UNL     1      -3.576  -3.683   1.195  1.00  0.00     0.000 C 
HETATM    9  C14 UNL     1      -3.162  -3.285  -0.204  1.00  0.00     0.003 C 
HETATM   10  C15 UNL     1      -3.060  -1.798  -0.253  1.00  0.00     0.049 C 
HETATM   11  C16 UNL     1      -1.904   0.098   0.662  1.00  0.00     0.259 C 
HETATM   12  O1  UNL     1      -2.460   0.689   1.612  1.00  0.00    -0.270 OA
HETATM   13  N3  UNL     1      -1.251   0.665  -0.489  1.00  0.00    -0.297 N 
ENDROOT
BRANCH   1  14
HETATM   14  N1  UNL     1       1.052  -0.111  -0.827  1.00  0.00     0.139 N 
BRANCH  14  15
HETATM   15  C2  UNL     1       1.679  -1.178  -1.552  1.00  0.00     0.273 C 
HETATM   16  C1  UNL     1       1.106  -1.311  -2.966  1.00  0.00     0.037 C 
ENDBRANCH  14  15
BRANCH  14  17
HETATM   17  C3  UNL     1       1.354   0.039   0.523  1.00  0.00     0.282 C 
BRANCH  17  18
HETATM   18  C4  UNL     1       2.642   0.448   1.069  1.00  0.00     0.014 C 
HETATM   19  C5  UNL     1       3.772  -0.470   0.806  1.00  0.00     0.006 C 
HETATM   20  C6  UNL     1       4.858   0.286   0.069  1.00  0.00     0.000 C 
HETATM   21  C7  UNL     1       4.614   1.734   0.457  1.00  0.00     0.000 C 
HETATM   22  C8  UNL     1       3.089   1.832   0.611  1.00  0.00     0.006 C 
ENDBRANCH  17  18
ENDBRANCH  14  17
ENDBRANCH   1  14
BRANCH  13  23
HETATM   23  C17 UNL     1      -1.475   1.947  -1.059  1.00  0.00     0.133 C 
BRANCH  23  24
HETATM   24  C18 UNL     1      -0.678   3.088  -0.549  1.00  0.00    -0.005 C 
HETATM   25  C19 UNL     1      -1.129   4.325  -1.350  1.00  0.00     0.011 C 
HETATM   26  C20 UNL     1      -0.984   3.445   0.895  1.00  0.00     0.011 C 
ENDBRANCH  23  24
ENDBRANCH  13  23
TORSDOF 6
