REMARK  5 active torsions:
REMARK  status: ('A' for Active; 'I' for Inactive)
REMARK    1  A    between atoms: C2_2  and  N1_4 
REMARK       I    between atoms: N3_19  and  C17_20 
REMARK    2  A    between atoms: C17_20  and  C18_22 
REMARK    3  A    between atoms: C18_22  and  C19_23 
REMARK    4  A    between atoms: C19_23  and  C20_24 
REMARK    5  A    between atoms: C20_24  and  C21_25 
ROOT
HETATM    1  N1  UNL     1      -1.106  -3.391  -0.515  1.00  0.00     0.097 N 
HETATM    2  C4  UNL     1      -2.262  -2.767  -1.056  1.00  0.00     0.274 C 
HETATM    3  C5  UNL     1      -2.775  -1.758  -0.051  1.00  0.00     0.041 C 
HETATM    4  C6  UNL     1      -1.787  -0.567  -0.166  1.00  0.00     0.036 C 
HETATM    5  C7  UNL     1      -2.384   0.504   0.649  1.00  0.00     0.016 C 
HETATM    6  C8  UNL     1      -1.839   1.883   0.546  1.00  0.00     0.001 C 
HETATM    7  C9  UNL     1      -2.457   2.816  -0.459  1.00  0.00     0.052 A 
HETATM    8  C10 UNL     1      -3.025   4.079   0.188  1.00  0.00     0.279 A 
HETATM    9  N2  UNL     1      -2.082   4.849  -0.610  1.00  0.00     0.089 N 
HETATM   10  C11 UNL     1      -2.701   5.772  -1.538  1.00  0.00     0.310 C 
HETATM   11  C12 UNL     1      -1.567   3.645  -1.254  1.00  0.00     0.229 A 
HETATM   12  C13 UNL     1      -0.077   3.589  -1.144  1.00  0.00     0.043 C 
HETATM   13  C14 UNL     1       0.290   2.972   0.159  1.00  0.00     0.019 A 
HETATM   14  C15 UNL     1      -0.519   1.706  -0.036  1.00  0.00     0.022 A 
HETATM   15  C16 UNL     1       0.696   1.814   0.775  1.00  0.00     0.120 A 
HETATM   16  N3  UNL     1       1.291   0.534   0.475  1.00  0.00    -0.256 N 
HETATM   17  C17 UNL     1       2.631   0.620   0.086  1.00  0.00     0.238 C 
HETATM   18  O1  UNL     1       3.166   1.755   0.037  1.00  0.00    -0.272 OA
HETATM   19  N4  UNL     1       0.745  -0.764   0.514  1.00  0.00    -0.302 N 
ATOM     20  H4  UNL     1       1.393  -1.504   0.784  1.00  0.00     0.186 HD
HETATM   21  C22 UNL     1      -0.494  -1.159   0.249  1.00  0.00     0.036 C 
HETATM   22  C23 UNL     1      -0.400  -2.642   0.480  1.00  0.00     0.327 C 
ENDROOT
BRANCH  17  23
HETATM   23  C18 UNL     1       3.326  -0.635  -0.241  1.00  0.00     0.105 C 
BRANCH  23  24
HETATM   24  C19 UNL     1       4.754  -0.523  -0.610  1.00  0.00     0.020 C 
BRANCH  24  25
HETATM   25  C20 UNL     1       5.677   0.049   0.400  1.00  0.00     0.113 C 
BRANCH  25  26
HETATM   26  C21 UNL     1       7.056   0.075  -0.151  1.00  0.00     0.172 C 
HETATM   27  O2  UNL     1       8.035   0.516   0.510  1.00  0.00    -0.648 OA
HETATM   28  O3  UNL     1       7.268  -0.400  -1.429  1.00  0.00    -0.648 OA
ENDBRANCH  25  26
ENDBRANCH  24  25
ENDBRANCH  23  24
ENDBRANCH  17  23
BRANCH   1  29
HETATM   29  C2  UNL     1      -1.386  -4.734  -0.159  1.00  0.00     0.215 C 
HETATM   30  C1  UNL     1      -0.209  -5.476   0.427  1.00  0.00     0.042 C 
HETATM   31  C3  UNL     1      -2.547  -4.914   0.776  1.00  0.00     0.042 C 
ENDBRANCH   1  29
TORSDOF 5
