REMARK  5 active torsions:
REMARK  status: ('A' for Active; 'I' for Inactive)
REMARK       I    between atoms: N2_8  and  C7_9 
REMARK    1  A    between atoms: C7_9  and  C8_11 
REMARK    2  A    between atoms: C8_11  and  N3_12 
REMARK       I    between atoms: N3_12  and  C9_14 
REMARK    3  A    between atoms: C9_14  and  C10_16 
REMARK       I    between atoms: N4_19  and  C13_20 
REMARK    4  A    between atoms: C13_20  and  C14_22 
REMARK    5  A    between atoms: C15_23  and  C16_24 
ROOT
HETATM    1  N1  UNL     1      -7.412  -0.068  -2.144  1.00  0.00    -0.195 NA
HETATM    2  C1  UNL     1      -7.056  -0.097  -1.032  1.00  0.00     0.084 C 
HETATM    3  C2  UNL     1      -6.601  -0.155   0.350  1.00  0.00     0.194 C 
HETATM    4  C3  UNL     1      -7.754   0.153   1.283  1.00  0.00     0.040 C 
HETATM    5  C4  UNL     1      -8.154   1.603   1.254  1.00  0.00     0.004 C 
HETATM    6  C5  UNL     1      -7.062   2.504   0.769  1.00  0.00     0.020 C 
HETATM    7  C6  UNL     1      -5.694   1.998   1.197  1.00  0.00     0.127 C 
HETATM    8  N2  UNL     1      -5.474   0.685   0.615  1.00  0.00    -0.334 N 
HETATM    9  C7  UNL     1      -4.129   0.278   0.325  1.00  0.00     0.238 C 
HETATM   10  O1  UNL     1      -3.182   1.069   0.585  1.00  0.00    -0.272 OA
ENDROOT
BRANCH   9  11
HETATM   11  C8  UNL     1      -3.956  -1.069  -0.269  1.00  0.00     0.225 C 
BRANCH  11  12
HETATM   12  N3  UNL     1      -2.558  -1.326  -0.513  1.00  0.00    -0.352 N 
HETATM   13  C9  UNL     1      -1.767  -0.550  -1.388  1.00  0.00     0.222 C 
HETATM   14  O2  UNL     1      -2.248   0.418  -2.013  1.00  0.00    -0.273 OA
ATOM     15  H3  UNL     1      -2.118  -2.108  -0.029  1.00  0.00     0.162 HD
BRANCH  13  16
HETATM   16  C10 UNL     1      -0.340  -0.884  -1.574  1.00  0.00     0.081 C 
HETATM   17  C11 UNL     1      -0.229  -2.296  -2.113  1.00  0.00     0.034 C 
HETATM   18  C12 UNL     1       1.225  -2.565  -2.496  1.00  0.00     0.127 C 
HETATM   19  N4  UNL     1       2.051  -1.997  -1.432  1.00  0.00    -0.349 N 
HETATM   20  C13 UNL     1       3.382  -1.638  -1.694  1.00  0.00     0.243 C 
HETATM   21  C22 UNL     1       1.433  -1.839  -0.152  1.00  0.00     0.127 C 
HETATM   22  O3  UNL     1       3.890  -1.805  -2.853  1.00  0.00    -0.268 OA
HETATM   23  C23 UNL     1       0.328  -0.794  -0.205  1.00  0.00     0.034 C 
BRANCH  20  24
HETATM   24  C14 UNL     1       4.276  -1.062  -0.710  1.00  0.00     0.070 C 
HETATM   25  C15 UNL     1       5.523  -0.735  -0.983  1.00  0.00    -0.017 C 
BRANCH  25  26
HETATM   26  C16 UNL     1       6.378  -0.157   0.051  1.00  0.00     0.008 C 
HETATM   27  C17 UNL     1       7.057   1.119  -0.380  1.00  0.00     0.008 C 
HETATM   28  C18 UNL     1       6.727   2.281   0.512  1.00  0.00     0.001 C 
HETATM   29  C19 UNL     1       6.894   1.993   1.966  1.00  0.00     0.000 C 
HETATM   30  C20 UNL     1       6.650   0.574   2.357  1.00  0.00     0.001 C 
HETATM   31  C21 UNL     1       5.649  -0.016   1.357  1.00  0.00     0.008 C 
ENDBRANCH  25  26
ENDBRANCH  20  24
ENDBRANCH  13  16
ENDBRANCH  11  12
ENDBRANCH   9  11
TORSDOF 5
