REMARK  3 active torsions:
REMARK  status: ('A' for Active; 'I' for Inactive)
REMARK    1  A    between atoms: C6_9  and  N2_10 
REMARK    2  A    between atoms: C13_18  and  O1_19 
REMARK    3  A    between atoms: O1_19  and  C14_20 
ROOT
HETATM    1  C1  UNL     1      -4.718  -2.063  -0.850  1.00  0.00     0.032 C 
HETATM    2  C2  UNL     1      -3.253  -1.693  -0.837  1.00  0.00     0.080 C 
HETATM    3  C3  UNL     1      -2.595  -2.497   0.254  1.00  0.00     0.066 C 
HETATM    4  C4  UNL     1      -1.126  -2.751  -0.089  1.00  0.00     0.181 C 
HETATM    5 CL1  UNL     1      -0.638  -4.227   0.748  1.00  0.00    -0.102 Cl
HETATM    6  N1  UNL     1      -0.344  -1.606   0.316  1.00  0.00    -0.369 N 
ATOM      7  H1  UNL     1       0.529  -1.811   0.802  1.00  0.00     0.161 HD
HETATM    8  C5  UNL     1      -0.638  -0.235   0.123  1.00  0.00     0.083 A 
HETATM    9  C6  UNL     1       0.463   0.526   0.432  1.00  0.00     0.064 A 
HETATM   10  C12 UNL     1       0.378   1.892   0.309  1.00  0.00     0.069 A 
HETATM   11  C13 UNL     1      -0.793   2.514  -0.120  1.00  0.00     0.082 A 
HETATM   12  C15 UNL     1      -1.889   1.735  -0.427  1.00  0.00     0.068 A 
HETATM   13  C16 UNL     1      -1.832   0.349  -0.311  1.00  0.00     0.060 A 
HETATM   14  N3  UNL     1      -3.062  -0.265  -0.674  1.00  0.00    -0.384 N 
ATOM     15  H3  UNL     1      -3.867   0.342  -0.831  1.00  0.00     0.160 HD
ENDROOT
BRANCH   9  16
HETATM   16  N2  UNL     1       1.634  -0.084   0.861  1.00  0.00    -0.361 N 
HETATM   17  C7  UNL     1       2.773  -0.068   0.297  1.00  0.00    -0.013 C 
HETATM   18  C8  UNL     1       3.217   0.581  -0.957  1.00  0.00     0.052 C 
HETATM   19  C11 UNL     1       3.956  -0.786   0.894  1.00  0.00     0.052 C 
HETATM   20  C9  UNL     1       4.594   0.011  -1.218  1.00  0.00     0.006 C 
HETATM   21  C10 UNL     1       5.159  -0.299   0.155  1.00  0.00     0.006 C 
ATOM     22  H2  UNL     1       1.573  -0.608   1.734  1.00  0.00     0.165 HD
ENDBRANCH   9  16
BRANCH  11  23
HETATM   23  O1  UNL     1      -0.861   3.893  -0.240  1.00  0.00    -0.255 OA
BRANCH  23  24
HETATM   24  C14 UNL     1      -1.270   4.735   0.822  1.00  0.00     0.530 C 
HETATM   25  F1  UNL     1      -0.465   4.623   1.923  1.00  0.00    -0.144 F 
HETATM   26  F2  UNL     1      -1.317   6.023   0.323  1.00  0.00    -0.144 F 
HETATM   27  F3  UNL     1      -2.551   4.352   1.178  1.00  0.00    -0.144 F 
ENDBRANCH  23  24
ENDBRANCH  11  23
TORSDOF 3
