REMARK  5 active torsions:
REMARK  status: ('A' for Active; 'I' for Inactive)
REMARK    1  A    between atoms: C2_2  and  C3_3 
REMARK    2  A    between atoms: C3_3  and  C4_4 
REMARK    3  A    between atoms: N1_5  and  C5_7 
REMARK    4  A    between atoms: C6_10  and  N3_11 
REMARK    5  A    between atoms: C10_23  and  N7_24 
ROOT
HETATM    1  C5  UNL     1       0.070   0.388  -0.042  1.00  0.00     0.720 A 
HETATM    2  N2  UNL     1       0.026   1.593   0.621  1.00  0.00    -0.021 N 
ATOM      3  H2  UNL     1       0.890   2.119   0.756  1.00  0.00     0.203 HD
HETATM    4  C6  UNL     1      -1.122   2.091   1.092  1.00  0.00     0.692 A 
HETATM    5  N4  UNL     1      -2.278   1.432   0.937  1.00  0.00    -0.170 N 
ATOM      6  H4  UNL     1      -3.145   1.825   1.303  1.00  0.00     0.186 HD
HETATM    7  C7  UNL     1      -2.289   0.259   0.301  1.00  0.00     0.205 A 
HETATM    8  C8  UNL     1      -3.469  -0.436   0.130  1.00  0.00     0.164 A 
HETATM    9  N5  UNL     1      -4.603  -0.032   0.548  1.00  0.00    -0.377 N 
ATOM     10  H5  UNL     1      -5.387  -0.653   0.348  1.00  0.00     0.160 HD
HETATM   11  C9  UNL     1      -4.936   1.156   1.252  1.00  0.00     0.148 C 
HETATM   12  N6  UNL     1      -3.497  -1.636  -0.517  1.00  0.00    -0.172 N 
ATOM     13  H6  UNL     1      -4.366  -2.154  -0.646  1.00  0.00     0.186 HD
HETATM   14  C10 UNL     1      -2.330  -2.099  -0.973  1.00  0.00     0.693 A 
HETATM   15  N8  UNL     1      -1.163  -1.405  -0.800  1.00  0.00    -0.109 N 
ATOM     16  H8  UNL     1      -0.298  -1.803  -1.167  1.00  0.00     0.207 HD
HETATM   17  N9  UNL     1      -1.111  -0.243  -0.178  1.00  0.00    -0.050 N 
ENDROOT
BRANCH   1  18
HETATM   18  N1  UNL     1       1.140   0.001  -0.439  1.00  0.00    -0.203 N 
HETATM   19  C4  UNL     1       2.021  -0.826  -1.043  1.00  0.00     0.079 C 
ATOM     20  H1  UNL     1       1.752   0.757  -0.133  1.00  0.00     0.183 HD
BRANCH  19  21
HETATM   21  C3  UNL     1       3.470  -0.359  -1.096  1.00  0.00     0.045 C 
BRANCH  21  22
HETATM   22  C2  UNL     1       4.015  -0.154   0.309  1.00  0.00     0.001 C 
HETATM   23  C1  UNL     1       5.451   0.308   0.201  1.00  0.00     0.005 C 
ENDBRANCH  21  22
ENDBRANCH  19  21
ENDBRANCH   1  18
BRANCH   4  24
HETATM   24  N3  UNL     1      -1.172   3.230   1.719  1.00  0.00    -0.234 N 
ATOM     25  H32 UNL     1      -0.292   3.732   1.837  1.00  0.00     0.174 HD
ATOM     26  H31 UNL     1      -2.048   3.610   2.078  1.00  0.00     0.174 HD
ENDBRANCH   4  24
BRANCH  14  27
HETATM   27  N7  UNL     1      -2.262  -3.225  -1.597  1.00  0.00    -0.233 N 
ATOM     28  H72 UNL     1      -3.132  -3.742  -1.726  1.00  0.00     0.174 HD
ATOM     29  H71 UNL     1      -1.371  -3.579  -1.945  1.00  0.00     0.174 HD
ENDBRANCH  14  27
TORSDOF 5
