REMARK  4 active torsions:
REMARK  status: ('A' for Active; 'I' for Inactive)
REMARK    1  A    between atoms: C2_2  and  C4_4 
REMARK    2  A    between atoms: C5_9  and  C6_10 
REMARK    3  A    between atoms: C6_10  and  C7_11 
REMARK    4  A    between atoms: C10_24  and  N7_25 
ROOT
HETATM    1  C4  UNL     1      -2.265   0.002   0.188  1.00  0.00     0.096 A 
HETATM    2  N1  UNL     1      -1.690  -0.396   1.352  1.00  0.00    -0.295 N 
ATOM      3  H1  UNL     1      -2.194  -0.244   2.226  1.00  0.00     0.187 HD
HETATM    4  N2  UNL     1      -0.503  -0.973   1.395  1.00  0.00    -0.288 N 
ATOM      5  H2  UNL     1      -0.113  -1.253   2.295  1.00  0.00     0.188 HD
HETATM    6  C5  UNL     1       0.203  -1.198   0.265  1.00  0.00     0.104 A 
HETATM    7  N6  UNL     1      -0.358  -0.810  -0.877  1.00  0.00    -0.329 N 
ATOM      8  H6  UNL     1       0.161  -0.972  -1.740  1.00  0.00     0.168 HD
HETATM    9  C10 UNL     1      -1.574  -0.213  -0.974  1.00  0.00     0.129 A 
ENDROOT
BRANCH   6  10
HETATM   10  C6  UNL     1       1.532  -1.850   0.361  1.00  0.00     0.154 C 
BRANCH  10  11
HETATM   11  C7  UNL     1       2.625  -0.866   0.523  1.00  0.00     0.096 A 
HETATM   12  N3  UNL     1       3.074  -0.435   1.714  1.00  0.00    -0.297 N 
HETATM   13  C8  UNL     1       4.080   0.470   1.809  1.00  0.00     0.329 A 
ATOM     14  H3  UNL     1       2.648  -0.797   2.567  1.00  0.00     0.172 HD
HETATM   15  O1  UNL     1       4.464   0.842   2.962  1.00  0.00    -0.246 OA
HETATM   16  N4  UNL     1       4.665   0.969   0.706  1.00  0.00    -0.260 N 
HETATM   17  C9  UNL     1       4.213   0.534  -0.491  1.00  0.00     0.329 A 
ATOM     18  H4  UNL     1       5.421   1.650   0.770  1.00  0.00     0.175 HD
HETATM   19  O2  UNL     1       4.775   1.015  -1.505  1.00  0.00    -0.246 OA
HETATM   20  N5  UNL     1       3.209  -0.369  -0.579  1.00  0.00    -0.297 N 
ATOM     21  H5  UNL     1       2.891  -0.677  -1.498  1.00  0.00     0.172 HD
ENDBRANCH  10  11
ENDBRANCH   6  10
BRANCH   9  22
HETATM   22  N7  UNL     1      -2.083   0.146  -2.077  1.00  0.00    -0.384 N 
ATOM     23  H72 UNL     1      -2.996   0.594  -2.150  1.00  0.00     0.157 HD
ATOM     24  H71 UNL     1      -1.568  -0.014  -2.943  1.00  0.00     0.157 HD
ENDBRANCH   9  22
BRANCH   1  25
HETATM   25  C2  UNL     1      -3.576   0.631   0.222  1.00  0.00    -0.039 C 
HETATM   26  C1  UNL     1      -4.156   0.790   1.397  1.00  0.00     0.021 C 
HETATM   27  C3  UNL     1      -4.290   1.100  -0.975  1.00  0.00     0.050 C 
ENDBRANCH   1  25
TORSDOF 4
