REMARK  4 active torsions:
REMARK  status: ('A' for Active; 'I' for Inactive)
REMARK    1  A    between atoms: C3_5  and  N2_6 
REMARK    2  A    between atoms: C4_11  and  C5_12 
REMARK    3  A    between atoms: C5_12  and  S2_13 
REMARK    4  A    between atoms: S2_13  and  C6_14 
ROOT
HETATM    1  N1  UNL     1      -1.704  -3.854  -0.740  1.00  0.00    -0.191 NA
HETATM    2  C1  UNL     1      -2.052  -2.798  -0.426  1.00  0.00     0.109 C 
HETATM    3  C2  UNL     1      -2.505  -1.468  -0.031  1.00  0.00     0.112 A 
HETATM    4  S1  UNL     1      -4.092  -0.938   0.313  1.00  0.00    -0.041 SA
HETATM    5  C3  UNL     1      -3.739   0.685   0.675  1.00  0.00     0.143 A 
HETATM    6  N3  UNL     1      -2.423   0.760   0.519  1.00  0.00    -0.338 N 
ATOM      7  H3  UNL     1      -1.928   1.638   0.674  1.00  0.00     0.168 HD
HETATM    8  C4  UNL     1      -1.772  -0.329   0.159  1.00  0.00     0.049 A 
ENDROOT
BRANCH   8   9
HETATM    9  C5  UNL     1      -0.263  -0.410  -0.060  1.00  0.00     0.141 C 
BRANCH   9  10
HETATM   10  S2  UNL     1       0.523   1.170   0.234  1.00  0.00    -0.086 SA
BRANCH  10  11
HETATM   11  C6  UNL     1       2.277   0.973  -0.046  1.00  0.00     0.163 A 
HETATM   12  N4  UNL     1       3.245   1.926   0.066  1.00  0.00    -0.287 N 
HETATM   13  C7  UNL     1       4.439   1.382  -0.228  1.00  0.00     0.340 A 
ATOM     14  H4  UNL     1       3.088   2.898   0.331  1.00  0.00     0.172 HD
HETATM   15  O1  UNL     1       5.583   1.885  -0.252  1.00  0.00    -0.245 OA
HETATM   16  N5  UNL     1       4.224   0.076  -0.529  1.00  0.00    -0.249 N 
HETATM   17  N6  UNL     1       2.944  -0.133  -0.413  1.00  0.00    -0.276 N 
ATOM     18  H5  UNL     1       4.930  -0.610  -0.795  1.00  0.00     0.192 HD
ATOM     19  H6  UNL     1       2.498  -1.035  -0.582  1.00  0.00     0.189 HD
ENDBRANCH  10  11
ENDBRANCH   9  10
ENDBRANCH   8   9
BRANCH   5  20
HETATM   20  N2  UNL     1      -4.597   1.600   1.019  1.00  0.00    -0.380 N 
ATOM     21  H22 UNL     1      -5.608   1.542   1.139  1.00  0.00     0.158 HD
ATOM     22  H21 UNL     1      -4.385   2.574   1.236  1.00  0.00     0.158 HD
ENDBRANCH   5  20
TORSDOF 4
