REMARK  9 active torsions:
REMARK  status: ('A' for Active; 'I' for Inactive)
REMARK    1  A    between atoms: O1_2  and  C2_3 
REMARK    2  A    between atoms: C2_3  and  C3_4 
REMARK    3  A    between atoms: C3_4  and  C4_5 
REMARK    4  A    between atoms: C3_4  and  N2_14 
REMARK    5  A    between atoms: C4_5  and  C5_6 
REMARK    6  A    between atoms: C5_6  and  C6_7 
REMARK    7  A    between atoms: C6_7  and  N1_10 
REMARK    8  A    between atoms: N2_14  and  C9_16 
REMARK    9  A    between atoms: N5_22  and  C11_24 
ROOT
HETATM    1  C9  UNL     1      -0.008   1.166  -0.615  1.00  0.00     0.163 A 
HETATM    2  N3  UNL     1       1.136   1.216  -1.296  1.00  0.00    -0.278 N 
ATOM      3  H3  UNL     1       1.162   1.612  -2.235  1.00  0.00     0.189 HD
HETATM    4  N4  UNL     1       2.198   0.761  -0.756  1.00  0.00    -0.278 N 
ATOM      5  H4  UNL     1       3.085   0.789  -1.258  1.00  0.00     0.189 HD
HETATM    6  C10 UNL     1       2.134   0.249   0.472  1.00  0.00     0.163 A 
HETATM    7  N5  UNL     1       3.096  -0.266   1.201  1.00  0.00    -0.365 N 
ATOM      8  H5  UNL     1       2.910  -0.627   2.137  1.00  0.00     0.162 HD
HETATM    9  S1  UNL     1       0.478   0.435   0.851  1.00  0.00    -0.016 SA
ENDROOT
BRANCH   1  10
HETATM   10  N2  UNL     1      -1.198   1.580  -0.996  1.00  0.00    -0.363 N 
ATOM     11  H2  UNL     1      -1.352   2.004  -1.911  1.00  0.00     0.162 HD
BRANCH  10  12
HETATM   12  C3  UNL     1      -2.294   1.398  -0.032  1.00  0.00     0.107 C 
BRANCH  12  13
HETATM   13  C2  UNL     1      -3.291   2.485  -0.316  1.00  0.00     0.192 C 
BRANCH  13  14
HETATM   14  O1  UNL     1      -2.769   3.749  -0.175  1.00  0.00    -0.394 OA
HETATM   15  C1  UNL     1      -3.732   4.718  -0.449  1.00  0.00     0.201 C 
ENDBRANCH  13  14
ENDBRANCH  12  13
BRANCH  12  16
HETATM   16  C4  UNL     1      -2.830   0.024  -0.236  1.00  0.00     0.030 C 
BRANCH  16  17
HETATM   17  C5  UNL     1      -4.006  -0.309   0.625  1.00  0.00     0.040 C 
BRANCH  17  18
HETATM   18  C6  UNL     1      -4.437  -1.729   0.306  1.00  0.00     0.116 C 
HETATM   19  C7  UNL     1      -4.806  -1.759  -1.176  1.00  0.00     0.045 C 
HETATM   20  C8  UNL     1      -5.642  -2.130   1.153  1.00  0.00     0.045 C 
BRANCH  18  21
HETATM   21  N1  UNL     1      -3.406  -2.695   0.556  1.00  0.00    -0.071 N 
ATOM     22  H13 UNL     1      -2.550  -2.453   0.056  1.00  0.00     0.275 HD
ATOM     23  H12 UNL     1      -3.065  -2.624   1.515  1.00  0.00     0.275 HD
ATOM     24  H11 UNL     1      -3.696  -3.649   0.342  1.00  0.00     0.275 HD
ENDBRANCH  18  21
ENDBRANCH  17  18
ENDBRANCH  16  17
ENDBRANCH  12  16
ENDBRANCH  10  12
ENDBRANCH   1  10
BRANCH   7  25
HETATM   25  C11 UNL     1       4.408  -0.305   0.646  1.00  0.00     0.083 C 
HETATM   26  C12 UNL     1       4.624  -1.461  -0.302  1.00  0.00     0.025 C 
HETATM   27  C13 UNL     1       5.923  -1.203  -1.041  1.00  0.00     0.002 C 
HETATM   28  C14 UNL     1       6.865  -0.458  -0.139  1.00  0.00     0.000 C 
HETATM   29  C15 UNL     1       6.750  -0.883   1.308  1.00  0.00     0.002 C 
HETATM   30  C16 UNL     1       5.387  -0.512   1.806  1.00  0.00     0.025 C 
ENDBRANCH   7  25
TORSDOF 9
