REMARK  9 active torsions:
REMARK  status: ('A' for Active; 'I' for Inactive)
REMARK    1  A    between atoms: O1_2  and  C2_3 
REMARK    2  A    between atoms: C2_3  and  O2_4 
REMARK    3  A    between atoms: O2_4  and  C3_5 
REMARK    4  A    between atoms: C3_5  and  C4_6 
REMARK    5  A    between atoms: C11_13  and  O3_14 
REMARK    6  A    between atoms: C12_16  and  O4_17 
REMARK    7  A    between atoms: C13_19  and  C14_20 
REMARK    8  A    between atoms: C15_21  and  C16_22 
REMARK    9  A    between atoms: C21_27  and  C22_28 
ROOT
HETATM    1  C2  UNL     1      -2.221   0.261  -1.771  1.00  0.00     0.166 C 
HETATM    2  C10 UNL     1      -2.125   1.794  -1.713  1.00  0.00     0.102 C 
HETATM    3  C11 UNL     1      -1.053   2.193  -2.669  1.00  0.00     0.152 C 
HETATM    4  C12 UNL     1       0.260   2.115  -1.868  1.00  0.00     0.154 C 
HETATM    5  C13 UNL     1       0.120   0.870  -1.006  1.00  0.00     0.044 C 
HETATM    6  C23 UNL     1      -0.724  -0.176  -1.647  1.00  0.00     0.079 C 
ENDROOT
BRANCH   5   7
HETATM    7  C14 UNL     1       1.502   0.295  -0.926  1.00  0.00    -0.023 C 
HETATM    8  C15 UNL     1       2.139   0.122   0.227  1.00  0.00    -0.025 C 
BRANCH   8   9
HETATM    9  C16 UNL     1       3.509  -0.449   0.293  1.00  0.00     0.022 C 
HETATM   10  C17 UNL     1       3.546  -1.789   0.956  1.00  0.00     0.009 C 
HETATM   11  C18 UNL     1       4.834  -2.215   1.516  1.00  0.00     0.001 C 
HETATM   12  C19 UNL     1       5.890  -1.205   1.699  1.00  0.00     0.001 C 
HETATM   13  C20 UNL     1       5.829  -0.028   0.767  1.00  0.00     0.016 C 
HETATM   14  C21 UNL     1       4.420   0.562   0.931  1.00  0.00     0.094 C 
BRANCH  14  15
HETATM   15  C22 UNL     1       4.118   0.839   2.336  1.00  0.00     0.177 C 
HETATM   16  O5  UNL     1       3.192   0.302   2.995  1.00  0.00    -0.648 OA
HETATM   17  O6  UNL     1       4.911   1.766   3.000  1.00  0.00    -0.648 OA
ENDBRANCH  14  15
ENDBRANCH   8   9
ENDBRANCH   5   7
BRANCH   4  18
HETATM   18  O4  UNL     1       0.274   3.243  -1.050  1.00  0.00    -0.392 OA
ATOM     19  H4  UNL     1       1.084   3.195  -0.556  1.00  0.00     0.210 HD
ENDBRANCH   4  18
BRANCH   3  20
HETATM   20  O3  UNL     1      -1.224   3.449  -3.222  1.00  0.00    -0.393 OA
ATOM     21  H3  UNL     1      -0.541   3.703  -3.831  1.00  0.00     0.210 HD
ENDBRANCH   3  20
BRANCH   1  22
HETATM   22  O1  UNL     1      -2.623  -0.215  -2.915  1.00  0.00    -0.360 OA
HETATM   23  C1  UNL     1      -3.719  -0.243  -3.591  1.00  0.00     0.205 C 
ENDBRANCH   1  22
BRANCH   1  24
HETATM   24  O2  UNL     1      -2.756  -0.102  -0.563  1.00  0.00    -0.350 OA
BRANCH  24  25
HETATM   25  C3  UNL     1      -4.064   0.172  -0.409  1.00  0.00     0.210 C 
BRANCH  25  26
HETATM   26  C4  UNL     1      -4.527  -0.213   0.983  1.00  0.00    -0.035 A 
HETATM   27  C5  UNL     1      -4.469   0.687   2.021  1.00  0.00     0.009 A 
HETATM   28  C6  UNL     1      -4.897   0.324   3.297  1.00  0.00     0.001 A 
HETATM   29  C7  UNL     1      -5.387  -0.938   3.557  1.00  0.00     0.000 A 
HETATM   30  C8  UNL     1      -5.443  -1.838   2.516  1.00  0.00     0.001 A 
HETATM   31  C9  UNL     1      -5.015  -1.473   1.240  1.00  0.00     0.009 A 
ENDBRANCH  25  26
ENDBRANCH  24  25
ENDBRANCH   1  24
TORSDOF 9
