REMARK  9 active torsions:
REMARK  status: ('A' for Active; 'I' for Inactive)
REMARK    1  A    between atoms: C2_2  and  C3_3 
REMARK    2  A    between atoms: C3_3  and  N1_4 
REMARK       I    between atoms: N1_4  and  C4_6 
REMARK    3  A    between atoms: C4_6  and  C5_8 
REMARK    4  A    between atoms: C8_12  and  C9_13 
REMARK    5  A    between atoms: C9_13  and  C10_14 
REMARK    6  A    between atoms: C10_14  and  C11_15 
REMARK    7  A    between atoms: C16_20  and  O2_21 
REMARK    8  A    between atoms: C17_23  and  C18_24 
REMARK    9  A    between atoms: C22_28  and  O3_29 
ROOT
HETATM    1  C5  UNL     1       3.716   0.251  -1.250  1.00  0.00     0.149 C 
HETATM    2  C6  UNL     1       4.138   0.633  -2.655  1.00  0.00     0.057 C 
HETATM    3  C7  UNL     1       3.137  -1.160  -1.292  1.00  0.00     0.122 C 
HETATM    4  S1  UNL     1       1.376  -1.160  -1.571  1.00  0.00    -0.156 SA
HETATM    5  C8  UNL     1       0.631   0.418  -1.093  1.00  0.00     0.102 C 
HETATM    6  C22 UNL     1       1.731   1.468  -1.282  1.00  0.00     0.272 C 
HETATM    7  O4  UNL     1       2.894   1.158  -0.659  1.00  0.00    -0.339 OA
ENDROOT
BRANCH   5   8
HETATM    8  C9  UNL     1       0.151   0.486   0.306  1.00  0.00     0.021 C 
BRANCH   8   9
HETATM    9  C10 UNL     1      -0.889  -0.405   0.793  1.00  0.00     0.011 C 
BRANCH   9  10
HETATM   10  C11 UNL     1      -2.261  -0.400   0.291  1.00  0.00    -0.037 C 
HETATM   11  C12 UNL     1      -2.372  -0.714  -1.173  1.00  0.00     0.016 C 
HETATM   12  C13 UNL     1      -3.008  -1.511   1.036  1.00  0.00    -0.008 C 
HETATM   13  C14 UNL     1      -3.119  -2.773   0.207  1.00  0.00     0.011 C 
HETATM   14  C15 UNL     1      -4.341  -1.120   1.550  1.00  0.00     0.037 C 
HETATM   15  C16 UNL     1      -5.165  -0.264   0.584  1.00  0.00     0.126 C 
HETATM   16  C17 UNL     1      -4.414   0.848   0.007  1.00  0.00     0.041 C 
HETATM   17  C20 UNL     1      -2.967   0.930   0.490  1.00  0.00    -0.000 C 
HETATM   18  C21 UNL     1      -2.963   1.437   1.885  1.00  0.00     0.011 C 
BRANCH  15  19
HETATM   19  O2  UNL     1      -6.340  -0.009   1.244  1.00  0.00    -0.395 OA
ATOM     20  H2  UNL     1      -6.851   0.522   0.645  1.00  0.00     0.210 HD
ENDBRANCH  15  19
BRANCH  16  21
HETATM   21  C18 UNL     1      -4.930   2.210   0.060  1.00  0.00    -0.029 C 
HETATM   22  C19 UNL     1      -5.910   2.750   0.709  1.00  0.00     0.007 C 
ENDBRANCH  16  21
ENDBRANCH   9  10
ENDBRANCH   8   9
ENDBRANCH   5   8
BRANCH   6  23
HETATM   23  O3  UNL     1       1.804   1.763  -2.617  1.00  0.00    -0.370 OA
ATOM     24  H3  UNL     1       2.486   2.414  -2.734  1.00  0.00     0.212 HD
ENDBRANCH   6  23
BRANCH   1  25
HETATM   25  C4  UNL     1       4.964   0.153  -0.445  1.00  0.00     0.253 C 
HETATM   26  N1  UNL     1       6.030  -0.717  -0.799  1.00  0.00    -0.355 N 
ATOM     27  H1  UNL     1       5.923  -1.289  -1.637  1.00  0.00     0.162 HD
HETATM   28  O1  UNL     1       5.131   0.845   0.600  1.00  0.00    -0.270 OA
BRANCH  26  29
HETATM   29  C3  UNL     1       7.242  -0.841  -0.055  1.00  0.00     0.149 C 
BRANCH  29  30
HETATM   30  C2  UNL     1       6.952  -1.292   1.335  1.00  0.00    -0.018 C 
HETATM   31  C1  UNL     1       7.286  -0.565   2.370  1.00  0.00     0.008 C 
ENDBRANCH  29  30
ENDBRANCH  26  29
ENDBRANCH   1  25
TORSDOF 9
