REMARK  9 active torsions:
REMARK  status: ('A' for Active; 'I' for Inactive)
REMARK    1  A    between atoms: O1_1  and  C1_3 
REMARK    2  A    between atoms: N1_6  and  C4_7 
REMARK    3  A    between atoms: C7_10  and  N2_11 
REMARK    4  A    between atoms: C9_13  and  O2_14 
REMARK    5  A    between atoms: C10_16  and  C11_17 
REMARK    6  A    between atoms: C11_17  and  C12_18 
REMARK    7  A    between atoms: C20_26  and  C21_27 
REMARK    8  A    between atoms: C21_27  and  N3_28 
REMARK    9  A    between atoms: N3_28  and  C22_30 
ROOT
HETATM    1  C4  UNL     1      -1.110  -0.522   0.038  1.00  0.00     0.030 A 
HETATM    2  C5  UNL     1      -1.079   0.845  -0.068  1.00  0.00     0.031 A 
HETATM    3  C6  UNL     1       0.110   1.506   0.089  1.00  0.00     0.031 A 
HETATM    4  C7  UNL     1       1.257   0.808   0.351  1.00  0.00     0.030 A 
HETATM    5  C18 UNL     1       1.223  -0.564   0.458  1.00  0.00     0.031 A 
HETATM    6  C19 UNL     1       0.019  -1.227   0.298  1.00  0.00     0.031 A 
ENDROOT
BRANCH   1   7
HETATM    7  N1  UNL     1      -2.354  -1.206  -0.106  1.00  0.00    -0.371 N 
HETATM    8  C3  UNL     1      -2.378  -2.560  -0.559  1.00  0.00     0.126 C 
HETATM    9  C2  UNL     1      -3.182  -3.482   0.311  1.00  0.00     0.051 C 
HETATM   10  C1  UNL     1      -4.361  -2.880   0.972  1.00  0.00     0.122 C 
HETATM   11  C25 UNL     1      -4.286  -1.436   1.268  1.00  0.00     0.062 C 
HETATM   12  C20 UNL     1      -3.642  -0.586   0.213  1.00  0.00     0.125 C 
BRANCH  10  13
HETATM   13  O1  UNL     1      -5.549  -3.144   0.253  1.00  0.00    -0.395 OA
ATOM     14  H1  UNL     1      -6.306  -2.757   0.677  1.00  0.00     0.210 HD
ENDBRANCH  10  13
BRANCH  12  15
HETATM   15  C21 UNL     1      -4.427  -0.444  -1.031  1.00  0.00     0.081 C 
BRANCH  15  16
HETATM   16  N3  UNL     1      -5.712   0.123  -0.971  1.00  0.00    -0.396 N 
ATOM     17  H3  UNL     1      -6.532  -0.457  -1.150  1.00  0.00     0.159 HD
BRANCH  16  18
HETATM   18  C22 UNL     1      -5.873   1.491  -0.664  1.00  0.00     0.081 A 
HETATM   19  C23 UNL     1      -5.538   2.163   0.588  1.00  0.00     0.027 A 
HETATM   20  C24 UNL     1      -6.972   1.820   0.336  1.00  0.00     0.027 A 
ENDBRANCH  16  18
ENDBRANCH  15  16
ENDBRANCH  12  15
ENDBRANCH   1   7
BRANCH   4  21
HETATM   21  N2  UNL     1       2.480   1.496   0.510  1.00  0.00    -0.371 N 
HETATM   22  C8  UNL     1       2.988   2.837   0.527  1.00  0.00     0.157 C 
HETATM   23  C9  UNL     1       4.101   2.336   1.436  1.00  0.00     0.159 C 
HETATM   24  C10 UNL     1       3.876   1.053   0.738  1.00  0.00     0.119 C 
BRANCH  23  25
HETATM   25  O2  UNL     1       5.294   2.985   1.297  1.00  0.00    -0.392 OA
ATOM     26  H2  UNL     1       5.989   2.672   1.864  1.00  0.00     0.210 HD
ENDBRANCH  23  25
BRANCH  24  27
HETATM   27  C11 UNL     1       4.505   0.773  -0.574  1.00  0.00     0.066 C 
BRANCH  27  28
HETATM   28  C12 UNL     1       5.900   0.308  -0.524  1.00  0.00    -0.056 A 
HETATM   29  C13 UNL     1       6.963   1.169  -0.707  1.00  0.00     0.007 A 
HETATM   30  C14 UNL     1       8.260   0.702  -0.632  1.00  0.00     0.001 A 
HETATM   31  C15 UNL     1       8.554  -0.619  -0.377  1.00  0.00     0.000 A 
HETATM   32  C16 UNL     1       7.492  -1.465  -0.198  1.00  0.00     0.001 A 
HETATM   33  C17 UNL     1       6.191  -1.041  -0.263  1.00  0.00     0.007 A 
ENDBRANCH  27  28
ENDBRANCH  24  27
ENDBRANCH   4  21
TORSDOF 9
