REMARK  7 active torsions:
REMARK  status: ('A' for Active; 'I' for Inactive)
REMARK    1  A    between atoms: C2_3  and  N2_4 
REMARK       I    between atoms: N2_4  and  C3_6 
REMARK       I    between atoms: C3_6  and  N3_8 
REMARK    2  A    between atoms: N3_8  and  C4_10 
REMARK    3  A    between atoms: C7_13  and  C8_14 
REMARK    4  A    between atoms: C8_14  and  N4_15 
REMARK       I    between atoms: N4_15  and  C9_17 
REMARK    5  A    between atoms: C9_17  and  C10_19 
REMARK    6  A    between atoms: C10_19  and  C11_20 
REMARK    7  A    between atoms: C11_20  and  C12_21 
ROOT
HETATM    1  N1  UNL     1      -8.522  -1.961  -2.125  1.00  0.00    -0.195 NA
HETATM    2  C1  UNL     1      -7.621  -1.541  -1.529  1.00  0.00     0.091 C 
HETATM    3  C2  UNL     1      -6.470  -1.024  -0.751  1.00  0.00     0.123 C 
HETATM    4  C18 UNL     1      -6.970   0.244  -0.095  1.00  0.00     0.046 C 
HETATM    5  C19 UNL     1      -7.664  -0.255   1.136  1.00  0.00     0.004 C 
HETATM    6  C20 UNL     1      -6.758  -1.364   1.625  1.00  0.00     0.004 C 
HETATM    7  C21 UNL     1      -6.203  -1.972   0.369  1.00  0.00     0.046 C 
ENDROOT
BRANCH   3   8
HETATM    8  N2  UNL     1      -5.357  -0.817  -1.632  1.00  0.00    -0.321 N 
HETATM    9  C3  UNL     1      -4.109  -0.330  -1.163  1.00  0.00     0.317 C 
HETATM   10  O1  UNL     1      -3.948  -0.066   0.051  1.00  0.00    -0.247 OA
HETATM   11  N3  UNL     1      -3.027  -0.133  -2.055  1.00  0.00    -0.338 N 
ATOM     12  H3  UNL     1      -3.171  -0.350  -3.041  1.00  0.00     0.164 HD
ATOM     13  H2  UNL     1      -5.466  -1.026  -2.624  1.00  0.00     0.166 HD
BRANCH  11  14
HETATM   14  C4  UNL     1      -1.740   0.354  -1.650  1.00  0.00     0.086 C 
HETATM   15  C5  UNL     1      -1.090  -0.627  -0.684  1.00  0.00     0.026 C 
HETATM   16  C6  UNL     1       0.344  -0.262  -0.454  1.00  0.00     0.008 C 
HETATM   17  C7  UNL     1       0.477   1.157  -0.032  1.00  0.00     0.003 C 
HETATM   18  C16 UNL     1      -0.897   1.744   0.229  1.00  0.00     0.008 C 
HETATM   19  C17 UNL     1      -1.775   1.731  -1.013  1.00  0.00     0.026 C 
BRANCH  17  20
HETATM   20  C8  UNL     1       1.198   1.992  -1.062  1.00  0.00     0.127 C 
BRANCH  20  21
HETATM   21  N4  UNL     1       2.513   1.454  -1.272  1.00  0.00    -0.361 N 
HETATM   22  C9  UNL     1       3.519   1.359  -0.285  1.00  0.00     0.217 C 
HETATM   23  O2  UNL     1       3.333   1.755   0.885  1.00  0.00    -0.274 OA
ATOM     24  H4  UNL     1       2.738   1.114  -2.207  1.00  0.00     0.162 HD
BRANCH  22  25
HETATM   25  C10 UNL     1       4.823   0.760  -0.703  1.00  0.00     0.104 C 
BRANCH  25  26
HETATM   26  C11 UNL     1       5.746   0.759   0.521  1.00  0.00     0.024 C 
BRANCH  26  27
HETATM   27  C12 UNL     1       7.099   0.154   0.145  1.00  0.00     0.047 C 
HETATM   28  C13 UNL     1       7.960   0.173   1.358  1.00  0.00     0.016 C 
HETATM   29  C14 UNL     1       8.727  -1.104   1.448  1.00  0.00     0.011 C 
HETATM   30  C15 UNL     1       7.787  -2.249   1.275  1.00  0.00     0.074 C 
HETATM   31  S1  UNL     1       6.783  -1.633  -0.136  1.00  0.00    -0.164 SA
ENDBRANCH  26  27
ENDBRANCH  25  26
ENDBRANCH  22  25
ENDBRANCH  20  21
ENDBRANCH  17  20
ENDBRANCH  11  14
ENDBRANCH   3   8
TORSDOF 7
