REMARK  10 active torsions:
REMARK  status: ('A' for Active; 'I' for Inactive)
REMARK    1  A    between atoms: C2_2  and  O1_5 
REMARK    2  A    between atoms: O1_5  and  C5_6 
REMARK    3  A    between atoms: C5_6  and  N1_8 
REMARK    4  A    between atoms: N1_8  and  C6_10 
REMARK    5  A    between atoms: C6_10  and  C7_11 
REMARK    6  A    between atoms: C7_11  and  N2_12 
REMARK       I    between atoms: N3_15  and  C10_16 
REMARK       I    between atoms: C10_16  and  N4_18 
REMARK    7  A    between atoms: N4_18  and  C11_20 
REMARK    8  A    between atoms: C11_20  and  C12_21 
REMARK    9  A    between atoms: C12_21  and  C13_22 
REMARK   10  A    between atoms: C13_22  and  C14_23 
ROOT
HETATM    1  N2  UNL     1      -1.915  -0.488   0.602  1.00  0.00     0.093 N 
HETATM    2  C8  UNL     1      -1.968   0.881   0.979  1.00  0.00     0.292 C 
HETATM    3  C9  UNL     1      -0.726   1.551   0.427  1.00  0.00     0.158 C 
HETATM    4  N3  UNL     1       0.242   0.631  -0.100  1.00  0.00    -0.331 N 
HETATM    5  C10 UNL     1       1.620   0.817   0.213  1.00  0.00     0.318 C 
HETATM    6  O2  UNL     1       1.952   1.802   0.959  1.00  0.00    -0.247 OA
HETATM    7  N4  UNL     1       2.555  -0.095  -0.317  1.00  0.00    -0.343 N 
ATOM      8  H4  UNL     1       2.218  -0.863  -0.898  1.00  0.00     0.164 HD
HETATM    9  C19 UNL     1      -0.139  -0.470  -0.938  1.00  0.00     0.158 C 
HETATM   10  C20 UNL     1      -1.660  -0.650  -0.813  1.00  0.00     0.292 C 
ENDROOT
BRANCH   7  11
HETATM   11  C11 UNL     1       3.967   0.017  -0.069  1.00  0.00     0.124 C 
BRANCH  11  12
HETATM   12  C12 UNL     1       4.490   1.290  -0.655  1.00  0.00     0.022 C 
BRANCH  12  13
HETATM   13  C13 UNL     1       5.921   1.576  -0.486  1.00  0.00     0.034 C 
BRANCH  13  14
HETATM   14  C14 UNL     1       6.964   0.700  -1.021  1.00  0.00     0.186 C 
HETATM   15  C15 UNL     1       7.079  -0.691  -0.583  1.00  0.00     0.033 C 
HETATM   16  C16 UNL     1       8.549  -1.097  -0.498  1.00  0.00     0.004 C 
HETATM   17  C17 UNL     1       9.234  -0.292   0.606  1.00  0.00     0.027 C 
HETATM   18  C18 UNL     1       8.776   1.161   0.496  1.00  0.00     0.232 C 
HETATM   19  N5  UNL     1       8.247   1.391  -0.841  1.00  0.00    -0.071 N 
ATOM     20  H52 UNL     1       8.920   1.132  -1.563  1.00  0.00     0.277 HD
ATOM     21  H51 UNL     1       8.172   2.386  -1.051  1.00  0.00     0.277 HD
ENDBRANCH  13  14
ENDBRANCH  12  13
ENDBRANCH  11  12
ENDBRANCH   7  11
BRANCH   1  22
HETATM   22  C7  UNL     1      -2.970  -1.313   1.093  1.00  0.00     0.292 C 
BRANCH  22  23
HETATM   23  C6  UNL     1      -4.316  -1.038   0.525  1.00  0.00     0.152 C 
BRANCH  23  24
HETATM   24  N1  UNL     1      -5.268  -1.956   1.122  1.00  0.00    -0.360 N 
ATOM     25  H1  UNL     1      -4.969  -2.642   1.815  1.00  0.00     0.162 HD
BRANCH  24  26
HETATM   26  C5  UNL     1      -6.619  -1.876   0.720  1.00  0.00     0.210 C 
HETATM   27  S1  UNL     1      -7.707  -2.887   1.368  1.00  0.00    -0.033 SA
BRANCH  26  28
HETATM   28  O1  UNL     1      -7.009  -0.951  -0.212  1.00  0.00    -0.317 OA
BRANCH  28  29
HETATM   29  C2  UNL     1      -8.248  -0.328  -0.326  1.00  0.00     0.059 C 
HETATM   30  C1  UNL     1      -8.167   0.618  -1.530  1.00  0.00     0.045 C 
HETATM   31  C3  UNL     1      -9.381  -1.299  -0.589  1.00  0.00     0.045 C 
HETATM   32  C4  UNL     1      -8.625   0.496   0.870  1.00  0.00     0.045 C 
ENDBRANCH  28  29
ENDBRANCH  26  28
ENDBRANCH  24  26
ENDBRANCH  23  24
ENDBRANCH  22  23
ENDBRANCH   1  22
TORSDOF 10
