REMARK  11 active torsions:
REMARK  status: ('A' for Active; 'I' for Inactive)
REMARK    1  A    between atoms: C2_2  and  N1_3 
REMARK    2  A    between atoms: C2_2  and  C18_29 
REMARK    3  A    between atoms: N1_3  and  C3_5 
REMARK    4  A    between atoms: C3_5  and  C4_6 
REMARK    5  A    between atoms: C3_5  and  C14_25 
REMARK       I    between atoms: C4_6  and  N2_8 
REMARK    6  A    between atoms: N2_8  and  C5_10 
REMARK    7  A    between atoms: C5_10  and  C6_11 
REMARK    8  A    between atoms: C5_10  and  C13_18 
REMARK    9  A    between atoms: C6_11  and  C7_12 
REMARK   10  A    between atoms: C13_18  and  O2_19 
REMARK   11  A    between atoms: N3_21  and  O3_23 
REMARK       I    between atoms: C18_29  and  N4_31 
ROOT
HETATM    1  C4  UNL     1       0.080   0.383  -0.734  1.00  0.00     0.245 C 
HETATM    2  O1  UNL     1       0.454   1.583  -0.454  1.00  0.00    -0.271 OA
HETATM    3  N2  UNL     1      -1.302   0.088  -0.571  1.00  0.00    -0.325 N 
ATOM      4  H2  UNL     1      -1.625  -0.853  -0.796  1.00  0.00     0.169 HD
ENDROOT
BRANCH   1   5
HETATM    5  C3  UNL     1       1.122  -0.549  -1.189  1.00  0.00     0.178 C 
BRANCH   5   6
HETATM    6  N1  UNL     1       2.380  -0.140  -0.764  1.00  0.00    -0.397 N 
ATOM      7  H1  UNL     1       2.988   0.257  -1.481  1.00  0.00     0.154 HD
BRANCH   6   8
HETATM    8  C2  UNL     1       2.909  -0.205   0.513  1.00  0.00     0.166 C 
HETATM    9  C1  UNL     1       2.263   0.506   1.647  1.00  0.00     0.042 C 
BRANCH   8  10
HETATM   10  C18 UNL     1       4.338   0.316   0.371  1.00  0.00     0.241 C 
HETATM   11  O4  UNL     1       4.624   0.808  -0.775  1.00  0.00    -0.271 OA
HETATM   12  N4  UNL     1       5.306   0.288   1.370  1.00  0.00    -0.350 N 
HETATM   13  C19 UNL     1       6.643   0.882   1.154  1.00  0.00     0.126 C 
HETATM   14  C22 UNL     1       5.348  -0.251   2.700  1.00  0.00     0.126 C 
HETATM   15  C20 UNL     1       7.588   0.131   2.025  1.00  0.00     0.021 C 
HETATM   16  C21 UNL     1       6.753  -0.678   2.985  1.00  0.00     0.021 C 
ENDBRANCH   8  10
ENDBRANCH   6   8
ENDBRANCH   5   6
BRANCH   5  17
HETATM   17  C14 UNL     1       1.010  -0.683  -2.702  1.00  0.00    -0.022 C 
HETATM   18  C15 UNL     1       1.247   0.598  -3.432  1.00  0.00     0.017 C 
HETATM   19  C16 UNL     1      -0.328  -1.245  -3.077  1.00  0.00     0.017 C 
HETATM   20  C17 UNL     1       2.027  -1.752  -3.181  1.00  0.00     0.017 C 
ENDBRANCH   5  17
ENDBRANCH   1   5
BRANCH   3  21
HETATM   21  C5  UNL     1      -2.266   1.043  -0.107  1.00  0.00     0.065 C 
BRANCH  21  22
HETATM   22  C6  UNL     1      -3.016   0.608   1.085  1.00  0.00     0.066 C 
BRANCH  22  23
HETATM   23  C7  UNL     1      -3.791  -0.649   1.006  1.00  0.00    -0.009 C 
HETATM   24  C8  UNL     1      -4.883  -0.764   0.025  1.00  0.00     0.005 C 
HETATM   25  C9  UNL     1      -6.217  -0.195   0.482  1.00  0.00     0.000 C 
HETATM   26  C10 UNL     1      -6.597  -0.624   1.861  1.00  0.00     0.000 C 
HETATM   27  C11 UNL     1      -5.467  -0.320   2.838  1.00  0.00     0.000 C 
HETATM   28  C12 UNL     1      -4.283  -1.108   2.373  1.00  0.00     0.005 C 
ENDBRANCH  22  23
ENDBRANCH  21  22
BRANCH  21  29
HETATM   29  C13 UNL     1      -3.084   1.716  -1.096  1.00  0.00     0.183 C 
HETATM   30  N3  UNL     1      -3.020   1.658  -2.367  1.00  0.00    -0.246 N 
ATOM     31  H3  UNL     1      -2.301   1.060  -2.775  1.00  0.00     0.196 HD
BRANCH  29  32
HETATM   32  O2  UNL     1      -4.098   2.560  -0.582  1.00  0.00    -0.343 OA
ATOM     33  H2  UNL     1      -4.634   3.001  -1.230  1.00  0.00     0.219 HD
ENDBRANCH  29  32
BRANCH  30  34
HETATM   34  O3  UNL     1      -3.831   2.327  -3.217  1.00  0.00    -0.288 OA
ATOM     35  H3  UNL     1      -3.783   2.284  -4.165  1.00  0.00     0.244 HD
ENDBRANCH  30  34
ENDBRANCH  21  29
ENDBRANCH   3  21
TORSDOF 11
