REMARK  15 active torsions:
REMARK  status: ('A' for Active; 'I' for Inactive)
REMARK    1  A    between atoms: N1_1  and  C1_5 
REMARK    2  A    between atoms: C1_5  and  C2_6 
REMARK    3  A    between atoms: C2_6  and  C3_7 
REMARK    4  A    between atoms: C3_7  and  N2_8 
REMARK       I    between atoms: C4_10  and  N3_11 
REMARK       I    between atoms: C4_10  and  N5_16 
REMARK    5  A    between atoms: N3_11  and  N4_13 
REMARK    6  A    between atoms: N5_16  and  C5_18 
REMARK    7  A    between atoms: C5_18  and  C6_19 
REMARK    8  A    between atoms: C6_19  and  C7_20 
REMARK    9  A    between atoms: C7_20  and  C8_21 
REMARK   10  A    between atoms: C8_21  and  C9_22 
REMARK   11  A    between atoms: C9_22  and  C10_23 
REMARK   12  A    between atoms: C10_23  and  C11_24 
REMARK   13  A    between atoms: C11_24  and  N6_25 
REMARK   14  A    between atoms: N6_25  and  S1_27 
REMARK   15  A    between atoms: S1_27  and  N7_30 
ROOT
HETATM    1  C6  UNL     1      -1.103  -0.124   0.515  1.00  0.00     0.020 C 
ENDROOT
BRANCH   1   2
HETATM    2  C5  UNL     1      -2.082   0.390  -0.520  1.00  0.00     0.138 C 
BRANCH   2   3
HETATM    3  N5  UNL     1      -3.231  -0.485  -0.630  1.00  0.00    -0.225 N 
HETATM    4  C4  UNL     1      -4.311  -0.250  -1.510  1.00  0.00     0.688 C 
HETATM    5  N2  UNL     1      -5.536  -0.584  -1.214  1.00  0.00    -0.225 N 
HETATM    6  N3  UNL     1      -4.096   0.367  -2.764  1.00  0.00    -0.139 N 
ATOM      7  H2  UNL     1      -6.282  -0.393  -1.883  1.00  0.00     0.177 HD
ATOM      8  H3  UNL     1      -3.876  -0.213  -3.573  1.00  0.00     0.205 HD
ATOM      9  H5  UNL     1      -3.262  -1.316  -0.040  1.00  0.00     0.177 HD
BRANCH   5  10
HETATM   10  C3  UNL     1      -5.859  -1.221   0.048  1.00  0.00     0.139 C 
BRANCH  10  11
HETATM   11  C2  UNL     1      -7.274  -1.030   0.475  1.00  0.00     0.047 C 
BRANCH  11  12
HETATM   12  C1  UNL     1      -7.652   0.411   0.659  1.00  0.00     0.231 C 
BRANCH  12  13
HETATM   13  N1  UNL     1      -9.036   0.531   1.076  1.00  0.00    -0.079 N 
ATOM     14  H13 UNL     1      -9.667   0.055   0.432  1.00  0.00     0.274 HD
ATOM     15  H12 UNL     1      -9.227  -0.019   1.913  1.00  0.00     0.274 HD
ATOM     16  H11 UNL     1      -9.293   1.510   1.201  1.00  0.00     0.274 HD
ENDBRANCH  12  13
ENDBRANCH  11  12
ENDBRANCH  10  11
ENDBRANCH   5  10
BRANCH   6  17
HETATM   17  N4  UNL     1      -4.178   1.752  -2.920  1.00  0.00    -0.331 N 
ATOM     18  H42 UNL     1      -4.399   2.317  -2.100  1.00  0.00     0.177 HD
ATOM     19  H41 UNL     1      -4.023   2.197  -3.825  1.00  0.00     0.177 HD
ENDBRANCH   6  17
ENDBRANCH   2   3
ENDBRANCH   1   2
BRANCH   1  20
HETATM   20  C7  UNL     1       0.061   0.840   0.568  1.00  0.00     0.002 C 
BRANCH  20  21
HETATM   21  C8  UNL     1       1.049   0.385   1.583  1.00  0.00     0.000 C 
BRANCH  21  22
HETATM   22  C9  UNL     1       1.651  -0.954   1.361  1.00  0.00     0.002 C 
BRANCH  22  23
HETATM   23  C10 UNL     1       2.414  -1.100   0.072  1.00  0.00     0.020 C 
BRANCH  23  24
HETATM   24  C11 UNL     1       3.566  -0.134  -0.034  1.00  0.00     0.133 C 
BRANCH  24  25
HETATM   25  N6  UNL     1       4.523  -0.313   1.039  1.00  0.00    -0.302 N 
ATOM     26  H6  UNL     1       4.418  -1.013   1.773  1.00  0.00     0.173 HD
BRANCH  25  27
HETATM   27  S1  UNL     1       5.838   0.761   0.951  1.00  0.00     0.325 S 
HETATM   28  O1  UNL     1       6.261   1.136   2.352  1.00  0.00    -0.182 OA
HETATM   29  O2  UNL     1       5.334   2.056   0.327  1.00  0.00    -0.182 OA
BRANCH  27  30
HETATM   30  N7  UNL     1       7.196   0.164   0.106  1.00  0.00    -0.201 N 
HETATM   31  C12 UNL     1       8.049   0.960  -0.763  1.00  0.00     0.251 C 
HETATM   32  C13 UNL     1       9.338   0.203  -0.779  1.00  0.00     0.244 C 
HETATM   33  O3  UNL     1      10.489   0.617  -1.049  1.00  0.00    -0.271 OA
HETATM   34  N8  UNL     1       8.997  -1.134  -0.415  1.00  0.00    -0.277 N 
HETATM   35  C14 UNL     1       7.682  -1.184   0.134  1.00  0.00     0.340 C 
ATOM     36  H8  UNL     1       9.609  -1.942  -0.531  1.00  0.00     0.173 HD
HETATM   37  O4  UNL     1       7.111  -2.217   0.542  1.00  0.00    -0.246 OA
ENDBRANCH  27  30
ENDBRANCH  25  27
ENDBRANCH  24  25
ENDBRANCH  23  24
ENDBRANCH  22  23
ENDBRANCH  21  22
ENDBRANCH  20  21
ENDBRANCH   1  20
TORSDOF 15
