REMARK  15 active torsions:
REMARK  status: ('A' for Active; 'I' for Inactive)
REMARK    1  A    between atoms: C4_4  and  N1_5 
REMARK    2  A    between atoms: C6_11  and  N3_12 
REMARK       I    between atoms: N3_12  and  C7_14 
REMARK    3  A    between atoms: C7_14  and  C8_16 
REMARK    4  A    between atoms: C8_16  and  N4_17 
REMARK    5  A    between atoms: N4_17  and  C9_20 
REMARK    6  A    between atoms: C9_20  and  C10_21 
REMARK    7  A    between atoms: C10_21  and  N5_22 
REMARK    8  A    between atoms: N5_22  and  C11_24 
REMARK    9  A    between atoms: C11_24  and  C12_25 
REMARK   10  A    between atoms: C12_25  and  N6_26 
REMARK   11  A    between atoms: N6_26  and  C13_29 
REMARK   12  A    between atoms: C13_29  and  C14_30 
REMARK   13  A    between atoms: C14_30  and  C15_31 
REMARK   14  A    between atoms: C15_31  and  N7_32 
REMARK   15  A    between atoms: N7_32  and  C16_34 
ROOT
HETATM    1  N3  UNL     1      -2.450   0.820  -0.770  1.00  0.00    -0.312 N 
ATOM      2  H3  UNL     1      -1.655   0.193  -0.648  1.00  0.00     0.170 HD
HETATM    3  C7  UNL     1      -2.138   2.121  -1.086  1.00  0.00     0.248 C 
HETATM    4  O1  UNL     1      -2.862   2.915  -1.798  1.00  0.00    -0.271 OA
ENDROOT
BRANCH   3   5
HETATM    5  C8  UNL     1      -0.838   2.690  -0.556  1.00  0.00     0.335 C 
BRANCH   5   6
HETATM    6  N4  UNL     1      -0.137   1.656   0.142  1.00  0.00    -0.065 N 
ATOM      7  H42 UNL     1       0.569   2.044   0.768  1.00  0.00     0.277 HD
ATOM      8  H41 UNL     1      -0.735   1.205   0.834  1.00  0.00     0.277 HD
BRANCH   6   9
HETATM    9  C9  UNL     1       0.439   0.689  -0.763  1.00  0.00     0.252 C 
BRANCH   9  10
HETATM   10  C10 UNL     1       1.029  -0.451   0.036  1.00  0.00     0.141 C 
BRANCH  10  11
HETATM   11  N5  UNL     1       2.048  -0.013   0.915  1.00  0.00    -0.418 N 
ATOM     12  H5  UNL     1       1.932  -0.018   1.928  1.00  0.00     0.153 HD
BRANCH  11  13
HETATM   13  C11 UNL     1       3.258   0.439   0.284  1.00  0.00     0.141 C 
BRANCH  13  14
HETATM   14  C12 UNL     1       3.992  -0.710  -0.385  1.00  0.00     0.251 C 
BRANCH  14  15
HETATM   15  N6  UNL     1       5.195  -0.301  -1.002  1.00  0.00    -0.074 N 
ATOM     16  H62 UNL     1       5.536  -1.020  -1.640  1.00  0.00     0.277 HD
ATOM     17  H61 UNL     1       5.021   0.449  -1.670  1.00  0.00     0.277 HD
BRANCH  15  18
HETATM   18  C13 UNL     1       6.217   0.077  -0.071  1.00  0.00     0.234 C 
BRANCH  18  19
HETATM   19  C14 UNL     1       6.690  -1.145   0.683  1.00  0.00     0.047 C 
BRANCH  19  20
HETATM   20  C15 UNL     1       7.770  -0.828   1.684  1.00  0.00     0.123 C 
BRANCH  20  21
HETATM   21  N7  UNL     1       8.916  -0.266   1.037  1.00  0.00    -0.368 N 
ATOM     22  H7  UNL     1       8.920  -0.124   0.027  1.00  0.00     0.161 HD
BRANCH  21  23
HETATM   23  C16 UNL     1      10.048   0.092   1.818  1.00  0.00     0.348 C 
HETATM   24  O2  UNL     1      10.033  -0.091   3.074  1.00  0.00    -0.284 OA
ENDBRANCH  21  23
ENDBRANCH  20  21
ENDBRANCH  19  20
ENDBRANCH  18  19
ENDBRANCH  15  18
ENDBRANCH  14  15
ENDBRANCH  13  14
ENDBRANCH  11  13
ENDBRANCH  10  11
ENDBRANCH   9  10
ENDBRANCH   6   9
ENDBRANCH   5   6
ENDBRANCH   3   5
BRANCH   1  25
HETATM   25  C6  UNL     1      -3.590   0.295  -0.610  1.00  0.00     0.108 A 
HETATM   26  N2  UNL     1      -4.775   0.912  -0.716  1.00  0.00    -0.339 N 
HETATM   27  C5  UNL     1      -5.981   0.318  -0.538  1.00  0.00     0.087 A 
ATOM     28  H2  UNL     1      -4.769   1.905  -0.949  1.00  0.00     0.167 HD
HETATM   29  C4  UNL     1      -7.180   0.985  -0.665  1.00  0.00     0.057 A 
HETATM   30  C19 UNL     1      -5.972  -1.039  -0.218  1.00  0.00     0.061 A 
HETATM   31  C3  UNL     1      -8.357   0.240  -0.460  1.00  0.00     0.056 A 
HETATM   32  C2  UNL     1      -8.342  -1.091  -0.146  1.00  0.00     0.008 A 
HETATM   33  C1  UNL     1      -9.612  -1.865   0.070  1.00  0.00     0.068 C 
HETATM   34  N8  UNL     1      -7.141  -1.677  -0.038  1.00  0.00    -0.358 N 
ATOM     35  H8  UNL     1      -7.113  -2.670   0.195  1.00  0.00     0.166 HD
HETATM   36  C18 UNL     1      -4.769  -1.702  -0.101  1.00  0.00     0.036 A 
HETATM   37  C17 UNL     1      -3.568  -1.085  -0.285  1.00  0.00     0.051 A 
BRANCH  29  38
HETATM   38  N1  UNL     1      -7.236   2.203  -0.971  1.00  0.00    -0.397 N 
ATOM     39  H12 UNL     1      -8.124   2.697  -1.065  1.00  0.00     0.156 HD
ATOM     40  H11 UNL     1      -6.383   2.743  -1.120  1.00  0.00     0.156 HD
ENDBRANCH  29  38
ENDBRANCH   1  25
TORSDOF 15
