REMARK  15 active torsions:
REMARK  status: ('A' for Active; 'I' for Inactive)
REMARK    1  A    between atoms: N1_2  and  C2_4 
REMARK    2  A    between atoms: C2_4  and  C3_5 
REMARK    3  A    between atoms: C3_5  and  N2_6 
REMARK    4  A    between atoms: N2_6  and  C4_9 
REMARK    5  A    between atoms: C4_9  and  C5_10 
REMARK    6  A    between atoms: C5_10  and  N3_11 
REMARK    7  A    between atoms: N3_11  and  C6_13 
REMARK    8  A    between atoms: C7_16  and  N5_17 
REMARK    9  A    between atoms: N5_17  and  C8_19 
REMARK   10  A    between atoms: C8_19  and  C9_20 
REMARK   11  A    between atoms: C9_20  and  O1_21 
REMARK   12  A    between atoms: O1_21  and  C10_22 
REMARK   13  A    between atoms: C11_23  and  N6_24 
REMARK       I    between atoms: N6_24  and  C12_26 
REMARK   14  A    between atoms: C12_26  and  C13_28 
REMARK   15  A    between atoms: C13_28  and  N7_29 
ROOT
HETATM    1  C6  UNL     1      -1.785  -0.523   0.186  1.00  0.00     0.129 A 
HETATM    2  N4  UNL     1      -0.865  -0.156   1.090  1.00  0.00    -0.175 N 
ATOM      3  H4  UNL     1      -1.158   0.142   2.021  1.00  0.00     0.186 HD
HETATM    4  C7  UNL     1       0.409  -0.178   0.783  1.00  0.00     0.691 A 
HETATM    5  N8  UNL     1       0.855  -0.538  -0.390  1.00  0.00    -0.190 N 
ATOM      6  H8  UNL     1       1.857  -0.536  -0.579  1.00  0.00     0.184 HD
HETATM    7  C14 UNL     1      -0.024  -0.918  -1.364  1.00  0.00     0.063 A 
HETATM    8  C15 UNL     1       0.499  -1.322  -2.601  1.00  0.00     0.031 A 
HETATM    9  C16 UNL     1      -0.376  -1.753  -3.598  1.00  0.00     0.002 A 
HETATM   10  C17 UNL     1      -1.711  -1.782  -3.329  1.00  0.00     0.001 A 
HETATM   11  C18 UNL     1      -2.215  -1.366  -2.075  1.00  0.00     0.017 A 
HETATM   12  C19 UNL     1      -1.334  -0.936  -1.124  1.00  0.00     0.035 A 
ENDROOT
BRANCH   4  13
HETATM   13  N5  UNL     1       1.358   0.124   1.755  1.00  0.00    -0.158 N 
ATOM     14  H5  UNL     1       1.118   0.365   2.717  1.00  0.00     0.194 HD
BRANCH  13  15
HETATM   15  C8  UNL     1       2.629   0.066   1.298  1.00  0.00    -0.028 C 
BRANCH  15  16
HETATM   16  C9  UNL     1       3.944   0.005   0.833  1.00  0.00     0.279 C 
BRANCH  16  17
HETATM   17  O1  UNL     1       4.736  -1.113   0.951  1.00  0.00    -0.349 OA
BRANCH  17  18
HETATM   18  C10 UNL     1       5.395  -1.434  -0.243  1.00  0.00     0.152 C 
HETATM   19  C11 UNL     1       6.046  -0.340  -0.924  1.00  0.00     0.115 C 
BRANCH  19  20
HETATM   20  N6  UNL     1       7.110   0.449  -0.429  1.00  0.00    -0.334 N 
HETATM   21  C12 UNL     1       8.369  -0.068  -0.117  1.00  0.00     0.247 C 
HETATM   22  O2  UNL     1       8.748  -1.233  -0.179  1.00  0.00    -0.271 OA
ATOM     23  H6  UNL     1       6.950   1.447  -0.293  1.00  0.00     0.168 HD
BRANCH  21  24
HETATM   24  C13 UNL     1       9.434   0.985   0.359  1.00  0.00     0.332 C 
BRANCH  24  25
HETATM   25  N7  UNL     1       8.787   2.267   0.234  1.00  0.00    -0.071 N 
ATOM     26  H73 UNL     1       8.416   2.451  -0.698  1.00  0.00     0.274 HD
ATOM     27  H72 UNL     1       7.898   2.329   0.731  1.00  0.00     0.274 HD
ATOM     28  H71 UNL     1       9.478   2.950   0.543  1.00  0.00     0.274 HD
ENDBRANCH  24  25
ENDBRANCH  21  24
ENDBRANCH  19  20
ENDBRANCH  17  18
ENDBRANCH  16  17
ENDBRANCH  15  16
ENDBRANCH  13  15
ENDBRANCH   4  13
BRANCH   1  29
HETATM   29  N3  UNL     1      -3.022  -0.531   0.301  1.00  0.00    -0.373 N 
ATOM     30  H3  UNL     1      -3.475  -0.860  -0.552  1.00  0.00     0.161 HD
BRANCH  29  31
HETATM   31  C5  UNL     1      -3.967  -0.206   1.298  1.00  0.00     0.148 C 
BRANCH  31  32
HETATM   32  C4  UNL     1      -5.009   0.776   0.682  1.00  0.00     0.251 C 
BRANCH  32  33
HETATM   33  N2  UNL     1      -5.977   1.107   1.652  1.00  0.00    -0.072 N 
ATOM     34  H22 UNL     1      -6.476   1.954   1.380  1.00  0.00     0.277 HD
ATOM     35  H21 UNL     1      -5.525   1.436   2.505  1.00  0.00     0.277 HD
BRANCH  33  36
HETATM   36  C3  UNL     1      -6.880   0.087   1.945  1.00  0.00     0.251 C 
BRANCH  36  37
HETATM   37  C2  UNL     1      -7.896  -0.205   0.841  1.00  0.00     0.140 C 
BRANCH  37  38
HETATM   38  N1  UNL     1      -8.815   0.879   0.638  1.00  0.00    -0.424 N 
HETATM   39  C1  UNL     1      -8.376   2.093   0.128  1.00  0.00     0.139 C 
ATOM     40  H1  UNL     1      -9.800   0.756   0.871  1.00  0.00     0.152 HD
ENDBRANCH  37  38
ENDBRANCH  36  37
ENDBRANCH  33  36
ENDBRANCH  32  33
ENDBRANCH  31  32
ENDBRANCH  29  31
ENDBRANCH   1  29
TORSDOF 15
