REMARK  15 active torsions:
REMARK  status: ('A' for Active; 'I' for Inactive)
REMARK    1  A    between atoms: N1_2  and  C2_5 
REMARK    2  A    between atoms: C4_7  and  N2_8 
REMARK    3  A    between atoms: C7_14  and  N3_15 
REMARK       I    between atoms: N3_15  and  C8_17 
REMARK    4  A    between atoms: C8_17  and  C9_19 
REMARK    5  A    between atoms: C9_19  and  N4_20 
REMARK       I    between atoms: N4_20  and  C10_22 
REMARK       I    between atoms: C10_22  and  N6_26 
REMARK    6  A    between atoms: N6_26  and  C11_28 
REMARK    7  A    between atoms: C11_28  and  C12_29 
REMARK    8  A    between atoms: C12_29  and  O2_30 
REMARK    9  A    between atoms: O2_30  and  C13_31 
REMARK   10  A    between atoms: C13_31  and  C14_32 
REMARK   11  A    between atoms: C14_32  and  O3_33 
REMARK   12  A    between atoms: O3_33  and  C15_34 
REMARK   13  A    between atoms: C15_34  and  C16_35 
REMARK   14  A    between atoms: C16_35  and  C17_36 
REMARK   15  A    between atoms: C17_36  and  O4_37 
ROOT
HETATM    1  C9  UNL     1      -1.610  -1.371   0.925  1.00  0.00     0.240 C 
ENDROOT
BRANCH   1   2
HETATM    2  C8  UNL     1      -2.693  -0.409   0.642  1.00  0.00     0.236 C 
HETATM    3  N3  UNL     1      -4.052  -0.849   0.645  1.00  0.00    -0.353 N 
ATOM      4  H3  UNL     1      -4.284  -1.823   0.840  1.00  0.00     0.163 HD
HETATM    5  O1  UNL     1      -2.448   0.809   0.393  1.00  0.00    -0.272 OA
BRANCH   3   6
HETATM    6  C7  UNL     1      -5.084   0.110   0.367  1.00  0.00     0.115 C 
HETATM    7  C2  UNL     1      -5.922  -0.328  -0.788  1.00  0.00     0.209 C 
HETATM    8  C3  UNL     1      -7.005   0.687  -1.111  1.00  0.00     0.068 C 
HETATM    9  C4  UNL     1      -7.759   1.116   0.122  1.00  0.00     0.185 C 
HETATM   10  C5  UNL     1      -6.907   1.390   1.314  1.00  0.00     0.035 C 
HETATM   11  C6  UNL     1      -6.021   0.167   1.575  1.00  0.00     0.029 C 
BRANCH   7  12
HETATM   12  N1  UNL     1      -6.503  -1.626  -0.510  1.00  0.00    -0.073 N 
HETATM   13  C1  UNL     1      -7.224  -2.131  -1.676  1.00  0.00     0.267 C 
ATOM     14  H12 UNL     1      -7.095  -1.605   0.320  1.00  0.00     0.277 HD
ATOM     15  H11 UNL     1      -5.803  -2.291  -0.182  1.00  0.00     0.277 HD
ENDBRANCH   7  12
BRANCH   9  16
HETATM   16  N2  UNL     1      -8.438   2.370  -0.222  1.00  0.00    -0.075 N 
ATOM     17  H23 UNL     1      -7.806   3.087  -0.579  1.00  0.00     0.274 HD
ATOM     18  H22 UNL     1      -9.028   2.296  -1.051  1.00  0.00     0.274 HD
ATOM     19  H21 UNL     1      -8.948   2.660   0.612  1.00  0.00     0.274 HD
ENDBRANCH   9  16
ENDBRANCH   3   6
ENDBRANCH   1   2
BRANCH   1  20
HETATM   20  N4  UNL     1      -0.348  -0.670   0.862  1.00  0.00    -0.218 N 
HETATM   21  C10 UNL     1       0.832  -1.439   1.119  1.00  0.00     0.667 C 
HETATM   22  N5  UNL     1       0.919  -2.208   2.129  1.00  0.00    -0.235 N 
HETATM   23  N6  UNL     1       1.906  -1.318   0.213  1.00  0.00    -0.225 N 
ATOM     24  H52 UNL     1       0.142  -2.296   2.784  1.00  0.00     0.174 HD
ATOM     25  H51 UNL     1       1.760  -2.756   2.312  1.00  0.00     0.174 HD
ATOM     26  H6  UNL     1       2.326  -2.176  -0.144  1.00  0.00     0.177 HD
ATOM     27  H4  UNL     1      -0.300   0.325   0.645  1.00  0.00     0.178 HD
BRANCH  23  28
HETATM   28  C11 UNL     1       2.452  -0.061  -0.243  1.00  0.00     0.164 C 
BRANCH  28  29
HETATM   29  C12 UNL     1       3.123   0.593   0.927  1.00  0.00     0.188 C 
BRANCH  29  30
HETATM   30  O2  UNL     1       3.713   1.751   0.808  1.00  0.00    -0.387 OA
BRANCH  30  31
HETATM   31  C13 UNL     1       4.780   2.123   0.140  1.00  0.00     0.193 C 
BRANCH  31  32
HETATM   32  C14 UNL     1       6.121   1.522   0.585  1.00  0.00     0.193 C 
BRANCH  32  33
HETATM   33  O3  UNL     1       6.226   0.180   0.499  1.00  0.00    -0.389 OA
BRANCH  33  34
HETATM   34  C15 UNL     1       6.257  -0.424  -0.703  1.00  0.00     0.169 C 
BRANCH  34  35
HETATM   35  C16 UNL     1       7.452  -0.289  -1.580  1.00  0.00     0.052 C 
BRANCH  35  36
HETATM   36  C17 UNL     1       8.720  -0.870  -1.075  1.00  0.00     0.169 C 
BRANCH  36  37
HETATM   37  O4  UNL     1       9.312  -0.381   0.032  1.00  0.00    -0.396 OA
HETATM   38  C18 UNL     1       9.870   0.866  -0.029  1.00  0.00     0.201 C 
ENDBRANCH  36  37
ENDBRANCH  35  36
ENDBRANCH  34  35
ENDBRANCH  33  34
ENDBRANCH  32  33
ENDBRANCH  31  32
ENDBRANCH  30  31
ENDBRANCH  29  30
ENDBRANCH  28  29
ENDBRANCH  23  28
ENDBRANCH   1  20
TORSDOF 15
