REMARK  22 active torsions:
REMARK  status: ('A' for Active; 'I' for Inactive)
REMARK       I    between atoms: C2_2  and  N1_4 
REMARK    1  A    between atoms: N1_4  and  C3_6 
REMARK    2  A    between atoms: C3_6  and  C4_7 
REMARK    3  A    between atoms: C4_7  and  N2_8 
REMARK    4  A    between atoms: N2_8  and  C5_9 
REMARK    5  A    between atoms: N2_8  and  C17_25 
REMARK    6  A    between atoms: C5_9  and  C6_10 
REMARK    7  A    between atoms: C6_10  and  N3_11 
REMARK       I    between atoms: N3_11  and  C7_13 
REMARK    8  A    between atoms: C7_13  and  C8_15 
REMARK    9  A    between atoms: C8_15  and  C9_16 
REMARK   10  A    between atoms: C9_16  and  C10_17 
REMARK   11  A    between atoms: C10_17  and  C11_18 
REMARK   12  A    between atoms: C11_18  and  C12_19 
REMARK   13  A    between atoms: C12_19  and  C13_20 
REMARK   14  A    between atoms: C13_20  and  C14_21 
REMARK   15  A    between atoms: C14_21  and  C15_22 
REMARK   16  A    between atoms: C15_22  and  C16_23 
REMARK   17  A    between atoms: C17_25  and  C18_26 
REMARK   18  A    between atoms: C19_28  and  O4_29 
REMARK   19  A    between atoms: C23_34  and  O5_35 
REMARK   20  A    between atoms: C30_43  and  O6_44 
REMARK   21  A    between atoms: C31_46  and  O7_47 
REMARK   22  A    between atoms: C33_50  and  O8_51 
ROOT
HETATM    1  C18 UNL     1      -2.787  -0.114  -0.904  1.00  0.00     0.152 C 
HETATM    2  O3  UNL     1      -3.622  -1.069  -0.520  1.00  0.00    -0.353 OA
HETATM    3  C19 UNL     1      -4.916  -0.984  -0.383  1.00  0.00     0.272 C 
HETATM    4  C20 UNL     1      -5.622   0.318  -0.819  1.00  0.00     0.062 C 
HETATM    5  C21 UNL     1      -6.160   0.007  -2.140  1.00  0.00     0.028 C 
HETATM    6  C22 UNL     1      -6.452   0.698   0.318  1.00  0.00    -0.003 A 
HETATM    7  C23 UNL     1      -7.748   0.784  -0.003  1.00  0.00     0.073 A 
HETATM    8  C24 UNL     1      -8.695   1.135   0.953  1.00  0.00     0.037 A 
HETATM    9  C25 UNL     1      -8.325   1.399   2.240  1.00  0.00     0.003 A 
HETATM   10  C26 UNL     1      -6.991   1.304   2.546  1.00  0.00     0.008 A 
HETATM   11  C27 UNL     1      -5.992   0.958   1.638  1.00  0.00    -0.042 A 
HETATM   12  C28 UNL     1      -4.844   1.018   2.500  1.00  0.00     0.046 C 
HETATM   13  C29 UNL     1      -5.041  -0.064   3.579  1.00  0.00     0.017 C 
HETATM   14  C30 UNL     1      -3.465   0.921   2.035  1.00  0.00     0.155 C 
HETATM   15  C31 UNL     1      -3.018   1.692   0.891  1.00  0.00     0.156 C 
HETATM   16  C32 UNL     1      -3.259   1.222  -0.489  1.00  0.00     0.077 C 
HETATM   17  C33 UNL     1      -4.638   1.453  -1.005  1.00  0.00     0.145 C 
ENDROOT
BRANCH   1  18
HETATM   18  C17 UNL     1      -1.358  -0.300  -0.561  1.00  0.00     0.159 C 
BRANCH  18  19
HETATM   19  N2  UNL     1      -0.639  -1.407  -1.090  1.00  0.00    -0.368 N 
BRANCH  19  20
HETATM   20  C4  UNL     1      -0.965  -2.691  -0.690  1.00  0.00     0.082 C 
BRANCH  20  21
HETATM   21  C3  UNL     1      -0.852  -3.868  -1.570  1.00  0.00     0.167 C 
BRANCH  21  22
HETATM   22  N1  UNL     1      -1.722  -3.975  -2.694  1.00  0.00    -0.357 N 
HETATM   23  C2  UNL     1      -1.891  -3.128  -3.788  1.00  0.00     0.213 C 
HETATM   24  C1  UNL     1      -2.894  -3.484  -4.851  1.00  0.00     0.117 C 
HETATM   25  O1  UNL     1      -1.255  -2.075  -3.948  1.00  0.00    -0.274 OA
ATOM     26  H1  UNL     1      -2.316  -4.804  -2.698  1.00  0.00     0.162 HD
ENDBRANCH  21  22
ENDBRANCH  20  21
ENDBRANCH  19  20
BRANCH  19  27
HETATM   27  C5  UNL     1       0.727  -1.034  -1.161  1.00  0.00     0.082 C 
BRANCH  27  28
HETATM   28  C6  UNL     1       1.689  -1.557  -2.100  1.00  0.00     0.167 C 
BRANCH  28  29
HETATM   29  N3  UNL     1       2.988  -0.904  -1.830  1.00  0.00    -0.356 N 
HETATM   30  C7  UNL     1       3.677  -1.051  -0.606  1.00  0.00     0.217 C 
HETATM   31  O2  UNL     1       3.284  -1.739   0.340  1.00  0.00    -0.274 OA
ATOM     32  H3  UNL     1       3.404  -0.323  -2.558  1.00  0.00     0.162 HD
BRANCH  30  33
HETATM   33  C8  UNL     1       4.982  -0.310  -0.455  1.00  0.00     0.103 C 
BRANCH  33  34
HETATM   34  C9  UNL     1       5.499  -0.593   0.928  1.00  0.00     0.009 C 
BRANCH  34  35
HETATM   35  C10 UNL     1       6.776   0.145   1.166  1.00  0.00     0.000 C 
BRANCH  35  36
HETATM   36  C11 UNL     1       7.819  -0.272   0.189  1.00  0.00     0.000 C 
BRANCH  36  37
HETATM   37  C12 UNL     1       9.113   0.444   0.482  1.00  0.00     0.000 C 
BRANCH  37  38
HETATM   38  C13 UNL     1       8.935   1.923   0.374  1.00  0.00     0.000 C 
BRANCH  38  39
HETATM   39  C14 UNL     1      10.267   2.598   0.654  1.00  0.00     0.001 C 
BRANCH  39  40
HETATM   40  C15 UNL     1      10.758   2.271   2.024  1.00  0.00     0.015 C 
BRANCH  40  41
HETATM   41  C16 UNL     1       9.758   2.706   3.095  1.00  0.00     0.114 C 
HETATM   42 CL1  UNL     1       9.527   4.447   2.968  1.00  0.00    -0.130 Cl
ENDBRANCH  40  41
ENDBRANCH  39  40
ENDBRANCH  38  39
ENDBRANCH  37  38
ENDBRANCH  36  37
ENDBRANCH  35  36
ENDBRANCH  34  35
ENDBRANCH  33  34
ENDBRANCH  30  33
ENDBRANCH  28  29
ENDBRANCH  27  28
ENDBRANCH  19  27
ENDBRANCH  18  19
ENDBRANCH   1  18
BRANCH   3  43
HETATM   43  O4  UNL     1      -5.489  -2.093  -1.075  1.00  0.00    -0.370 OA
ATOM     44  H4  UNL     1      -6.432  -2.031  -0.975  1.00  0.00     0.212 HD
ENDBRANCH   3  43
BRANCH  15  45
HETATM   45  O7  UNL     1      -1.669   2.039   1.013  1.00  0.00    -0.392 OA
ATOM     46  H7  UNL     1      -1.376   2.544   0.264  1.00  0.00     0.210 HD
ENDBRANCH  15  45
BRANCH  17  47
HETATM   47  O8  UNL     1      -5.070   2.629  -0.341  1.00  0.00    -0.394 OA
ATOM     48  H8  UNL     1      -4.452   3.341  -0.458  1.00  0.00     0.210 HD
ENDBRANCH  17  47
BRANCH  14  49
HETATM   49  O6  UNL     1      -2.693   1.416   3.147  1.00  0.00    -0.392 OA
ATOM     50  H6  UNL     1      -1.795   1.353   2.844  1.00  0.00     0.210 HD
ENDBRANCH  14  49
BRANCH   7  51
HETATM   51  O5  UNL     1      -8.138   0.523  -1.288  1.00  0.00    -0.360 OA
ATOM     52  H5  UNL     1      -9.058   0.584  -1.516  1.00  0.00     0.217 HD
ENDBRANCH   7  51
TORSDOF 22
