REMARK  21 active torsions:
REMARK  status: ('A' for Active; 'I' for Inactive)
REMARK    1  A    between atoms: C2_2  and  C4_4 
REMARK    2  A    between atoms: C4_4  and  C5_5 
REMARK    3  A    between atoms: C5_5  and  N3_11 
REMARK    4  A    between atoms: N1_6  and  N2_8 
REMARK    5  A    between atoms: N3_11  and  C6_13 
REMARK    6  A    between atoms: C6_13  and  N4_14 
REMARK    7  A    between atoms: C6_13  and  S2_34 
REMARK    8  A    between atoms: N4_14  and  C7_16 
REMARK    9  A    between atoms: C7_16  and  C8_17 
REMARK   10  A    between atoms: C11_20  and  O1_21 
REMARK   11  A    between atoms: C11_20  and  C12_23 
REMARK   12  A    between atoms: C12_23  and  N5_24 
REMARK   13  A    between atoms: N5_24  and  C13_26 
REMARK   14  A    between atoms: S2_34  and  C18_37 
REMARK   15  A    between atoms: C18_37  and  C19_38 
REMARK   16  A    between atoms: C19_38  and  C20_39 
REMARK   17  A    between atoms: C20_39  and  C21_40 
REMARK   18  A    between atoms: C21_40  and  N7_41 
REMARK       I    between atoms: N7_41  and  C22_43 
REMARK       I    between atoms: C22_43  and  N8_45 
REMARK   19  A    between atoms: N8_45  and  C23_47 
REMARK   20  A    between atoms: C23_47  and  C24_48 
REMARK   21  A    between atoms: C24_48  and  C25_49 
ROOT
HETATM    1  C6  UNL     1      -1.208  -1.260   0.618  1.00  0.00     0.309 C 
ENDROOT
BRANCH   1   2
HETATM    2  N3  UNL     1      -0.934  -2.448  -0.235  1.00  0.00    -0.345 N 
ATOM      3  H3  UNL     1      -0.686  -2.355  -1.220  1.00  0.00     0.163 HD
BRANCH   2   4
HETATM    4  C5  UNL     1      -1.038  -3.750   0.408  1.00  0.00     0.093 C 
HETATM    5  N1  UNL     1      -1.705  -3.825   1.477  1.00  0.00    -0.296 N 
ATOM      6  H1  UNL     1      -2.117  -2.935   1.759  1.00  0.00     0.187 HD
BRANCH   4   7
HETATM    7  C4  UNL     1      -0.343  -4.876  -0.219  1.00  0.00     0.081 C 
BRANCH   7   8
HETATM    8  C2  UNL     1      -1.016  -6.201  -0.021  1.00  0.00    -0.016 C 
HETATM    9  C1  UNL     1      -2.427  -6.192  -0.581  1.00  0.00     0.010 C 
HETATM   10  C3  UNL     1      -0.233  -7.229  -0.871  1.00  0.00     0.010 C 
ENDBRANCH   7   8
ENDBRANCH   4   7
BRANCH   5  11
HETATM   11  N2  UNL     1      -1.987  -4.836   2.325  1.00  0.00    -0.344 N 
ATOM     12  H22 UNL     1      -1.566  -5.715   2.025  1.00  0.00     0.176 HD
ATOM     13  H21 UNL     1      -2.526  -4.897   3.189  1.00  0.00     0.176 HD
ENDBRANCH   5  11
ENDBRANCH   2   4
ENDBRANCH   1   2
BRANCH   1  14
HETATM   14  N4  UNL     1      -1.670  -0.172  -0.221  1.00  0.00    -0.358 N 
ATOM     15  H4  UNL     1      -1.188   0.714  -0.371  1.00  0.00     0.162 HD
BRANCH  14  16
HETATM   16  C7  UNL     1      -2.975  -0.574  -0.829  1.00  0.00     0.042 C 
HETATM   17  C11 UNL     1      -4.077  -0.273   0.012  1.00  0.00     0.083 C 
BRANCH  16  18
HETATM   18  C8  UNL     1      -2.877  -0.334  -2.281  1.00  0.00     0.030 C 
HETATM   19  C9  UNL     1      -2.588   1.085  -2.716  1.00  0.00     0.016 C 
HETATM   20  C10 UNL     1      -3.949  -0.956  -3.112  1.00  0.00     0.016 C 
ENDBRANCH  16  18
BRANCH  17  21
HETATM   21  O1  UNL     1      -5.320  -0.733  -0.528  1.00  0.00    -0.361 OA
ATOM     22  H1  UNL     1      -6.058  -0.531   0.035  1.00  0.00     0.217 HD
ENDBRANCH  17  21
BRANCH  17  23
HETATM   23  C12 UNL     1      -4.378   1.012   0.657  1.00  0.00     0.188 C 
BRANCH  23  24
HETATM   24  N5  UNL     1      -5.019   1.948  -0.244  1.00  0.00    -0.364 N 
ATOM     25  H5  UNL     1      -5.159   1.643  -1.207  1.00  0.00     0.162 HD
BRANCH  24  26
HETATM   26  C13 UNL     1      -5.463   3.233   0.089  1.00  0.00     0.141 C 
HETATM   27  N6  UNL     1      -5.413   3.816   1.205  1.00  0.00    -0.349 N 
HETATM   28  C14 UNL     1      -5.920   5.124   1.334  1.00  0.00     0.083 C 
ATOM     29  H6  UNL     1      -5.007   3.343   2.012  1.00  0.00     0.167 HD
HETATM   30  C15 UNL     1      -7.003   5.401   0.315  1.00  0.00     0.040 C 
HETATM   31  C16 UNL     1      -8.335   4.811   0.700  1.00  0.00     0.032 C 
HETATM   32  C17 UNL     1      -7.096   6.830  -0.109  1.00  0.00     0.032 C 
HETATM   33  S1  UNL     1      -6.263   4.373  -1.035  1.00  0.00    -0.079 SA
ENDBRANCH  24  26
ENDBRANCH  23  24
ENDBRANCH  17  23
ENDBRANCH  14  16
ENDBRANCH   1  14
BRANCH   1  34
HETATM   34  S2  UNL     1       0.201  -0.942   1.560  1.00  0.00     0.184 S 
HETATM   35  O2  UNL     1       0.761  -2.305   2.014  1.00  0.00    -0.224 OA
HETATM   36  O3  UNL     1      -0.177  -0.242   2.858  1.00  0.00    -0.224 OA
BRANCH  34  37
HETATM   37  C18 UNL     1       1.576  -0.133   0.806  1.00  0.00     0.144 C 
BRANCH  37  38
HETATM   38  C19 UNL     1       1.252   1.255   0.436  1.00  0.00     0.017 C 
BRANCH  38  39
HETATM   39  C20 UNL     1       2.293   2.065  -0.243  1.00  0.00     0.021 C 
BRANCH  39  40
HETATM   40  C21 UNL     1       3.560   2.238   0.485  1.00  0.00     0.124 C 
BRANCH  40  41
HETATM   41  N7  UNL     1       4.372   1.087   0.612  1.00  0.00    -0.343 N 
HETATM   42  C22 UNL     1       5.600   1.091   1.372  1.00  0.00     0.316 C 
HETATM   43  O4  UNL     1       5.874   2.182   1.940  1.00  0.00    -0.247 OA
HETATM   44  N8  UNL     1       6.442  -0.006   1.488  1.00  0.00    -0.343 N 
ATOM     45  H8  UNL     1       6.190  -0.869   1.006  1.00  0.00     0.164 HD
ATOM     46  H7  UNL     1       4.080   0.225   0.151  1.00  0.00     0.164 HD
BRANCH  44  47
HETATM   47  C23 UNL     1       7.650   0.024   2.257  1.00  0.00     0.129 C 
BRANCH  47  48
HETATM   48  C24 UNL     1       8.653   1.061   1.828  1.00  0.00     0.061 C 
BRANCH  48  49
HETATM   49  C25 UNL     1       9.083   0.932   0.422  1.00  0.00    -0.018 A 
HETATM   50  C26 UNL     1       8.580   1.804  -0.517  1.00  0.00     0.010 A 
HETATM   51  C27 UNL     1       8.945   1.728  -1.858  1.00  0.00     0.001 A 
HETATM   52  C28 UNL     1       9.840   0.741  -2.227  1.00  0.00     0.003 A 
HETATM   53  C29 UNL     1      10.334  -0.120  -1.285  1.00  0.00     0.043 A 
HETATM   54  C30 UNL     1       9.964  -0.039   0.056  1.00  0.00     0.122 A 
HETATM   55  F1  UNL     1      10.506  -0.935   0.918  1.00  0.00    -0.206 F 
ENDBRANCH  48  49
ENDBRANCH  47  48
ENDBRANCH  44  47
ENDBRANCH  40  41
ENDBRANCH  39  40
ENDBRANCH  38  39
ENDBRANCH  37  38
ENDBRANCH  34  37
ENDBRANCH   1  34
TORSDOF 21
