REMARK  21 active torsions:
REMARK  status: ('A' for Active; 'I' for Inactive)
REMARK    1  A    between atoms: C2_2  and  C3_3 
REMARK    2  A    between atoms: C3_3  and  N1_4 
REMARK       I    between atoms: N1_4  and  C4_6 
REMARK    3  A    between atoms: C4_6  and  C5_8 
REMARK    4  A    between atoms: C5_8  and  C6_9 
REMARK    5  A    between atoms: C5_8  and  C13_16 
REMARK    6  A    between atoms: C6_9  and  C7_10 
REMARK    7  A    between atoms: C13_16  and  C14_17 
REMARK    8  A    between atoms: C14_17  and  O2_18 
REMARK    9  A    between atoms: C14_17  and  C15_20 
REMARK   10  A    between atoms: C15_20  and  O3_21 
REMARK   11  A    between atoms: C15_20  and  C16_23 
REMARK   12  A    between atoms: C16_23  and  O4_24 
REMARK   13  A    between atoms: C16_23  and  C17_26 
REMARK   14  A    between atoms: C17_26  and  O5_27 
REMARK   15  A    between atoms: C17_26  and  C18_29 
REMARK   16  A    between atoms: C20_34  and  N3_35 
REMARK   17  A    between atoms: N3_35  and  C21_37 
REMARK   18  A    between atoms: C21_37  and  C22_38 
REMARK   19  A    between atoms: C21_37  and  C26_42 
REMARK   20  A    between atoms: C22_38  and  C23_39 
REMARK   21  A    between atoms: C27_44  and  S1_45 
ROOT
HETATM    1  C16 UNL     1       0.832   0.926   0.696  1.00  0.00     0.181 C 
ENDROOT
BRANCH   1   2
HETATM    2  C15 UNL     1       2.034   1.568   0.118  1.00  0.00     0.178 C 
BRANCH   2   3
HETATM    3  C14 UNL     1       2.874   0.590  -0.699  1.00  0.00     0.150 C 
BRANCH   3   4
HETATM    4  C13 UNL     1       4.169   1.234  -1.132  1.00  0.00     0.048 C 
BRANCH   4   5
HETATM    5  C5  UNL     1       5.097   1.586  -0.039  1.00  0.00     0.081 C 
BRANCH   5   6
HETATM    6  C4  UNL     1       6.299   2.251  -0.617  1.00  0.00     0.222 C 
HETATM    7  N1  UNL     1       6.393   3.621  -0.870  1.00  0.00    -0.357 N 
ATOM      8  H1  UNL     1       5.607   4.231  -0.647  1.00  0.00     0.162 HD
HETATM    9  O1  UNL     1       7.279   1.513  -0.891  1.00  0.00    -0.273 OA
BRANCH   7  10
HETATM   10  C3  UNL     1       7.591   4.181  -1.444  1.00  0.00     0.149 C 
BRANCH  10  11
HETATM   11  C2  UNL     1       7.816   3.603  -2.810  1.00  0.00    -0.018 C 
HETATM   12  C1  UNL     1       7.855   4.426  -3.856  1.00  0.00     0.008 C 
ENDBRANCH  10  11
ENDBRANCH   7  10
ENDBRANCH   5   6
BRANCH   5  13
HETATM   13  C6  UNL     1       5.379   0.632   1.032  1.00  0.00     0.018 C 
BRANCH  13  14
HETATM   14  C7  UNL     1       6.264  -0.527   0.852  1.00  0.00    -0.014 C 
HETATM   15  C8  UNL     1       6.284  -1.261   2.201  1.00  0.00     0.005 C 
HETATM   16  C9  UNL     1       7.130  -2.495   2.140  1.00  0.00     0.000 C 
HETATM   17  C10 UNL     1       6.521  -3.426   1.116  1.00  0.00     0.000 C 
HETATM   18  C11 UNL     1       6.682  -2.742  -0.219  1.00  0.00     0.000 C 
HETATM   19  C12 UNL     1       5.902  -1.427  -0.252  1.00  0.00     0.005 C 
ENDBRANCH  13  14
ENDBRANCH   5  13
ENDBRANCH   4   5
ENDBRANCH   3   4
BRANCH   3  20
HETATM   20  O2  UNL     1       2.173   0.334  -1.904  1.00  0.00    -0.393 OA
ATOM     21  H2  UNL     1       1.358  -0.071  -1.632  1.00  0.00     0.210 HD
ENDBRANCH   3  20
ENDBRANCH   2   3
BRANCH   2  22
HETATM   22  O3  UNL     1       1.841   2.698  -0.631  1.00  0.00    -0.390 OA
ATOM     23  H3  UNL     1       1.318   3.307  -0.122  1.00  0.00     0.210 HD
ENDBRANCH   2  22
ENDBRANCH   1   2
BRANCH   1  24
HETATM   24  O4  UNL     1       1.209  -0.212   1.408  1.00  0.00    -0.390 OA
ATOM     25  H4  UNL     1       0.438  -0.624   1.779  1.00  0.00     0.210 HD
ENDBRANCH   1  24
BRANCH   1  26
HETATM   26  C17 UNL     1      -0.215   0.616  -0.310  1.00  0.00     0.182 C 
BRANCH  26  27
HETATM   27  O5  UNL     1      -0.561   1.772  -1.015  1.00  0.00    -0.390 OA
ATOM     28  H5  UNL     1      -1.231   1.574  -1.659  1.00  0.00     0.210 HD
ENDBRANCH  26  27
BRANCH  26  29
HETATM   29  C18 UNL     1      -1.525   0.181   0.361  1.00  0.00     0.178 C 
HETATM   30  N2  UNL     1      -2.468  -0.064  -0.714  1.00  0.00    -0.343 N 
HETATM   31  C19 UNL     1      -3.767  -0.574  -0.622  1.00  0.00     0.248 C 
ATOM     32  H2  UNL     1      -2.143   0.164  -1.654  1.00  0.00     0.163 HD
HETATM   33  O6  UNL     1      -4.259  -0.816  -1.784  1.00  0.00    -0.271 OA
HETATM   34  C20 UNL     1      -4.630  -0.867   0.553  1.00  0.00     0.245 C 
HETATM   35  C29 UNL     1      -3.970  -1.871   1.445  1.00  0.00     0.167 C 
HETATM   36  O7  UNL     1      -4.415  -2.994   1.508  1.00  0.00    -0.294 OA
HETATM   37  C30 UNL     1      -2.778  -1.636   2.297  1.00  0.00     0.157 C 
HETATM   38  S2  UNL     1      -1.292  -1.373   1.259  1.00  0.00    -0.134 SA
BRANCH  34  39
HETATM   39  N3  UNL     1      -5.883  -1.332   0.053  1.00  0.00    -0.372 N 
ATOM     40  H3  UNL     1      -5.994  -1.635  -0.915  1.00  0.00     0.160 HD
BRANCH  39  41
HETATM   41  C21 UNL     1      -6.978  -1.352   0.978  1.00  0.00     0.045 C 
BRANCH  41  42
HETATM   42  C22 UNL     1      -7.444  -0.044   1.475  1.00  0.00     0.064 C 
BRANCH  42  43
HETATM   43  C23 UNL     1      -7.939   0.978   0.558  1.00  0.00    -0.017 C 
HETATM   44  C24 UNL     1      -9.140   0.640  -0.286  1.00  0.00     0.010 C 
HETATM   45  C25 UNL     1      -6.934   1.640  -0.354  1.00  0.00     0.010 C 
ENDBRANCH  42  43
ENDBRANCH  41  42
BRANCH  41  46
HETATM   46  C26 UNL     1      -7.995  -2.325   0.562  1.00  0.00     0.144 C 
HETATM   47  F1  UNL     1      -7.594  -3.272  -0.360  1.00  0.00    -0.204 F 
HETATM   48  C27 UNL     1      -9.232  -2.416   0.999  1.00  0.00     0.088 C 
BRANCH  48  49
HETATM   49  S1  UNL     1     -10.312  -3.681   0.358  1.00  0.00    -0.143 SA
HETATM   50  C28 UNL     1     -10.328  -3.622  -1.466  1.00  0.00     0.095 C 
ENDBRANCH  48  49
ENDBRANCH  41  46
ENDBRANCH  39  41
ENDBRANCH  34  39
ENDBRANCH  26  29
ENDBRANCH   1  26
TORSDOF 21
