REMARK  11 active torsions:
REMARK  status: ('A' for Active; 'I' for Inactive)
REMARK    1  A    between atoms: C6_6  and  C7_7 
REMARK    2  A    between atoms: C7_7  and  N1_8 
REMARK    3  A    between atoms: C9_14  and  O1_15 
REMARK    4  A    between atoms: O1_15  and  C10_16 
REMARK    5  A    between atoms: C10_16  and  C11_17 
REMARK    6  A    between atoms: C11_17  and  O2_18 
REMARK    7  A    between atoms: C11_17  and  C12_20 
REMARK    8  A    between atoms: C12_20  and  N2_21 
REMARK    9  A    between atoms: N2_21  and  C13_23 
REMARK   10  A    between atoms: N3_26  and  C16_27 
REMARK   11  A    between atoms: C16_27  and  C17_28 
ROOT
HETATM    1  C1  UNL     1      -5.003  -3.789  -2.530  1.00  0.00     0.018 C 
HETATM    2  C2  UNL     1      -5.352  -2.847  -1.845  1.00  0.00    -0.075 C 
HETATM    3  C3  UNL     1      -5.748  -1.738  -1.009  1.00  0.00     0.050 A 
HETATM    4  C4  UNL     1      -6.959  -1.831  -0.388  1.00  0.00     0.024 A 
HETATM    5  C5  UNL     1      -7.361  -0.787   0.429  1.00  0.00     0.012 A 
HETATM    6  C6  UNL     1      -6.581   0.328   0.627  1.00  0.00    -0.015 A 
HETATM    7  C8  UNL     1      -5.361   0.394  -0.016  1.00  0.00     0.048 A 
HETATM    8  C9  UNL     1      -4.906  -0.624  -0.846  1.00  0.00     0.088 A 
ENDROOT
BRANCH   8   9
HETATM    9  O1  UNL     1      -3.751  -0.652  -1.517  1.00  0.00    -0.347 OA
BRANCH   9  10
HETATM   10  C10 UNL     1      -2.621   0.001  -1.759  1.00  0.00     0.213 C 
BRANCH  10  11
HETATM   11  C11 UNL     1      -1.584   0.219  -0.674  1.00  0.00     0.180 C 
BRANCH  11  12
HETATM   12  O2  UNL     1      -1.996   0.844   0.454  1.00  0.00    -0.388 OA
ATOM     13  H2  UNL     1      -1.346   0.981   1.134  1.00  0.00     0.210 HD
ENDBRANCH  11  12
BRANCH  11  14
HETATM   14  C12 UNL     1      -0.799  -1.015  -0.397  1.00  0.00     0.089 C 
BRANCH  14  15
HETATM   15  N2  UNL     1       0.388  -0.999   0.328  1.00  0.00    -0.394 N 
ATOM     16  H2  UNL     1       0.373  -1.405   1.264  1.00  0.00     0.159 HD
BRANCH  15  17
HETATM   17  C13 UNL     1       1.615  -0.464  -0.131  1.00  0.00     0.091 C 
HETATM   18  C14 UNL     1       1.626   0.993  -0.294  1.00  0.00     0.069 C 
HETATM   19  C15 UNL     1       2.917   1.692  -0.127  1.00  0.00     0.061 C 
HETATM   20  N3  UNL     1       4.083   0.986   0.184  1.00  0.00    -0.384 N 
HETATM   21  C23 UNL     1       3.984  -0.286   0.748  1.00  0.00     0.090 A 
HETATM   22  C24 UNL     1       3.067  -0.329   2.010  1.00  0.00     0.034 A 
HETATM   23  C25 UNL     1       2.725  -0.980   0.751  1.00  0.00     0.033 A 
BRANCH  20  24
HETATM   24  C16 UNL     1       5.136   1.251  -0.733  1.00  0.00     0.160 C 
BRANCH  24  25
HETATM   25  C17 UNL     1       6.418   0.596  -0.441  1.00  0.00    -0.040 A 
HETATM   26  C18 UNL     1       7.295   1.195   0.440  1.00  0.00     0.009 A 
HETATM   27  C19 UNL     1       8.522   0.614   0.751  1.00  0.00     0.001 A 
HETATM   28  C20 UNL     1       8.875  -0.581   0.173  1.00  0.00     0.000 A 
HETATM   29  C21 UNL     1       7.978  -1.163  -0.709  1.00  0.00     0.001 A 
HETATM   30  C22 UNL     1       6.769  -0.585  -1.012  1.00  0.00     0.009 A 
ENDBRANCH  24  25
ENDBRANCH  20  24
ENDBRANCH  15  17
ENDBRANCH  14  15
ENDBRANCH  11  14
ENDBRANCH  10  11
ENDBRANCH   9  10
ENDBRANCH   8   9
BRANCH   6  31
HETATM   31  C7  UNL     1      -7.006   1.472   1.486  1.00  0.00     0.288 C 
HETATM   32  S1  UNL     1      -5.885   2.877   1.224  1.00  0.00    -0.057 SA
BRANCH  31  33
HETATM   33  N1  UNL     1      -8.376   1.873   1.190  1.00  0.00    -0.061 N 
ATOM     34  H13 UNL     1      -8.500   2.082   0.199  1.00  0.00     0.276 HD
ATOM     35  H12 UNL     1      -9.022   1.087   1.266  1.00  0.00     0.276 HD
ATOM     36  H11 UNL     1      -8.666   2.655   1.777  1.00  0.00     0.276 HD
ENDBRANCH  31  33
ENDBRANCH   6  31
TORSDOF 11
