REMARK  10 active torsions:
REMARK  status: ('A' for Active; 'I' for Inactive)
REMARK    1  A    between atoms: O1_1  and  N1_3 
REMARK    2  A    between atoms: C1_5  and  O2_6 
REMARK    3  A    between atoms: C1_5  and  C2_8 
REMARK    4  A    between atoms: C2_8  and  C3_9 
REMARK    5  A    between atoms: C3_9  and  C4_10 
REMARK    6  A    between atoms: C4_10  and  C5_11 
REMARK    7  A    between atoms: C4_10  and  N3_17 
REMARK    8  A    between atoms: C5_11  and  N2_12 
REMARK    9  A    between atoms: N3_17  and  C10_19 
REMARK   10  A    between atoms: C10_19  and  N4_21 
ROOT
HETATM    1  C4  UNL     1      -1.551   0.128  -0.423  1.00  0.00     0.112 C 
ENDROOT
BRANCH   1   2
HETATM    2  C3  UNL     1      -1.868   1.004  -1.629  1.00  0.00     0.035 C 
BRANCH   2   3
HETATM    3  C2  UNL     1      -1.442   2.412  -1.317  1.00  0.00     0.088 C 
BRANCH   3   4
HETATM    4  C1  UNL     1      -2.191   2.886  -0.137  1.00  0.00     0.135 C 
HETATM    5  N1  UNL     1      -1.640   3.344   0.902  1.00  0.00    -0.251 N 
ATOM      6  H1  UNL     1      -2.229   3.652   1.676  1.00  0.00     0.196 HD
BRANCH   5   7
HETATM    7  O1  UNL     1      -0.283   3.442   1.028  1.00  0.00    -0.288 OA
ATOM      8  H1  UNL     1       0.132   3.787   1.810  1.00  0.00     0.244 HD
ENDBRANCH   5   7
BRANCH   4   9
HETATM    9  O2  UNL     1      -3.587   2.815  -0.199  1.00  0.00    -0.348 OA
ATOM     10  H2  UNL     1      -4.002   2.470  -0.981  1.00  0.00     0.219 HD
ENDBRANCH   4   9
ENDBRANCH   3   4
ENDBRANCH   2   3
ENDBRANCH   1   2
BRANCH   1  11
HETATM   11  C5  UNL     1      -1.992  -1.290  -0.733  1.00  0.00     0.297 C 
BRANCH  11  12
HETATM   12  N2  UNL     1      -3.407  -1.357  -1.004  1.00  0.00     0.090 N 
HETATM   13  C6  UNL     1      -3.853  -2.678  -1.308  1.00  0.00     0.272 C 
HETATM   14  C7  UNL     1      -4.914  -3.075  -0.343  1.00  0.00     0.032 C 
HETATM   15  C8  UNL     1      -5.353  -1.781   0.307  1.00  0.00     0.032 C 
HETATM   16  C9  UNL     1      -4.217  -0.825   0.048  1.00  0.00     0.272 C 
ENDBRANCH  11  12
ENDBRANCH   1  11
BRANCH   1  17
HETATM   17  N3  UNL     1      -0.090   0.176  -0.266  1.00  0.00    -0.361 N 
ATOM     18  H3  UNL     1       0.455   0.652  -0.985  1.00  0.00     0.162 HD
BRANCH  17  19
HETATM   19  C10 UNL     1       0.596  -0.393   0.811  1.00  0.00     0.170 C 
HETATM   20  S1  UNL     1      -0.193  -1.152   2.008  1.00  0.00    -0.041 SA
BRANCH  19  21
HETATM   21  N4  UNL     1       2.014  -0.306   0.885  1.00  0.00    -0.354 N 
HETATM   22  C11 UNL     1       2.747  -0.891   1.988  1.00  0.00     0.130 C 
HETATM   23  C12 UNL     1       4.023  -1.548   1.427  1.00  0.00     0.059 C 
HETATM   24  C13 UNL     1       4.831  -0.392   0.885  1.00  0.00    -0.049 A 
HETATM   25  C14 UNL     1       6.189  -0.282   1.164  1.00  0.00     0.008 A 
HETATM   26  C18 UNL     1       4.137   0.508   0.144  1.00  0.00    -0.034 A 
HETATM   27  C15 UNL     1       6.880   0.814   0.655  1.00  0.00     0.001 A 
HETATM   28  C16 UNL     1       6.206   1.734  -0.092  1.00  0.00     0.001 A 
HETATM   29  C17 UNL     1       4.855   1.600  -0.354  1.00  0.00     0.009 A 
HETATM   30  C19 UNL     1       2.717   0.377  -0.161  1.00  0.00     0.164 C 
ENDBRANCH  19  21
ENDBRANCH  17  19
ENDBRANCH   1  17
TORSDOF 10
