REMARK  9 active torsions:
REMARK  status: ('A' for Active; 'I' for Inactive)
REMARK    1  A    between atoms: O1_1  and  C1_3 
REMARK    2  A    between atoms: C1_3  and  C2_4 
REMARK    3  A    between atoms: C2_4  and  C3_5 
REMARK    4  A    between atoms: C4_6  and  C5_7 
REMARK    5  A    between atoms: C5_7  and  N1_8 
REMARK    6  A    between atoms: N1_8  and  C6_10 
REMARK    7  A    between atoms: C15_19  and  O2_20 
REMARK    8  A    between atoms: N2_24  and  C18_25 
REMARK    9  A    between atoms: C18_25  and  C19_26 
ROOT
HETATM    1  C3  UNL     1      -1.421  -0.470  -0.638  1.00  0.00     0.231 C 
HETATM    2  C4  UNL     1      -0.888   0.531   0.322  1.00  0.00     0.038 C 
HETATM    3  C16 UNL     1      -1.693   0.252   1.573  1.00  0.00     0.038 C 
HETATM    4  C17 UNL     1      -2.827  -0.668   1.155  1.00  0.00     0.273 C 
HETATM    5  N2  UNL     1      -2.841  -0.528  -0.314  1.00  0.00     0.097 N 
ENDROOT
BRANCH   2   6
HETATM    6  C5  UNL     1       0.598   0.463   0.587  1.00  0.00     0.121 C 
BRANCH   6   7
HETATM    7  N1  UNL     1       1.307   0.660  -0.623  1.00  0.00    -0.414 N 
ATOM      8  H1  UNL     1       0.824   0.723  -1.519  1.00  0.00     0.153 HD
BRANCH   7   9
HETATM    9  C6  UNL     1       2.737   0.767  -0.532  1.00  0.00     0.110 C 
HETATM   10  C7  UNL     1       3.074   1.996   0.252  1.00  0.00     0.032 C 
HETATM   11  C8  UNL     1       4.402   1.994   0.932  1.00  0.00     0.041 C 
HETATM   12  C9  UNL     1       5.297   0.909   0.526  1.00  0.00    -0.049 A 
HETATM   13  C10 UNL     1       6.660   1.093   0.602  1.00  0.00     0.007 A 
HETATM   14  C14 UNL     1       4.838  -0.299   0.067  1.00  0.00    -0.021 A 
HETATM   15  C11 UNL     1       7.528   0.083   0.223  1.00  0.00     0.001 A 
HETATM   16  C12 UNL     1       7.055  -1.145  -0.244  1.00  0.00     0.001 A 
HETATM   17  C13 UNL     1       5.694  -1.334  -0.321  1.00  0.00     0.010 A 
HETATM   18  C15 UNL     1       3.352  -0.492  -0.015  1.00  0.00     0.174 C 
BRANCH  18  19
HETATM   19  O2  UNL     1       3.109  -1.510  -0.964  1.00  0.00    -0.389 OA
ATOM     20  H2  UNL     1       3.500  -2.311  -0.635  1.00  0.00     0.210 HD
ENDBRANCH  18  19
ENDBRANCH   7   9
ENDBRANCH   6   7
ENDBRANCH   2   6
BRANCH   1  21
HETATM   21  C2  UNL     1      -0.771  -1.817  -0.419  1.00  0.00     0.062 C 
BRANCH  21  22
HETATM   22  C1  UNL     1      -1.306  -2.855  -1.390  1.00  0.00     0.166 C 
BRANCH  22  23
HETATM   23  O1  UNL     1      -0.635  -4.059  -1.112  1.00  0.00    -0.401 OA
ATOM     24  H1  UNL     1      -0.970  -4.708  -1.719  1.00  0.00     0.209 HD
ENDBRANCH  22  23
ENDBRANCH  21  22
ENDBRANCH   1  21
BRANCH   5  25
HETATM   25  C18 UNL     1      -3.413   0.773  -0.557  1.00  0.00     0.311 C 
BRANCH  25  26
HETATM   26  C19 UNL     1      -4.890   0.782  -0.354  1.00  0.00    -0.030 A 
HETATM   27  C20 UNL     1      -5.621  -0.378  -0.436  1.00  0.00     0.009 A 
HETATM   28  C21 UNL     1      -7.008  -0.360  -0.246  1.00  0.00     0.001 A 
HETATM   29  C22 UNL     1      -7.613   0.864   0.026  1.00  0.00     0.000 A 
HETATM   30  C23 UNL     1      -6.880   2.030   0.108  1.00  0.00     0.001 A 
HETATM   31  C24 UNL     1      -5.525   1.981  -0.082  1.00  0.00     0.009 A 
ENDBRANCH  25  26
ENDBRANCH   5  25
TORSDOF 9
