REMARK  8 active torsions:
REMARK  status: ('A' for Active; 'I' for Inactive)
REMARK    1  A    between atoms: C3_3  and  C4_4 
REMARK    2  A    between atoms: C3_3  and  C11_15 
REMARK    3  A    between atoms: C4_4  and  C5_5 
REMARK    4  A    between atoms: C5_5  and  C6_6 
REMARK    5  A    between atoms: C8_8  and  O1_9 
REMARK    6  A    between atoms: C12_16  and  C13_17 
REMARK    7  A    between atoms: C18_22  and  C19_23 
REMARK       I    between atoms: C19_23  and  N1_25 
REMARK    8  A    between atoms: N1_25  and  C20_27 
ROOT
HETATM    1  C11 UNL     1       0.136   1.880   0.285  1.00  0.00     0.015 C 
HETATM    2  C12 UNL     1      -0.793   0.998   0.508  1.00  0.00    -0.020 C 
ENDROOT
BRANCH   1   3
HETATM    3  C3  UNL     1       1.543   1.845   0.038  1.00  0.00     0.000 C 
HETATM    4  C2  UNL     1       2.187   3.058  -0.020  1.00  0.00    -0.011 C 
HETATM    5  C1  UNL     1       1.452   4.306   0.158  1.00  0.00     0.037 C 
BRANCH   3   6
HETATM    6  C4  UNL     1       2.468   0.788  -0.181  1.00  0.00    -0.142 C 
BRANCH   6   7
HETATM    7  C5  UNL     1       3.252  -0.107  -0.366  1.00  0.00     0.118 C 
BRANCH   7   8
HETATM    8  C6  UNL     1       4.781   0.125  -0.526  1.00  0.00     0.144 C 
HETATM    9  C7  UNL     1       5.354  -1.154  -1.001  1.00  0.00     0.065 C 
HETATM   10  C8  UNL     1       6.805  -1.368  -0.703  1.00  0.00     0.130 C 
HETATM   11  C9  UNL     1       7.377  -0.275   0.185  1.00  0.00     0.142 C 
HETATM   12  C10 UNL     1       6.388   0.068   1.265  1.00  0.00     0.261 C 
HETATM   13  O2  UNL     1       6.663  -0.051   2.474  1.00  0.00    -0.265 OA
HETATM   14  O3  UNL     1       5.165   0.518   0.773  1.00  0.00    -0.315 OA
BRANCH  10  15
HETATM   15  O1  UNL     1       6.886  -2.561   0.041  1.00  0.00    -0.395 OA
ATOM     16  H1  UNL     1       7.807  -2.697   0.230  1.00  0.00     0.210 HD
ENDBRANCH  10  15
ENDBRANCH   7   8
ENDBRANCH   6   7
ENDBRANCH   3   6
ENDBRANCH   1   3
BRANCH   2  17
HETATM   17  C13 UNL     1      -0.726  -0.415   0.608  1.00  0.00     0.017 C 
HETATM   18  C14 UNL     1      -1.538  -0.911   1.882  1.00  0.00    -0.006 C 
HETATM   19  C15 UNL     1      -1.272  -2.380   1.740  1.00  0.00     0.006 C 
HETATM   20  C23 UNL     1      -2.926  -0.621   1.423  1.00  0.00     0.020 C 
HETATM   21  C16 UNL     1      -0.958  -2.646   0.255  1.00  0.00     0.006 C 
HETATM   22  C17 UNL     1      -1.470  -1.305  -0.337  1.00  0.00     0.006 C 
HETATM   23  C18 UNL     1      -2.911  -1.246   0.040  1.00  0.00     0.083 C 
BRANCH  23  24
HETATM   24  C19 UNL     1      -3.828  -0.655  -0.919  1.00  0.00     0.222 C 
HETATM   25  O4  UNL     1      -3.567  -0.439  -2.129  1.00  0.00    -0.273 OA
HETATM   26  N1  UNL     1      -5.142  -0.288  -0.471  1.00  0.00    -0.357 N 
ATOM     27  H1  UNL     1      -5.380  -0.445   0.508  1.00  0.00     0.162 HD
BRANCH  26  28
HETATM   28  C20 UNL     1      -6.146   0.293  -1.337  1.00  0.00     0.076 C 
HETATM   29  C21 UNL     1      -7.465  -0.409  -1.189  1.00  0.00     0.032 C 
HETATM   30  C22 UNL     1      -6.340   1.735  -0.850  1.00  0.00     0.032 C 
ENDBRANCH  26  28
ENDBRANCH  23  24
ENDBRANCH   2  17
TORSDOF 8
