REMARK  6 active torsions:
REMARK  status: ('A' for Active; 'I' for Inactive)
REMARK    1  A    between atoms: N1_2  and  C2_3 
REMARK    2  A    between atoms: N1_2  and  C13_21 
REMARK    3  A    between atoms: C3_6  and  N3_7 
REMARK    4  A    between atoms: N3_7  and  C4_9 
REMARK    5  A    between atoms: N6_24  and  C16_25 
REMARK    6  A    between atoms: C16_25  and  C17_26 
ROOT
HETATM    1  C2  UNL     1      -0.594  -1.564  -0.129  1.00  0.00     0.681 A 
HETATM    2  N2  UNL     1      -1.577  -0.771   0.262  1.00  0.00    -0.175 N 
ATOM      3  H2  UNL     1      -1.430  -0.203   1.096  1.00  0.00     0.186 HD
HETATM    4  C3  UNL     1      -2.793  -0.664  -0.390  1.00  0.00     0.139 A 
HETATM    5  C10 UNL     1      -2.995  -1.428  -1.513  1.00  0.00     0.104 A 
HETATM    6  C11 UNL     1      -4.209  -1.424  -2.296  1.00  0.00     0.104 C 
HETATM    7  N4  UNL     1      -5.156  -1.441  -2.930  1.00  0.00    -0.191 NA
HETATM    8  C12 UNL     1      -1.958  -2.261  -1.922  1.00  0.00     0.132 A 
HETATM    9  N5  UNL     1      -0.806  -2.312  -1.239  1.00  0.00    -0.200 N 
ATOM     10  H5  UNL     1      -0.066  -2.933  -1.565  1.00  0.00     0.183 HD
ENDROOT
BRANCH   4  11
HETATM   11  N3  UNL     1      -3.659   0.105   0.042  1.00  0.00    -0.370 N 
ATOM     12  H3  UNL     1      -3.264   0.547   0.872  1.00  0.00     0.161 HD
BRANCH  11  13
HETATM   13  C4  UNL     1      -4.915   0.621  -0.108  1.00  0.00     0.083 C 
HETATM   14  C5  UNL     1      -5.003   1.973   0.656  1.00  0.00     0.025 C 
HETATM   15  C6  UNL     1      -6.432   2.389   0.681  1.00  0.00     0.002 C 
HETATM   16  C7  UNL     1      -7.291   1.715  -0.348  1.00  0.00     0.000 C 
HETATM   17  C8  UNL     1      -7.323   0.216  -0.178  1.00  0.00     0.002 C 
HETATM   18  C9  UNL     1      -6.042  -0.199   0.503  1.00  0.00     0.025 C 
ENDBRANCH  11  13
ENDBRANCH   4  11
BRANCH   1  19
HETATM   19  N1  UNL     1       0.652  -1.669   0.550  1.00  0.00    -0.217 N 
HETATM   20  C1  UNL     1       0.796  -2.686   1.554  1.00  0.00     0.169 C 
BRANCH  19  21
HETATM   21  C13 UNL     1       1.753  -0.793   0.262  1.00  0.00     0.105 C 
HETATM   22  C14 UNL     1       2.991  -1.505  -0.223  1.00  0.00     0.056 C 
HETATM   23  C15 UNL     1       4.045  -0.407  -0.423  1.00  0.00     0.275 C 
HETATM   24  N6  UNL     1       4.554  -0.105   0.897  1.00  0.00     0.092 N 
HETATM   25  C21 UNL     1       3.560  -0.322   1.904  1.00  0.00     0.275 C 
HETATM   26  C22 UNL     1       2.155   0.042   1.453  1.00  0.00     0.056 C 
BRANCH  24  27
HETATM   27  C16 UNL     1       5.217   1.152   1.013  1.00  0.00     0.312 C 
BRANCH  27  28
HETATM   28  C17 UNL     1       6.420   1.304   0.174  1.00  0.00    -0.013 A 
HETATM   29  C18 UNL     1       7.201   0.302  -0.387  1.00  0.00     0.027 A 
HETATM   30  C19 UNL     1       8.201   0.975  -1.082  1.00  0.00     0.088 A 
HETATM   31  N7  UNL     1       8.026   2.291  -0.941  1.00  0.00    -0.375 N 
HETATM   32  C20 UNL     1       6.949   2.519  -0.182  1.00  0.00     0.096 A 
ATOM     33  H7  UNL     1       8.622   3.011  -1.349  1.00  0.00     0.164 HD
ENDBRANCH  27  28
ENDBRANCH  24  27
ENDBRANCH  19  21
ENDBRANCH   1  19
TORSDOF 6
