REMARK  7 active torsions:
REMARK  status: ('A' for Active; 'I' for Inactive)
REMARK    1  A    between atoms: C2_2  and  C3_3 
REMARK    2  A    between atoms: C2_2  and  C9_12 
REMARK    3  A    between atoms: C3_3  and  N1_4 
REMARK    4  A    between atoms: C7_8  and  C8_9 
REMARK    5  A    between atoms: C8_9  and  O1_10 
REMARK    6  A    between atoms: C12_15  and  C13_16 
REMARK    7  A    between atoms: C13_16  and  N2_17 
REMARK       I    between atoms: N2_17  and  C14_19 
REMARK       I    between atoms: C14_19  and  N3_21 
ROOT
HETATM    1  C9  UNL     1      -1.751  -0.297   0.505  1.00  0.00     0.019 C 
HETATM    2  C10 UNL     1      -0.872  -1.227   1.353  1.00  0.00     0.010 C 
HETATM    3  C11 UNL     1       0.382  -1.313   0.443  1.00  0.00     0.007 C 
HETATM    4  C12 UNL     1       0.618   0.201   0.303  1.00  0.00     0.004 C 
HETATM    5  C20 UNL     1      -0.746   0.701  -0.077  1.00  0.00     0.015 C 
ENDROOT
BRANCH   1   6
HETATM    6  C2  UNL     1      -2.737   0.446   1.292  1.00  0.00    -0.048 C 
HETATM    7  C1  UNL     1      -2.816   0.134   2.606  1.00  0.00     0.020 C 
BRANCH   6   8
HETATM    8  C3  UNL     1      -3.609   1.546   0.811  1.00  0.00     0.092 C 
BRANCH   8   9
HETATM    9  N1  UNL     1      -4.566   1.153  -0.089  1.00  0.00    -0.383 N 
HETATM   10  C4  UNL     1      -4.328   0.746  -1.412  1.00  0.00     0.123 C 
HETATM   11  C5  UNL     1      -5.033  -0.614  -1.557  1.00  0.00     0.022 C 
HETATM   12  C6  UNL     1      -6.205  -0.475  -0.633  1.00  0.00     0.029 C 
HETATM   13  C7  UNL     1      -5.760   0.546   0.374  1.00  0.00     0.107 C 
BRANCH  13  14
HETATM   14  C8  UNL     1      -6.863   1.504   0.733  1.00  0.00     0.189 C 
BRANCH  14  15
HETATM   15  O1  UNL     1      -7.263   2.293  -0.327  1.00  0.00    -0.399 OA
ATOM     16  H1  UNL     1      -7.960   2.898  -0.100  1.00  0.00     0.209 HD
ENDBRANCH  14  15
ENDBRANCH  13  14
ENDBRANCH   8   9
ENDBRANCH   6   8
ENDBRANCH   1   6
BRANCH   4  17
HETATM   17  C13 UNL     1       1.659   0.488  -0.735  1.00  0.00     0.129 C 
BRANCH  17  18
HETATM   18  N2  UNL     1       2.908  -0.149  -0.343  1.00  0.00    -0.343 N 
HETATM   19  C14 UNL     1       4.027  -0.030  -1.171  1.00  0.00     0.318 C 
HETATM   20  O2  UNL     1       3.877   0.641  -2.253  1.00  0.00    -0.247 OA
HETATM   21  N3  UNL     1       5.273  -0.605  -0.868  1.00  0.00    -0.334 N 
HETATM   22  C15 UNL     1       5.515  -1.343   0.327  1.00  0.00     0.127 C 
HETATM   23  C19 UNL     1       6.355  -0.426  -1.876  1.00  0.00     0.127 C 
HETATM   24  C16 UNL     1       6.802  -0.974   1.044  1.00  0.00     0.020 C 
HETATM   25  C17 UNL     1       7.644  -0.102   0.148  1.00  0.00     0.003 C 
HETATM   26  C18 UNL     1       7.673  -0.771  -1.222  1.00  0.00     0.020 C 
ATOM     27  H2  UNL     1       2.966  -0.677   0.528  1.00  0.00     0.164 HD
ENDBRANCH  17  18
ENDBRANCH   4  17
TORSDOF 7
