REMARK  15 active torsions:
REMARK  status: ('A' for Active; 'I' for Inactive)
REMARK    1  A    between atoms: C1_4  and  O1_5 
REMARK    2  A    between atoms: C1_4  and  O2_29 
REMARK    3  A    between atoms: O1_5  and  C2_6 
REMARK    4  A    between atoms: C2_6  and  C3_7 
REMARK    5  A    between atoms: C3_7  and  N2_8 
REMARK    6  A    between atoms: C5_14  and  C6_15 
REMARK    7  A    between atoms: O2_29  and  C10_30 
REMARK    8  A    between atoms: C10_30  and  O3_31 
REMARK    9  A    between atoms: O3_31  and  C11_32 
REMARK   10  A    between atoms: C12_36  and  O4_37 
REMARK   11  A    between atoms: C12_36  and  C13_39 
REMARK   12  A    between atoms: C13_39  and  O5_40 
REMARK   13  A    between atoms: C14_42  and  O6_43 
REMARK   14  A    between atoms: C15_45  and  O7_46 
REMARK   15  A    between atoms: C16_48  and  O8_49 
ROOT
HETATM    1  N1  UNL     1      -1.038  -1.529  -1.045  1.00  0.00    -0.359 N 
ATOM      2  H11 UNL     1      -1.685  -1.229  -1.774  1.00  0.00     0.160 HD
ATOM      3  H12 UNL     1      -0.675  -2.480  -0.986  1.00  0.00     0.160 HD
HETATM    4  C1  UNL     1      -0.684  -0.659  -0.182  1.00  0.00     0.260 C 
ENDROOT
BRANCH   4   5
HETATM    5  O1  UNL     1       0.192  -1.065   0.805  1.00  0.00    -0.315 OA
BRANCH   5   6
HETATM    6  C2  UNL     1       0.873  -2.256   0.797  1.00  0.00     0.201 C 
BRANCH   6   7
HETATM    7  C3  UNL     1       1.855  -2.536  -0.272  1.00  0.00     0.177 C 
BRANCH   7   8
HETATM    8  N2  UNL     1       2.994  -1.648  -0.316  1.00  0.00    -0.274 N 
HETATM    9  N3  UNL     1       4.091  -1.761   0.459  1.00  0.00    -0.281 N 
HETATM   10  C4  UNL     1       4.954  -0.766   0.201  1.00  0.00     0.139 A 
ATOM     11  H3  UNL     1       4.244  -2.500   1.146  1.00  0.00     0.189 HD
HETATM   12  N4  UNL     1       6.177  -0.447   0.711  1.00  0.00    -0.328 N 
HETATM   13  C8  UNL     1       4.398   0.023  -0.778  1.00  0.00     0.095 A 
HETATM   14  C5  UNL     1       6.865   0.615   0.291  1.00  0.00     0.122 A 
ATOM     15  H4  UNL     1       6.579  -1.040   1.437  1.00  0.00     0.169 HD
HETATM   16  N9  UNL     1       6.311   1.373  -0.664  1.00  0.00    -0.329 N 
HETATM   17  C7  UNL     1       5.095   1.120  -1.221  1.00  0.00     0.117 A 
ATOM     18  H9  UNL     1       6.830   2.187  -0.993  1.00  0.00     0.168 HD
HETATM   19  N10 UNL     1       4.660   1.912  -2.127  1.00  0.00    -0.385 N 
ATOM     20 2H10 UNL     1       5.178   2.727  -2.456  1.00  0.00     0.157 HD
ATOM     21 1H10 UNL     1       3.749   1.722  -2.544  1.00  0.00     0.157 HD
HETATM   22  C9  UNL     1       3.171  -0.572  -1.070  1.00  0.00     0.150 A 
HETATM   23  N11 UNL     1       2.333  -0.021  -2.083  1.00  0.00    -0.080 NA
BRANCH  14  24
HETATM   24  C6  UNL     1       8.175   0.890   0.891  1.00  0.00     0.274 C 
HETATM   25  N5  UNL     1       9.205   1.226  -0.037  1.00  0.00    -0.098 NA
HETATM   26  N6  UNL     1      10.372   0.981   0.729  1.00  0.00    -0.019 NA
HETATM   27  N7  UNL     1      10.051   0.024   1.664  1.00  0.00    -0.019 NA
HETATM   28  N8  UNL     1       8.715  -0.311   1.525  1.00  0.00    -0.098 NA
ENDBRANCH  14  24
ENDBRANCH   7   8
ENDBRANCH   6   7
ENDBRANCH   5   6
ENDBRANCH   4   5
BRANCH   4  29
HETATM   29  O2  UNL     1      -1.178   0.636  -0.262  1.00  0.00    -0.291 OA
BRANCH  29  30
HETATM   30  C10 UNL     1      -2.502   0.886  -0.685  1.00  0.00     0.351 C 
BRANCH  30  31
HETATM   31  O3  UNL     1      -3.400   0.254   0.167  1.00  0.00    -0.332 OA
BRANCH  31  32
HETATM   32  C11 UNL     1      -4.706   0.494  -0.241  1.00  0.00     0.358 C 
HETATM   33  N12 UNL     1      -5.366   1.207   0.840  1.00  0.00    -0.009 N 
HETATM   34  C12 UNL     1      -6.793   1.134   0.787  1.00  0.00     0.277 C 
ATOM     35 2H12 UNL     1      -5.022   0.887   1.745  1.00  0.00     0.284 HD
ATOM     36 1H12 UNL     1      -5.056   2.178   0.873  1.00  0.00     0.284 HD
HETATM   37  C14 UNL     1      -7.340  -0.262   0.779  1.00  0.00     0.215 C 
HETATM   38  C15 UNL     1      -6.216  -1.285   0.578  1.00  0.00     0.184 C 
HETATM   39  C16 UNL     1      -5.416  -0.777  -0.614  1.00  0.00     0.206 C 
BRANCH  34  40
HETATM   40  O4  UNL     1      -7.270   1.748   1.963  1.00  0.00    -0.361 OA
ATOM     41  H4  UNL     1      -8.218   1.699   1.928  1.00  0.00     0.212 HD
ENDBRANCH  34  40
BRANCH  34  42
HETATM   42  C13 UNL     1      -7.281   1.973  -0.371  1.00  0.00     0.235 C 
BRANCH  42  43
HETATM   43  O5  UNL     1      -6.843   3.287  -0.115  1.00  0.00    -0.396 OA
ATOM     44  H5  UNL     1      -7.150   3.815  -0.843  1.00  0.00     0.209 HD
ENDBRANCH  42  43
ENDBRANCH  34  42
BRANCH  37  45
HETATM   45  O6  UNL     1      -7.941  -0.603   1.999  1.00  0.00    -0.388 OA
ATOM     46  H6  UNL     1      -8.288  -1.488   1.994  1.00  0.00     0.210 HD
ENDBRANCH  37  45
BRANCH  38  47
HETATM   47  O7  UNL     1      -5.437  -1.387   1.720  1.00  0.00    -0.390 OA
ATOM     48  H7  UNL     1      -4.740  -2.021   1.595  1.00  0.00     0.210 HD
ENDBRANCH  38  47
BRANCH  39  49
HETATM   49  O8  UNL     1      -4.576  -1.775  -1.066  1.00  0.00    -0.388 OA
ATOM     50  H8  UNL     1      -5.025  -2.578  -1.302  1.00  0.00     0.210 HD
ENDBRANCH  39  49
ENDBRANCH  31  32
ENDBRANCH  30  31
ENDBRANCH  29  30
ENDBRANCH   4  29
TORSDOF 15
