REMARK  17 active torsions:
REMARK  status: ('A' for Active; 'I' for Inactive)
REMARK    1  A    between atoms: N1_1  and  C1_4 
REMARK    2  A    between atoms: C2_10  and  N4_11 
REMARK    3  A    between atoms: N5_13  and  C3_15 
REMARK    4  A    between atoms: C5_21  and  O2_22 
REMARK    5  A    between atoms: C6_26  and  C7_27 
REMARK    6  A    between atoms: C9_34  and  N10_35 
REMARK    7  A    between atoms: N10_35  and  O5_36 
REMARK    8  A    between atoms: N10_35  and  C10_38 
REMARK    9  A    between atoms: C10_38  and  O6_39 
REMARK   10  A    between atoms: C10_38  and  C13_48 
REMARK   11  A    between atoms: O6_39  and  C11_40 
REMARK   12  A    between atoms: C11_40  and  O7_41 
REMARK   13  A    between atoms: C11_40  and  C12_43 
REMARK   14  A    between atoms: C12_43  and  O8_44 
REMARK   15  A    between atoms: C12_43  and  O9_46 
REMARK   16  A    between atoms: C13_48  and  O10_49 
REMARK   17  A    between atoms: N11_51  and  O11_53 
ROOT
HETATM    1  C3  UNL     1       3.344   1.455  -0.074  1.00  0.00     0.709 C 
HETATM    2  N6  UNL     1       2.569   1.238  -1.105  1.00  0.00    -0.134 N 
ATOM      3  H6  UNL     1       2.853   1.598  -2.016  1.00  0.00     0.205 HD
HETATM    4  N7  UNL     1       1.361   0.529  -1.006  1.00  0.00    -0.303 N 
ATOM      5  H7  UNL     1       0.899   0.253  -1.872  1.00  0.00     0.182 HD
HETATM    6  C4  UNL     1       0.729   0.164   0.241  1.00  0.00     0.148 C 
HETATM    7  C5  UNL     1       1.467   0.788   1.383  1.00  0.00     0.269 C 
HETATM    8  N8  UNL     1       2.868   0.925   1.157  1.00  0.00    -0.195 N 
ATOM      9  H8  UNL     1       3.530   0.642   1.880  1.00  0.00     0.180 HD
HETATM   10  C6  UNL     1       0.500  -1.312   0.338  1.00  0.00     0.150 C 
HETATM   11  C8  UNL     1      -0.548  -1.416   1.415  1.00  0.00     0.252 C 
HETATM   12  N9  UNL     1      -1.214  -0.142   1.445  1.00  0.00    -0.053 N 
ATOM     13  H91 UNL     1      -1.129   0.323   2.349  1.00  0.00     0.279 HD
ATOM     14  H92 UNL     1      -2.230  -0.231   1.429  1.00  0.00     0.279 HD
HETATM   15  C9  UNL     1      -0.710   0.667   0.355  1.00  0.00     0.322 C 
ENDROOT
BRANCH   7  16
HETATM   16  O2  UNL     1       1.229   0.261   2.623  1.00  0.00    -0.373 OA
ATOM     17  H2  UNL     1       1.698   0.657   3.348  1.00  0.00     0.212 HD
ENDBRANCH   7  16
BRANCH  10  18
HETATM   18  C7  UNL     1       1.672  -2.150   0.513  1.00  0.00     0.181 C 
HETATM   19  O3  UNL     1       1.951  -3.013  -0.354  1.00  0.00    -0.648 OA
HETATM   20  O4  UNL     1       2.503  -2.039   1.603  1.00  0.00    -0.648 OA
ENDBRANCH  10  18
BRANCH  15  21
HETATM   21  N10 UNL     1      -1.448   0.531  -0.852  1.00  0.00    -0.129 NA
BRANCH  21  22
HETATM   22  O5  UNL     1      -1.069   1.591  -1.643  1.00  0.00    -0.308 OA
ATOM     23  H5  UNL     1      -1.562   1.500  -2.450  1.00  0.00     0.237 HD
ENDBRANCH  21  22
BRANCH  21  24
HETATM   24  C10 UNL     1      -2.889   0.566  -0.651  1.00  0.00     0.303 C 
BRANCH  24  25
HETATM   25  O6  UNL     1      -3.349  -0.474   0.106  1.00  0.00    -0.327 OA
BRANCH  25  26
HETATM   26  C11 UNL     1      -4.188  -1.318  -0.574  1.00  0.00     0.314 C 
BRANCH  26  27
HETATM   27  O7  UNL     1      -3.701  -2.630  -0.673  1.00  0.00    -0.367 OA
ATOM     28  H7  UNL     1      -4.283  -3.215  -1.144  1.00  0.00     0.212 HD
ENDBRANCH  26  27
BRANCH  26  29
HETATM   29  C12 UNL     1      -5.572  -1.443   0.054  1.00  0.00     0.309 C 
BRANCH  29  30
HETATM   30  O8  UNL     1      -5.491  -1.926   1.356  1.00  0.00    -0.367 OA
ATOM     31  H8  UNL     1      -6.353  -2.004   1.747  1.00  0.00     0.212 HD
ENDBRANCH  29  30
BRANCH  29  32
HETATM   32  O9  UNL     1      -6.290  -0.277   0.057  1.00  0.00    -0.367 OA
ATOM     33  H9  UNL     1      -7.152  -0.355   0.448  1.00  0.00     0.212 HD
ENDBRANCH  29  32
ENDBRANCH  26  29
ENDBRANCH  25  26
ENDBRANCH  24  25
BRANCH  24  34
HETATM   34  C13 UNL     1      -3.255   1.898  -0.101  1.00  0.00     0.182 C 
HETATM   35  N11 UNL     1      -3.815   2.048   1.049  1.00  0.00    -0.248 N 
ATOM     36  H11 UNL     1      -4.014   1.215   1.604  1.00  0.00     0.196 HD
BRANCH  34  37
HETATM   37  O10 UNL     1      -3.004   3.076  -0.823  1.00  0.00    -0.345 OA
ATOM     38  H10 UNL     1      -3.238   3.927  -0.472  1.00  0.00     0.219 HD
ENDBRANCH  34  37
BRANCH  35  39
HETATM   39  O11 UNL     1      -4.156   3.270   1.564  1.00  0.00    -0.288 OA
ATOM     40  H11 UNL     1      -4.569   3.381   2.412  1.00  0.00     0.244 HD
ENDBRANCH  35  39
ENDBRANCH  24  34
ENDBRANCH  21  24
ENDBRANCH  15  21
BRANCH   1  41
HETATM   41  N5  UNL     1       4.561   2.168  -0.173  1.00  0.00    -0.129 N 
HETATM   42  N4  UNL     1       5.624   1.680  -0.633  1.00  0.00    -0.267 N 
ATOM     43  H4  UNL     1       6.469   2.249  -0.677  1.00  0.00     0.189 HD
ATOM     44  H5  UNL     1       4.577   3.136   0.148  1.00  0.00     0.205 HD
BRANCH  42  45
HETATM   45  C2  UNL     1       5.649   0.340  -1.090  1.00  0.00     0.188 A 
HETATM   46  C1  UNL     1       6.478  -0.093  -2.125  1.00  0.00     0.169 A 
HETATM   47  N2  UNL     1       6.238  -1.399  -2.284  1.00  0.00    -0.222 N 
HETATM   48  O1  UNL     1       5.340  -1.755  -1.426  1.00  0.00    -0.153 OA
ATOM     49  H2  UNL     1       6.687  -2.010  -2.966  1.00  0.00     0.198 HD
HETATM   50  N3  UNL     1       4.973  -0.741  -0.704  1.00  0.00    -0.221 N 
ATOM     51  H3  UNL     1       4.277  -0.768   0.041  1.00  0.00     0.198 HD
BRANCH  46  52
HETATM   52  N1  UNL     1       7.295   0.651  -2.770  1.00  0.00    -0.381 N 
ATOM     53  H12 UNL     1       7.901   0.334  -3.527  1.00  0.00     0.157 HD
ATOM     54  H11 UNL     1       7.478   1.647  -2.649  1.00  0.00     0.157 HD
ENDBRANCH  46  52
ENDBRANCH  42  45
ENDBRANCH   1  41
TORSDOF 17
