REMARK  17 active torsions:
REMARK  status: ('A' for Active; 'I' for Inactive)
REMARK    1  A    between atoms: N1_1  and  C1_4 
REMARK    2  A    between atoms: C2_7  and  N3_8 
REMARK    3  A    between atoms: C4_14  and  N5_15 
REMARK    4  A    between atoms: N5_15  and  C5_17 
REMARK    5  A    between atoms: C6_18  and  O1_19 
REMARK    6  A    between atoms: C7_21  and  O2_22 
REMARK    7  A    between atoms: C8_24  and  N6_25 
REMARK    8  A    between atoms: C9_30  and  C10_31 
REMARK    9  A    between atoms: C10_31  and  O3_32 
REMARK   10  A    between atoms: C10_31  and  C11_34 
REMARK   11  A    between atoms: C10_31  and  C12_37 
REMARK   12  A    between atoms: C11_34  and  O4_35 
REMARK   13  A    between atoms: C12_37  and  O5_38 
REMARK   14  A    between atoms: C13_40  and  O6_41 
REMARK   15  A    between atoms: N9_43  and  N10_44 
REMARK   16  A    between atoms: N11_47  and  C14_48 
REMARK   17  A    between atoms: C14_48  and  C15_49 
ROOT
HETATM    1  C5  UNL     1      -0.713  -0.939   0.870  1.00  0.00     0.227 C 
HETATM    2  C6  UNL     1      -0.405  -1.499  -0.474  1.00  0.00     0.189 C 
HETATM    3  C7  UNL     1       1.094  -1.238  -0.705  1.00  0.00     0.191 C 
HETATM    4  C8  UNL     1       1.605  -1.302   0.692  1.00  0.00     0.238 C 
HETATM    5  N9  UNL     1       0.592  -0.698   1.494  1.00  0.00    -0.183 NA
ENDROOT
BRANCH   1   6
HETATM    6  N5  UNL     1      -1.446   0.275   0.891  1.00  0.00    -0.205 N 
ATOM      7  H5  UNL     1      -0.885   1.089   1.141  1.00  0.00     0.179 HD
BRANCH   6   8
HETATM    8  C4  UNL     1      -2.791   0.574   0.635  1.00  0.00     0.684 A 
HETATM    9  N4  UNL     1      -3.256   1.884   0.710  1.00  0.00    -0.184 N 
HETATM   10  C3  UNL     1      -4.556   1.922   0.480  1.00  0.00     0.138 A 
ATOM     11  H4  UNL     1      -2.676   2.698   0.913  1.00  0.00     0.184 HD
HETATM   12  C2  UNL     1      -5.512   2.937   0.432  1.00  0.00     0.146 A 
HETATM   13  C16 UNL     1      -4.962   0.639   0.251  1.00  0.00     0.170 A 
HETATM   14  N2  UNL     1      -6.800   2.672   0.169  1.00  0.00    -0.175 N 
HETATM   15  C1  UNL     1      -7.171   1.402  -0.053  1.00  0.00     0.679 A 
ATOM     16  H2  UNL     1      -7.487   3.425   0.138  1.00  0.00     0.186 HD
HETATM   17  N12 UNL     1      -6.252   0.398  -0.010  1.00  0.00    -0.174 N 
ATOM     18  H12 UNL     1      -6.554  -0.561  -0.181  1.00  0.00     0.186 HD
HETATM   19  N11 UNL     1      -3.836  -0.162   0.355  1.00  0.00    -0.155 N 
BRANCH  12  20
HETATM   20  N3  UNL     1      -5.104   4.137   0.652  1.00  0.00    -0.383 N 
ATOM     21  H32 UNL     1      -5.803   4.879   0.617  1.00  0.00     0.157 HD
ATOM     22  H31 UNL     1      -4.124   4.339   0.852  1.00  0.00     0.157 HD
ENDBRANCH  12  20
BRANCH  15  23
HETATM   23  N1  UNL     1      -8.408   1.142  -0.306  1.00  0.00    -0.234 N 
ATOM     24  H12 UNL     1      -9.096   1.894  -0.338  1.00  0.00     0.174 HD
ATOM     25  H11 UNL     1      -8.690   0.176  -0.475  1.00  0.00     0.174 HD
ENDBRANCH  15  23
BRANCH  19  26
HETATM   26  C14 UNL     1      -3.973  -1.568   0.107  1.00  0.00     0.262 C 
BRANCH  26  27
HETATM   27  C15 UNL     1      -3.976  -1.884  -1.368  1.00  0.00     0.192 C 
HETATM   28  O7  UNL     1      -3.869  -1.008  -2.240  1.00  0.00    -0.647 OA
HETATM   29  O8  UNL     1      -4.102  -3.206  -1.750  1.00  0.00    -0.647 OA
ENDBRANCH  26  27
ENDBRANCH  19  26
ENDBRANCH   6   8
ENDBRANCH   1   6
BRANCH   2  30
HETATM   30  O1  UNL     1      -0.620  -2.895  -0.403  1.00  0.00    -0.389 OA
ATOM     31  H1  UNL     1      -0.423  -3.252  -1.261  1.00  0.00     0.210 HD
ENDBRANCH   2  30
BRANCH   5  32
HETATM   32  N10 UNL     1       0.620  -1.165   2.813  1.00  0.00    -0.359 NA
ATOM     33 2H10 UNL     1      -0.104  -0.733   3.387  1.00  0.00     0.171 HD
ATOM     34 1H10 UNL     1       1.528  -0.997   3.247  1.00  0.00     0.171 HD
ENDBRANCH   5  32
BRANCH   3  35
HETATM   35  O2  UNL     1       1.507  -2.338  -1.491  1.00  0.00    -0.389 OA
ATOM     36  H2  UNL     1       2.432  -2.177  -1.634  1.00  0.00     0.210 HD
ENDBRANCH   3  35
BRANCH   4  37
HETATM   37  N6  UNL     1       2.836  -0.602   0.924  1.00  0.00    -0.232 N 
HETATM   38  N7  UNL     1       3.323  -0.193   2.091  1.00  0.00    -0.236 N 
HETATM   39  N8  UNL     1       4.463   0.406   1.902  1.00  0.00    -0.283 N 
ATOM     40  H7  UNL     1       2.872  -0.328   2.996  1.00  0.00     0.208 HD
HETATM   41  C9  UNL     1       4.780   0.419   0.592  1.00  0.00     0.118 A 
ATOM     42  H8  UNL     1       5.037   0.810   2.642  1.00  0.00     0.188 HD
HETATM   43  C13 UNL     1       3.717  -0.236  -0.017  1.00  0.00     0.188 A 
BRANCH  41  44
HETATM   44  C10 UNL     1       5.978   1.002   0.008  1.00  0.00     0.147 C 
BRANCH  44  45
HETATM   45  O3  UNL     1       6.756   1.552   1.026  1.00  0.00    -0.379 OA
ATOM     46  H3  UNL     1       7.538   1.933   0.645  1.00  0.00     0.211 HD
ENDBRANCH  44  45
BRANCH  44  47
HETATM   47  C11 UNL     1       6.853   0.018  -0.725  1.00  0.00     0.211 C 
BRANCH  47  48
HETATM   48  O4  UNL     1       7.254  -0.946   0.194  1.00  0.00    -0.397 OA
ATOM     49  H4  UNL     1       7.806  -1.566  -0.268  1.00  0.00     0.209 HD
ENDBRANCH  47  48
ENDBRANCH  44  47
BRANCH  44  50
HETATM   50  C12 UNL     1       5.653   2.170  -0.934  1.00  0.00     0.211 C 
BRANCH  50  51
HETATM   51  O5  UNL     1       6.900   2.642  -1.381  1.00  0.00    -0.397 OA
ATOM     52  H5  UNL     1       6.699   3.365  -1.964  1.00  0.00     0.209 HD
ENDBRANCH  50  51
ENDBRANCH  44  50
ENDBRANCH  41  44
BRANCH  43  53
HETATM   53  O6  UNL     1       3.657  -0.434  -1.371  1.00  0.00    -0.343 OA
ATOM     54  H6  UNL     1       4.282  -0.175  -2.038  1.00  0.00     0.219 HD
ENDBRANCH  43  53
ENDBRANCH   4  37
TORSDOF 17
