REMARK  7 active torsions:
REMARK  status: ('A' for Active; 'I' for Inactive)
REMARK    1  A    between atoms: C2_2  and  C3_3 
REMARK    2  A    between atoms: C3_3  and  C4_4 
REMARK    3  A    between atoms: C4_4  and  C5_5 
REMARK    4  A    between atoms: C5_5  and  C6_6 
REMARK    5  A    between atoms: C6_6  and  O1_7 
REMARK    6  A    between atoms: O1_7  and  C7_8 
REMARK    7  A    between atoms: C14_15  and  O2_16 
ROOT
HETATM    1  C7  UNL     1       1.776  -0.522   0.583  1.00  0.00     0.121 C 
HETATM    2  C8  UNL     1       0.971  -1.756   0.238  1.00  0.00     0.033 C 
HETATM    3  C9  UNL     1      -0.357  -1.402  -0.339  1.00  0.00     0.012 C 
HETATM    4  C10 UNL     1      -1.196  -0.522   0.561  1.00  0.00    -0.034 C 
HETATM    5  C11 UNL     1      -1.562  -1.302   1.800  1.00  0.00     0.016 C 
HETATM    6  C12 UNL     1      -0.393   0.694   0.958  1.00  0.00     0.025 C 
HETATM    7  C13 UNL     1       0.947   0.308   1.519  1.00  0.00     0.039 C 
HETATM    8  C14 UNL     1      -0.186   1.664  -0.160  1.00  0.00     0.123 C 
HETATM    9  C15 UNL     1      -1.462   1.911  -0.963  1.00  0.00     0.037 C 
HETATM   10  C16 UNL     1      -2.589   1.356  -0.193  1.00  0.00    -0.003 C 
HETATM   11  C17 UNL     1      -3.942   1.483  -0.805  1.00  0.00    -0.002 C 
HETATM   12  C18 UNL     1      -4.062   0.997  -2.200  1.00  0.00     0.006 C 
HETATM   13  C19 UNL     1      -5.047  -0.163  -2.204  1.00  0.00     0.005 C 
HETATM   14  C20 UNL     1      -5.741  -0.040  -0.894  1.00  0.00    -0.010 C 
HETATM   15  C21 UNL     1      -6.402  -1.311  -0.434  1.00  0.00     0.011 C 
HETATM   16  C22 UNL     1      -4.719   0.482   0.051  1.00  0.00    -0.036 C 
HETATM   17  C23 UNL     1      -5.306   1.243   1.209  1.00  0.00     0.016 C 
HETATM   18  C24 UNL     1      -3.716  -0.565   0.490  1.00  0.00     0.015 C 
HETATM   19  C25 UNL     1      -2.438  -0.171  -0.167  1.00  0.00    -0.001 C 
ENDROOT
BRANCH   1  20
HETATM   20  O1  UNL     1       2.911  -0.929   1.281  1.00  0.00    -0.386 OA
BRANCH  20  21
HETATM   21  C6  UNL     1       4.072  -0.524   0.600  1.00  0.00     0.168 C 
BRANCH  21  22
HETATM   22  C5  UNL     1       5.315  -0.942   1.319  1.00  0.00     0.026 C 
BRANCH  22  23
HETATM   23  C4  UNL     1       6.518  -0.489   0.557  1.00  0.00     0.002 C 
BRANCH  23  24
HETATM   24  C3  UNL     1       6.591  -1.061  -0.841  1.00  0.00    -0.000 C 
BRANCH  24  25
HETATM   25  C2  UNL     1       7.855  -0.520  -1.494  1.00  0.00    -0.005 C 
HETATM   26  C1  UNL     1       7.805   1.007  -1.556  1.00  0.00     0.005 C 
ENDBRANCH  24  25
ENDBRANCH  23  24
ENDBRANCH  22  23
ENDBRANCH  21  22
ENDBRANCH  20  21
ENDBRANCH   1  20
BRANCH   8  27
HETATM   27  O2  UNL     1       0.133   2.908   0.431  1.00  0.00    -0.395 OA
ATOM     28  H2  UNL     1       0.265   3.525  -0.280  1.00  0.00     0.210 HD
ENDBRANCH   8  27
TORSDOF 7
