REMARK  7 active torsions:
REMARK  status: ('A' for Active; 'I' for Inactive)
REMARK    1  A    between atoms: N1_10  and  C8_11 
REMARK    2  A    between atoms: C8_11  and  C9_12 
REMARK    3  A    between atoms: C9_12  and  C11_14 
REMARK    4  A    between atoms: C11_14  and  C12_15 
REMARK    5  A    between atoms: C12_15  and  C13_16 
REMARK    6  A    between atoms: C12_15  and  S1_18 
REMARK    7  A    between atoms: S1_18  and  C15_19 
ROOT
HETATM    1  C9  UNL     1      -1.185   0.089  -1.046  1.00  0.00     0.033 C 
HETATM    2  C10 UNL     1      -1.483   1.532  -0.778  1.00  0.00     0.016 C 
ENDROOT
BRANCH   1   3
HETATM    3  C8  UNL     1      -2.425  -0.534  -1.759  1.00  0.00     0.280 C 
BRANCH   3   4
HETATM    4  N1  UNL     1      -3.564  -0.410  -0.906  1.00  0.00     0.094 N 
HETATM    5  C6  UNL     1      -4.767  -0.948  -1.445  1.00  0.00     0.221 C 
HETATM    6  C5  UNL     1      -5.970  -0.278  -0.810  1.00  0.00     0.068 C 
HETATM    7  C7  UNL     1      -4.825  -0.886  -2.955  1.00  0.00     0.043 C 
HETATM    8  C4  UNL     1      -5.607   0.057   0.592  1.00  0.00     0.144 C 
HETATM    9  O2  UNL     1      -6.637   0.004   1.529  1.00  0.00    -0.311 OA
HETATM   10  C24 UNL     1      -4.690  -1.070   1.090  1.00  0.00     0.082 C 
HETATM   11  C3  UNL     1      -5.995  -0.126   2.779  1.00  0.00     0.289 C 
HETATM   12  C2  UNL     1      -4.718  -0.794   2.547  1.00  0.00     0.016 C 
HETATM   13  O1  UNL     1      -6.457   0.272   3.897  1.00  0.00    -0.260 OA
HETATM   14  C1  UNL     1      -3.839  -1.055   3.486  1.00  0.00     0.025 C 
HETATM   15  C23 UNL     1      -3.343  -0.811   0.459  1.00  0.00     0.285 C 
ENDBRANCH   3   4
ENDBRANCH   1   3
BRANCH   1  16
HETATM   16  C11 UNL     1       0.026  -0.153  -1.824  1.00  0.00    -0.007 C 
BRANCH  16  17
HETATM   17  C12 UNL     1       1.354   0.290  -1.394  1.00  0.00    -0.025 C 
BRANCH  17  18
HETATM   18  C13 UNL     1       1.697   1.704  -1.228  1.00  0.00     0.041 C 
HETATM   19  C14 UNL     1       1.548   2.454  -2.574  1.00  0.00     0.010 C 
ENDBRANCH  17  18
BRANCH  17  20
HETATM   20  S1  UNL     1       2.001  -0.749  -0.029  1.00  0.00    -0.129 SA
BRANCH  20  21
HETATM   21  C15 UNL     1       3.548  -0.145   0.562  1.00  0.00     0.056 C 
HETATM   22  C16 UNL     1       3.559   1.062   1.424  1.00  0.00     0.016 C 
HETATM   23  C17 UNL     1       4.982   1.653   1.344  1.00  0.00     0.002 C 
HETATM   24  C18 UNL     1       5.985   0.637   1.848  1.00  0.00     0.005 C 
HETATM   25  C19 UNL     1       5.798  -0.733   1.289  1.00  0.00    -0.014 C 
HETATM   26  C20 UNL     1       6.416  -0.883  -0.086  1.00  0.00     0.010 C 
HETATM   27  C21 UNL     1       4.363  -1.214   1.307  1.00  0.00    -0.001 C 
HETATM   28  C22 UNL     1       3.895  -1.384   2.713  1.00  0.00     0.011 C 
ENDBRANCH  20  21
ENDBRANCH  17  20
ENDBRANCH  16  17
ENDBRANCH   1  16
TORSDOF 7
