REMARK  10 active torsions:
REMARK  status: ('A' for Active; 'I' for Inactive)
REMARK    1  A    between atoms: C2_2  and  C5_5 
REMARK    2  A    between atoms: C5_5  and  C6_6 
REMARK    3  A    between atoms: C6_6  and  N1_7 
REMARK       I    between atoms: N1_7  and  C7_9 
REMARK    4  A    between atoms: C7_9  and  C8_11 
REMARK    5  A    between atoms: C8_11  and  C9_12 
REMARK    6  A    between atoms: C9_12  and  O2_13 
REMARK    7  A    between atoms: C9_12  and  C20_24 
REMARK    8  A    between atoms: O2_13  and  C10_14 
REMARK    9  A    between atoms: C20_24  and  O4_26 
REMARK   10  A    between atoms: O4_26  and  C21_27 
ROOT
HETATM    1  C9  UNL     1      -0.102   1.634   0.658  1.00  0.00     0.230 C 
ENDROOT
BRANCH   1   2
HETATM    2  C8  UNL     1       0.802   2.169  -0.386  1.00  0.00     0.145 C 
BRANCH   2   3
HETATM    3  C7  UNL     1       1.571   1.137  -1.100  1.00  0.00     0.220 C 
HETATM    4  N1  UNL     1       2.288   1.462  -2.279  1.00  0.00    -0.361 N 
ATOM      5  H1  UNL     1       2.271   2.419  -2.632  1.00  0.00     0.162 HD
HETATM    6  O1  UNL     1       1.614  -0.042  -0.691  1.00  0.00    -0.274 OA
BRANCH   4   7
HETATM    7  C6  UNL     1       3.035   0.462  -2.980  1.00  0.00     0.123 C 
BRANCH   7   8
HETATM    8  C5  UNL     1       2.235  -0.690  -3.507  1.00  0.00     0.028 C 
BRANCH   8   9
HETATM    9  C2  UNL     1       3.101  -1.695  -4.240  1.00  0.00    -0.050 C 
HETATM   10  C1  UNL     1       3.797  -1.036  -5.430  1.00  0.00     0.014 C 
HETATM   11  C3  UNL     1       2.207  -2.783  -4.748  1.00  0.00     0.014 C 
HETATM   12  C4  UNL     1       4.152  -2.297  -3.355  1.00  0.00     0.014 C 
ENDBRANCH   8   9
ENDBRANCH   7   8
ENDBRANCH   4   7
ENDBRANCH   2   3
ENDBRANCH   1   2
BRANCH   1  13
HETATM   13  O2  UNL     1      -1.108   0.818   0.343  1.00  0.00    -0.370 OA
BRANCH  13  14
HETATM   14  C10 UNL     1      -1.216  -0.458   0.766  1.00  0.00     0.124 C 
HETATM   15  C11 UNL     1      -2.341  -0.407   1.819  1.00  0.00     0.040 C 
HETATM   16  C12 UNL     1      -2.866  -1.739   2.219  1.00  0.00    -0.045 C 
HETATM   17  C13 UNL     1      -2.124  -2.330   3.395  1.00  0.00     0.015 C 
HETATM   18  C14 UNL     1      -4.307  -1.504   2.707  1.00  0.00     0.015 C 
HETATM   19  C15 UNL     1      -3.007  -2.749   1.116  1.00  0.00     0.017 C 
HETATM   20  C16 UNL     1      -1.850  -2.808   0.192  1.00  0.00    -0.045 C 
HETATM   21  C17 UNL     1      -2.261  -3.664  -1.015  1.00  0.00     0.015 C 
HETATM   22  C18 UNL     1      -0.628  -3.461   0.770  1.00  0.00     0.015 C 
HETATM   23  C19 UNL     1      -1.600  -1.418  -0.327  1.00  0.00     0.040 C 
ENDBRANCH  13  14
ENDBRANCH   1  13
BRANCH   1  24
HETATM   24  C20 UNL     1      -0.559   2.744   1.581  1.00  0.00     0.289 C 
HETATM   25  O3  UNL     1      -1.770   2.781   1.885  1.00  0.00    -0.262 OA
BRANCH  24  26
HETATM   26  O4  UNL     1       0.295   3.686   2.081  1.00  0.00    -0.309 OA
BRANCH  26  27
HETATM   27  C21 UNL     1      -0.072   4.733   2.939  1.00  0.00     0.060 C 
HETATM   28  C22 UNL     1      -0.647   4.114   4.199  1.00  0.00     0.045 C 
HETATM   29  C23 UNL     1       1.208   5.507   3.264  1.00  0.00     0.045 C 
HETATM   30  C24 UNL     1      -1.050   5.695   2.348  1.00  0.00     0.045 C 
ENDBRANCH  26  27
ENDBRANCH  24  26
ENDBRANCH   1  24
TORSDOF 10
