REMARK  11 active torsions:
REMARK  status: ('A' for Active; 'I' for Inactive)
REMARK    1  A    between atoms: C2_2  and  C5_5 
REMARK    2  A    between atoms: C5_5  and  C6_6 
REMARK    3  A    between atoms: C6_6  and  C8_8 
REMARK    4  A    between atoms: C6_6  and  C24_29 
REMARK    5  A    between atoms: C9_9  and  C10_10 
REMARK    6  A    between atoms: C11_11  and  C12_12 
REMARK    7  A    between atoms: C17_17  and  C18_18 
REMARK    8  A    between atoms: C18_18  and  C19_19 
REMARK    9  A    between atoms: C21_22  and  O2_23 
REMARK   10  A    between atoms: C22_25  and  O3_26 
REMARK   11  A    between atoms: C25_30  and  C26_31 
ROOT
HETATM    1  C10 UNL     1      -0.970   0.024  -1.908  1.00  0.00    -0.004 C 
HETATM    2  C11 UNL     1       0.310  -0.081  -2.080  1.00  0.00    -0.018 C 
ENDROOT
BRANCH   2   3
HETATM    3  C12 UNL     1       1.377  -0.109  -1.063  1.00  0.00    -0.026 C 
HETATM    4  C13 UNL     1       1.312   1.013  -0.079  1.00  0.00     0.019 C 
HETATM    5  C14 UNL     1       1.333  -1.483  -0.428  1.00  0.00     0.013 C 
HETATM    6  C15 UNL     1       2.401  -1.563   0.601  1.00  0.00     0.001 C 
HETATM    7  C16 UNL     1       3.790  -1.280   0.135  1.00  0.00     0.005 C 
HETATM    8  C17 UNL     1       3.900  -0.218  -0.908  1.00  0.00    -0.011 C 
HETATM    9  C23 UNL     1       2.713  -0.064  -1.784  1.00  0.00     0.017 C 
BRANCH   8  10
HETATM   10  C18 UNL     1       5.101  -0.440  -1.803  1.00  0.00     0.039 C 
BRANCH  10  11
HETATM   11  C19 UNL     1       6.401  -0.440  -1.081  1.00  0.00     0.153 C 
HETATM   12  O1  UNL     1       6.535  -1.399  -0.107  1.00  0.00    -0.381 OA
HETATM   13  C20 UNL     1       7.515  -0.952   0.778  1.00  0.00     0.202 C 
HETATM   14  C21 UNL     1       7.430   0.554   0.803  1.00  0.00     0.173 C 
HETATM   15  C22 UNL     1       6.776   0.886  -0.519  1.00  0.00     0.177 C 
BRANCH  14  16
HETATM   16  O2  UNL     1       6.704   1.019   1.888  1.00  0.00    -0.391 OA
ATOM     17  H2  UNL     1       6.650   1.967   1.904  1.00  0.00     0.210 HD
ENDBRANCH  14  16
BRANCH  15  18
HETATM   18  O3  UNL     1       7.764   1.531  -1.294  1.00  0.00    -0.390 OA
ATOM     19  H3  UNL     1       8.003   2.377  -0.935  1.00  0.00     0.210 HD
ENDBRANCH  15  18
ENDBRANCH  10  11
ENDBRANCH   8  10
ENDBRANCH   2   3
BRANCH   1  20
HETATM   20  C9  UNL     1      -1.695   0.142  -0.663  1.00  0.00    -0.003 C 
HETATM   21  C8  UNL     1      -3.009   0.244  -0.586  1.00  0.00    -0.013 C 
BRANCH  21  22
HETATM   22  C6  UNL     1      -3.734   0.363   0.681  1.00  0.00    -0.008 C 
HETATM   23  C7  UNL     1      -2.760   0.630   1.805  1.00  0.00     0.024 C 
BRANCH  22  24
HETATM   24  C5  UNL     1      -4.878   1.311   0.656  1.00  0.00     0.025 C 
BRANCH  24  25
HETATM   25  C2  UNL     1      -4.614   2.750   0.486  1.00  0.00    -0.050 C 
HETATM   26  C1  UNL     1      -6.004   3.425   0.498  1.00  0.00     0.014 C 
HETATM   27  C3  UNL     1      -4.013   3.114  -0.855  1.00  0.00     0.014 C 
HETATM   28  C4  UNL     1      -3.846   3.440   1.560  1.00  0.00     0.014 C 
ENDBRANCH  24  25
ENDBRANCH  22  24
BRANCH  22  29
HETATM   29  C24 UNL     1      -4.315  -0.983   0.993  1.00  0.00    -0.011 C 
HETATM   30  C25 UNL     1      -4.343  -1.985   0.156  1.00  0.00     0.034 C 
BRANCH  30  31
HETATM   31  C26 UNL     1      -4.922  -3.254   0.535  1.00  0.00     0.074 A 
HETATM   32  C27 UNL     1      -5.018  -4.389  -0.242  1.00  0.00     0.039 A 
HETATM   33  C28 UNL     1      -5.639  -5.374   0.504  1.00  0.00     0.027 A 
HETATM   34  C29 UNL     1      -5.895  -4.770   1.730  1.00  0.00     0.142 A 
HETATM   35  O4  UNL     1      -5.463  -3.551   1.695  1.00  0.00    -0.323 OA
ENDBRANCH  30  31
ENDBRANCH  22  29
ENDBRANCH  21  22
ENDBRANCH   1  20
TORSDOF 11
