REMARK  11 active torsions:
REMARK  status: ('A' for Active; 'I' for Inactive)
REMARK    1  A    between atoms: C2_2  and  O2_4 
REMARK    2  A    between atoms: O2_4  and  C3_5 
REMARK    3  A    between atoms: C9_11  and  O3_12 
REMARK    4  A    between atoms: C17_21  and  C18_22 
REMARK    5  A    between atoms: C18_22  and  C19_23 
REMARK    6  A    between atoms: C19_23  and  C20_24 
REMARK    7  A    between atoms: C20_24  and  C21_25 
REMARK    8  A    between atoms: C21_25  and  C22_26 
REMARK    9  A    between atoms: C22_26  and  C23_27 
REMARK   10  A    between atoms: C23_27  and  C24_28 
REMARK   11  A    between atoms: C24_28  and  O4_29 
ROOT
HETATM    1  C3  UNL     1      -2.029   1.108   0.269  1.00  0.00     0.137 C 
HETATM    2  C4  UNL     1      -2.957   0.913   1.457  1.00  0.00     0.042 C 
HETATM    3  C5  UNL     1      -4.217   0.125   1.136  1.00  0.00    -0.037 C 
HETATM    4  C6  UNL     1      -4.655  -0.425   2.513  1.00  0.00     0.015 C 
HETATM    5  C7  UNL     1      -5.274   1.080   0.725  1.00  0.00     0.012 C 
HETATM    6  C8  UNL     1      -5.858   0.973  -0.624  1.00  0.00     0.032 C 
HETATM    7  C9  UNL     1      -6.061  -0.478  -0.959  1.00  0.00     0.118 C 
HETATM    8  C10 UNL     1      -4.658  -1.044  -1.060  1.00  0.00     0.037 C 
HETATM    9  C11 UNL     1      -3.956  -1.048   0.266  1.00  0.00     0.001 C 
HETATM   10  C12 UNL     1      -2.487  -1.333   0.020  1.00  0.00    -0.002 C 
HETATM   11  C13 UNL     1      -1.852  -2.054   1.158  1.00  0.00     0.006 C 
HETATM   12  C14 UNL     1      -0.435  -1.717   1.439  1.00  0.00     0.011 C 
HETATM   13  C15 UNL     1       0.357  -1.423   0.162  1.00  0.00    -0.033 C 
HETATM   14  C16 UNL     1       0.629  -2.796  -0.416  1.00  0.00     0.016 C 
HETATM   15  C17 UNL     1       1.639  -0.753   0.681  1.00  0.00    -0.006 C 
HETATM   16  C25 UNL     1       1.925   0.343  -0.287  1.00  0.00     0.006 C 
HETATM   17  C26 UNL     1       0.623   0.640  -1.017  1.00  0.00     0.011 C 
HETATM   18  C27 UNL     1      -0.319  -0.492  -0.771  1.00  0.00    -0.030 C 
HETATM   19  C28 UNL     1      -0.345  -1.234  -2.139  1.00  0.00     0.016 C 
HETATM   20  C29 UNL     1      -1.730  -0.126  -0.479  1.00  0.00     0.029 C 
ENDROOT
BRANCH  15  21
HETATM   21  C18 UNL     1       2.738  -1.709   0.824  1.00  0.00     0.005 C 
BRANCH  21  22
HETATM   22  C19 UNL     1       4.052  -1.311   1.345  1.00  0.00     0.000 C 
BRANCH  22  23
HETATM   23  C20 UNL     1       4.821  -0.306   0.569  1.00  0.00     0.000 C 
BRANCH  23  24
HETATM   24  C21 UNL     1       6.207  -0.082   1.228  1.00  0.00     0.000 C 
BRANCH  24  25
HETATM   25  C22 UNL     1       7.003   0.932   0.466  1.00  0.00     0.002 C 
BRANCH  25  26
HETATM   26  C23 UNL     1       7.273   0.548  -0.971  1.00  0.00     0.026 C 
BRANCH  26  27
HETATM   27  C24 UNL     1       8.092   1.675  -1.604  1.00  0.00     0.164 C 
BRANCH  27  28
HETATM   28  O4  UNL     1       9.292   1.849  -0.932  1.00  0.00    -0.401 OA
ATOM     29  H4  UNL     1       9.800   2.549  -1.325  1.00  0.00     0.209 HD
ENDBRANCH  27  28
ENDBRANCH  26  27
ENDBRANCH  25  26
ENDBRANCH  24  25
ENDBRANCH  23  24
ENDBRANCH  22  23
ENDBRANCH  21  22
ENDBRANCH  15  21
BRANCH   1  30
HETATM   30  O2  UNL     1      -2.667   2.122  -0.500  1.00  0.00    -0.316 OA
BRANCH  30  31
HETATM   31  C2  UNL     1      -2.206   3.414  -0.501  1.00  0.00     0.255 C 
HETATM   32  C1  UNL     1      -2.933   4.420  -1.349  1.00  0.00     0.126 C 
HETATM   33  O1  UNL     1      -1.215   3.806   0.163  1.00  0.00    -0.266 OA
ENDBRANCH  30  31
ENDBRANCH   1  30
BRANCH   7  34
HETATM   34  O3  UNL     1      -6.851  -1.148  -0.055  1.00  0.00    -0.396 OA
ATOM     35  H3  UNL     1      -6.979  -2.065  -0.267  1.00  0.00     0.210 HD
ENDBRANCH   7  34
TORSDOF 11
