REMARK  9 active torsions:
REMARK  status: ('A' for Active; 'I' for Inactive)
REMARK    1  A    between atoms: C2_2  and  C3_3 
REMARK    2  A    between atoms: C3_3  and  C4_4 
REMARK    3  A    between atoms: C8_10  and  C9_11 
REMARK    4  A    between atoms: C9_11  and  C10_12 
REMARK    5  A    between atoms: C21_23  and  C23_25 
REMARK    6  A    between atoms: C23_25  and  C24_26 
REMARK    7  A    between atoms: C24_26  and  C25_27 
REMARK    8  A    between atoms: C25_27  and  C26_28 
REMARK    9  A    between atoms: C26_28  and  O3_31 
ROOT
HETATM    1  C10 UNL     1      -1.773   0.240  -0.603  1.00  0.00    -0.006 C 
HETATM    2  C11 UNL     1      -0.911  -0.972  -0.604  1.00  0.00     0.006 C 
HETATM    3  C12 UNL     1       0.513  -0.842  -0.988  1.00  0.00     0.007 C 
HETATM    4  C13 UNL     1       0.799   0.136  -2.073  1.00  0.00     0.008 C 
HETATM    5  C14 UNL     1      -0.348   0.396  -2.985  1.00  0.00     0.007 C 
HETATM    6  C15 UNL     1      -1.091   1.610  -2.514  1.00  0.00     0.010 C 
HETATM    7  C16 UNL     1      -1.139   1.520  -0.973  1.00  0.00    -0.035 C 
HETATM    8  C17 UNL     1      -2.107   2.669  -0.626  1.00  0.00     0.016 C 
HETATM    9  C18 UNL     1       0.173   1.933  -0.507  1.00  0.00     0.017 C 
HETATM   10  C19 UNL     1       0.468   1.925   0.962  1.00  0.00     0.010 C 
HETATM   11  C20 UNL     1       1.840   2.550   1.149  1.00  0.00     0.031 C 
HETATM   12  C21 UNL     1       2.914   1.717   0.453  1.00  0.00     0.022 C 
HETATM   13  C22 UNL     1       4.050   2.719   0.137  1.00  0.00     0.038 C 
HETATM   14  N1  UNL     1       2.492   1.051  -0.711  1.00  0.00    -0.408 N 
ATOM     15  H1  UNL     1       3.066   0.303  -1.099  1.00  0.00     0.154 HD
HETATM   16  C29 UNL     1       1.281   1.405  -1.351  1.00  0.00     0.086 C 
ENDROOT
BRANCH   1  17
HETATM   17  C9  UNL     1      -2.527   0.291   0.697  1.00  0.00     0.011 C 
BRANCH  17  18
HETATM   18  C8  UNL     1      -3.426  -0.814   1.044  1.00  0.00     0.005 C 
HETATM   19  C3  UNL     1      -4.607  -1.169   0.256  1.00  0.00     0.052 C 
HETATM   20  C5  UNL     1      -5.242  -2.207   1.250  1.00  0.00     0.021 C 
HETATM   21  C6  UNL     1      -5.247  -1.435   2.526  1.00  0.00     0.002 C 
HETATM   22  C7  UNL     1      -3.960  -0.655   2.490  1.00  0.00     0.006 C 
BRANCH  19  23
HETATM   23  C2  UNL     1      -5.687  -0.151   0.107  1.00  0.00     0.016 C 
HETATM   24  C1  UNL     1      -5.563   0.847  -0.976  1.00  0.00     0.006 C 
ENDBRANCH  19  23
BRANCH  19  25
HETATM   25  C4  UNL     1      -4.415  -2.001  -0.951  1.00  0.00     0.182 C 
HETATM   26  O1  UNL     1      -4.818  -1.751  -2.101  1.00  0.00    -0.647 OA
HETATM   27  O2  UNL     1      -3.707  -3.207  -0.811  1.00  0.00    -0.647 OA
ENDBRANCH  19  25
ENDBRANCH  17  18
ENDBRANCH   1  17
BRANCH  12  28
HETATM   28  C23 UNL     1       3.431   0.769   1.481  1.00  0.00     0.030 C 
BRANCH  28  29
HETATM   29  C24 UNL     1       4.486  -0.188   1.164  1.00  0.00     0.005 C 
BRANCH  29  30
HETATM   30  C25 UNL     1       4.266  -1.236   0.143  1.00  0.00     0.037 C 
BRANCH  30  31
HETATM   31  C26 UNL     1       5.496  -2.147   0.000  1.00  0.00     0.051 C 
HETATM   32  C27 UNL     1       5.825  -2.841   1.290  1.00  0.00     0.045 C 
HETATM   33  C28 UNL     1       6.673  -1.377  -0.544  1.00  0.00     0.045 C 
BRANCH  31  34
HETATM   34  O3  UNL     1       5.152  -3.118  -0.938  1.00  0.00    -0.391 OA
ATOM     35  H3  UNL     1       5.912  -3.681  -1.026  1.00  0.00     0.210 HD
ENDBRANCH  31  34
ENDBRANCH  30  31
ENDBRANCH  29  30
ENDBRANCH  28  29
ENDBRANCH  12  28
TORSDOF 9
