REMARK  4 active torsions:
REMARK  status: ('A' for Active; 'I' for Inactive)
REMARK    1  A    between atoms: C2_2  and  C3_3 
REMARK    2  A    between atoms: C3_3  and  O1_4 
REMARK    3  A    between atoms: C8_10  and  C9_11 
REMARK    4  A    between atoms: C16_20  and  O4_22 
ROOT
HETATM    1  C1  UNL     1      -4.929   0.012  -0.185  1.00  0.00     0.021 C 
HETATM    2  C2  UNL     1      -3.439   0.330  -0.428  1.00  0.00     0.014 C 
HETATM    3  C4  UNL     1      -3.066  -0.331  -1.707  1.00  0.00     0.042 C 
HETATM    4  C5  UNL     1      -1.625  -0.664  -1.794  1.00  0.00    -0.020 C 
HETATM    5  C6  UNL     1      -0.803  -0.714  -0.782  1.00  0.00    -0.047 C 
HETATM    6  C7  UNL     1       0.663  -1.054  -0.891  1.00  0.00     0.072 C 
HETATM    7  C8  UNL     1       1.386   0.003  -0.045  1.00  0.00     0.168 C 
HETATM    8  O2  UNL     1       0.726   0.306   1.116  1.00  0.00    -0.234 OA
HETATM    9  O3  UNL     1      -0.511   0.699   0.985  1.00  0.00    -0.228 OA
HETATM   10  C15 UNL     1      -1.278  -0.431   0.582  1.00  0.00     0.224 C 
HETATM   11  C16 UNL     1      -2.720  -0.186   0.768  1.00  0.00     0.096 C 
HETATM   12  C17 UNL     1      -3.354  -1.492   1.279  1.00  0.00     0.050 C 
ENDROOT
BRANCH   7  13
HETATM   13  C9  UNL     1       2.762  -0.533   0.368  1.00  0.00     0.018 C 
HETATM   14  C10 UNL     1       3.417   0.553   1.195  1.00  0.00     0.007 C 
HETATM   15  C11 UNL     1       4.167   1.447   0.206  1.00  0.00     0.000 C 
HETATM   16  C12 UNL     1       5.401   0.683  -0.220  1.00  0.00     0.000 C 
HETATM   17  C13 UNL     1       5.058  -0.764  -0.397  1.00  0.00     0.000 C 
HETATM   18  C14 UNL     1       3.589  -0.934  -0.808  1.00  0.00     0.007 C 
ENDBRANCH   7  13
BRANCH  11  19
HETATM   19  O4  UNL     1      -2.840   0.702   1.857  1.00  0.00    -0.386 OA
ATOM     20  H4  UNL     1      -2.381   0.373   2.621  1.00  0.00     0.210 HD
ENDBRANCH  11  19
BRANCH   2  21
HETATM   21  C3  UNL     1      -3.371   1.837  -0.494  1.00  0.00     0.176 C 
BRANCH  21  22
HETATM   22  O1  UNL     1      -2.121   2.352  -0.712  1.00  0.00    -0.400 OA
ATOM     23  H1  UNL     1      -2.078   3.300  -0.754  1.00  0.00     0.209 HD
ENDBRANCH  21  22
ENDBRANCH   2  21
TORSDOF 4
