REMARK  8 active torsions:
REMARK  status: ('A' for Active; 'I' for Inactive)
REMARK    1  A    between atoms: C2_2  and  C3_3 
REMARK    2  A    between atoms: C12_13  and  O1_14 
REMARK    3  A    between atoms: C13_16  and  O2_17 
REMARK    4  A    between atoms: O2_17  and  C14_18 
REMARK    5  A    between atoms: C22_30  and  C23_31 
REMARK    6  A    between atoms: C23_31  and  O4_32 
REMARK    7  A    between atoms: O4_32  and  C24_33 
REMARK    8  A    between atoms: C26_36  and  O6_37 
ROOT
HETATM    1  C3  UNL     1      -3.082  -0.046   1.060  1.00  0.00     0.015 C 
HETATM    2  C4  UNL     1      -3.873  -1.267   0.837  1.00  0.00     0.019 C 
HETATM    3  C5  UNL     1      -3.122  -2.535   0.631  1.00  0.00    -0.012 C 
HETATM    4  C6  UNL     1      -4.143  -3.631   1.001  1.00  0.00     0.018 C 
HETATM    5  C7  UNL     1      -2.661  -2.744  -0.784  1.00  0.00     0.017 C 
HETATM    6  C8  UNL     1      -1.173  -2.406  -0.815  1.00  0.00    -0.002 C 
HETATM    7  C9  UNL     1      -0.691  -2.415   0.577  1.00  0.00     0.043 C 
HETATM    8  C10 UNL     1      -1.905  -2.722   1.457  1.00  0.00     0.178 C 
HETATM    9  F1  UNL     1      -1.876  -4.060   1.893  1.00  0.00    -0.249 F 
HETATM   10  C11 UNL     1      -0.789  -1.332  -1.736  1.00  0.00     0.055 C 
HETATM   11  C12 UNL     1       0.624  -1.670  -2.269  1.00  0.00     0.199 C 
HETATM   12  C13 UNL     1       1.486  -0.651  -1.681  1.00  0.00     0.147 C 
HETATM   13  N2  UNL     1       0.765   0.291  -1.255  1.00  0.00    -0.362 N 
ATOM     14  H2  UNL     1       1.133   1.125  -0.798  1.00  0.00     0.162 HD
HETATM   15  C20 UNL     1      -0.672   0.051  -1.491  1.00  0.00     0.043 C 
HETATM   16  C21 UNL     1      -0.952   0.815  -2.808  1.00  0.00     0.039 C 
HETATM   17  C22 UNL     1      -1.354   0.832  -0.447  1.00  0.00     0.067 C 
HETATM   18  C26 UNL     1      -2.816   0.639  -0.256  1.00  0.00     0.130 C 
ENDROOT
BRANCH  12  19
HETATM   19  O2  UNL     1       2.870  -0.681  -1.588  1.00  0.00    -0.304 OA
BRANCH  19  20
HETATM   20  C14 UNL     1       3.597   0.001  -0.592  1.00  0.00     0.296 C 
HETATM   21  C15 UNL     1       3.212  -0.467   0.813  1.00  0.00     0.332 C 
HETATM   22  N1  UNL     1       4.237   0.013   1.688  1.00  0.00     0.091 N 
HETATM   23  C16 UNL     1       5.317  -0.917   1.802  1.00  0.00     0.310 C 
HETATM   24  C17 UNL     1       4.611   1.369   1.510  1.00  0.00     0.303 C 
HETATM   25  C18 UNL     1       4.450   1.928   0.154  1.00  0.00     0.149 C 
HETATM   26  C19 UNL     1       5.727   1.815  -0.680  1.00  0.00     0.041 C 
HETATM   27  O3  UNL     1       3.430   1.363  -0.597  1.00  0.00    -0.352 OA
ENDBRANCH  19  20
ENDBRANCH  12  19
BRANCH  11  28
HETATM   28  O1  UNL     1       0.678  -1.768  -3.632  1.00  0.00    -0.387 OA
ATOM     29  H1  UNL     1       1.545  -1.975  -3.959  1.00  0.00     0.210 HD
ENDBRANCH  11  28
BRANCH  17  30
HETATM   30  C23 UNL     1      -1.174   2.338  -0.721  1.00  0.00     0.188 C 
BRANCH  30  31
HETATM   31  O4  UNL     1       0.174   2.722  -0.733  1.00  0.00    -0.321 OA
BRANCH  31  32
HETATM   32  C24 UNL     1       0.447   4.062  -0.970  1.00  0.00     0.254 C 
HETATM   33  C25 UNL     1       1.809   4.602  -1.010  1.00  0.00     0.126 C 
HETATM   34  O5  UNL     1      -0.515   4.880  -1.166  1.00  0.00    -0.266 OA
ENDBRANCH  31  32
ENDBRANCH  30  31
ENDBRANCH  17  30
BRANCH  18  35
HETATM   35  O6  UNL     1      -3.543   1.857  -0.224  1.00  0.00    -0.395 OA
ATOM     36  H6  UNL     1      -3.375   2.289  -1.053  1.00  0.00     0.210 HD
ENDBRANCH  18  35
BRANCH   1  37
HETATM   37  C2  UNL     1      -3.747   0.917   2.054  1.00  0.00     0.002 C 
HETATM   38  C1  UNL     1      -3.920   0.230   3.387  1.00  0.00     0.005 C 
ENDBRANCH   1  37
TORSDOF 8
