REMARK  8 active torsions:
REMARK  status: ('A' for Active; 'I' for Inactive)
REMARK    1  A    between atoms: C2_2  and  C4_4 
REMARK    2  A    between atoms: C4_4  and  N1_5 
REMARK    3  A    between atoms: C4_4  and  C10_14 
REMARK       I    between atoms: N1_5  and  C5_7 
REMARK    4  A    between atoms: C5_7  and  O2_9 
REMARK    5  A    between atoms: O2_9  and  C6_10 
REMARK       I    between atoms: C10_14  and  N2_16 
REMARK    6  A    between atoms: C13_20  and  C14_21 
REMARK       I    between atoms: C14_21  and  N3_23 
REMARK    7  A    between atoms: N3_23  and  C15_25 
REMARK    8  A    between atoms: C17_30  and  N5_31 
ROOT
HETATM    1  C10 UNL     1       0.241  -0.400  -1.912  1.00  0.00     0.244 C 
HETATM    2  O3  UNL     1       0.349  -1.597  -2.365  1.00  0.00    -0.271 OA
HETATM    3  N2  UNL     1       1.405   0.422  -1.751  1.00  0.00    -0.327 N 
HETATM    4  C11 UNL     1       2.704  -0.069  -2.158  1.00  0.00     0.200 C 
HETATM    5  S1  UNL     1       3.634   1.468  -2.398  1.00  0.00    -0.147 SA
HETATM    6  C12 UNL     1       2.274   2.643  -2.010  1.00  0.00     0.110 C 
HETATM    7  C13 UNL     1       1.404   1.716  -1.180  1.00  0.00     0.190 C 
ENDROOT
BRANCH   1   8
HETATM    8  C4  UNL     1      -1.136   0.014  -1.593  1.00  0.00     0.182 C 
BRANCH   8   9
HETATM    9  C2  UNL     1      -1.920   0.337  -2.861  1.00  0.00     0.009 C 
HETATM   10  C1  UNL     1      -1.357   1.469  -3.630  1.00  0.00     0.012 C 
HETATM   11  C3  UNL     1      -2.149  -0.861  -3.731  1.00  0.00     0.012 C 
ENDBRANCH   8   9
BRANCH   8  12
HETATM   12  N1  UNL     1      -1.815  -1.133  -0.949  1.00  0.00    -0.323 N 
HETATM   13  C5  UNL     1      -2.424  -1.006   0.310  1.00  0.00     0.362 C 
HETATM   14  O1  UNL     1      -2.396   0.098   0.903  1.00  0.00    -0.238 OA
ATOM     15  H1  UNL     1      -1.841  -2.033  -1.429  1.00  0.00     0.165 HD
BRANCH  13  16
HETATM   16  O2  UNL     1      -3.074  -2.029   0.967  1.00  0.00    -0.294 OA
BRANCH  16  17
HETATM   17  C6  UNL     1      -3.659  -1.856   2.204  1.00  0.00     0.061 C 
HETATM   18  C7  UNL     1      -4.723  -0.795   2.131  1.00  0.00     0.046 C 
HETATM   19  C8  UNL     1      -4.373  -3.141   2.649  1.00  0.00     0.046 C 
HETATM   20  C9  UNL     1      -2.716  -1.497   3.319  1.00  0.00     0.046 C 
ENDBRANCH  16  17
ENDBRANCH  13  16
ENDBRANCH   8  12
ENDBRANCH   1   8
BRANCH   7  21
HETATM   21  C14 UNL     1       1.893   1.673   0.215  1.00  0.00     0.247 C 
HETATM   22  O4  UNL     1       1.889   2.810   0.811  1.00  0.00    -0.271 OA
HETATM   23  N3  UNL     1       2.324   0.499   0.840  1.00  0.00    -0.305 N 
ATOM     24  H3  UNL     1       1.734  -0.333   0.833  1.00  0.00     0.171 HD
BRANCH  23  25
HETATM   25  C15 UNL     1       3.487   0.475   1.432  1.00  0.00     0.154 A 
HETATM   26  N4  UNL     1       4.413   1.417   1.567  1.00  0.00    -0.324 N 
HETATM   27  C16 UNL     1       5.509   1.142   2.220  1.00  0.00     0.146 A 
ATOM     28  H4  UNL     1       4.270   2.344   1.166  1.00  0.00     0.169 HD
HETATM   29 CL1  UNL     1       6.822   2.339   2.460  1.00  0.00    -0.061 Cl
HETATM   30  C17 UNL     1       5.654  -0.112   2.739  1.00  0.00     0.185 A 
HETATM   31  S2  UNL     1       4.194  -0.861   2.264  1.00  0.00    -0.026 SA
BRANCH  30  32
HETATM   32  N5  UNL     1       6.759  -0.658   3.494  1.00  0.00    -0.105 N 
HETATM   33  O5  UNL     1       6.652  -1.846   3.861  1.00  0.00    -0.531 OA
HETATM   34  O6  UNL     1       7.828   0.123   3.759  1.00  0.00    -0.531 OA
ENDBRANCH  30  32
ENDBRANCH  23  25
ENDBRANCH   7  21
TORSDOF 8
