REMARK  9 active torsions:
REMARK  status: ('A' for Active; 'I' for Inactive)
REMARK    1  A    between atoms: C1_2  and  O2_3 
REMARK    2  A    between atoms: O2_3  and  C2_4 
REMARK    3  A    between atoms: C5_7  and  C6_8 
REMARK    4  A    between atoms: C6_8  and  O4_10 
REMARK    5  A    between atoms: O4_10  and  C7_11 
REMARK    6  A    between atoms: C10_14  and  N1_15 
REMARK       I    between atoms: N1_15  and  C11_17 
REMARK    7  A    between atoms: C11_17  and  C12_19 
REMARK       I    between atoms: C12_19  and  N2_21 
REMARK    8  A    between atoms: N2_21  and  C13_23 
REMARK    9  A    between atoms: C18_29  and  C19_30 
ROOT
HETATM    1  C7  UNL     1      -1.511   0.759   0.057  1.00  0.00     0.079 A 
HETATM    2  C8  UNL     1      -1.109   0.926  -1.248  1.00  0.00     0.039 A 
HETATM    3  C9  UNL     1       0.187   0.760  -1.665  1.00  0.00     0.032 A 
HETATM    4  C10 UNL     1       1.197   0.401  -0.756  1.00  0.00     0.035 A 
HETATM    5  C20 UNL     1       0.801   0.233   0.544  1.00  0.00     0.032 A 
HETATM    6  C21 UNL     1      -0.530   0.408   0.945  1.00  0.00     0.039 A 
ENDROOT
BRANCH   4   7
HETATM    7  N1  UNL     1       2.505   0.227  -1.245  1.00  0.00    -0.319 N 
HETATM    8  C11 UNL     1       3.661   0.178  -0.480  1.00  0.00     0.314 C 
HETATM    9  O5  UNL     1       3.712   0.286   0.773  1.00  0.00    -0.262 OA
ATOM     10  H1  UNL     1       2.613   0.128  -2.254  1.00  0.00     0.169 HD
BRANCH   8  11
HETATM   11  C12 UNL     1       4.959  -0.021  -1.199  1.00  0.00     0.314 C 
HETATM   12  O6  UNL     1       4.885  -0.124  -2.418  1.00  0.00    -0.262 OA
HETATM   13  N2  UNL     1       6.158  -0.080  -0.476  1.00  0.00    -0.318 N 
ATOM     14  H2  UNL     1       6.054   0.025   0.533  1.00  0.00     0.169 HD
BRANCH  13  15
HETATM   15  C13 UNL     1       7.468  -0.259  -0.913  1.00  0.00     0.052 A 
HETATM   16  C14 UNL     1       7.724  -0.625  -2.212  1.00  0.00     0.034 A 
HETATM   17  C15 UNL     1       9.022  -0.860  -2.679  1.00  0.00     0.044 A 
HETATM   18  C16 UNL     1      10.097  -0.731  -1.844  1.00  0.00     0.117 A 
HETATM   19  F1  UNL     1      11.365  -0.952  -2.265  1.00  0.00    -0.206 F 
HETATM   20  C17 UNL     1       9.841  -0.366  -0.551  1.00  0.00     0.063 A 
HETATM   21  C18 UNL     1       8.548  -0.123  -0.055  1.00  0.00     0.070 A 
BRANCH  21  22
HETATM   22  C19 UNL     1       8.458   0.291   1.328  1.00  0.00     0.211 C 
HETATM   23  O7  UNL     1       7.453   0.593   1.970  1.00  0.00    -0.644 OA
HETATM   24  O8  UNL     1       9.651   0.375   2.084  1.00  0.00    -0.644 OA
ENDBRANCH  21  22
ENDBRANCH  13  15
ENDBRANCH   8  11
ENDBRANCH   4   7
BRANCH   1  25
HETATM   25  O4  UNL     1      -2.837   0.945   0.400  1.00  0.00    -0.275 OA
BRANCH  25  26
HETATM   26  C6  UNL     1      -3.796  -0.091   0.371  1.00  0.00     0.299 C 
HETATM   27  O3  UNL     1      -3.300  -1.169   0.005  1.00  0.00    -0.259 OA
BRANCH  26  28
HETATM   28  C5  UNL     1      -5.170   0.195   0.748  1.00  0.00     0.051 A 
HETATM   29  C4  UNL     1      -5.458   1.491   1.202  1.00  0.00     0.021 A 
HETATM   30  C3  UNL     1      -6.704   1.891   1.596  1.00  0.00     0.039 A 
HETATM   31  C2  UNL     1      -7.718   0.992   1.547  1.00  0.00     0.089 A 
HETATM   32  C27 UNL     1      -7.472  -0.288   1.106  1.00  0.00     0.009 A 
HETATM   33  C22 UNL     1      -6.191  -0.695   0.702  1.00  0.00    -0.007 A 
HETATM   34  C26 UNL     1      -8.511  -1.183   1.060  1.00  0.00     0.015 A 
HETATM   35  C23 UNL     1      -5.966  -1.971   0.264  1.00  0.00     0.013 A 
HETATM   36  C24 UNL     1      -7.042  -2.859   0.228  1.00  0.00     0.001 A 
HETATM   37  C25 UNL     1      -8.296  -2.470   0.621  1.00  0.00     0.001 A 
BRANCH  31  38
HETATM   38  O2  UNL     1      -8.986   1.410   1.951  1.00  0.00    -0.285 OA
BRANCH  38  39
HETATM   39  C1  UNL     1      -9.853   1.946   1.022  1.00  0.00     0.403 C 
HETATM   40  O1  UNL     1      -9.509   2.060  -0.182  1.00  0.00    -0.276 OA
ENDBRANCH  38  39
ENDBRANCH  31  38
ENDBRANCH  26  28
ENDBRANCH  25  26
ENDBRANCH   1  25
TORSDOF 9
