REMARK  11 active torsions:
REMARK  status: ('A' for Active; 'I' for Inactive)
REMARK    1  A    between atoms: C1_2  and  C2_3 
REMARK       I    between atoms: C1_2  and  N1_17 
REMARK    2  A    between atoms: C2_3  and  O2_4 
REMARK    3  A    between atoms: O2_4  and  C3_5 
REMARK    4  A    between atoms: C3_5  and  C4_7 
REMARK    5  A    between atoms: N1_17  and  C12_19 
REMARK    6  A    between atoms: C15_22  and  N2_23 
REMARK    7  A    between atoms: N2_23  and  C16_25 
REMARK    8  A    between atoms: C16_25  and  O5_26 
REMARK    9  A    between atoms: C16_25  and  N3_28 
REMARK   10  A    between atoms: N3_28  and  S1_29 
REMARK   11  A    between atoms: S1_29  and  C17_32 
ROOT
HETATM    1  C12 UNL     1      -0.473  -1.297  -0.860  1.00  0.00     0.035 A 
HETATM    2  C13 UNL     1       0.373  -1.503   0.168  1.00  0.00     0.032 A 
HETATM    3  C14 UNL     1       1.634  -0.907   0.100  1.00  0.00     0.032 A 
HETATM    4  C15 UNL     1       2.064  -0.109  -0.994  1.00  0.00     0.036 A 
HETATM    5  C23 UNL     1       1.188   0.055  -2.053  1.00  0.00     0.032 A 
HETATM    6  C24 UNL     1      -0.045  -0.505  -2.019  1.00  0.00     0.032 A 
ENDROOT
BRANCH   1   7
HETATM    7  N1  UNL     1      -1.848  -1.186  -0.665  1.00  0.00    -0.315 N 
HETATM    8  C1  UNL     1      -2.511  -1.324   0.643  1.00  0.00     0.317 C 
HETATM    9  O1  UNL     1      -2.012  -1.718   1.673  1.00  0.00    -0.256 OA
ATOM     10  H1  UNL     1      -2.432  -0.997  -1.479  1.00  0.00     0.170 HD
BRANCH   8  11
HETATM   11  C2  UNL     1      -3.834  -0.853   0.485  1.00  0.00     0.086 C 
BRANCH  11  12
HETATM   12  O2  UNL     1      -5.049  -0.448   0.757  1.00  0.00    -0.225 OA
BRANCH  12  13
HETATM   13  C3  UNL     1      -5.472   0.589   1.603  1.00  0.00     0.309 C 
HETATM   14  O3  UNL     1      -4.714   1.114   2.391  1.00  0.00    -0.258 OA
BRANCH  13  15
HETATM   15  C4  UNL     1      -6.869   1.033   1.439  1.00  0.00     0.075 A 
HETATM   16  C5  UNL     1      -7.379   2.322   1.688  1.00  0.00     0.161 A 
HETATM   17  O4  UNL     1      -8.537   2.419   1.100  1.00  0.00    -0.321 OA
HETATM   18  C6  UNL     1      -8.900   1.318   0.460  1.00  0.00     0.086 A 
HETATM   19  C7  UNL     1      -9.993   0.981  -0.283  1.00  0.00     0.040 A 
HETATM   20  C11 UNL     1      -7.869   0.427   0.682  1.00  0.00     0.018 A 
HETATM   21  C8  UNL     1     -10.080  -0.271  -0.837  1.00  0.00     0.026 A 
HETATM   22  C9  UNL     1      -9.061  -1.194  -0.643  1.00  0.00     0.035 A 
HETATM   23 CL1  UNL     1      -9.215  -2.756  -1.341  1.00  0.00    -0.084 Cl
HETATM   24  C10 UNL     1      -7.935  -0.835   0.135  1.00  0.00     0.039 A 
ENDBRANCH  13  15
ENDBRANCH  12  13
ENDBRANCH  11  12
ENDBRANCH   8  11
ENDBRANCH   1   7
BRANCH   4  25
HETATM   25  N2  UNL     1       3.135   0.750  -0.682  1.00  0.00    -0.310 N 
ATOM     26  H2  UNL     1       3.028   1.750  -0.850  1.00  0.00     0.170 HD
BRANCH  25  27
HETATM   27  C16 UNL     1       4.346   0.279  -0.148  1.00  0.00     0.310 C 
BRANCH  27  28
HETATM   28  O5  UNL     1       4.437  -1.036  -0.111  1.00  0.00    -0.321 OA
ATOM     29  H5  UNL     1       5.256  -1.355   0.250  1.00  0.00     0.222 HD
ENDBRANCH  27  28
BRANCH  27  30
HETATM   30  N3  UNL     1       5.345   1.003   0.304  1.00  0.00    -0.275 NA
BRANCH  30  31
HETATM   31  S1  UNL     1       6.626   1.924   0.885  1.00  0.00     0.328 S 
HETATM   32  O6  UNL     1       6.537   1.887   2.443  1.00  0.00    -0.186 OA
HETATM   33  O7  UNL     1       6.706   3.342   0.476  1.00  0.00    -0.186 OA
BRANCH  31  34
HETATM   34  C17 UNL     1       8.149   1.110   0.419  1.00  0.00     0.092 A 
HETATM   35  C18 UNL     1       8.996   0.558   1.330  1.00  0.00     0.026 A 
HETATM   36  C19 UNL     1      10.064  -0.202   0.872  1.00  0.00     0.002 A 
HETATM   37  C20 UNL     1      10.241  -0.367  -0.490  1.00  0.00     0.000 A 
HETATM   38  C21 UNL     1       9.396   0.188  -1.421  1.00  0.00     0.002 A 
HETATM   39  C22 UNL     1       8.334   0.938  -0.930  1.00  0.00     0.026 A 
ENDBRANCH  31  34
ENDBRANCH  30  31
ENDBRANCH  27  30
ENDBRANCH  25  27
ENDBRANCH   4  25
TORSDOF 11
