REMARK  11 active torsions:
REMARK  status: ('A' for Active; 'I' for Inactive)
REMARK    1  A    between atoms: O1_2  and  C2_3 
REMARK    2  A    between atoms: C2_3  and  C3_4 
REMARK    3  A    between atoms: C2_3  and  C9_10 
REMARK    4  A    between atoms: C10_11  and  C11_12 
REMARK    5  A    between atoms: C11_12  and  O2_13 
REMARK    6  A    between atoms: C11_12  and  C12_15 
REMARK    7  A    between atoms: C20_23  and  S1_24 
REMARK    8  A    between atoms: S1_24  and  C21_27 
REMARK    9  A    between atoms: C21_27  and  C22_28 
REMARK   10  A    between atoms: C22_28  and  O5_29 
REMARK   11  A    between atoms: N1_31  and  O6_33 
ROOT
HETATM    1  C9  UNL     1      -1.271  -0.680  -0.454  1.00  0.00     0.047 A 
HETATM    2  C10 UNL     1      -1.524   0.204   0.547  1.00  0.00    -0.009 A 
HETATM    3  C18 UNL     1      -0.404   0.775   1.151  1.00  0.00     0.013 A 
HETATM    4  C19 UNL     1       0.897   0.479   0.774  1.00  0.00     0.027 A 
HETATM    5  C20 UNL     1       1.151  -0.394  -0.217  1.00  0.00     0.100 A 
HETATM    6  C27 UNL     1       0.022  -0.970  -0.825  1.00  0.00     0.151 A 
HETATM    7  F1  UNL     1       0.265  -1.859  -1.832  1.00  0.00    -0.203 F 
ENDROOT
BRANCH   5   8
HETATM    8  S1  UNL     1       2.736  -0.858  -0.756  1.00  0.00     0.195 S 
HETATM    9  O3  UNL     1       2.819  -0.667  -2.264  1.00  0.00    -0.221 OA
HETATM   10  O4  UNL     1       2.878  -2.379  -0.572  1.00  0.00    -0.221 OA
BRANCH   8  11
HETATM   11  C21 UNL     1       4.087  -0.050  -0.028  1.00  0.00     0.138 C 
HETATM   12  C23 UNL     1       4.172   1.416  -0.335  1.00  0.00     0.060 C 
HETATM   13  C24 UNL     1       4.711   1.741  -1.690  1.00  0.00     0.169 C 
HETATM   14  O7  UNL     1       5.972   1.215  -1.835  1.00  0.00    -0.391 OA
HETATM   15  C25 UNL     1       5.840  -0.175  -1.845  1.00  0.00     0.169 C 
HETATM   16  C26 UNL     1       5.382  -0.700  -0.527  1.00  0.00     0.060 C 
BRANCH  11  17
HETATM   17  C22 UNL     1       4.172  -0.200   1.464  1.00  0.00     0.160 C 
HETATM   18  N1  UNL     1       4.466   0.765   2.257  1.00  0.00    -0.250 N 
ATOM     19  H1  UNL     1       4.657   1.692   1.877  1.00  0.00     0.196 HD
BRANCH  17  20
HETATM   20  O5  UNL     1       3.922  -1.450   1.994  1.00  0.00    -0.347 OA
ATOM     21  H5  UNL     1       3.976  -1.545   2.938  1.00  0.00     0.219 HD
ENDBRANCH  17  20
BRANCH  18  22
HETATM   22  O6  UNL     1       4.525   0.561   3.603  1.00  0.00    -0.288 OA
ATOM     23  H6  UNL     1       4.743   1.275   4.190  1.00  0.00     0.244 HD
ENDBRANCH  18  22
ENDBRANCH  11  17
ENDBRANCH   8  11
ENDBRANCH   5   8
BRANCH   1  24
HETATM   24  C2  UNL     1      -2.397  -1.356  -1.127  1.00  0.00     0.092 C 
BRANCH  24  25
HETATM   25  O1  UNL     1      -3.250  -0.549  -1.806  1.00  0.00    -0.354 OA
HETATM   26  C1  UNL     1      -3.251  -0.618  -3.170  1.00  0.00     0.210 C 
ENDBRANCH  24  25
BRANCH  24  27
HETATM   27  C3  UNL     1      -2.966  -2.477  -0.364  1.00  0.00    -0.002 A 
HETATM   28  C4  UNL     1      -2.407  -2.880   0.818  1.00  0.00     0.014 A 
HETATM   29  C5  UNL     1      -2.958  -3.940   1.521  1.00  0.00     0.001 A 
HETATM   30  C6  UNL     1      -4.074  -4.591   1.025  1.00  0.00     0.000 A 
HETATM   31  C7  UNL     1      -4.629  -4.185  -0.157  1.00  0.00     0.001 A 
HETATM   32  C8  UNL     1      -4.063  -3.124  -0.843  1.00  0.00     0.014 A 
ENDBRANCH  24  27
ENDBRANCH   1  24
BRANCH   2  33
HETATM   33  C11 UNL     1      -2.779   0.661   1.091  1.00  0.00     0.185 C 
BRANCH  33  34
HETATM   34  O2  UNL     1      -3.966   0.277   0.681  1.00  0.00    -0.386 OA
ATOM     35  H2  UNL     1      -4.793   0.578   1.039  1.00  0.00     0.210 HD
ENDBRANCH  33  34
BRANCH  33  36
HETATM   36  C12 UNL     1      -2.786   2.174   0.999  1.00  0.00    -0.025 A 
HETATM   37  C13 UNL     1      -3.087   2.818  -0.205  1.00  0.00     0.010 A 
HETATM   38  C14 UNL     1      -3.135   4.187  -0.327  1.00  0.00     0.001 A 
HETATM   39  C15 UNL     1      -2.879   4.955   0.769  1.00  0.00     0.000 A 
HETATM   40  C16 UNL     1      -2.577   4.377   1.982  1.00  0.00     0.001 A 
HETATM   41  C17 UNL     1      -2.542   3.003   2.052  1.00  0.00     0.010 A 
ENDBRANCH  33  36
ENDBRANCH   2  33
TORSDOF 11
