REMARK  15 active torsions:
REMARK  status: ('A' for Active; 'I' for Inactive)
REMARK    1  A    between atoms: O1_2  and  C2_3 
REMARK    2  A    between atoms: C4_5  and  N1_6 
REMARK    3  A    between atoms: N1_6  and  C5_8 
REMARK    4  A    between atoms: C8_13  and  N3_14 
REMARK    5  A    between atoms: N3_14  and  C9_16 
REMARK    6  A    between atoms: C9_16  and  C10_17 
REMARK    7  A    between atoms: C10_17  and  C11_18 
REMARK    8  A    between atoms: C11_18  and  N4_19 
REMARK    9  A    between atoms: C17_28  and  O2_29 
REMARK   10  A    between atoms: C19_31  and  O3_32 
REMARK   11  A    between atoms: O3_32  and  C20_33 
REMARK   12  A    between atoms: C25_39  and  O5_40 
REMARK   13  A    between atoms: O5_40  and  C26_41 
REMARK   14  A    between atoms: C26_41  and  C27_42 
REMARK   15  A    between atoms: C27_42  and  N7_43 
ROOT
HETATM    1  C2  UNL     1      -2.992   0.607  -2.000  1.00  0.00     0.106 A 
HETATM    2  C3  UNL     1      -1.663   0.760  -1.740  1.00  0.00     0.072 A 
HETATM    3  C4  UNL     1      -0.969  -0.110  -0.944  1.00  0.00     0.088 A 
HETATM    4  C17 UNL     1      -1.680  -1.169  -0.405  1.00  0.00     0.132 A 
HETATM    5  C19 UNL     1      -3.040  -1.382  -0.629  1.00  0.00     0.141 A 
HETATM    6  C25 UNL     1      -3.694  -0.481  -1.434  1.00  0.00     0.138 A 
ENDROOT
BRANCH   3   7
HETATM    7  N1  UNL     1       0.417   0.091  -0.682  1.00  0.00    -0.189 N 
ATOM      8  H1  UNL     1       0.682   0.372   0.262  1.00  0.00     0.184 HD
BRANCH   7   9
HETATM    9  C5  UNL     1       1.358  -0.055  -1.543  1.00  0.00     0.684 A 
HETATM   10  N2  UNL     1       1.160  -0.422  -2.823  1.00  0.00    -0.202 N 
HETATM   11  C6  UNL     1       2.176  -0.564  -3.707  1.00  0.00     0.110 A 
ATOM     12  H2  UNL     1       0.207  -0.600  -3.140  1.00  0.00     0.183 HD
HETATM   13  C7  UNL     1       3.482  -0.334  -3.320  1.00  0.00     0.066 A 
HETATM   14  C8  UNL     1       3.681   0.046  -1.994  1.00  0.00     0.118 A 
HETATM   15  N6  UNL     1       2.635   0.172  -1.160  1.00  0.00    -0.177 N 
ATOM     16  H6  UNL     1       2.812   0.451  -0.195  1.00  0.00     0.186 HD
BRANCH  14  17
HETATM   17  N3  UNL     1       4.900   0.274  -1.588  1.00  0.00    -0.376 N 
ATOM     18  H3  UNL     1       5.693   0.179  -2.222  1.00  0.00     0.161 HD
BRANCH  17  19
HETATM   19  C9  UNL     1       5.087   0.661  -0.228  1.00  0.00     0.123 C 
BRANCH  19  20
HETATM   20  C10 UNL     1       6.522   0.744   0.213  1.00  0.00     0.050 C 
BRANCH  20  21
HETATM   21  C11 UNL     1       7.239  -0.574   0.087  1.00  0.00     0.274 C 
BRANCH  21  22
HETATM   22  N4  UNL     1       8.602  -0.531   0.501  1.00  0.00     0.091 N 
HETATM   23  C12 UNL     1       9.371   0.258  -0.397  1.00  0.00     0.302 C 
HETATM   24  C13 UNL     1      10.826   0.376   0.014  1.00  0.00     0.302 C 
HETATM   25  N5  UNL     1      10.835   0.996   1.319  1.00  0.00     0.087 N 
HETATM   26  C14 UNL     1      10.375   2.349   1.327  1.00  0.00     0.310 C 
HETATM   27  C15 UNL     1      10.200   0.129   2.253  1.00  0.00     0.302 C 
HETATM   28  C16 UNL     1       8.831  -0.338   1.882  1.00  0.00     0.302 C 
ENDBRANCH  21  22
ENDBRANCH  20  21
ENDBRANCH  19  20
ENDBRANCH  17  19
ENDBRANCH  14  17
ENDBRANCH   7   9
ENDBRANCH   3   7
BRANCH   4  29
HETATM   29  O2  UNL     1      -0.892  -2.014   0.396  1.00  0.00    -0.351 OA
HETATM   30  C18 UNL     1      -0.152  -3.069  -0.214  1.00  0.00     0.210 C 
ENDBRANCH   4  29
BRANCH   1  31
HETATM   31  O1  UNL     1      -3.662   1.527  -2.831  1.00  0.00    -0.353 OA
HETATM   32  C1  UNL     1      -2.957   2.597  -3.385  1.00  0.00     0.210 C 
ENDBRANCH   1  31
BRANCH   5  33
HETATM   33  O3  UNL     1      -3.653  -2.441  -0.074  1.00  0.00    -0.333 OA
BRANCH  33  34
HETATM   34  C20 UNL     1      -4.033  -2.829   1.175  1.00  0.00     0.198 C 
HETATM   35  C21 UNL     1      -3.518  -4.295   1.364  1.00  0.00     0.041 C 
HETATM   36  C22 UNL     1      -4.431  -5.041   0.398  1.00  0.00     0.010 C 
HETATM   37  C23 UNL     1      -5.771  -4.334   0.581  1.00  0.00     0.081 C 
HETATM   38  C24 UNL     1      -5.480  -3.137   1.406  1.00  0.00     0.156 C 
HETATM   39  O4  UNL     1      -6.231  -2.543   2.109  1.00  0.00    -0.295 OA
ENDBRANCH  33  34
ENDBRANCH   5  33
BRANCH   6  40
HETATM   40  O5  UNL     1      -5.020  -0.512  -1.787  1.00  0.00    -0.344 OA
BRANCH  40  41
HETATM   41  C26 UNL     1      -5.993   0.386  -1.422  1.00  0.00     0.195 C 
BRANCH  41  42
HETATM   42  C27 UNL     1      -6.191   0.488   0.045  1.00  0.00     0.143 C 
BRANCH  42  43
HETATM   43  N7  UNL     1      -7.189   1.439   0.453  1.00  0.00    -0.410 N 
HETATM   44  C28 UNL     1      -7.323   1.539   1.863  1.00  0.00     0.117 C 
HETATM   45  C29 UNL     1      -7.588   2.956   2.332  1.00  0.00     0.019 C 
HETATM   46  C30 UNL     1      -8.624   3.666   1.506  1.00  0.00     0.003 C 
HETATM   47  C31 UNL     1      -8.667   3.259   0.069  1.00  0.00     0.019 C 
HETATM   48  C32 UNL     1      -7.331   2.615  -0.310  1.00  0.00     0.117 C 
ENDBRANCH  42  43
ENDBRANCH  41  42
ENDBRANCH  40  41
ENDBRANCH   6  40
TORSDOF 15
