REMARK  14 active torsions:
REMARK  status: ('A' for Active; 'I' for Inactive)
REMARK    1  A    between atoms: C2_2  and  C3_3 
REMARK    2  A    between atoms: C3_3  and  C4_4 
REMARK    3  A    between atoms: N2_7  and  C5_8 
REMARK    4  A    between atoms: C5_8  and  C6_9 
REMARK       I    between atoms: N3_12  and  C9_13 
REMARK    5  A    between atoms: C9_13  and  O2_15 
REMARK    6  A    between atoms: O2_15  and  C10_16 
REMARK    7  A    between atoms: N4_24  and  C17_25 
REMARK    8  A    between atoms: C20_28  and  C21_29 
REMARK       I    between atoms: C21_29  and  N5_31 
REMARK    9  A    between atoms: N5_31  and  C22_33 
REMARK   10  A    between atoms: C22_33  and  C23_34 
REMARK   11  A    between atoms: C23_34  and  C24_35 
REMARK   12  A    between atoms: C24_35  and  S1_36 
REMARK   13  A    between atoms: S1_36  and  N6_39 
REMARK   14  A    between atoms: N6_39  and  C25_41 
ROOT
HETATM    1  C4  UNL     1       1.282  -2.077  -1.848  1.00  0.00     0.102 A 
HETATM    2  N1  UNL     1       2.584  -2.037  -2.211  1.00  0.00    -0.282 N 
ATOM      3  H1  UNL     1       3.194  -2.852  -2.271  1.00  0.00     0.188 HD
HETATM    4  N2  UNL     1       2.958  -0.799  -2.477  1.00  0.00    -0.241 N 
HETATM    5  C16 UNL     1       1.872  -0.062  -2.276  1.00  0.00     0.345 A 
HETATM    6  O3  UNL     1       1.873   1.207  -2.442  1.00  0.00    -0.245 OA
HETATM    7  N4  UNL     1       0.818  -0.808  -1.888  1.00  0.00    -0.282 N 
ENDROOT
BRANCH   7   8
HETATM    8  C17 UNL     1      -0.506  -0.292  -1.616  1.00  0.00     0.096 C 
HETATM    9  C18 UNL     1      -1.454  -0.601  -2.764  1.00  0.00     0.027 C 
HETATM   10  C19 UNL     1      -2.835  -0.113  -2.291  1.00  0.00     0.016 C 
HETATM   11  C20 UNL     1      -3.259  -1.171  -1.279  1.00  0.00     0.078 C 
HETATM   12  C28 UNL     1      -2.292  -1.312  -0.166  1.00  0.00     0.016 C 
HETATM   13  C29 UNL     1      -1.031  -0.509  -0.257  1.00  0.00     0.027 C 
BRANCH  11  14
HETATM   14  C21 UNL     1      -4.653  -0.994  -0.835  1.00  0.00     0.221 C 
HETATM   15  O4  UNL     1      -5.505  -1.889  -1.046  1.00  0.00    -0.273 OA
HETATM   16  N5  UNL     1      -5.052   0.183  -0.168  1.00  0.00    -0.361 N 
ATOM     17  H5  UNL     1      -4.345   0.897   0.005  1.00  0.00     0.162 HD
BRANCH  16  18
HETATM   18  C22 UNL     1      -6.423   0.446   0.294  1.00  0.00     0.123 C 
BRANCH  18  19
HETATM   19  C23 UNL     1      -7.384   0.503  -0.833  1.00  0.00     0.036 C 
BRANCH  19  20
HETATM   20  C24 UNL     1      -8.823   0.709  -0.516  1.00  0.00     0.165 C 
BRANCH  20  21
HETATM   21  S1  UNL     1      -9.167   2.200   0.335  1.00  0.00     0.226 S 
HETATM   22  O5  UNL     1      -8.708   3.398  -0.490  1.00  0.00    -0.206 OA
HETATM   23  O6  UNL     1     -10.674   2.369   0.430  1.00  0.00    -0.206 OA
BRANCH  21  24
HETATM   24  N6  UNL     1      -8.437   2.299   1.867  1.00  0.00    -0.315 N 
ATOM     25  H6  UNL     1      -7.753   3.009   2.129  1.00  0.00     0.172 HD
BRANCH  24  26
HETATM   26  C25 UNL     1      -8.902   1.256   2.754  1.00  0.00     0.093 A 
HETATM   27  C26 UNL     1      -9.364   1.779   4.135  1.00  0.00     0.028 A 
HETATM   28  C27 UNL     1      -8.217   0.876   3.991  1.00  0.00     0.028 A 
ENDBRANCH  24  26
ENDBRANCH  21  24
ENDBRANCH  20  21
ENDBRANCH  19  20
ENDBRANCH  18  19
ENDBRANCH  16  18
ENDBRANCH  11  14
ENDBRANCH   7   8
BRANCH   1  29
HETATM   29  C3  UNL     1       0.493  -3.279  -1.463  1.00  0.00     0.078 C 
BRANCH  29  30
HETATM   30  C2  UNL     1       1.435  -4.482  -1.522  1.00  0.00     0.003 C 
HETATM   31  C1  UNL     1       2.597  -4.307  -0.566  1.00  0.00     0.005 C 
ENDBRANCH  29  30
ENDBRANCH   1  29
BRANCH   4  32
HETATM   32  C5  UNL     1       4.240  -0.315  -2.909  1.00  0.00     0.158 C 
BRANCH  32  33
HETATM   33  C6  UNL     1       5.139   0.050  -1.767  1.00  0.00     0.009 C 
HETATM   34  C7  UNL     1       5.388  -1.138  -0.907  1.00  0.00     0.026 C 
HETATM   35  C8  UNL     1       6.244  -0.805   0.315  1.00  0.00     0.128 C 
HETATM   36  N3  UNL     1       7.086   0.334  -0.082  1.00  0.00    -0.328 N 
HETATM   37  C9  UNL     1       7.393   1.366   0.813  1.00  0.00     0.363 C 
HETATM   38  C14 UNL     1       7.562   0.296  -1.441  1.00  0.00     0.128 C 
HETATM   39  O1  UNL     1       8.107   2.333   0.465  1.00  0.00    -0.238 OA
HETATM   40  C15 UNL     1       6.416   0.584  -2.365  1.00  0.00     0.026 C 
BRANCH  37  41
HETATM   41  O2  UNL     1       6.909   1.321   2.088  1.00  0.00    -0.293 OA
BRANCH  41  42
HETATM   42  C10 UNL     1       7.122   2.270   3.106  1.00  0.00     0.069 A 
HETATM   43  C11 UNL     1       8.588   2.466   3.464  1.00  0.00     0.047 C 
HETATM   44  C12 UNL     1       6.116   2.205   4.213  1.00  0.00     0.041 A 
HETATM   45  C13 UNL     1       6.147   3.357   3.242  1.00  0.00     0.041 A 
ENDBRANCH  41  42
ENDBRANCH  37  41
ENDBRANCH  32  33
ENDBRANCH   4  32
TORSDOF 14
