REMARK  21 active torsions:
REMARK  status: ('A' for Active; 'I' for Inactive)
REMARK    1  A    between atoms: C2_2  and  C4_4 
REMARK    2  A    between atoms: C4_4  and  C5_5 
REMARK    3  A    between atoms: C7_7  and  C8_8 
REMARK    4  A    between atoms: C11_11  and  O1_12 
REMARK    5  A    between atoms: O1_12  and  C12_13 
REMARK    6  A    between atoms: C14_16  and  C15_17 
REMARK    7  A    between atoms: C15_17  and  O3_18 
REMARK    8  A    between atoms: C15_17  and  N1_20 
REMARK    9  A    between atoms: N2_23  and  C18_24 
REMARK   10  A    between atoms: C18_24  and  O4_25 
REMARK   11  A    between atoms: C18_24  and  C19_27 
REMARK   12  A    between atoms: C19_27  and  C20_28 
REMARK   13  A    between atoms: C20_28  and  C21_29 
REMARK   14  A    between atoms: C21_29  and  C22_30 
REMARK   15  A    between atoms: C22_30  and  C23_31 
REMARK   16  A    between atoms: C23_31  and  C24_32 
REMARK   17  A    between atoms: C24_32  and  C25_33 
REMARK   18  A    between atoms: C25_33  and  C26_34 
REMARK   19  A    between atoms: C31_39  and  O5_40 
REMARK   20  A    between atoms: C31_39  and  C32_42 
REMARK   21  A    between atoms: C32_42  and  O6_43 
ROOT
HETATM    1  C8  UNL     1      -5.149  -1.588   0.724  1.00  0.00     0.065 C 
HETATM    2  C9  UNL     1      -4.616  -0.557   1.664  1.00  0.00     0.040 C 
HETATM    3  C10 UNL     1      -3.674   0.327   0.873  1.00  0.00     0.113 C 
HETATM    4  C11 UNL     1      -2.217  -0.037   1.163  1.00  0.00     0.166 C 
HETATM    5  C14 UNL     1      -1.395   0.938   0.304  1.00  0.00     0.096 C 
HETATM    6  C30 UNL     1      -1.653   0.524  -1.117  1.00  0.00     0.078 C 
HETATM    7  C31 UNL     1      -3.126   0.533  -1.457  1.00  0.00     0.152 C 
HETATM    8  N3  UNL     1      -4.008   0.055  -0.479  1.00  0.00    -0.373 N 
HETATM    9  C33 UNL     1      -4.556  -1.239  -0.626  1.00  0.00     0.132 C 
ENDROOT
BRANCH   5  10
HETATM   10  C15 UNL     1      -0.003   0.961   0.717  1.00  0.00     0.120 C 
BRANCH  10  11
HETATM   11  O3  UNL     1       0.232   0.285   1.812  1.00  0.00    -0.349 OA
ATOM     12  H3  UNL     1       1.143   0.300   2.082  1.00  0.00     0.219 HD
ENDBRANCH  10  11
BRANCH  10  13
HETATM   13  N1  UNL     1       1.110   1.582   0.143  1.00  0.00    -0.362 N 
HETATM   14  C16 UNL     1       2.421   1.480   0.798  1.00  0.00     0.144 C 
HETATM   15  C17 UNL     1       3.453   1.069  -0.261  1.00  0.00     0.145 C 
HETATM   16  N2  UNL     1       3.459   1.959  -1.386  1.00  0.00    -0.359 N 
HETATM   17  C28 UNL     1       2.425   3.040  -1.293  1.00  0.00     0.145 C 
HETATM   18  C29 UNL     1       1.086   2.336  -1.068  1.00  0.00     0.144 C 
BRANCH  16  19
HETATM   19  C18 UNL     1       4.286   1.914  -2.507  1.00  0.00     0.137 C 
BRANCH  19  20
HETATM   20  O4  UNL     1       4.093   2.864  -3.403  1.00  0.00    -0.346 OA
ATOM     21  H4  UNL     1       4.657   2.833  -4.167  1.00  0.00     0.219 HD
ENDBRANCH  19  20
BRANCH  19  22
HETATM   22  C19 UNL     1       5.319   1.007  -2.858  1.00  0.00     0.052 C 
BRANCH  22  23
HETATM   23  C20 UNL     1       5.764  -0.042  -2.209  1.00  0.00    -0.022 C 
BRANCH  23  24
HETATM   24  C21 UNL     1       6.890  -0.849  -2.809  1.00  0.00     0.027 C 
BRANCH  24  25
HETATM   25  C22 UNL     1       8.038  -0.800  -1.826  1.00  0.00     0.004 C 
BRANCH  25  26
HETATM   26  C23 UNL     1       7.685  -1.373  -0.497  1.00  0.00     0.000 C 
BRANCH  26  27
HETATM   27  C24 UNL     1       8.864  -1.308   0.438  1.00  0.00     0.000 C 
BRANCH  27  28
HETATM   28  C25 UNL     1       9.317   0.102   0.650  1.00  0.00    -0.000 C 
BRANCH  28  29
HETATM   29  C26 UNL     1      10.500   0.145   1.618  1.00  0.00    -0.005 C 
HETATM   30  C27 UNL     1      10.122  -0.429   2.958  1.00  0.00     0.005 C 
ENDBRANCH  28  29
ENDBRANCH  27  28
ENDBRANCH  26  27
ENDBRANCH  25  26
ENDBRANCH  24  25
ENDBRANCH  23  24
ENDBRANCH  22  23
ENDBRANCH  19  22
ENDBRANCH  16  19
ENDBRANCH  10  13
ENDBRANCH   5  10
BRANCH   4  31
HETATM   31  O1  UNL     1      -2.032  -1.314   0.620  1.00  0.00    -0.313 OA
BRANCH  31  32
HETATM   32  C12 UNL     1      -1.703  -2.459   1.288  1.00  0.00     0.255 C 
HETATM   33  C13 UNL     1      -1.556  -3.703   0.471  1.00  0.00     0.126 C 
HETATM   34  O2  UNL     1      -1.541  -2.433   2.518  1.00  0.00    -0.266 OA
ENDBRANCH  31  32
ENDBRANCH   4  31
BRANCH   7  35
HETATM   35  O5  UNL     1      -3.470   1.886  -1.711  1.00  0.00    -0.369 OA
ATOM     36  H5  UNL     1      -4.396   1.892  -1.925  1.00  0.00     0.212 HD
ENDBRANCH   7  35
BRANCH   7  37
HETATM   37  C32 UNL     1      -3.279  -0.157  -2.792  1.00  0.00     0.224 C 
BRANCH  37  38
HETATM   38  O6  UNL     1      -4.564   0.038  -3.261  1.00  0.00    -0.396 OA
ATOM     39  H6  UNL     1      -4.660  -0.396  -4.101  1.00  0.00     0.209 HD
ENDBRANCH  37  38
ENDBRANCH   7  37
BRANCH   1  40
HETATM   40  C7  UNL     1      -6.650  -1.569   0.672  1.00  0.00     0.084 A 
HETATM   41  C6  UNL     1      -7.413  -0.445   0.438  1.00  0.00     0.062 A 
HETATM   42  C5  UNL     1      -8.741  -0.845   0.470  1.00  0.00     0.039 A 
HETATM   43  N4  UNL     1      -8.700  -2.165   0.717  1.00  0.00    -0.265 N 
HETATM   44  O7  UNL     1      -7.474  -2.568   0.832  1.00  0.00    -0.242 OA
ATOM     45  H4  UNL     1      -9.520  -2.766   0.802  1.00  0.00     0.194 HD
BRANCH  42  46
HETATM   46  C4  UNL     1      -9.907   0.058   0.269  1.00  0.00     0.092 C 
BRANCH  46  47
HETATM   47  C2  UNL     1     -10.318   0.561   1.613  1.00  0.00    -0.087 C 
HETATM   48  C1  UNL     1     -11.535   0.319   2.046  1.00  0.00     0.014 C 
HETATM   49  C3  UNL     1      -9.373   1.328   2.483  1.00  0.00     0.043 C 
ENDBRANCH  46  47
ENDBRANCH  42  46
ENDBRANCH   1  40
TORSDOF 21
