REMARK  14 active torsions:
REMARK  status: ('A' for Active; 'I' for Inactive)
REMARK    1  A    between atoms: C2_2  and  C3_3 
REMARK    2  A    between atoms: C3_3  and  C4_4 
REMARK    3  A    between atoms: C4_4  and  N1_5 
REMARK    4  A    between atoms: N2_11  and  C9_12 
REMARK    5  A    between atoms: N3_15  and  C12_16 
REMARK    6  A    between atoms: C15_21  and  N5_22 
REMARK    7  A    between atoms: N5_22  and  C16_23 
REMARK    8  A    between atoms: N5_22  and  C18_27 
REMARK    9  A    between atoms: C16_23  and  C17_24 
REMARK   10  A    between atoms: C17_24  and  O2_25 
REMARK   11  A    between atoms: C18_27  and  C19_28 
REMARK   12  A    between atoms: C19_28  and  C20_29 
REMARK   13  A    between atoms: C20_29  and  N6_30 
REMARK   14  A    between atoms: C23_33  and  N7_34 
ROOT
HETATM    1  C12 UNL     1       0.417   0.009   0.634  1.00  0.00     0.682 A 
HETATM    2  N4  UNL     1      -0.575   0.884   0.399  1.00  0.00    -0.188 N 
ATOM      3  H4  UNL     1      -0.431   1.860   0.141  1.00  0.00     0.184 HD
HETATM    4  C13 UNL     1      -1.795   0.302   0.549  1.00  0.00     0.096 A 
HETATM    5  C14 UNL     1      -3.073   0.753   0.425  1.00  0.00     0.067 A 
HETATM    6  C15 UNL     1      -4.156  -0.118   0.650  1.00  0.00     0.077 A 
HETATM    7  C23 UNL     1      -3.899  -1.414   0.992  1.00  0.00     0.132 A 
HETATM    8  N8  UNL     1      -2.584  -1.803   1.100  1.00  0.00    -0.325 N 
ATOM      9  H8  UNL     1      -2.399  -2.773   1.356  1.00  0.00     0.169 HD
HETATM   10  C29 UNL     1      -1.538  -1.013   0.896  1.00  0.00     0.150 A 
HETATM   11  N9  UNL     1      -0.206  -1.141   0.935  1.00  0.00    -0.174 N 
ATOM     12  H9  UNL     1       0.278  -2.009   1.166  1.00  0.00     0.186 HD
ENDROOT
BRANCH   1  13
HETATM   13  N3  UNL     1       1.828   0.253   0.572  1.00  0.00    -0.217 N 
HETATM   14  C11 UNL     1       2.706  -0.843   0.900  1.00  0.00     0.143 C 
HETATM   15  C10 UNL     1       4.146  -0.367   0.929  1.00  0.00     0.046 C 
HETATM   16  C9  UNL     1       4.347   0.378  -0.386  1.00  0.00     0.100 C 
HETATM   17  C31 UNL     1       3.658   1.685  -0.306  1.00  0.00     0.046 C 
HETATM   18  C30 UNL     1       2.260   1.556   0.190  1.00  0.00     0.143 C 
BRANCH  16  19
HETATM   19  N2  UNL     1       5.731   0.401  -0.669  1.00  0.00    -0.265 N 
HETATM   20  C8  UNL     1       6.209  -0.304  -1.826  1.00  0.00     0.233 C 
HETATM   21  C6  UNL     1       7.619  -0.841  -1.787  1.00  0.00     0.092 C 
HETATM   22  O1  UNL     1       5.513  -0.486  -2.848  1.00  0.00    -0.272 OA
HETATM   23  C5  UNL     1       8.528   0.336  -1.542  1.00  0.00     0.141 C 
HETATM   24  C7  UNL     1       7.951  -1.513  -3.086  1.00  0.00     0.021 C 
HETATM   25  N1  UNL     1       8.081   1.003  -0.336  1.00  0.00    -0.333 N 
HETATM   26  C32 UNL     1       6.726   1.062   0.076  1.00  0.00     0.327 C 
HETATM   27  O3  UNL     1       6.424   1.693   1.084  1.00  0.00    -0.247 OA
BRANCH  25  28
HETATM   28  C4  UNL     1       9.104   1.657   0.492  1.00  0.00     0.127 C 
BRANCH  28  29
HETATM   29  C3  UNL     1       9.603   0.674   1.497  1.00  0.00     0.020 C 
BRANCH  29  30
HETATM   30  C2  UNL     1      10.664   1.274   2.400  1.00  0.00    -0.003 C 
HETATM   31  C1  UNL     1      11.847   1.734   1.578  1.00  0.00     0.005 C 
ENDBRANCH  29  30
ENDBRANCH  28  29
ENDBRANCH  25  28
ENDBRANCH  16  19
ENDBRANCH   1  13
BRANCH   6  32
HETATM   32  N5  UNL     1      -5.465   0.415   0.515  1.00  0.00    -0.375 N 
BRANCH  32  33
HETATM   33  C16 UNL     1      -6.458   0.390   1.541  1.00  0.00     0.149 C 
BRANCH  33  34
HETATM   34  C17 UNL     1      -6.733   1.777   2.118  1.00  0.00     0.183 C 
BRANCH  34  35
HETATM   35  O2  UNL     1      -7.708   1.603   3.100  1.00  0.00    -0.399 OA
ATOM     36  H2  UNL     1      -7.879   2.466   3.459  1.00  0.00     0.209 HD
ENDBRANCH  34  35
ENDBRANCH  33  34
ENDBRANCH  32  33
BRANCH  32  37
HETATM   37  C18 UNL     1      -5.792   1.104  -0.749  1.00  0.00     0.128 C 
BRANCH  37  38
HETATM   38  C19 UNL     1      -6.858   0.456  -1.546  1.00  0.00     0.064 C 
BRANCH  38  39
HETATM   39  C20 UNL     1      -7.227   1.089  -2.837  1.00  0.00     0.058 C 
BRANCH  39  40
HETATM   40  N6  UNL     1      -7.709   2.405  -2.853  1.00  0.00    -0.402 N 
HETATM   41  C21 UNL     1      -6.829   3.473  -2.558  1.00  0.00     0.148 C 
HETATM   42  C22 UNL     1      -8.700   2.712  -3.854  1.00  0.00     0.148 C 
ENDBRANCH  39  40
ENDBRANCH  38  39
ENDBRANCH  37  38
ENDBRANCH  32  37
ENDBRANCH   6  32
BRANCH   7  43
HETATM   43  N7  UNL     1      -4.897  -2.403   1.233  1.00  0.00    -0.365 N 
HETATM   44  C24 UNL     1      -5.749  -2.856   0.173  1.00  0.00     0.124 C 
HETATM   45  C25 UNL     1      -5.901  -4.356   0.139  1.00  0.00     0.020 C 
HETATM   46  C26 UNL     1      -5.023  -5.088   1.092  1.00  0.00     0.003 C 
HETATM   47  C27 UNL     1      -4.972  -4.520   2.473  1.00  0.00     0.020 C 
HETATM   48  C28 UNL     1      -5.091  -3.037   2.535  1.00  0.00     0.124 C 
ENDBRANCH   7  43
TORSDOF 14
