REMARK  18 active torsions:
REMARK  status: ('A' for Active; 'I' for Inactive)
REMARK    1  A    between atoms: C5_6  and  C6_7 
REMARK    2  A    between atoms: C6_7  and  N2_8 
REMARK    3  A    between atoms: N2_8  and  C7_9 
REMARK    4  A    between atoms: C7_9  and  O1_10 
REMARK    5  A    between atoms: C7_9  and  C8_12 
REMARK    6  A    between atoms: C10_14  and  N3_15 
REMARK    7  A    between atoms: C16_22  and  C17_23 
REMARK    8  A    between atoms: C17_23  and  O4_25 
REMARK    9  A    between atoms: O4_25  and  C18_26 
REMARK   10  A    between atoms: C18_26  and  C19_27 
REMARK   11  A    between atoms: C22_30  and  O5_31 
REMARK   12  A    between atoms: O5_31  and  C23_32 
REMARK   13  A    between atoms: C23_32  and  C24_33 
REMARK       I    between atoms: C24_33  and  N4_35 
REMARK   14  A    between atoms: C28_42  and  C29_43 
REMARK   15  A    between atoms: C29_43  and  C30_44 
REMARK   16  A    between atoms: C30_44  and  C31_45 
REMARK   17  A    between atoms: C31_45  and  C32_46 
REMARK   18  A    between atoms: C32_46  and  N6_47 
ROOT
HETATM    1  C8  UNL     1      -2.723  -0.301   1.044  1.00  0.00     0.066 A 
HETATM    2  C9  UNL     1      -4.029  -0.820   0.934  1.00  0.00     0.049 A 
HETATM    3  C10 UNL     1      -4.195  -2.151   0.637  1.00  0.00     0.039 A 
HETATM    4  C15 UNL     1      -3.095  -2.948   0.452  1.00  0.00     0.050 A 
HETATM    5  C16 UNL     1      -1.779  -2.482   0.549  1.00  0.00     0.076 A 
HETATM    6  C22 UNL     1      -1.652  -1.116   0.850  1.00  0.00     0.101 A 
ENDROOT
BRANCH   6   7
HETATM    7  O5  UNL     1      -0.305  -0.706   0.911  1.00  0.00    -0.340 OA
BRANCH   7   8
HETATM    8  C23 UNL     1       0.337  -0.299  -0.301  1.00  0.00     0.278 C 
BRANCH   8   9
HETATM    9  C24 UNL     1       1.763  -0.011  -0.045  1.00  0.00     0.244 C 
HETATM   10  O6  UNL     1       2.201  -0.151   1.145  1.00  0.00    -0.271 OA
HETATM   11  N4  UNL     1       2.660   0.404  -1.044  1.00  0.00    -0.335 N 
HETATM   12  C25 UNL     1       2.282   0.579  -2.395  1.00  0.00     0.146 C 
HETATM   13  C28 UNL     1       4.082   0.649  -0.665  1.00  0.00     0.179 C 
HETATM   14  C26 UNL     1       3.268   1.261  -3.286  1.00  0.00     0.142 C 
HETATM   15  N5  UNL     1       4.593   0.729  -3.053  1.00  0.00    -0.358 N 
HETATM   16  C27 UNL     1       4.908   0.142  -1.764  1.00  0.00     0.240 C 
ATOM     17  H5  UNL     1       5.299   0.766  -3.788  1.00  0.00     0.162 HD
HETATM   18  O7  UNL     1       5.807  -0.720  -1.638  1.00  0.00    -0.271 OA
BRANCH  13  19
HETATM   19  C29 UNL     1       4.188   2.054  -0.262  1.00  0.00     0.035 C 
BRANCH  19  20
HETATM   20  C30 UNL     1       5.472   2.628   0.190  1.00  0.00     0.004 C 
BRANCH  20  21
HETATM   21  C31 UNL     1       6.589   2.655  -0.801  1.00  0.00     0.027 C 
BRANCH  21  22
HETATM   22  C32 UNL     1       7.804   3.326  -0.113  1.00  0.00     0.229 C 
BRANCH  22  23
HETATM   23  N6  UNL     1       7.516   4.660   0.308  1.00  0.00    -0.079 N 
ATOM     24  H63 UNL     1       7.172   5.226  -0.468  1.00  0.00     0.274 HD
ATOM     25  H62 UNL     1       6.691   4.688   0.907  1.00  0.00     0.274 HD
ATOM     26  H61 UNL     1       8.316   5.102   0.761  1.00  0.00     0.274 HD
ENDBRANCH  22  23
ENDBRANCH  21  22
ENDBRANCH  20  21
ENDBRANCH  19  20
ENDBRANCH  13  19
ENDBRANCH   8   9
ENDBRANCH   7   8
ENDBRANCH   6   7
BRANCH   1  27
HETATM   27  C7  UNL     1      -2.660   1.086   1.512  1.00  0.00     0.226 C 
BRANCH  27  28
HETATM   28  N2  UNL     1      -1.543   1.772   1.831  1.00  0.00    -0.394 NA
BRANCH  28  29
HETATM   29  C6  UNL     1      -0.419   2.502   2.168  1.00  0.00     0.194 C 
BRANCH  29  30
HETATM   30  C5  UNL     1      -0.289   3.816   1.476  1.00  0.00     0.274 C 
HETATM   31  N1  UNL     1      -0.236   3.812   0.051  1.00  0.00     0.094 N 
HETATM   32  C1  UNL     1      -1.450   3.518  -0.642  1.00  0.00     0.310 C 
HETATM   33  C2  UNL     1      -0.024   5.272  -0.179  1.00  0.00     0.273 C 
HETATM   34  C3  UNL     1      -1.004   5.931   0.760  1.00  0.00     0.033 C 
HETATM   35  C4  UNL     1      -1.330   4.843   1.803  1.00  0.00     0.044 C 
ENDBRANCH  29  30
ENDBRANCH  28  29
ENDBRANCH  27  28
BRANCH  27  36
HETATM   36  O1  UNL     1      -3.823   1.659   1.627  1.00  0.00    -0.335 OA
ATOM     37  H1  UNL     1      -4.610   1.176   1.402  1.00  0.00     0.220 HD
ENDBRANCH  27  36
ENDBRANCH   1  27
BRANCH   5  38
HETATM   38  C17 UNL     1      -0.673  -3.397   0.451  1.00  0.00     0.296 C 
HETATM   39  O3  UNL     1       0.514  -3.180   0.636  1.00  0.00    -0.259 OA
BRANCH  38  40
HETATM   40  O4  UNL     1      -1.005  -4.720   0.097  1.00  0.00    -0.317 OA
BRANCH  40  41
HETATM   41  C18 UNL     1      -0.009  -5.718  -0.024  1.00  0.00     0.183 C 
BRANCH  41  42
HETATM   42  C19 UNL     1      -0.568  -7.047  -0.401  1.00  0.00     0.010 A 
HETATM   43  C20 UNL     1      -1.597  -7.657   0.566  1.00  0.00     0.007 A 
HETATM   44  C21 UNL     1      -1.968  -7.265  -0.815  1.00  0.00     0.007 A 
ENDBRANCH  41  42
ENDBRANCH  40  41
ENDBRANCH  38  40
ENDBRANCH   5  38
BRANCH   3  45
HETATM   45  N3  UNL     1      -5.520  -2.649   0.561  1.00  0.00    -0.318 N 
HETATM   46  C11 UNL     1      -6.023  -3.681   1.452  1.00  0.00     0.133 C 
HETATM   47  C12 UNL     1      -7.292  -4.191   0.814  1.00  0.00     0.029 C 
HETATM   48  C13 UNL     1      -7.568  -3.346  -0.403  1.00  0.00     0.105 C 
HETATM   49  C14 UNL     1      -6.535  -2.263  -0.331  1.00  0.00     0.224 C 
HETATM   50  O2  UNL     1      -6.634  -1.200  -0.999  1.00  0.00    -0.273 OA
ENDBRANCH   3  45
TORSDOF 18
