REMARK  3 active torsions:
REMARK  status: ('A' for Active; 'I' for Inactive)
REMARK    1  A    between atoms: C5_8  and  S2_9 
REMARK    2  A    between atoms: C8_14  and  C9_15 
REMARK    3  A    between atoms: C9_15  and  C10_16 
ROOT
HETATM    1  S2  UNL     1       2.907  -1.454  -1.010  1.00  0.00    -0.005 SA
HETATM    2  C6  UNL     1       3.581  -2.450   0.269  1.00  0.00     0.139 C 
HETATM    3  N2  UNL     1       4.021  -3.112   1.124  1.00  0.00    -0.184 NA
ENDROOT
BRANCH   1   4
HETATM    4  C5  UNL     1       2.288   0.120  -0.308  1.00  0.00     0.083 A 
HETATM    5  C4  UNL     1       3.141   1.184  -0.225  1.00  0.00     0.110 A 
HETATM    6  S1  UNL     1       2.185   2.407   0.476  1.00  0.00    -0.046 SA
HETATM    7  N1  UNL     1       4.526   1.251  -0.635  1.00  0.00    -0.093 NA
HETATM    8  C3  UNL     1       0.721   1.545   0.650  1.00  0.00     0.147 A 
HETATM    9  O1  UNL     1      -0.567   1.853   1.154  1.00  0.00    -0.334 OA
HETATM   10  C7  UNL     1       1.023   0.312   0.150  1.00  0.00     0.130 A 
HETATM   11  C2  UNL     1      -1.728   1.127   0.805  1.00  0.00     0.155 C 
HETATM   12  C1  UNL     1      -2.681   2.076   0.135  1.00  0.00     0.042 C 
HETATM   13  C8  UNL     1      -1.408  -0.079  -0.036  1.00  0.00     0.159 C 
HETATM   14  O2  UNL     1      -0.098  -0.574   0.208  1.00  0.00    -0.338 OA
BRANCH  13  15
HETATM   15  C9  UNL     1      -2.329  -1.249   0.233  1.00  0.00     0.050 C 
BRANCH  15  16
HETATM   16  C10 UNL     1      -1.873  -2.375  -0.690  1.00  0.00     0.117 C 
HETATM   17 CL1  UNL     1      -2.901  -3.823  -0.457  1.00  0.00    -0.130 Cl
ENDBRANCH  15  16
ENDBRANCH  13  15
ENDBRANCH   1   4
TORSDOF 3
