REMARK  4 active torsions:
REMARK  status: ('A' for Active; 'I' for Inactive)
REMARK    1  A    between atoms: C2_2  and  C3_3 
REMARK    2  A    between atoms: C6_6  and  C7_7 
REMARK    3  A    between atoms: C13_16  and  C14_17 
REMARK    4  A    between atoms: N1_18  and  O3_20 
ROOT
HETATM    1  C3  UNL     1       1.984  -0.965   0.087  1.00  0.00     0.176 C 
HETATM    2  C4  UNL     1       0.742  -1.809  -0.065  1.00  0.00     0.072 C 
HETATM    3  C5  UNL     1      -0.396  -1.018  -0.734  1.00  0.00     0.045 C 
HETATM    4  C6  UNL     1      -1.461  -0.952   0.363  1.00  0.00     0.196 C 
HETATM    5  O1  UNL     1      -0.630  -0.207   1.368  1.00  0.00    -0.225 OA
HETATM    6  O2  UNL     1       0.023   0.727   0.730  1.00  0.00    -0.165 OA
HETATM    7  C13 UNL     1       1.365   0.724   0.725  1.00  0.00     0.353 C 
HETATM    8  O4  UNL     1       1.982  -0.341   1.304  1.00  0.00    -0.289 OA
HETATM    9  O5  UNL     1       1.795   0.269  -0.573  1.00  0.00    -0.289 OA
ENDROOT
BRANCH   4  10
HETATM   10  C7  UNL     1      -2.632  -0.204   0.108  1.00  0.00     0.012 A 
HETATM   11  C8  UNL     1      -2.872   1.150   0.273  1.00  0.00     0.013 A 
HETATM   12  C9  UNL     1      -4.100   1.754   0.129  1.00  0.00     0.001 A 
HETATM   13  C10 UNL     1      -5.200   0.976  -0.207  1.00  0.00     0.003 A 
HETATM   14  C11 UNL     1      -5.029  -0.359  -0.382  1.00  0.00     0.043 A 
HETATM   15  C12 UNL     1      -3.808  -0.941  -0.233  1.00  0.00     0.125 A 
HETATM   16  F1  UNL     1      -3.707  -2.256  -0.443  1.00  0.00    -0.205 F 
ENDBRANCH   4  10
BRANCH   1  17
HETATM   17  C2  UNL     1       3.257  -1.630  -0.332  1.00  0.00     0.064 C 
HETATM   18  C1  UNL     1       4.460  -0.769  -0.176  1.00  0.00     0.010 C 
ENDBRANCH   1  17
BRANCH   7  19
HETATM   19  C14 UNL     1       2.049   2.053   0.995  1.00  0.00     0.190 C 
HETATM   20  N1  UNL     1       2.392   2.727  -0.009  1.00  0.00    -0.276 N 
ATOM     21  H1  UNL     1       2.178   2.316  -0.918  1.00  0.00     0.193 HD
BRANCH  20  22
HETATM   22  O3  UNL     1       3.019   3.948  -0.032  1.00  0.00    -0.290 OA
ATOM     23  H3  UNL     1       3.278   4.457  -0.791  1.00  0.00     0.244 HD
ENDBRANCH  20  22
ENDBRANCH   7  19
TORSDOF 4
