REMARK  5 active torsions:
REMARK  status: ('A' for Active; 'I' for Inactive)
REMARK       I    between atoms: C1_2  and  N1_3 
REMARK    1  A    between atoms: C1_2  and  O4_15 
REMARK    2  A    between atoms: N1_3  and  C2_5 
REMARK    3  A    between atoms: C5_8  and  N2_9 
REMARK    4  A    between atoms: O4_15  and  C8_16 
REMARK    5  A    between atoms: C8_16  and  C9_18 
ROOT
HETATM    1  O1  UNL     1       0.293  -0.116   1.895  1.00  0.00    -0.238 OA
HETATM    2  C1  UNL     1       0.474  -0.009   0.670  1.00  0.00     0.373 C 
HETATM    3  N1  UNL     1      -0.465   0.011  -0.360  1.00  0.00    -0.302 N 
ATOM      4  H1  UNL     1      -0.106   0.108  -1.310  1.00  0.00     0.171 HD
ENDROOT
BRANCH   3   5
HETATM    5  C2  UNL     1      -1.853  -0.089  -0.216  1.00  0.00     0.040 A 
HETATM    6  C3  UNL     1      -2.634  -0.219  -1.380  1.00  0.00     0.032 A 
HETATM    7  C4  UNL     1      -4.002  -0.312  -1.292  1.00  0.00     0.041 A 
HETATM    8  C5  UNL     1      -4.632  -0.280  -0.064  1.00  0.00     0.141 A 
HETATM    9  C6  UNL     1      -3.914  -0.155   1.096  1.00  0.00     0.151 A 
HETATM   10  F1  UNL     1      -4.505  -0.123   2.312  1.00  0.00    -0.203 F 
HETATM   11  C7  UNL     1      -2.515  -0.061   0.979  1.00  0.00     0.074 A 
BRANCH   8  12
HETATM   12  N2  UNL     1      -6.047  -0.380  -0.030  1.00  0.00    -0.113 N 
HETATM   13  O2  UNL     1      -6.721   0.189   0.850  1.00  0.00    -0.532 OA
HETATM   14  O3  UNL     1      -6.699  -1.120  -0.989  1.00  0.00    -0.532 OA
ENDBRANCH   8  12
ENDBRANCH   3   5
BRANCH   2  15
HETATM   15  O4  UNL     1       1.833   0.108   0.307  1.00  0.00    -0.221 OA
BRANCH  15  16
HETATM   16  C8  UNL     1       2.851   0.101   1.250  1.00  0.00     0.326 C 
HETATM   17  O5  UNL     1       2.544  -0.013   2.452  1.00  0.00    -0.256 OA
BRANCH  16  18
HETATM   18  C9  UNL     1       4.232   0.227   0.802  1.00  0.00     0.150 A 
HETATM   19  C10 UNL     1       4.682   0.360  -0.493  1.00  0.00     0.045 A 
HETATM   20  C11 UNL     1       6.044   0.445  -0.445  1.00  0.00     0.027 A 
HETATM   21  C12 UNL     1       6.382   0.360   0.909  1.00  0.00     0.143 A 
HETATM   22  O6  UNL     1       5.275   0.233   1.593  1.00  0.00    -0.317 OA
ENDBRANCH  16  18
ENDBRANCH  15  16
ENDBRANCH   2  15
TORSDOF 5
