REMARK  5 active torsions:
REMARK  status: ('A' for Active; 'I' for Inactive)
REMARK    1  A    between atoms: C2_2  and  S1_3 
REMARK    2  A    between atoms: S1_3  and  C3_4 
REMARK    3  A    between atoms: C3_4  and  N2_8 
REMARK    4  A    between atoms: N2_8  and  C4_10 
REMARK    5  A    between atoms: C4_10  and  N3_11 
ROOT
HETATM    1  N3  UNL     1      -2.728   0.203  -0.617  1.00  0.00    -0.305 N 
HETATM    2  C5  UNL     1      -3.623   0.250   0.358  1.00  0.00     0.125 A 
HETATM    3  C6  UNL     1      -3.542  -0.537   1.613  1.00  0.00     0.118 C 
HETATM    4  N4  UNL     1      -3.459  -1.163   2.590  1.00  0.00    -0.190 NA
HETATM    5  C7  UNL     1      -4.691   1.085   0.183  1.00  0.00     0.094 A 
HETATM    6  S2  UNL     1      -4.385   1.768  -1.350  1.00  0.00    -0.069 SA
HETATM    7  C8  UNL     1      -2.923   0.961  -1.688  1.00  0.00     0.147 A 
HETATM    8  S3  UNL     1      -1.954   1.082  -3.038  1.00  0.00    -0.052 SA
ENDROOT
BRANCH   1   9
HETATM    9  C4  UNL     1      -1.516  -0.663  -0.556  1.00  0.00     0.277 C 
BRANCH   9  10
HETATM   10  N2  UNL     1      -0.426   0.057   0.042  1.00  0.00    -0.251 N 
HETATM   11 CL1  UNL     1      -0.681   1.708   0.561  1.00  0.00     0.017 Cl
BRANCH  10  12
HETATM   12  C3  UNL     1       0.865  -0.472   0.249  1.00  0.00     0.152 C 
HETATM   13  N1  UNL     1       0.990  -1.682   0.678  1.00  0.00    -0.379 N 
ATOM     14  H12 UNL     1       1.924  -2.065   0.828  1.00  0.00     0.158 HD
ATOM     15  H11 UNL     1       0.163  -2.249   0.866  1.00  0.00     0.158 HD
BRANCH  12  16
HETATM   16  S1  UNL     1       2.323   0.528  -0.082  1.00  0.00    -0.094 SA
BRANCH  16  17
HETATM   17  C2  UNL     1       3.814  -0.409   0.273  1.00  0.00     0.078 C 
HETATM   18  C1  UNL     1       5.007   0.500  -0.030  1.00  0.00     0.016 C 
ENDBRANCH  16  17
ENDBRANCH  12  16
ENDBRANCH  10  12
ENDBRANCH   9  10
ENDBRANCH   1   9
TORSDOF 5
