REMARK  9 active torsions:
REMARK  status: ('A' for Active; 'I' for Inactive)
REMARK    1  A    between atoms: O1_2  and  C2_3 
REMARK    2  A    between atoms: C7_8  and  O2_9 
REMARK    3  A    between atoms: C9_11  and  C10_12 
REMARK    4  A    between atoms: C10_12  and  O3_13 
REMARK    5  A    between atoms: O3_13  and  C11_14 
REMARK       I    between atoms: C11_14  and  N1_16 
REMARK    6  A    between atoms: N1_16  and  O5_18 
REMARK    7  A    between atoms: C13_20  and  O6_21 
REMARK    8  A    between atoms: C17_25  and  O7_26 
REMARK    9  A    between atoms: O7_26  and  C18_27 
ROOT
HETATM    1  C2  UNL     1       3.832   0.764   0.406  1.00  0.00     0.102 A 
HETATM    2  C3  UNL     1       3.220  -0.465   0.440  1.00  0.00     0.052 A 
HETATM    3  C4  UNL     1       1.839  -0.542   0.230  1.00  0.00    -0.012 A 
HETATM    4  C5  UNL     1       1.247  -1.796   0.265  1.00  0.00    -0.017 A 
HETATM    5  C6  UNL     1       2.097  -2.986   0.526  1.00  0.00     0.052 C 
HETATM    6  C7  UNL     1      -0.104  -1.927   0.060  1.00  0.00     0.086 A 
HETATM    7  C9  UNL     1      -0.839  -0.760  -0.180  1.00  0.00     0.034 A 
HETATM    8  C13 UNL     1      -0.251   0.468  -0.211  1.00  0.00     0.090 A 
HETATM    9  C15 UNL     1       1.103   0.596  -0.007  1.00  0.00     0.012 A 
HETATM   10  C16 UNL     1       1.716   1.847  -0.044  1.00  0.00     0.055 A 
HETATM   11  C17 UNL     1       3.074   1.899   0.165  1.00  0.00     0.112 A 
ENDROOT
BRANCH   7  12
HETATM   12  C10 UNL     1      -2.272  -0.955  -0.411  1.00  0.00     0.225 C 
BRANCH  12  13
HETATM   13  O3  UNL     1      -3.027   0.172  -0.670  1.00  0.00    -0.298 OA
BRANCH  13  14
HETATM   14  C11 UNL     1      -4.391   0.035  -0.896  1.00  0.00     0.386 C 
HETATM   15  O4  UNL     1      -4.883  -1.116  -0.854  1.00  0.00    -0.236 OA
HETATM   16  N1  UNL     1      -5.232   1.136  -1.170  1.00  0.00    -0.209 N 
HETATM   17  C12 UNL     1      -6.646   0.898  -1.392  1.00  0.00     0.191 C 
BRANCH  16  18
HETATM   18  O5  UNL     1      -4.728   2.395  -1.227  1.00  0.00    -0.283 OA
ATOM     19  H5  UNL     1      -5.294   3.136  -1.411  1.00  0.00     0.245 HD
ENDBRANCH  16  18
ENDBRANCH  13  14
ENDBRANCH  12  13
ENDBRANCH   7  12
BRANCH   6  20
HETATM   20  O2  UNL     1      -0.752  -3.145   0.081  1.00  0.00    -0.355 OA
HETATM   21  C8  UNL     1      -1.308  -3.733   1.231  1.00  0.00     0.210 C 
ENDBRANCH   6  20
BRANCH   8  22
HETATM   22  O6  UNL     1      -0.956   1.667  -0.443  1.00  0.00    -0.354 OA
HETATM   23  C14 UNL     1      -1.443   2.316   0.743  1.00  0.00     0.210 C 
ENDBRANCH   8  22
BRANCH  11  24
HETATM   24  O7  UNL     1       3.669   3.157   0.125  1.00  0.00    -0.283 OA
BRANCH  24  25
HETATM   25  C18 UNL     1       4.168   3.706  -1.056  1.00  0.00     0.403 C 
HETATM   26  O8  UNL     1       4.083   3.051  -2.124  1.00  0.00    -0.276 OA
ENDBRANCH  24  25
ENDBRANCH  11  24
BRANCH   1  27
HETATM   27  O1  UNL     1       5.180   0.949   0.599  1.00  0.00    -0.353 OA
HETATM   28  C1  UNL     1       6.086  -0.106   0.854  1.00  0.00     0.210 C 
ENDBRANCH   1  27
TORSDOF 9
