REMARK  7 active torsions:
REMARK  status: ('A' for Active; 'I' for Inactive)
REMARK    1  A    between atoms: S1_2  and  C2_3 
REMARK       I    between atoms: N1_7  and  C6_8 
REMARK    2  A    between atoms: C6_8  and  C7_10 
REMARK    3  A    between atoms: C7_10  and  S2_12 
REMARK    4  A    between atoms: S2_12  and  C9_13 
REMARK    5  A    between atoms: C10_18  and  S3_19 
REMARK    6  A    between atoms: S3_19  and  C11_20 
REMARK    7  A    between atoms: C11_20  and  C12_21 
ROOT
HETATM    1  C9  UNL     1       2.075  -1.623  -0.399  1.00  0.00     0.130 A 
HETATM    2  N2  UNL     1       2.984  -1.077  -1.200  1.00  0.00    -0.287 N 
ATOM      3  H2  UNL     1       2.685  -0.571  -2.033  1.00  0.00     0.188 HD
HETATM    4  N3  UNL     1       4.212  -1.180  -0.938  1.00  0.00    -0.287 N 
ATOM      5  H3  UNL     1       4.903  -0.758  -1.558  1.00  0.00     0.188 HD
HETATM    6  C10 UNL     1       4.606  -1.839   0.148  1.00  0.00     0.129 A 
HETATM    7  S4  UNL     1       3.109  -2.321   0.803  1.00  0.00    -0.038 SA
ENDROOT
BRANCH   1   8
HETATM    8  S2  UNL     1       0.300  -1.654  -0.527  1.00  0.00    -0.089 SA
BRANCH   8   9
HETATM    9  C7  UNL     1      -0.508  -0.298   0.271  1.00  0.00     0.142 C 
HETATM   10  C8  UNL     1       0.340   0.835   0.726  1.00  0.00     0.031 C 
BRANCH   9  11
HETATM   11  C6  UNL     1      -1.668   0.136  -0.588  1.00  0.00     0.234 C 
HETATM   12  N1  UNL     1      -2.874   0.659  -0.060  1.00  0.00    -0.338 N 
HETATM   13  C2  UNL     1      -3.991   1.085  -0.851  1.00  0.00     0.148 C 
HETATM   14  C5  UNL     1      -3.173   0.820   1.323  1.00  0.00     0.127 C 
HETATM   15  C3  UNL     1      -4.939   1.731   0.116  1.00  0.00     0.038 C 
HETATM   16  C4  UNL     1      -4.087   2.024   1.356  1.00  0.00     0.023 C 
HETATM   17  O1  UNL     1      -1.488  -0.003  -1.845  1.00  0.00    -0.272 OA
BRANCH  13  18
HETATM   18  S1  UNL     1      -4.860  -0.312  -1.616  1.00  0.00    -0.148 SA
HETATM   19  C1  UNL     1      -5.229  -1.615  -0.422  1.00  0.00     0.092 C 
ENDBRANCH  13  18
ENDBRANCH   9  11
ENDBRANCH   8   9
ENDBRANCH   1   8
BRANCH   6  20
HETATM   20  S3  UNL     1       6.286  -2.141   0.735  1.00  0.00    -0.093 SA
BRANCH  20  21
HETATM   21  C11 UNL     1       7.414  -1.384  -0.468  1.00  0.00     0.194 C 
BRANCH  21  22
HETATM   22  C12 UNL     1       7.240   0.095  -0.451  1.00  0.00     0.182 C 
HETATM   23  O2  UNL     1       6.418   0.665   0.308  1.00  0.00    -0.647 OA
HETATM   24  O3  UNL     1       8.013   0.877  -1.302  1.00  0.00    -0.647 OA
ENDBRANCH  21  22
ENDBRANCH  20  21
ENDBRANCH   6  20
TORSDOF 7
