REMARK  13 active torsions:
REMARK  status: ('A' for Active; 'I' for Inactive)
REMARK    1  A    between atoms: O1_2  and  C2_3 
REMARK    2  A    between atoms: C2_3  and  C3_5 
REMARK    3  A    between atoms: C3_5  and  O3_6 
REMARK    4  A    between atoms: C3_5  and  C24_35 
REMARK    5  A    between atoms: O3_6  and  C4_7 
REMARK    6  A    between atoms: C4_7  and  C5_9 
REMARK    7  A    between atoms: C8_12  and  C9_13 
REMARK    8  A    between atoms: C13_21  and  C14_22 
REMARK    9  A    between atoms: C16_24  and  O7_25 
REMARK   10  A    between atoms: C18_27  and  O8_28 
REMARK   11  A    between atoms: C20_30  and  O9_31 
REMARK   12  A    between atoms: C24_35  and  O10_36 
REMARK   13  A    between atoms: N2_38  and  O11_40 
ROOT
HETATM    1  C5  UNL     1       1.194   2.029  -0.914  1.00  0.00     0.092 C 
HETATM    2  C6  UNL     1       2.302   2.704  -0.168  1.00  0.00     0.017 C 
HETATM    3  C7  UNL     1       2.042   4.124   0.191  1.00  0.00     0.037 C 
HETATM    4  C8  UNL     1       1.080   4.043   1.389  1.00  0.00     0.179 C 
HETATM    5  N1  UNL     1      -0.219   4.157   0.854  1.00  0.00    -0.404 N 
ATOM      6  H1  UNL     1      -0.730   5.034   0.957  1.00  0.00     0.154 HD
HETATM    7  C10 UNL     1      -0.813   3.091   0.188  1.00  0.00     0.083 C 
HETATM    8  C11 UNL     1      -1.484   3.482  -1.132  1.00  0.00     0.026 C 
HETATM    9  C12 UNL     1      -2.106   2.133  -1.465  1.00  0.00     0.012 C 
HETATM   10  C13 UNL     1      -1.009   1.125  -1.069  1.00  0.00     0.025 C 
HETATM   11  C23 UNL     1      -0.090   1.860  -0.137  1.00  0.00     0.030 C 
ENDROOT
BRANCH   1  12
HETATM   12  C4  UNL     1       1.715   0.650  -1.174  1.00  0.00     0.264 C 
HETATM   13  O4  UNL     1       1.795   0.259  -2.373  1.00  0.00    -0.265 OA
BRANCH  12  14
HETATM   14  O3  UNL     1       2.119  -0.232  -0.209  1.00  0.00    -0.297 OA
BRANCH  14  15
HETATM   15  C3  UNL     1       2.613  -1.530  -0.491  1.00  0.00     0.307 C 
BRANCH  15  16
HETATM   16  C2  UNL     1       1.771  -2.610   0.067  1.00  0.00     0.296 C 
HETATM   17  O2  UNL     1       0.731  -2.449   0.742  1.00  0.00    -0.262 OA
BRANCH  16  18
HETATM   18  O1  UNL     1       2.141  -3.937  -0.160  1.00  0.00    -0.324 OA
HETATM   19  C1  UNL     1       1.401  -5.027   0.331  1.00  0.00     0.213 C 
ENDBRANCH  16  18
ENDBRANCH  15  16
BRANCH  15  20
HETATM   20  C24 UNL     1       4.028  -1.671  -0.057  1.00  0.00     0.175 C 
HETATM   21  N2  UNL     1       4.938  -1.793  -0.947  1.00  0.00    -0.248 N 
ATOM     22  H2  UNL     1       5.916  -1.891  -0.676  1.00  0.00     0.196 HD
BRANCH  20  23
HETATM   23  O10 UNL     1       4.368  -1.671   1.306  1.00  0.00    -0.346 OA
ATOM     24  H10 UNL     1       5.272  -1.761   1.583  1.00  0.00     0.219 HD
ENDBRANCH  20  23
BRANCH  21  25
HETATM   25  O11 UNL     1       4.581  -1.790  -2.269  1.00  0.00    -0.288 OA
ATOM     26  H11 UNL     1       5.257  -1.881  -2.930  1.00  0.00     0.244 HD
ENDBRANCH  21  25
ENDBRANCH  15  20
ENDBRANCH  14  15
ENDBRANCH  12  14
ENDBRANCH   1  12
BRANCH  10  27
HETATM   27  C14 UNL     1      -1.684  -0.048  -0.548  1.00  0.00    -0.048 A 
HETATM   28  C15 UNL     1      -1.865  -1.116  -1.431  1.00  0.00     0.047 A 
HETATM   29  C16 UNL     1      -2.482  -2.295  -1.088  1.00  0.00     0.104 A 
HETATM   30  C18 UNL     1      -2.942  -2.417   0.205  1.00  0.00     0.135 A 
HETATM   31  C20 UNL     1      -2.790  -1.389   1.124  1.00  0.00     0.104 A 
HETATM   32  C22 UNL     1      -2.164  -0.236   0.717  1.00  0.00     0.047 A 
BRANCH  29  33
HETATM   33  O7  UNL     1      -2.663  -3.355  -1.963  1.00  0.00    -0.353 OA
HETATM   34  C17 UNL     1      -2.215  -3.291  -3.296  1.00  0.00     0.210 C 
ENDBRANCH  29  33
BRANCH  30  35
HETATM   35  O8  UNL     1      -3.564  -3.584   0.580  1.00  0.00    -0.351 OA
HETATM   36  C19 UNL     1      -2.824  -4.650   1.112  1.00  0.00     0.210 C 
ENDBRANCH  30  35
BRANCH  31  37
HETATM   37  O9  UNL     1      -3.258  -1.534   2.408  1.00  0.00    -0.353 OA
HETATM   38  C21 UNL     1      -3.145  -0.548   3.407  1.00  0.00     0.210 C 
ENDBRANCH  31  37
ENDBRANCH  10  27
BRANCH   4  39
HETATM   39  C9  UNL     1       1.416   5.205   2.235  1.00  0.00     0.196 C 
HETATM   40  O5  UNL     1       0.567   6.108   2.378  1.00  0.00    -0.646 OA
HETATM   41  O6  UNL     1       2.633   5.322   2.867  1.00  0.00    -0.646 OA
ENDBRANCH   4  39
TORSDOF 13
