REMARK  17 active torsions:
REMARK  status: ('A' for Active; 'I' for Inactive)
REMARK    1  A    between atoms: O1_2  and  C2_3 
REMARK    2  A    between atoms: C2_3  and  C3_5 
REMARK    3  A    between atoms: C6_8  and  C7_9 
REMARK    4  A    between atoms: C9_13  and  O4_14 
REMARK    5  A    between atoms: O4_14  and  S1_15 
REMARK    6  A    between atoms: S1_15  and  N2_18 
REMARK    7  A    between atoms: N2_18  and  C10_20 
REMARK    8  A    between atoms: C10_20  and  C11_21 
REMARK    9  A    between atoms: C11_21  and  C12_22 
REMARK   10  A    between atoms: C12_22  and  C13_23 
REMARK   11  A    between atoms: C13_23  and  C14_24 
REMARK   12  A    between atoms: C14_24  and  N3_25 
REMARK   13  A    between atoms: C19_30  and  C20_31 
REMARK   14  A    between atoms: C20_31  and  C21_32 
REMARK   15  A    between atoms: C24_35  and  C25_36 
REMARK   16  A    between atoms: C25_36  and  C26_37 
REMARK   17  A    between atoms: C29_40  and  C30_41 
ROOT
HETATM    1  N3  UNL     1       0.074   1.829  -2.539  1.00  0.00    -0.357 N 
HETATM    2  C15 UNL     1      -0.361   2.567  -3.569  1.00  0.00     0.091 A 
HETATM    3  C16 UNL     1      -0.455   2.097  -4.854  1.00  0.00     0.017 A 
HETATM    4  C17 UNL     1      -0.085   0.801  -5.111  1.00  0.00     0.004 A 
HETATM    5  C18 UNL     1       0.367   0.021  -4.069  1.00  0.00     0.029 A 
HETATM    6  C19 UNL     1       0.442   0.544  -2.791  1.00  0.00     0.035 A 
ENDROOT
BRANCH   1   7
HETATM    7  C14 UNL     1       0.160   2.314  -1.174  1.00  0.00     0.128 C 
BRANCH   7   8
HETATM    8  C13 UNL     1      -1.159   2.090  -0.445  1.00  0.00     0.020 C 
BRANCH   8   9
HETATM    9  C12 UNL     1      -1.098   2.561   0.992  1.00  0.00     0.003 C 
BRANCH   9  10
HETATM   10  C11 UNL     1      -2.414   2.364   1.687  1.00  0.00     0.020 C 
BRANCH  10  11
HETATM   11  C10 UNL     1      -2.859   0.940   1.710  1.00  0.00     0.134 C 
BRANCH  11  12
HETATM   12  N2  UNL     1      -4.144   0.779   2.370  1.00  0.00    -0.297 N 
ATOM     13  H2  UNL     1      -4.678   1.549   2.773  1.00  0.00     0.174 HD
BRANCH  12  14
HETATM   14  S1  UNL     1      -4.664  -0.875   2.392  1.00  0.00     0.362 S 
HETATM   15  O5  UNL     1      -3.551  -1.842   2.512  1.00  0.00    -0.175 OA
HETATM   16  O6  UNL     1      -5.622  -0.997   3.528  1.00  0.00    -0.175 OA
BRANCH  14  17
HETATM   17  O4  UNL     1      -5.458  -1.170   0.894  1.00  0.00    -0.216 OA
BRANCH  17  18
HETATM   18  C9  UNL     1      -6.743  -0.674   0.729  1.00  0.00     0.108 A 
HETATM   19  C3  UNL     1      -7.852  -1.433   1.002  1.00  0.00     0.074 A 
HETATM   20  C4  UNL     1      -9.103  -0.844   0.807  1.00  0.00     0.021 A 
HETATM   21  C5  UNL     1      -9.177   0.456   0.356  1.00  0.00     0.018 A 
HETATM   22  C6  UNL     1      -8.064   1.213   0.084  1.00  0.00     0.032 A 
HETATM   23  C8  UNL     1      -6.818   0.644   0.271  1.00  0.00     0.056 A 
BRANCH  19  24
HETATM   24  C2  UNL     1      -7.768  -2.814   1.421  1.00  0.00     0.295 C 
HETATM   25  O2  UNL     1      -6.681  -3.404   1.529  1.00  0.00    -0.259 OA
BRANCH  24  26
HETATM   26  O1  UNL     1      -8.909  -3.559   1.728  1.00  0.00    -0.322 OA
HETATM   27  C1  UNL     1      -8.848  -4.912   2.141  1.00  0.00     0.213 C 
ENDBRANCH  24  26
ENDBRANCH  19  24
BRANCH  22  28
HETATM   28  C7  UNL     1      -8.196   2.587  -0.396  1.00  0.00     0.265 C 
HETATM   29  N1  UNL     1      -9.465   3.177  -0.615  1.00  0.00    -0.057 NA
HETATM   30  O3  UNL     1      -7.127   3.253  -0.617  1.00  0.00    -0.271 OA
ENDBRANCH  22  28
ENDBRANCH  17  18
ENDBRANCH  14  17
ENDBRANCH  12  14
ENDBRANCH  11  12
ENDBRANCH  10  11
ENDBRANCH   9  10
ENDBRANCH   8   9
ENDBRANCH   7   8
ENDBRANCH   1   7
BRANCH   6  31
HETATM   31  C20 UNL     1       0.931  -0.277  -1.705  1.00  0.00     0.048 C 
BRANCH  31  32
HETATM   32  C21 UNL     1       2.265  -0.352  -1.578  1.00  0.00     0.007 A 
HETATM   33  C22 UNL     1       3.008  -1.041  -0.658  1.00  0.00     0.020 A 
HETATM   34  C23 UNL     1       4.337  -0.954  -0.745  1.00  0.00     0.020 A 
HETATM   35  C24 UNL     1       4.866  -0.185  -1.743  1.00  0.00     0.007 A 
HETATM   36  S3  UNL     1       3.457   0.399  -2.539  1.00  0.00    -0.090 SA
BRANCH  35  37
HETATM   37  C25 UNL     1       6.152   0.069  -2.043  1.00  0.00     0.037 C 
BRANCH  37  38
HETATM   38  C26 UNL     1       7.216  -0.511  -1.249  1.00  0.00     0.007 A 
HETATM   39  C27 UNL     1       7.509  -1.807  -0.942  1.00  0.00     0.020 A 
HETATM   40  C28 UNL     1       8.580  -2.049  -0.179  1.00  0.00     0.021 A 
HETATM   41  C29 UNL     1       9.313  -0.968   0.242  1.00  0.00     0.015 A 
HETATM   42  S2  UNL     1       8.471   0.346  -0.447  1.00  0.00    -0.090 SA
BRANCH  41  43
HETATM   43  C30 UNL     1      10.514  -0.941   1.069  1.00  0.00    -0.019 A 
HETATM   44  C31 UNL     1      11.123   0.253   1.387  1.00  0.00     0.013 A 
HETATM   45  C32 UNL     1      12.264   0.315   2.164  1.00  0.00     0.001 A 
HETATM   46  C33 UNL     1      12.842  -0.837   2.656  1.00  0.00     0.000 A 
HETATM   47  C34 UNL     1      12.247  -2.038   2.347  1.00  0.00     0.001 A 
HETATM   48  C35 UNL     1      11.090  -2.088   1.559  1.00  0.00     0.013 A 
ENDBRANCH  41  43
ENDBRANCH  37  38
ENDBRANCH  35  37
ENDBRANCH  31  32
ENDBRANCH   6  31
TORSDOF 17
