REMARK  18 active torsions:
REMARK  status: ('A' for Active; 'I' for Inactive)
REMARK    1  A    between atoms: C5_5  and  S1_6 
REMARK    2  A    between atoms: S1_6  and  N1_9 
REMARK    3  A    between atoms: N1_9  and  C6_10 
REMARK    4  A    between atoms: N1_9  and  C13_17 
REMARK    5  A    between atoms: C6_10  and  C7_11 
REMARK    6  A    between atoms: C13_17  and  C14_18 
REMARK    7  A    between atoms: C14_18  and  C15_19 
REMARK    8  A    between atoms: C14_18  and  O3_26 
REMARK    9  A    between atoms: C15_19  and  C16_20 
REMARK   10  A    between atoms: O3_26  and  C22_27 
REMARK   11  A    between atoms: C22_27  and  C23_28 
REMARK   12  A    between atoms: C24_29  and  C25_30 
REMARK   13  A    between atoms: C25_30  and  N2_31 
REMARK   14  A    between atoms: N3_34  and  C27_35 
REMARK   15  A    between atoms: C27_35  and  C28_36 
REMARK   16  A    between atoms: C31_41  and  C32_42 
REMARK   17  A    between atoms: C33_43  and  C34_44 
REMARK   18  A    between atoms: C34_44  and  O7_45 
ROOT
HETATM    1  C14 UNL     1      -1.317  -1.512   1.464  1.00  0.00     0.165 C 
ENDROOT
BRANCH   1   2
HETATM    2  C13 UNL     1      -2.355  -0.803   0.710  1.00  0.00     0.114 C 
BRANCH   2   3
HETATM    3  N1  UNL     1      -3.165   0.116   1.358  1.00  0.00    -0.259 N 
BRANCH   3   4
HETATM    4  S1  UNL     1      -2.699   1.757   1.258  1.00  0.00     0.268 S 
HETATM    5  O1  UNL     1      -2.662   2.339   2.637  1.00  0.00    -0.200 OA
HETATM    6  O2  UNL     1      -1.327   1.846   0.675  1.00  0.00    -0.200 OA
BRANCH   4   7
HETATM    7  C5  UNL     1      -3.738   2.728   0.236  1.00  0.00     0.080 A 
HETATM    8  C4  UNL     1      -3.462   2.893  -1.108  1.00  0.00     0.026 A 
HETATM    9  C3  UNL     1      -4.285   3.656  -1.919  1.00  0.00     0.008 A 
HETATM   10  C2  UNL     1      -5.411   4.286  -1.436  1.00  0.00    -0.062 A 
HETATM   11  C1  UNL     1      -6.273   5.099  -2.342  1.00  0.00     0.048 C 
HETATM   12  C39 UNL     1      -5.675   4.115  -0.094  1.00  0.00     0.008 A 
HETATM   13  C38 UNL     1      -4.864   3.358   0.724  1.00  0.00     0.026 A 
ENDBRANCH   4   7
ENDBRANCH   3   4
BRANCH   3  14
HETATM   14  C6  UNL     1      -4.423  -0.112   1.889  1.00  0.00     0.119 C 
BRANCH  14  15
HETATM   15  C7  UNL     1      -5.561  -0.281   0.968  1.00  0.00    -0.020 A 
HETATM   16  C8  UNL     1      -5.499  -0.308  -0.395  1.00  0.00     0.013 A 
HETATM   17  C9  UNL     1      -6.608  -0.464  -1.190  1.00  0.00     0.001 A 
HETATM   18  C10 UNL     1      -7.872  -0.605  -0.607  1.00  0.00     0.000 A 
HETATM   19  C11 UNL     1      -7.951  -0.581   0.755  1.00  0.00     0.001 A 
HETATM   20  C12 UNL     1      -6.838  -0.425   1.514  1.00  0.00     0.013 A 
ENDBRANCH  14  15
ENDBRANCH   3  14
ENDBRANCH   2   3
ENDBRANCH   1   2
BRANCH   1  21
HETATM   21  C15 UNL     1      -1.838  -2.649   2.354  1.00  0.00     0.076 C 
BRANCH  21  22
HETATM   22  C16 UNL     1      -2.464  -3.750   1.633  1.00  0.00    -0.055 A 
HETATM   23  C17 UNL     1      -3.809  -3.862   1.475  1.00  0.00     0.007 A 
HETATM   24  C18 UNL     1      -4.444  -4.893   0.775  1.00  0.00     0.001 A 
HETATM   25  C19 UNL     1      -3.663  -5.863   0.205  1.00  0.00     0.000 A 
HETATM   26  C20 UNL     1      -2.297  -5.765   0.358  1.00  0.00     0.001 A 
HETATM   27  C21 UNL     1      -1.698  -4.760   1.039  1.00  0.00     0.007 A 
ENDBRANCH  21  22
ENDBRANCH   1  21
BRANCH   1  28
HETATM   28  O3  UNL     1      -0.507  -2.202   0.493  1.00  0.00    -0.377 OA
BRANCH  28  29
HETATM   29  C22 UNL     1       0.847  -1.986   0.717  1.00  0.00     0.196 C 
BRANCH  29  30
HETATM   30  C23 UNL     1       1.287  -0.595   0.672  1.00  0.00    -0.003 C 
HETATM   31  C24 UNL     1       2.183  -0.157  -0.174  1.00  0.00    -0.009 C 
BRANCH  31  32
HETATM   32  C25 UNL     1       2.923  -0.888  -1.210  1.00  0.00     0.161 C 
BRANCH  32  33
HETATM   33  N2  UNL     1       4.376  -0.802  -0.973  1.00  0.00    -0.294 N 
HETATM   34  C26 UNL     1       5.149  -1.623  -0.265  1.00  0.00     0.330 A 
HETATM   35  O4  UNL     1       4.748  -2.657   0.337  1.00  0.00    -0.246 OA
HETATM   36  N3  UNL     1       6.427  -1.210  -0.269  1.00  0.00    -0.287 N 
HETATM   37  C29 UNL     1       6.468  -0.086  -1.007  1.00  0.00     0.068 A 
HETATM   38  C30 UNL     1       7.489   0.775  -1.356  1.00  0.00     0.052 A 
HETATM   39  C37 UNL     1       5.173   0.167  -1.448  1.00  0.00     0.066 A 
HETATM   40  C31 UNL     1       7.279   1.901  -2.142  1.00  0.00     0.020 A 
HETATM   41  C35 UNL     1       5.984   2.153  -2.584  1.00  0.00     0.023 A 
HETATM   42  C36 UNL     1       4.987   1.287  -2.226  1.00  0.00     0.034 A 
BRANCH  36  43
HETATM   43  C27 UNL     1       7.569  -1.815   0.381  1.00  0.00     0.247 C 
BRANCH  43  44
HETATM   44  C28 UNL     1       7.759  -1.259   1.763  1.00  0.00     0.192 C 
HETATM   45  O5  UNL     1       8.696  -1.698   2.445  1.00  0.00    -0.647 OA
HETATM   46  O6  UNL     1       6.909  -0.276   2.271  1.00  0.00    -0.647 OA
ENDBRANCH  43  44
ENDBRANCH  36  43
BRANCH  40  47
HETATM   47  C32 UNL     1       8.362   2.771  -2.473  1.00  0.00    -0.065 C 
HETATM   48  C33 UNL     1       9.260   3.511  -2.731  1.00  0.00    -0.075 C 
BRANCH  48  49
HETATM   49  C34 UNL     1      10.375   4.437  -3.023  1.00  0.00     0.258 C 
BRANCH  49  50
HETATM   50  O7  UNL     1      11.392   3.798  -3.684  1.00  0.00    -0.389 OA
ATOM     51  H7  UNL     1      12.108   4.393  -3.872  1.00  0.00     0.210 HD
ENDBRANCH  49  50
ENDBRANCH  48  49
ENDBRANCH  40  47
ENDBRANCH  32  33
ENDBRANCH  31  32
ENDBRANCH  29  30
ENDBRANCH  28  29
ENDBRANCH   1  28
TORSDOF 18
