REMARK  16 active torsions:
REMARK  status: ('A' for Active; 'I' for Inactive)
REMARK    1  A    between atoms: C2_2  and  C3_3 
REMARK    2  A    between atoms: C3_3  and  C4_4 
REMARK    3  A    between atoms: C4_4  and  C5_5 
REMARK    4  A    between atoms: C5_5  and  C6_6 
REMARK    5  A    between atoms: C8_8  and  O1_9 
REMARK    6  A    between atoms: C9_11  and  O2_12 
REMARK    7  A    between atoms: C11_15  and  C12_16 
REMARK    8  A    between atoms: C12_16  and  C13_17 
REMARK    9  A    between atoms: C13_17  and  C14_18 
REMARK   10  A    between atoms: C14_18  and  C15_19 
REMARK   11  A    between atoms: C16_20  and  C18_22 
REMARK   12  A    between atoms: C19_23  and  C20_24 
REMARK   13  A    between atoms: C20_24  and  C22_26 
REMARK   14  A    between atoms: C22_26  and  C23_27 
REMARK   15  A    between atoms: C23_27  and  C25_29 
REMARK   16  A    between atoms: C25_29  and  O4_31 
ROOT
HETATM    1  C12 UNL     1      -1.463   1.779   2.273  1.00  0.00    -0.167 C 
ENDROOT
BRANCH   1   2
HETATM    2  C11 UNL     1      -2.014   2.564   1.500  1.00  0.00     0.059 C 
HETATM    3  C6  UNL     1      -2.326   2.500   0.085  1.00  0.00     0.003 C 
HETATM    4  C7  UNL     1      -3.752   3.279   0.026  1.00  0.00     0.040 C 
HETATM    5  C8  UNL     1      -3.583   4.715   0.269  1.00  0.00     0.147 C 
HETATM    6  C9  UNL     1      -2.176   4.989   0.794  1.00  0.00     0.148 C 
HETATM    7  C10 UNL     1      -2.117   4.051   2.016  1.00  0.00     0.051 C 
BRANCH   3   8
HETATM    8  C5  UNL     1      -2.829   1.217  -0.527  1.00  0.00     0.006 C 
BRANCH   8   9
HETATM    9  C4  UNL     1      -2.015   0.054  -0.763  1.00  0.00     0.000 C 
BRANCH   9  10
HETATM   10  C3  UNL     1      -2.585  -1.099  -1.530  1.00  0.00    -0.000 C 
BRANCH  10  11
HETATM   11  C2  UNL     1      -3.729  -1.847  -1.057  1.00  0.00    -0.005 C 
HETATM   12  C1  UNL     1      -4.992  -1.054  -0.948  1.00  0.00     0.005 C 
ENDBRANCH  10  11
ENDBRANCH   9  10
ENDBRANCH   8   9
ENDBRANCH   3   8
BRANCH   5  13
HETATM   13  O1  UNL     1      -4.415   5.182   1.326  1.00  0.00    -0.393 OA
ATOM     14  H1  UNL     1      -4.305   6.112   1.483  1.00  0.00     0.210 HD
ENDBRANCH   5  13
BRANCH   6  15
HETATM   15  O2  UNL     1      -2.183   6.272   1.320  1.00  0.00    -0.393 OA
ATOM     16  H2  UNL     1      -1.307   6.443   1.647  1.00  0.00     0.210 HD
ENDBRANCH   6  15
ENDBRANCH   1   2
BRANCH   1  17
HETATM   17  C13 UNL     1      -0.829   0.876   3.163  1.00  0.00     0.165 C 
BRANCH  17  18
HETATM   18  C14 UNL     1      -0.200  -0.119   2.672  1.00  0.00    -0.144 C 
BRANCH  18  19
HETATM   19  C15 UNL     1       0.461  -1.165   2.112  1.00  0.00     0.058 C 
HETATM   20  C16 UNL     1       1.130  -2.273   2.259  1.00  0.00    -0.055 C 
HETATM   21  C17 UNL     1       1.481  -2.997   3.462  1.00  0.00     0.049 C 
BRANCH  20  22
HETATM   22  C18 UNL     1       1.911  -2.563   1.011  1.00  0.00     0.004 C 
HETATM   23  C19 UNL     1       2.655  -3.447   0.530  1.00  0.00    -0.022 C 
BRANCH  23  24
HETATM   24  C20 UNL     1       3.254  -3.169  -0.897  1.00  0.00     0.005 C 
HETATM   25  C21 UNL     1       2.467  -4.005  -1.907  1.00  0.00     0.014 C 
BRANCH  24  26
HETATM   26  C22 UNL     1       2.962  -1.754  -1.247  1.00  0.00     0.022 C 
BRANCH  26  27
HETATM   27  C23 UNL     1       3.555  -1.313  -2.553  1.00  0.00     0.082 C 
HETATM   28  C24 UNL     1       3.072   0.172  -2.751  1.00  0.00     0.020 C 
BRANCH  27  29
HETATM   29  C25 UNL     1       5.043  -1.135  -2.348  1.00  0.00     0.262 C 
HETATM   30  O3  UNL     1       5.590  -0.311  -3.119  1.00  0.00    -0.265 OA
BRANCH  29  31
HETATM   31  O4  UNL     1       5.783  -1.794  -1.402  1.00  0.00    -0.326 OA
HETATM   32  C26 UNL     1       7.177  -1.566  -1.244  1.00  0.00     0.213 C 
ENDBRANCH  29  31
ENDBRANCH  27  29
ENDBRANCH  26  27
ENDBRANCH  24  26
ENDBRANCH  23  24
ENDBRANCH  20  22
ENDBRANCH  18  19
ENDBRANCH  17  18
ENDBRANCH   1  17
TORSDOF 16
