REMARK  10 active torsions:
REMARK  status: ('A' for Active; 'I' for Inactive)
REMARK    1  A    between atoms: C2_2  and  O2_4 
REMARK    2  A    between atoms: O2_4  and  C3_5 
REMARK    3  A    between atoms: C7_10  and  C8_11 
REMARK       I    between atoms: C8_11  and  N1_13 
REMARK    4  A    between atoms: N1_13  and  C9_15 
REMARK    5  A    between atoms: C9_15  and  C10_16 
REMARK    6  A    between atoms: C14_23  and  S2_24 
REMARK    7  A    between atoms: S2_24  and  N3_27 
REMARK    8  A    between atoms: N3_27  and  C15_29 
REMARK    9  A    between atoms: C15_29  and  C16_30 
REMARK   10  A    between atoms: C17_31  and  C18_32 
ROOT
HETATM    1  C3  UNL     1       0.877  -1.689   0.558  1.00  0.00     0.152 C 
HETATM    2  C4  UNL     1       0.522  -0.526   0.065  1.00  0.00    -0.009 C 
HETATM    3  C5  UNL     1      -0.080  -0.540  -1.317  1.00  0.00     0.115 C 
HETATM    4  S1  UNL     1      -1.496   0.587  -1.403  1.00  0.00    -0.136 SA
HETATM    5  C6  UNL     1      -1.313   1.953  -0.194  1.00  0.00     0.192 C 
HETATM    6  C7  UNL     1      -2.624   2.434   0.305  1.00  0.00     0.258 C 
HETATM    7  O4  UNL     1      -2.803   1.851   1.557  1.00  0.00    -0.286 OA
HETATM    8  C13 UNL     1      -1.507   1.558   2.045  1.00  0.00     0.366 C 
HETATM    9  O5  UNL     1      -1.277   1.497   3.278  1.00  0.00    -0.238 OA
HETATM   10  N2  UNL     1      -0.648   1.376   0.947  1.00  0.00    -0.287 N 
HETATM   11  C14 UNL     1       0.651   0.783   0.733  1.00  0.00     0.266 C 
ENDROOT
BRANCH  11  12
HETATM   12  S2  UNL     1       1.664   0.821   2.150  1.00  0.00     0.253 S 
HETATM   13  O6  UNL     1       1.105  -0.031   3.283  1.00  0.00    -0.203 OA
HETATM   14  O7  UNL     1       1.723   2.222   2.692  1.00  0.00    -0.203 OA
BRANCH  12  15
HETATM   15  N3  UNL     1       3.277   0.316   1.860  1.00  0.00    -0.306 N 
ATOM     16  H3  UNL     1       3.695  -0.494   2.317  1.00  0.00     0.173 HD
BRANCH  15  17
HETATM   17  C15 UNL     1       3.984   1.129   0.922  1.00  0.00     0.225 C 
BRANCH  17  18
HETATM   18  C16 UNL     1       5.324   0.634   0.742  1.00  0.00    -0.086 C 
HETATM   19  C17 UNL     1       6.455   0.221   0.610  1.00  0.00    -0.097 C 
BRANCH  19  20
HETATM   20  C18 UNL     1       7.836  -0.277   0.475  1.00  0.00     0.101 A 
HETATM   21  C19 UNL     1       8.386  -0.474  -0.899  1.00  0.00     0.058 A 
HETATM   22  C20 UNL     1       8.888   0.642  -0.033  1.00  0.00     0.187 A 
HETATM   23  F1  UNL     1       8.567   1.953  -0.352  1.00  0.00    -0.248 F 
ENDBRANCH  19  20
ENDBRANCH  17  18
ENDBRANCH  15  17
ENDBRANCH  12  15
ENDBRANCH  11  12
BRANCH   1  24
HETATM   24  O2  UNL     1       0.711  -2.885  -0.154  1.00  0.00    -0.291 OA
BRANCH  24  25
HETATM   25  C2  UNL     1       1.751  -3.294  -0.963  1.00  0.00     0.259 C 
HETATM   26  C1  UNL     1       1.712  -4.536  -1.772  1.00  0.00     0.126 C 
HETATM   27  O1  UNL     1       2.798  -2.595  -1.037  1.00  0.00    -0.265 OA
ENDBRANCH  24  25
ENDBRANCH   1  24
BRANCH   6  28
HETATM   28  C8  UNL     1      -3.674   2.095  -0.667  1.00  0.00     0.250 C 
HETATM   29  O3  UNL     1      -3.593   2.577  -1.824  1.00  0.00    -0.271 OA
HETATM   30  N1  UNL     1      -4.782   1.255  -0.388  1.00  0.00    -0.358 N 
ATOM     31  H1  UNL     1      -4.863   0.856   0.547  1.00  0.00     0.162 HD
BRANCH  30  32
HETATM   32  C9  UNL     1      -5.795   0.938  -1.354  1.00  0.00     0.126 C 
BRANCH  32  33
HETATM   33  C10 UNL     1      -6.860   0.025  -0.797  1.00  0.00    -0.005 C 
HETATM   34  C11 UNL     1      -6.296  -1.291  -0.327  1.00  0.00     0.011 C 
HETATM   35  C12 UNL     1      -7.641   0.657   0.312  1.00  0.00     0.011 C 
ENDBRANCH  32  33
ENDBRANCH  30  32
ENDBRANCH   6  28
TORSDOF 10
