REMARK  8 active torsions:
REMARK  status: ('A' for Active; 'I' for Inactive)
REMARK    1  A    between atoms: C2_2  and  N1_3 
REMARK    2  A    between atoms: N1_3  and  C3_5 
REMARK    3  A    between atoms: C6_11  and  N3_12 
REMARK    4  A    between atoms: N3_12  and  C7_13 
REMARK    5  A    between atoms: C12_18  and  O1_19 
REMARK    6  A    between atoms: N4_25  and  S1_27 
REMARK    7  A    between atoms: C18_31  and  C19_32 
REMARK       I    between atoms: C19_32  and  N5_34 
REMARK    8  A    between atoms: N5_34  and  C20_36 
ROOT
HETATM    1  C7  UNL     1       1.331  -0.161   0.060  1.00  0.00     0.143 A 
HETATM    2  C8  UNL     1       0.085   0.076   0.694  1.00  0.00     0.058 A 
HETATM    3  C9  UNL     1      -0.976  -0.776   0.617  1.00  0.00    -0.003 A 
HETATM    4  C10 UNL     1      -0.799  -1.920  -0.124  1.00  0.00     0.080 A 
HETATM    5  C11 UNL     1       0.397  -2.183  -0.754  1.00  0.00     0.077 A 
HETATM    6  C12 UNL     1       1.474  -1.345  -0.690  1.00  0.00     0.111 A 
HETATM    7  O2  UNL     1      -1.862  -2.809  -0.223  1.00  0.00    -0.340 OA
HETATM    8  C14 UNL     1      -3.210  -2.285  -0.202  1.00  0.00     0.172 C 
HETATM    9  C15 UNL     1      -3.534  -1.726  -1.578  1.00  0.00     0.046 C 
HETATM   10  C16 UNL     1      -3.367  -1.317   0.884  1.00  0.00     0.044 C 
HETATM   11  N4  UNL     1      -4.438  -1.188   1.516  1.00  0.00    -0.289 N 
ATOM     12  H4  UNL     1      -4.447  -0.485   2.255  1.00  0.00     0.178 HD
HETATM   13  C18 UNL     1      -2.237  -0.422   1.327  1.00  0.00     0.162 C 
ENDROOT
BRANCH   1  14
HETATM   14  N3  UNL     1       2.339   0.694   0.160  1.00  0.00    -0.381 NA
BRANCH  14  15
HETATM   15  C6  UNL     1       3.271   1.426   0.234  1.00  0.00     0.234 A 
HETATM   16  C5  UNL     1       3.094   2.754   0.680  1.00  0.00     0.190 A 
HETATM   17  C4  UNL     1       4.148   3.606   0.772  1.00  0.00     0.153 A 
HETATM   18  F1  UNL     1       1.867   3.215   1.028  1.00  0.00    -0.199 F 
HETATM   19  N2  UNL     1       5.376   3.181   0.435  1.00  0.00    -0.199 N 
HETATM   20  C3  UNL     1       5.598   1.922   0.003  1.00  0.00     0.680 A 
ATOM     21  H2  UNL     1       6.162   3.827   0.507  1.00  0.00     0.183 HD
HETATM   22  N6  UNL     1       4.555   1.101  -0.081  1.00  0.00    -0.161 N 
ATOM     23  H6  UNL     1       4.731   0.151  -0.408  1.00  0.00     0.187 HD
BRANCH  20  24
HETATM   24  N1  UNL     1       6.799   1.590  -0.301  1.00  0.00    -0.226 N 
ATOM     25  H1  UNL     1       7.527   2.297  -0.201  1.00  0.00     0.177 HD
BRANCH  24  26
HETATM   26  C2  UNL     1       7.188   0.293  -0.772  1.00  0.00     0.133 C 
HETATM   27  C1  UNL     1       7.235  -0.733   0.338  1.00  0.00     0.027 C 
ENDBRANCH  24  26
ENDBRANCH  20  24
ENDBRANCH  14  15
ENDBRANCH   1  14
BRANCH   6  28
HETATM   28  O1  UNL     1       2.664  -1.643  -1.339  1.00  0.00    -0.352 OA
HETATM   29  C13 UNL     1       2.814  -2.809  -2.081  1.00  0.00     0.210 C 
ENDBRANCH   6  28
BRANCH  13  30
HETATM   30  C19 UNL     1      -2.571   1.007   1.270  1.00  0.00     0.232 C 
HETATM   31  O5  UNL     1      -2.714   1.715   2.329  1.00  0.00    -0.272 OA
HETATM   32  N5  UNL     1      -2.758   1.695   0.039  1.00  0.00    -0.361 N 
ATOM     33  H5  UNL     1      -2.655   1.177  -0.833  1.00  0.00     0.162 HD
BRANCH  32  34
HETATM   34  C20 UNL     1      -3.088   3.101  -0.022  1.00  0.00     0.118 C 
HETATM   35  C21 UNL     1      -4.389   3.401   0.678  1.00  0.00     0.026 C 
ENDBRANCH  32  34
ENDBRANCH  13  30
BRANCH  11  36
HETATM   36  S1  UNL     1      -5.871  -2.048   1.283  1.00  0.00     0.226 S 
HETATM   37  C17 UNL     1      -6.661  -1.732  -0.266  1.00  0.00     0.186 C 
HETATM   38  O3  UNL     1      -5.723  -3.534   1.461  1.00  0.00    -0.206 OA
HETATM   39  O4  UNL     1      -6.838  -1.617   2.389  1.00  0.00    -0.206 OA
ENDBRANCH  11  36
TORSDOF 8
