REMARK  7 active torsions:
REMARK  status: ('A' for Active; 'I' for Inactive)
REMARK    1  A    between atoms: C2_2  and  C3_3 
REMARK    2  A    between atoms: C6_7  and  N1_8 
REMARK       I    between atoms: N1_8  and  C7_10 
REMARK    3  A    between atoms: C7_10  and  C8_12 
REMARK    4  A    between atoms: C8_12  and  S2_13 
REMARK    5  A    between atoms: S2_13  and  C9_16 
REMARK    6  A    between atoms: C9_16  and  C10_17 
REMARK    7  A    between atoms: C15_26  and  C16_27 
ROOT
HETATM    1  N1  UNL     1       0.073  -0.432  -0.205  1.00  0.00    -0.344 N 
ATOM      2  H1  UNL     1      -0.090  -1.179  -0.880  1.00  0.00     0.163 HD
HETATM    3  C7  UNL     1       1.338  -0.356   0.453  1.00  0.00     0.232 C 
HETATM    4  O1  UNL     1       1.523   0.585   1.269  1.00  0.00    -0.273 OA
ENDROOT
BRANCH   1   5
HETATM    5  C6  UNL     1      -0.981   0.518   0.057  1.00  0.00     0.210 C 
HETATM    6  C5  UNL     1      -2.215  -0.298   0.468  1.00  0.00     0.182 C 
HETATM    7  S1  UNL     1      -2.731   0.002   2.169  1.00  0.00    -0.140 SA
HETATM    8  N2  UNL     1      -2.991   0.496  -0.429  1.00  0.00    -0.319 N 
HETATM    9  C4  UNL     1      -4.060   1.250   2.027  1.00  0.00     0.087 C 
HETATM   10  C3  UNL     1      -5.026   0.622   0.988  1.00  0.00     0.050 C 
HETATM   11  C15 UNL     1      -4.413   0.630  -0.359  1.00  0.00     0.198 C 
HETATM   12  C14 UNL     1      -1.768   0.836  -1.123  1.00  0.00     0.247 C 
HETATM   13  O5  UNL     1      -1.567   1.249  -2.319  1.00  0.00    -0.271 OA
BRANCH  10  14
HETATM   14  C2  UNL     1      -6.313   1.310   1.077  1.00  0.00    -0.029 C 
HETATM   15  C1  UNL     1      -7.002   1.953   0.179  1.00  0.00     0.007 C 
ENDBRANCH  10  14
BRANCH  11  16
HETATM   16  C16 UNL     1      -4.973  -0.477  -1.183  1.00  0.00     0.197 C 
HETATM   17  O6  UNL     1      -6.195  -0.734  -1.104  1.00  0.00    -0.646 OA
HETATM   18  O7  UNL     1      -4.177  -1.201  -2.020  1.00  0.00    -0.646 OA
ENDBRANCH  11  16
ENDBRANCH   1   5
BRANCH   3  19
HETATM   19  C8  UNL     1       2.416  -1.325   0.211  1.00  0.00     0.243 C 
BRANCH  19  20
HETATM   20  S2  UNL     1       3.976  -0.509  -0.031  1.00  0.00     0.158 S 
HETATM   21  O2  UNL     1       3.795   0.354  -1.260  1.00  0.00    -0.227 OA
HETATM   22  O3  UNL     1       4.397   0.325   1.121  1.00  0.00    -0.227 OA
BRANCH  20  23
HETATM   23  C9  UNL     1       5.258  -1.718  -0.334  1.00  0.00     0.205 C 
BRANCH  23  24
HETATM   24  C10 UNL     1       6.546  -1.027  -0.526  1.00  0.00     0.068 A 
HETATM   25  C11 UNL     1       7.089  -0.495  -1.667  1.00  0.00     0.037 A 
HETATM   26  C12 UNL     1       8.295   0.027  -1.312  1.00  0.00     0.048 A 
HETATM   27  C13 UNL     1       8.460  -0.199   0.052  1.00  0.00     0.121 A 
HETATM   28 BR1  UNL     1       9.985   0.339   1.055  1.00  0.00    -0.023 Br
HETATM   29  O4  UNL     1       7.395  -0.824   0.460  1.00  0.00    -0.307 OA
ENDBRANCH  23  24
ENDBRANCH  20  23
ENDBRANCH  19  20
ENDBRANCH   3  19
TORSDOF 7
