REMARK  9 active torsions:
REMARK  status: ('A' for Active; 'I' for Inactive)
REMARK    1  A    between atoms: O1_2  and  C2_3 
REMARK    2  A    between atoms: C5_6  and  S1_7 
REMARK    3  A    between atoms: S1_7  and  N1_10 
REMARK    4  A    between atoms: N1_10  and  C6_12 
REMARK    5  A    between atoms: N2_15  and  C9_16 
REMARK    6  A    between atoms: C15_23  and  N3_24 
REMARK    7  A    between atoms: N3_24  and  S2_26 
REMARK    8  A    between atoms: S2_26  and  N4_27 
REMARK    9  A    between atoms: C17_34  and  O6_35 
ROOT
HETATM    1  C6  UNL     1       0.417   1.588  -1.733  1.00  0.00     0.088 A 
HETATM    2  C7  UNL     1       0.194   0.228  -1.702  1.00  0.00     0.055 A 
HETATM    3  C8  UNL     1       0.999  -0.690  -1.096  1.00  0.00     0.102 A 
HETATM    4  N2  UNL     1       2.123  -0.511  -0.431  1.00  0.00    -0.302 N 
HETATM    5  C15 UNL     1       2.669   0.704  -0.247  1.00  0.00     0.168 A 
HETATM    6  S3  UNL     1       1.845   2.040  -0.916  1.00  0.00    -0.034 SA
ENDROOT
BRANCH   1   7
HETATM    7  N1  UNL     1      -0.498   2.422  -2.397  1.00  0.00    -0.274 N 
ATOM      8  H1  UNL     1      -0.342   2.612  -3.387  1.00  0.00     0.179 HD
BRANCH   7   9
HETATM    9  S1  UNL     1      -1.864   3.142  -1.644  1.00  0.00     0.263 S 
HETATM   10  O2  UNL     1      -1.458   4.028  -0.493  1.00  0.00    -0.200 OA
HETATM   11  O3  UNL     1      -2.658   3.933  -2.642  1.00  0.00    -0.200 OA
BRANCH   9  12
HETATM   12  C5  UNL     1      -2.889   1.828  -1.079  1.00  0.00     0.082 A 
HETATM   13  C4  UNL     1      -3.847   1.340  -1.933  1.00  0.00     0.028 A 
HETATM   14  C3  UNL     1      -4.687   0.297  -1.532  1.00  0.00     0.041 A 
HETATM   15  C2  UNL     1      -4.548  -0.239  -0.277  1.00  0.00     0.101 A 
HETATM   16  C17 UNL     1      -3.593   0.240   0.589  1.00  0.00     0.102 A 
HETATM   17  C16 UNL     1      -2.767   1.282   0.165  1.00  0.00     0.065 A 
BRANCH  15  18
HETATM   18  O1  UNL     1      -5.376  -1.264   0.111  1.00  0.00    -0.353 OA
HETATM   19  C1  UNL     1      -6.380  -1.817  -0.706  1.00  0.00     0.210 C 
ENDBRANCH  15  18
BRANCH  16  20
HETATM   20  O6  UNL     1      -3.467  -0.306   1.840  1.00  0.00    -0.353 OA
HETATM   21  C18 UNL     1      -2.547   0.081   2.810  1.00  0.00     0.210 C 
ENDBRANCH  16  20
ENDBRANCH   9  12
ENDBRANCH   7   9
ENDBRANCH   1   7
BRANCH   5  22
HETATM   22  N3  UNL     1       3.793   0.823   0.426  1.00  0.00    -0.247 N 
ATOM     23  H3  UNL     1       4.234  -0.017   0.800  1.00  0.00     0.182 HD
BRANCH  22  24
HETATM   24  S2  UNL     1       4.538   2.332   0.694  1.00  0.00     0.318 S 
HETATM   25  O4  UNL     1       3.994   3.333  -0.268  1.00  0.00    -0.183 OA
HETATM   26  O5  UNL     1       4.371   2.808   2.115  1.00  0.00    -0.183 OA
BRANCH  24  27
HETATM   27  N4  UNL     1       6.255   2.114   0.463  1.00  0.00    -0.311 N 
ATOM     28  H42 UNL     1       6.713   1.238   0.213  1.00  0.00     0.170 HD
ATOM     29  H41 UNL     1       6.701   3.017   0.623  1.00  0.00     0.170 HD
ENDBRANCH  24  27
ENDBRANCH  22  24
ENDBRANCH   5  22
BRANCH   4  30
HETATM   30  C9  UNL     1       2.848  -1.629   0.151  1.00  0.00     0.041 A 
HETATM   31  C10 UNL     1       3.853  -2.273  -0.542  1.00  0.00     0.033 A 
HETATM   32  C11 UNL     1       4.559  -3.334  -0.021  1.00  0.00     0.044 A 
HETATM   33  C12 UNL     1       4.256  -3.781   1.248  1.00  0.00     0.116 A 
HETATM   34  F1  UNL     1       4.954  -4.830   1.761  1.00  0.00    -0.206 F 
HETATM   35  C13 UNL     1       3.249  -3.154   1.971  1.00  0.00     0.044 A 
HETATM   36  C14 UNL     1       2.564  -2.094   1.415  1.00  0.00     0.033 A 
ENDBRANCH   4  30
TORSDOF 9
