REMARK  1 active torsions:
REMARK  status: ('A' for Active; 'I' for Inactive)
REMARK    1  A    between atoms: O1_2  and  C2_3 
ROOT
HETATM    1  C2  UNL     1       0.670  -0.158  -0.716  1.00  0.00     0.123 C 
HETATM    2  C3  UNL     1       0.144   1.224  -0.411  1.00  0.00     0.052 C 
HETATM    3  C4  UNL     1      -1.234   1.253   0.118  1.00  0.00     0.019 C 
HETATM    4  C5  UNL     1      -2.216   0.275  -0.302  1.00  0.00     0.103 C 
HETATM    5  N1  UNL     1      -1.777  -0.966  -0.874  1.00  0.00    -0.256 NA
HETATM    6  C6  UNL     1      -1.053  -1.684   0.132  1.00  0.00     0.106 C 
HETATM    7  C7  UNL     1       0.280  -1.118   0.366  1.00  0.00     0.066 C 
HETATM    8  S1  UNL     1      -0.464  -0.708  -2.063  1.00  0.00    -0.043 SA
ENDROOT
BRANCH   1   9
HETATM    9  O1  UNL     1       1.950  -0.222  -1.129  1.00  0.00    -0.373 OA
HETATM   10  C1  UNL     1       2.922   0.245  -0.292  1.00  0.00     0.204 C 
ENDBRANCH   1   9
TORSDOF 1
