REMARK  0 active torsions:
REMARK  status: ('A' for Active; 'I' for Inactive)
ROOT
HETATM    1  O1  UNL     1       2.123   2.102   0.051  1.00  0.00    -0.246 OA
HETATM    2  S1  UNL     1       1.285   0.880   0.819  1.00  0.00     0.079 S 
HETATM    3  C1  UNL     1       1.361  -0.630  -0.103  1.00  0.00     0.131 C 
HETATM    4  C2  UNL     1       0.027  -1.331   0.065  1.00  0.00     0.088 C 
HETATM    5  S2  UNL     1      -1.229  -0.608  -1.025  1.00  0.00    -0.157 SA
HETATM    6  C3  UNL     1      -1.767   0.956  -0.249  1.00  0.00     0.162 C 
HETATM    7  S3  UNL     1      -0.682   1.429   1.096  1.00  0.00    -0.056 SA
ENDROOT
TORSDOF 0
