REMARK  1 active torsions:
REMARK  status: ('A' for Active; 'I' for Inactive)
REMARK    1  A    between atoms: N2_7  and  O2_8 
ROOT
HETATM    1  C1  UNL     1      -1.327   0.596   1.291  1.00  0.00     0.051 C 
HETATM    2  C2  UNL     1      -0.837   0.131  -0.061  1.00  0.00     0.112 C 
HETATM    3  C3  UNL     1      -1.415  -1.174  -0.483  1.00  0.00     0.051 C 
HETATM    4  O1  UNL     1      -1.157   1.195  -0.976  1.00  0.00    -0.250 OA
HETATM    5  N1  UNL     1      -0.145   2.105  -0.809  1.00  0.00    -0.184 N 
ATOM      6  H1  UNL     1      -0.233   3.096  -1.032  1.00  0.00     0.218 HD
HETATM    7  N2  UNL     1       0.904   1.583  -0.351  1.00  0.00    -0.169 N 
HETATM    8  C4  UNL     1       0.672   0.188  -0.162  1.00  0.00     0.104 C 
HETATM    9  C5  UNL     1       1.273  -0.376   1.092  1.00  0.00     0.046 C 
HETATM   10  C6  UNL     1       1.100  -0.542  -1.407  1.00  0.00     0.046 C 
ENDROOT
BRANCH   7  11
HETATM   11  O2  UNL     1       2.062   2.288  -0.094  1.00  0.00    -0.270 OA
ATOM     12  H2  UNL     1       2.854   1.894   0.252  1.00  0.00     0.246 HD
ENDBRANCH   7  11
TORSDOF 1
