REMARK  0 active torsions:
REMARK  status: ('A' for Active; 'I' for Inactive)
ROOT
HETATM    1  C1  UNL     1       1.741  -0.189   0.601  1.00  0.00     0.030 C 
HETATM    2  C2  UNL     1       2.436   0.522  -0.569  1.00  0.00     0.084 C 
HETATM    3  S1  UNL     1       1.104   1.454  -1.418  1.00  0.00    -0.094 SA
HETATM    4  C3  UNL     1      -0.441   1.003  -0.598  1.00  0.00     0.138 C 
HETATM    5  N1  UNL     1      -1.526   1.628  -0.306  1.00  0.00    -0.369 N 
ATOM      6  H1  UNL     1      -1.704   2.609  -0.523  1.00  0.00     0.161 HD
HETATM    7  C4  UNL     1      -2.448   0.766   0.362  1.00  0.00     0.141 C 
HETATM    8  C5  UNL     1      -1.950  -0.612   0.042  1.00  0.00     0.144 C 
HETATM    9  N2  UNL     1      -0.531  -0.351  -0.155  1.00  0.00    -0.360 N 
HETATM   10  C6  UNL     1       0.699  -1.099  -0.012  1.00  0.00     0.125 C 
ENDROOT
TORSDOF 0
