REMARK  3 active torsions:
REMARK  status: ('A' for Active; 'I' for Inactive)
REMARK    1  A    between atoms: C5_5  and  O1_6 
REMARK    2  A    between atoms: C5_5  and  C6_8 
REMARK    3  A    between atoms: C6_8  and  O2_11 
ROOT
HETATM    1  C1  UNL     1       3.761  -0.233  -0.083  1.00  0.00     0.021 C 
HETATM    2  C2  UNL     1       2.516  -0.709   0.623  1.00  0.00     0.043 C 
HETATM    3  C3  UNL     1       1.513  -1.300  -0.367  1.00  0.00     0.018 C 
HETATM    4  C4  UNL     1       0.116  -1.057   0.134  1.00  0.00     0.043 C 
HETATM    5  C5  UNL     1      -0.410   0.313  -0.243  1.00  0.00     0.096 C 
HETATM    6  C9  UNL     1       0.478   1.401   0.303  1.00  0.00     0.115 C 
HETATM    7  S1  UNL     1       1.662   0.655   1.463  1.00  0.00    -0.162 SA
ENDROOT
BRANCH   5   8
HETATM    8  O1  UNL     1      -0.488   0.491  -1.619  1.00  0.00    -0.386 OA
ATOM      9  H1  UNL     1      -0.818   1.350  -1.855  1.00  0.00     0.210 HD
ENDBRANCH   5   8
BRANCH   5  10
HETATM   10  C6  UNL     1      -1.804   0.358   0.306  1.00  0.00     0.082 C 
HETATM   11  C7  UNL     1      -2.575  -0.803  -0.286  1.00  0.00     0.049 C 
HETATM   12  C8  UNL     1      -2.546   1.616  -0.027  1.00  0.00     0.049 C 
BRANCH  10  13
HETATM   13  O2  UNL     1      -1.714   0.177   1.696  1.00  0.00    -0.388 OA
ATOM     14  H2  UNL     1      -2.598   0.206   2.044  1.00  0.00     0.210 HD
ENDBRANCH  10  13
ENDBRANCH   5  10
TORSDOF 3
