REMARK  4 active torsions:
REMARK  status: ('A' for Active; 'I' for Inactive)
REMARK    1  A    between atoms: C8_10  and  O1_11 
REMARK    2  A    between atoms: C9_13  and  N1_14 
REMARK    3  A    between atoms: N1_14  and  C10_16 
REMARK    4  A    between atoms: C10_16  and  C11_17 
ROOT
HETATM    1  C1  UNL     1      -0.289  -0.047  -3.000  1.00  0.00     0.018 C 
HETATM    2  C2  UNL     1      -0.550   0.030  -1.824  1.00  0.00    -0.075 C 
HETATM    3  C3  UNL     1      -0.873   0.104  -0.426  1.00  0.00     0.053 A 
HETATM    4  C4  UNL     1      -2.190  -0.121  -0.042  1.00  0.00    -0.017 A 
HETATM    5  C5  UNL     1      -3.215  -0.429  -1.096  1.00  0.00     0.052 C 
HETATM    6  C6  UNL     1      -2.515  -0.055   1.283  1.00  0.00     0.066 A 
HETATM    7 CL1  UNL     1      -4.166  -0.331   1.815  1.00  0.00    -0.082 Cl
HETATM    8  C7  UNL     1      -1.554   0.232   2.248  1.00  0.00     0.091 A 
HETATM    9 CL2  UNL     1      -2.012   0.308   3.936  1.00  0.00    -0.079 Cl
HETATM   10  C8  UNL     1      -0.247   0.456   1.880  1.00  0.00     0.117 A 
HETATM   11  C9  UNL     1       0.073   0.388   0.542  1.00  0.00     0.083 A 
ENDROOT
BRANCH  11  12
HETATM   12  N1  UNL     1       1.402   0.609   0.101  1.00  0.00    -0.385 N 
ATOM     13  H1  UNL     1       1.715   1.548  -0.144  1.00  0.00     0.159 HD
BRANCH  12  14
HETATM   14  C10 UNL     1       2.307  -0.510   0.003  1.00  0.00     0.135 C 
BRANCH  14  15
HETATM   15  C11 UNL     1       3.672  -0.117  -0.477  1.00  0.00     0.134 C 
HETATM   16 CL3  UNL     1       3.641   0.626  -2.082  1.00  0.00    -0.129 Cl
ENDBRANCH  14  15
ENDBRANCH  12  14
ENDBRANCH  11  12
BRANCH  10  17
HETATM   17  O1  UNL     1       0.757   0.746   2.787  1.00  0.00    -0.357 OA
ATOM     18  H1  UNL     1       1.659   0.901   2.533  1.00  0.00     0.218 HD
ENDBRANCH  10  17
TORSDOF 4
