REMARK  4 active torsions:
REMARK  status: ('A' for Active; 'I' for Inactive)
REMARK    1  A    between atoms: O1_1  and  C1_3 
REMARK    2  A    between atoms: C1_3  and  C2_4 
REMARK    3  A    between atoms: C11_15  and  N1_16 
REMARK    4  A    between atoms: N1_16  and  C12_18 
ROOT
HETATM    1  C1  UNL     1      -0.804  -1.275  -0.620  1.00  0.00     0.109 C 
HETATM    2  C8  UNL     1      -0.483  -2.603  -0.147  1.00  0.00     0.009 C 
HETATM    3  C9  UNL     1      -0.851  -3.651   0.534  1.00  0.00     0.191 C 
HETATM    4  F1  UNL     1      -0.015  -4.766   0.647  1.00  0.00    -0.192 F 
HETATM    5 CL1  UNL     1      -2.375  -3.849   1.377  1.00  0.00    -0.051 Cl
HETATM    6  C10 UNL     1       0.844  -2.448  -0.910  1.00  0.00     0.069 C 
HETATM    7  C11 UNL     1       0.669  -0.959  -0.722  1.00  0.00     0.120 C 
ENDROOT
BRANCH   1   8
HETATM    8  O1  UNL     1      -1.320  -1.396  -1.939  1.00  0.00    -0.383 OA
ATOM      9  H1  UNL     1      -0.791  -2.018  -2.425  1.00  0.00     0.211 HD
ENDBRANCH   1   8
BRANCH   1  10
HETATM   10  C2  UNL     1      -1.622  -0.314   0.131  1.00  0.00     0.027 C 
HETATM   11  C3  UNL     1      -1.588   1.038  -0.576  1.00  0.00     0.008 C 
HETATM   12  C4  UNL     1      -2.126   2.029   0.449  1.00  0.00     0.000 C 
HETATM   13  C5  UNL     1      -3.618   1.796   0.460  1.00  0.00     0.000 C 
HETATM   14  C6  UNL     1      -4.010   0.483  -0.117  1.00  0.00     0.000 C 
HETATM   15  C7  UNL     1      -3.075  -0.655   0.239  1.00  0.00     0.008 C 
ENDBRANCH   1  10
BRANCH   7  16
HETATM   16  N1  UNL     1       1.395  -0.522   0.404  1.00  0.00    -0.409 N 
ATOM     17  H1  UNL     1       1.409  -1.048   1.278  1.00  0.00     0.154 HD
BRANCH  16  18
HETATM   18  C12 UNL     1       2.109   0.702   0.244  1.00  0.00     0.077 C 
HETATM   19  C13 UNL     1       3.151   0.496  -0.849  1.00  0.00     0.024 C 
HETATM   20  C14 UNL     1       4.412   1.144  -0.343  1.00  0.00     0.002 C 
HETATM   21  C15 UNL     1       3.993   1.990   0.848  1.00  0.00     0.002 C 
HETATM   22  C16 UNL     1       2.928   1.061   1.461  1.00  0.00     0.024 C 
ENDBRANCH  16  18
ENDBRANCH   7  16
TORSDOF 4
