REMARK  5 active torsions:
REMARK  status: ('A' for Active; 'I' for Inactive)
REMARK    1  A    between atoms: C2_2  and  C3_3 
REMARK    2  A    between atoms: C3_3  and  N1_4 
REMARK    3  A    between atoms: N1_4  and  C4_6 
REMARK    4  A    between atoms: C4_6  and  N2_8 
REMARK    5  A    between atoms: N2_8  and  C5_10 
ROOT
HETATM    1  C5  UNL     1      -0.081   0.698   0.742  1.00  0.00     0.052 A 
HETATM    2  C6  UNL     1       0.217   1.283   1.945  1.00  0.00     0.080 A 
HETATM    3  S2  UNL     1      -1.311   1.742   2.561  1.00  0.00    -0.103 SA
HETATM    4  C7  UNL     1      -2.292   1.185   1.287  1.00  0.00    -0.004 A 
HETATM    5  C8  UNL     1      -1.390   0.651   0.403  1.00  0.00     0.013 A 
HETATM    6  C9  UNL     1      -1.880   0.095  -0.896  1.00  0.00    -0.018 C 
HETATM    7  C10 UNL     1      -1.162   0.439  -1.976  1.00  0.00     0.196 C 
HETATM    8  F1  UNL     1      -1.578  -0.049  -3.162  1.00  0.00    -0.219 F 
HETATM    9  C11 UNL     1      -3.075  -0.768  -1.153  1.00  0.00     0.042 C 
HETATM   10  C12 UNL     1      -3.806  -0.967   0.155  1.00  0.00     0.005 C 
HETATM   11  C13 UNL     1      -4.532   0.220   0.644  1.00  0.00     0.005 C 
HETATM   12  C14 UNL     1      -3.788   1.315   1.276  1.00  0.00     0.047 C 
ENDROOT
BRANCH   1  13
HETATM   13  N2  UNL     1       0.934   0.085  -0.033  1.00  0.00    -0.332 N 
ATOM     14  H2  UNL     1       0.621  -0.637  -0.682  1.00  0.00     0.168 HD
BRANCH  13  15
HETATM   15  C4  UNL     1       2.290   0.337  -0.025  1.00  0.00     0.172 C 
HETATM   16  S1  UNL     1       3.017   1.478   0.843  1.00  0.00    -0.041 SA
BRANCH  15  17
HETATM   17  N1  UNL     1       3.115  -0.469  -0.919  1.00  0.00    -0.364 N 
ATOM     18  H1  UNL     1       2.674  -1.172  -1.512  1.00  0.00     0.162 HD
BRANCH  17  19
HETATM   19  C3  UNL     1       4.539  -0.288  -0.978  1.00  0.00     0.148 C 
BRANCH  19  20
HETATM   20  C2  UNL     1       5.252  -0.731   0.252  1.00  0.00    -0.018 C 
HETATM   21  C1  UNL     1       6.172  -1.680   0.224  1.00  0.00     0.008 C 
ENDBRANCH  19  20
ENDBRANCH  17  19
ENDBRANCH  15  17
ENDBRANCH  13  15
ENDBRANCH   1  13
TORSDOF 5
