REMARK  4 active torsions:
REMARK  status: ('A' for Active; 'I' for Inactive)
REMARK    1  A    between atoms: C4_4  and  C5_5 
REMARK    2  A    between atoms: C5_5  and  N1_6 
REMARK    3  A    between atoms: N1_6  and  C6_9 
REMARK    4  A    between atoms: C18_22  and  O1_23 
ROOT
HETATM    1  N1  UNL     1       0.278   0.008  -0.353  1.00  0.00    -0.062 N 
ATOM      2  H11 UNL     1       0.606  -0.769  -0.926  1.00  0.00     0.278 HD
ATOM      3  H12 UNL     1       0.638   0.784  -0.908  1.00  0.00     0.278 HD
ENDROOT
BRANCH   1   4
HETATM    4  C5  UNL     1       0.878  -0.019   0.940  1.00  0.00     0.271 C 
BRANCH   4   5
HETATM    5  C4  UNL     1       2.374  -0.041   0.860  1.00  0.00    -0.029 A 
HETATM    6  C3  UNL     1       3.049  -0.064  -0.328  1.00  0.00     0.018 A 
HETATM    7  C2  UNL     1       4.426  -0.085  -0.304  1.00  0.00    -0.025 A 
HETATM    8  C1  UNL     1       5.175  -0.110  -1.608  1.00  0.00     0.051 C 
HETATM    9  C18 UNL     1       5.119  -0.082   0.885  1.00  0.00     0.110 A 
HETATM   10  C17 UNL     1       4.425  -0.059   2.075  1.00  0.00     0.150 A 
HETATM   11  C16 UNL     1       3.052  -0.038   2.064  1.00  0.00     0.054 A 
HETATM   12  F1  UNL     1       5.080  -0.056   3.283  1.00  0.00    -0.203 F 
BRANCH   9  13
HETATM   13  O1  UNL     1       6.513  -0.102   0.882  1.00  0.00    -0.357 OA
ATOM     14  H1  UNL     1       6.991  -0.100   1.703  1.00  0.00     0.217 HD
ENDBRANCH   9  13
ENDBRANCH   4   5
ENDBRANCH   1   4
BRANCH   1  15
HETATM   15  C6  UNL     1      -1.145   0.036  -0.294  1.00  0.00     0.127 C 
HETATM   16  C7  UNL     1      -1.699   1.267   0.386  1.00  0.00     0.043 C 
HETATM   17  C8  UNL     1      -3.203   1.145   0.479  1.00  0.00    -0.012 C 
HETATM   18  C9  UNL     1      -3.655  -0.128   1.132  1.00  0.00     0.009 C 
HETATM   19  C13 UNL     1      -3.737   1.291  -0.932  1.00  0.00     0.009 C 
HETATM   20  C10 UNL     1      -3.175  -1.306   0.281  1.00  0.00    -0.012 C 
HETATM   21  C11 UNL     1      -3.763  -1.146  -1.079  1.00  0.00     0.009 C 
HETATM   22  C15 UNL     1      -1.662  -1.239   0.304  1.00  0.00     0.043 C 
HETATM   23  C12 UNL     1      -3.192   0.116  -1.727  1.00  0.00    -0.012 C 
HETATM   24  C14 UNL     1      -1.691   0.084  -1.732  1.00  0.00     0.043 C 
ENDBRANCH   1  15
TORSDOF 4
