REMARK  2 active torsions:
REMARK  status: ('A' for Active; 'I' for Inactive)
REMARK    1  A    between atoms: C8_9  and  N1_10 
REMARK    2  A    between atoms: C11_13  and  C12_14 
ROOT
HETATM    1  N1  UNL     1       0.364  -0.622  -0.079  1.00  0.00    -0.371 N 
HETATM    2  C9  UNL     1       0.254  -2.135   0.105  1.00  0.00     0.126 C 
HETATM    3  C10 UNL     1      -0.943  -1.732   0.983  1.00  0.00     0.050 C 
HETATM    4  C11 UNL     1      -1.051  -0.707  -0.172  1.00  0.00     0.127 C 
ENDROOT
BRANCH   1   5
HETATM    5  C8  UNL     1       1.634  -0.006  -0.104  1.00  0.00     0.043 A 
HETATM    6  C2  UNL     1       2.394   0.341   0.998  1.00  0.00    -0.033 A 
HETATM    7  C1  UNL     1       1.867   0.048   2.358  1.00  0.00     0.050 C 
HETATM    8  C3  UNL     1       3.648   0.915   0.882  1.00  0.00     0.033 A 
HETATM    9  C4  UNL     1       4.190   1.163  -0.331  1.00  0.00     0.035 A 
HETATM   10 CL1  UNL     1       5.808   1.870  -0.487  1.00  0.00    -0.084 Cl
HETATM   11  C5  UNL     1       3.462   0.831  -1.462  1.00  0.00     0.033 A 
HETATM   12  C6  UNL     1       2.222   0.264  -1.347  1.00  0.00    -0.033 A 
HETATM   13  C7  UNL     1       1.454  -0.017  -2.600  1.00  0.00     0.050 C 
ENDBRANCH   1   5
BRANCH   4  14
HETATM   14  C12 UNL     1      -1.941   0.356   0.195  1.00  0.00     0.058 A 
HETATM   15  C13 UNL     1      -3.318   0.260  -0.119  1.00  0.00     0.036 A 
HETATM   16  C14 UNL     1      -4.019  -0.971  -0.645  1.00  0.00     0.070 C 
HETATM   17  N2  UNL     1      -3.918   1.392   0.199  1.00  0.00    -0.302 N 
HETATM   18  N3  UNL     1      -3.042   2.248   0.713  1.00  0.00    -0.266 N 
ATOM     19  H2  UNL     1      -4.912   1.582   0.069  1.00  0.00     0.186 HD
HETATM   20  C15 UNL     1      -1.821   1.626   0.716  1.00  0.00     0.270 A 
ATOM     21  H3  UNL     1      -3.241   3.192   1.044  1.00  0.00     0.190 HD
HETATM   22  O1  UNL     1      -0.791   2.150   1.121  1.00  0.00    -0.266 OA
ENDBRANCH   4  14
TORSDOF 2
