REMARK  11 active torsions:
REMARK  status: ('A' for Active; 'I' for Inactive)
REMARK    1  A    between atoms: C2_2  and  C3_4 
REMARK    2  A    between atoms: C3_4  and  C4_5 
REMARK    3  A    between atoms: C4_5  and  C5_6 
REMARK    4  A    between atoms: C5_6  and  C6_7 
REMARK    5  A    between atoms: C8_11  and  C9_12 
REMARK    6  A    between atoms: C9_12  and  N2_13 
REMARK       I    between atoms: N2_13  and  C10_14 
REMARK    7  A    between atoms: C10_14  and  C11_16 
REMARK    8  A    between atoms: C12_17  and  C13_18 
REMARK    9  A    between atoms: C13_18  and  C14_19 
REMARK   10  A    between atoms: C14_19  and  C15_20 
REMARK   11  A    between atoms: C15_20  and  N3_21 
ROOT
HETATM    1  C9  UNL     1      -1.396   0.235   1.630  1.00  0.00     0.166 C 
ENDROOT
BRANCH   1   2
HETATM    2  C8  UNL     1      -2.855   0.441   1.580  1.00  0.00     0.057 A 
HETATM    3  C5  UNL     1      -3.782  -0.390   0.838  1.00  0.00     0.051 A 
HETATM    4  C7  UNL     1      -3.649  -0.592   2.400  1.00  0.00     0.032 A 
BRANCH   3   5
HETATM    5  C4  UNL     1      -5.219   0.145   0.571  1.00  0.00     0.048 C 
BRANCH   5   6
HETATM    6  C3  UNL     1      -6.101  -0.651   1.117  1.00  0.00    -0.007 C 
BRANCH   6   7
HETATM    7  C2  UNL     1      -7.526  -0.458   1.061  1.00  0.00    -0.003 C 
HETATM    8  C1  UNL     1      -8.269  -1.415   1.746  1.00  0.00     0.031 C 
HETATM    9 BR1  UNL     1      -8.337   0.938   0.128  1.00  0.00    -0.052 Br
ENDBRANCH   6   7
ENDBRANCH   5   6
ENDBRANCH   3   5
BRANCH   3  10
HETATM   10  C6  UNL     1      -3.564  -1.621   0.109  1.00  0.00     0.240 C 
HETATM   11  N1  UNL     1      -4.413  -2.093  -0.950  1.00  0.00    -0.061 NA
HETATM   12  O1  UNL     1      -2.574  -2.430   0.319  1.00  0.00    -0.276 OA
ENDBRANCH   3  10
ENDBRANCH   1   2
BRANCH   1  13
HETATM   13  N2  UNL     1      -0.499   0.309   0.577  1.00  0.00    -0.376 NA
HETATM   14  C10 UNL     1       0.345   0.379  -0.413  1.00  0.00     0.370 C 
HETATM   15  O2  UNL     1       0.358  -0.173  -1.578  1.00  0.00    -0.241 OA
BRANCH  14  16
HETATM   16  C11 UNL     1       1.596   1.228  -0.320  1.00  0.00     0.010 C 
HETATM   17  C12 UNL     1       2.609   1.847  -0.186  1.00  0.00    -0.095 C 
BRANCH  17  18
HETATM   18  C13 UNL     1       3.863   2.540   0.069  1.00  0.00     0.097 C 
BRANCH  18  19
HETATM   19  C14 UNL     1       4.988   1.988  -0.773  1.00  0.00     0.048 C 
BRANCH  19  20
HETATM   20  C15 UNL     1       5.052   0.494  -0.529  1.00  0.00     0.311 C 
BRANCH  20  21
HETATM   21  N3  UNL     1       6.126  -0.176  -1.197  1.00  0.00     0.005 N 
HETATM   22  C16 UNL     1       5.584  -1.175  -2.096  1.00  0.00     0.355 C 
HETATM   23  C17 UNL     1       6.984   0.688  -1.939  1.00  0.00     0.355 C 
HETATM   24  O3  UNL     1       6.883  -0.878  -0.302  1.00  0.00    -0.065 OA
ENDBRANCH  20  21
ENDBRANCH  19  20
ENDBRANCH  18  19
ENDBRANCH  17  18
ENDBRANCH  14  16
ENDBRANCH   1  13
TORSDOF 11
