REMARK  9 active torsions:
REMARK  status: ('A' for Active; 'I' for Inactive)
REMARK    1  A    between atoms: C2_2  and  C3_3 
REMARK    2  A    between atoms: C3_3  and  C4_4 
REMARK    3  A    between atoms: C4_4  and  C5_5 
REMARK    4  A    between atoms: C5_5  and  C6_6 
REMARK    5  A    between atoms: C6_6  and  C7_7 
REMARK    6  A    between atoms: C7_7  and  C8_8 
REMARK    7  A    between atoms: C10_13  and  N2_14 
REMARK    8  A    between atoms: C12_19  and  C13_20 
REMARK    9  A    between atoms: N5_22  and  C15_24 
ROOT
HETATM    1  C8  UNL     1      -0.423  -0.844   0.161  1.00  0.00     0.291 C 
HETATM    2  N1  UNL     1      -0.313   0.520   0.463  1.00  0.00    -0.331 N 
ATOM      3  H1  UNL     1       0.478   0.871   1.003  1.00  0.00     0.164 HD
HETATM    4  C9  UNL     1      -1.317   1.398   0.005  1.00  0.00     0.244 C 
HETATM    5  O1  UNL     1      -1.122   2.588  -0.388  1.00  0.00    -0.271 OA
HETATM    6  C10 UNL     1      -2.664   0.851   0.005  1.00  0.00     0.211 C 
HETATM    7  C12 UNL     1      -2.789  -0.652  -0.074  1.00  0.00     0.253 C 
HETATM    8  N5  UNL     1      -1.743  -1.415   0.521  1.00  0.00    -0.040 N 
HETATM    9  C14 UNL     1      -1.664  -2.697  -0.137  1.00  0.00     0.276 C 
ENDROOT
BRANCH   1  10
HETATM   10  C7  UNL     1       0.736  -1.619   0.568  1.00  0.00     0.055 C 
BRANCH  10  11
HETATM   11  C6  UNL     1       2.029  -1.322  -0.099  1.00  0.00     0.004 C 
BRANCH  11  12
HETATM   12  C5  UNL     1       2.618   0.023  -0.047  1.00  0.00     0.000 C 
BRANCH  12  13
HETATM   13  C4  UNL     1       4.002   0.043  -0.758  1.00  0.00     0.000 C 
BRANCH  13  14
HETATM   14  C3  UNL     1       4.481   1.472  -0.626  1.00  0.00    -0.000 C 
BRANCH  14  15
HETATM   15  C2  UNL     1       5.820   1.687  -1.263  1.00  0.00    -0.005 C 
HETATM   16  C1  UNL     1       6.898   0.822  -0.655  1.00  0.00     0.005 C 
ENDBRANCH  14  15
ENDBRANCH  13  14
ENDBRANCH  12  13
ENDBRANCH  11  12
ENDBRANCH  10  11
ENDBRANCH   1  10
BRANCH   8  17
HETATM   17  C15 UNL     1      -1.801  -1.426   1.933  1.00  0.00     0.236 C 
HETATM   18  C16 UNL     1      -1.631  -2.723   2.641  1.00  0.00     0.035 C 
ENDBRANCH   8  17
BRANCH   7  19
HETATM   19  C13 UNL     1      -4.163  -0.858   0.406  1.00  0.00     0.065 C 
HETATM   20 BR1  UNL     1      -4.948  -2.541   0.554  1.00  0.00    -0.066 Br
ENDBRANCH   7  19
BRANCH   6  21
HETATM   21  N2  UNL     1      -3.549   1.498  -0.939  1.00  0.00    -0.351 N 
HETATM   22  C11 UNL     1      -4.105   2.633  -0.648  1.00  0.00     0.197 C 
HETATM   23  N3  UNL     1      -4.977   3.282  -1.565  1.00  0.00    -0.067 NA
HETATM   24  N4  UNL     1      -3.883   3.300   0.594  1.00  0.00    -0.067 NA
ATOM     25  H2  UNL     1      -3.737   1.058  -1.840  1.00  0.00     0.162 HD
ENDBRANCH   6  21
TORSDOF 9
