REMARK  9 active torsions:
REMARK  status: ('A' for Active; 'I' for Inactive)
REMARK    1  A    between atoms: C2_2  and  N1_3 
REMARK    2  A    between atoms: C6_7  and  N2_8 
REMARK       I    between atoms: N2_8  and  C7_10 
REMARK    3  A    between atoms: N3_13  and  C9_14 
REMARK    4  A    between atoms: C9_14  and  O2_15 
REMARK    5  A    between atoms: C9_14  and  C10_17 
REMARK       I    between atoms: C10_17  and  N4_19 
REMARK    6  A    between atoms: N4_19  and  C11_21 
REMARK    7  A    between atoms: C11_21  and  C12_22 
REMARK    8  A    between atoms: C12_22  and  C13_23 
REMARK    9  A    between atoms: C13_23  and  C14_24 
ROOT
HETATM    1  N1  UNL     1      -2.568  -2.155  -0.869  1.00  0.00    -0.050 N 
HETATM    2  C3  UNL     1      -2.996  -3.420  -0.330  1.00  0.00     0.274 C 
HETATM    3  C4  UNL     1      -2.667  -1.092   0.146  1.00  0.00     0.297 C 
HETATM    4  C5  UNL     1      -1.695  -0.049  -0.453  1.00  0.00     0.057 C 
HETATM    5  C6  UNL     1      -1.648   1.229   0.213  1.00  0.00     0.118 C 
HETATM    6  N3  UNL     1      -0.597  -0.840  -0.820  1.00  0.00    -0.299 N 
HETATM    7  C15 UNL     1      -1.207  -2.181  -1.242  1.00  0.00     0.369 C 
ENDROOT
BRANCH   6   8
HETATM    8  C9  UNL     1       0.780  -0.741  -0.935  1.00  0.00     0.213 C 
BRANCH   8   9
HETATM    9  O2  UNL     1       1.426  -1.867  -1.298  1.00  0.00    -0.342 OA
ATOM     10  H2  UNL     1       2.370  -1.799  -1.377  1.00  0.00     0.219 HD
ENDBRANCH   8   9
BRANCH   8  11
HETATM   11  C10 UNL     1       1.724   0.313  -0.755  1.00  0.00     0.292 C 
HETATM   12  O3  UNL     1       1.436   1.479  -0.462  1.00  0.00    -0.264 OA
HETATM   13  N4  UNL     1       3.153   0.080  -0.909  1.00  0.00    -0.354 N 
ATOM     14  H4  UNL     1       3.470  -0.859  -1.151  1.00  0.00     0.162 HD
BRANCH  13  15
HETATM   15  C11 UNL     1       4.127   1.101  -0.737  1.00  0.00     0.123 C 
BRANCH  15  16
HETATM   16  C12 UNL     1       4.178   1.739   0.609  1.00  0.00     0.020 C 
BRANCH  16  17
HETATM   17  C13 UNL     1       5.266   2.819   0.667  1.00  0.00     0.012 C 
BRANCH  17  18
HETATM   18  C14 UNL     1       5.262   3.427   2.070  1.00  0.00     0.085 C 
HETATM   19 BR1  UNL     1       3.541   4.220   2.460  1.00  0.00    -0.097 Br
ENDBRANCH  17  18
ENDBRANCH  16  17
ENDBRANCH  15  16
ENDBRANCH  13  15
ENDBRANCH   8  11
ENDBRANCH   6   8
BRANCH   5  20
HETATM   20  N2  UNL     1      -1.305   1.428   1.562  1.00  0.00    -0.336 N 
HETATM   21  C7  UNL     1      -1.931   1.079   2.761  1.00  0.00     0.217 C 
HETATM   22  C8  UNL     1      -1.270   1.424   4.068  1.00  0.00     0.117 C 
HETATM   23  O1  UNL     1      -3.036   0.481   2.770  1.00  0.00    -0.274 OA
ATOM     24  H2  UNL     1      -0.424   1.926   1.691  1.00  0.00     0.168 HD
ENDBRANCH   5  20
BRANCH   1  25
HETATM   25  C2  UNL     1      -3.392  -1.853  -2.015  1.00  0.00     0.235 C 
HETATM   26  C1  UNL     1      -3.776  -3.146  -2.724  1.00  0.00     0.035 C 
ENDBRANCH   1  25
TORSDOF 9
