REMARK  9 active torsions:
REMARK  status: ('A' for Active; 'I' for Inactive)
REMARK    1  A    between atoms: C2_2  and  N1_4 
REMARK       I    between atoms: N1_4  and  C4_6 
REMARK    2  A    between atoms: C4_6  and  C5_8 
REMARK    3  A    between atoms: C6_9  and  N2_10 
REMARK       I    between atoms: N2_10  and  C7_12 
REMARK    4  A    between atoms: C7_12  and  C8_14 
REMARK    5  A    between atoms: C8_14  and  N3_15 
REMARK       I    between atoms: N4_19  and  C12_20 
REMARK    6  A    between atoms: C12_20  and  C13_22 
REMARK    7  A    between atoms: C13_22  and  C14_23 
REMARK    8  A    between atoms: C14_23  and  C15_24 
REMARK    9  A    between atoms: C15_24  and  C16_25 
ROOT
HETATM    1  N3  UNL     1       5.305  -1.063  -1.104  1.00  0.00    -0.374 NA
HETATM    2  C9  UNL     1       6.455  -1.178  -1.044  1.00  0.00     0.012 C 
HETATM    3  C10 UNL     1       7.916  -1.342  -0.963  1.00  0.00     0.140 C 
ENDROOT
BRANCH   1   4
HETATM    4  C8  UNL     1       3.913  -0.923  -1.183  1.00  0.00     0.267 C 
BRANCH   4   5
HETATM    5  C7  UNL     1       3.322  -0.597   0.141  1.00  0.00     0.271 C 
HETATM    6  N2  UNL     1       1.921  -0.423   0.226  1.00  0.00    -0.347 N 
ATOM      7  H2  UNL     1       1.326  -0.517  -0.597  1.00  0.00     0.163 HD
HETATM    8  O2  UNL     1       4.082  -0.487   1.142  1.00  0.00    -0.266 OA
BRANCH   6   9
HETATM    9  C6  UNL     1       1.365  -0.109   1.514  1.00  0.00     0.135 C 
HETATM   10  C5  UNL     1       0.136   0.711   1.556  1.00  0.00     0.203 C 
HETATM   11  N4  UNL     1      -0.549  -0.376   0.947  1.00  0.00    -0.335 N 
HETATM   12  C11 UNL     1       0.319  -1.208   1.840  1.00  0.00     0.154 C 
HETATM   13  C12 UNL     1      -1.495  -0.787   0.006  1.00  0.00     0.220 C 
HETATM   14  O3  UNL     1      -2.113   0.007  -0.743  1.00  0.00    -0.273 OA
BRANCH  10  15
HETATM   15  C4  UNL     1       0.099   2.059   0.992  1.00  0.00     0.247 C 
HETATM   16  N1  UNL     1      -1.132   2.673   0.738  1.00  0.00    -0.330 N 
ATOM     17  H1  UNL     1      -1.958   2.125   0.979  1.00  0.00     0.168 HD
HETATM   18  O1  UNL     1       1.151   2.702   0.725  1.00  0.00    -0.271 OA
BRANCH  16  19
HETATM   19  C2  UNL     1      -1.378   3.938   0.198  1.00  0.00    -0.001 C 
HETATM   20  C1  UNL     1      -0.470   4.798  -0.177  1.00  0.00     0.037 C 
HETATM   21  C3  UNL     1      -2.824   4.407   0.009  1.00  0.00     0.067 C 
ENDBRANCH  16  19
ENDBRANCH  10  15
BRANCH  13  22
HETATM   22  C13 UNL     1      -1.828  -2.228  -0.166  1.00  0.00     0.103 C 
BRANCH  22  23
HETATM   23  C14 UNL     1      -3.030  -2.462  -1.018  1.00  0.00     0.010 C 
BRANCH  23  24
HETATM   24  C15 UNL     1      -4.301  -1.881  -0.464  1.00  0.00     0.011 C 
BRANCH  24  25
HETATM   25  C16 UNL     1      -5.436  -2.208  -1.448  1.00  0.00     0.085 C 
HETATM   26 BR1  UNL     1      -7.078  -1.474  -0.763  1.00  0.00    -0.097 Br
ENDBRANCH  24  25
ENDBRANCH  23  24
ENDBRANCH  22  23
ENDBRANCH  13  22
ENDBRANCH   6   9
ENDBRANCH   4   5
ENDBRANCH   1   4
TORSDOF 9
