REMARK  5 active torsions:
REMARK  status: ('A' for Active; 'I' for Inactive)
REMARK    1  A    between atoms: C3_5  and  C4_6 
REMARK    2  A    between atoms: C4_6  and  C5_7 
REMARK    3  A    between atoms: C5_7  and  N2_8 
REMARK    4  A    between atoms: N5_15  and  C8_17 
REMARK    5  A    between atoms: C8_17  and  C9_18 
ROOT
HETATM    1  N2  UNL     1      -5.276   1.584   0.142  1.00  0.00    -0.328 N 
ATOM      2  H2  UNL     1      -5.635   2.268  -0.525  1.00  0.00     0.171 HD
HETATM    3  C6  UNL     1      -5.796   1.549   1.438  1.00  0.00     0.177 C 
HETATM    4  N3  UNL     1      -6.214   1.512   2.515  1.00  0.00    -0.172 NA
ENDROOT
BRANCH   1   5
HETATM    5  C5  UNL     1      -4.240   0.669  -0.268  1.00  0.00     0.139 C 
BRANCH   5   6
HETATM    6  C4  UNL     1      -2.991   1.036   0.492  1.00  0.00     0.097 C 
BRANCH   6   7
HETATM    7  C3  UNL     1      -1.843   0.149   0.155  1.00  0.00     0.100 A 
HETATM    8  N1  UNL     1      -2.050  -0.813  -0.759  1.00  0.00    -0.335 N 
HETATM    9  C2  UNL     1      -1.003  -1.626  -1.060  1.00  0.00     0.094 A 
ATOM     10  H1  UNL     1      -2.958  -0.929  -1.210  1.00  0.00     0.168 HD
HETATM   11  C1  UNL     1      -1.155  -2.723  -2.072  1.00  0.00     0.089 C 
HETATM   12  N7  UNL     1       0.178  -1.452  -0.451  1.00  0.00    -0.181 N 
HETATM   13  C7  UNL     1       0.390  -0.491   0.464  1.00  0.00     0.681 A 
ATOM     14  H7  UNL     1       0.948  -2.075  -0.692  1.00  0.00     0.185 HD
HETATM   15  N4  UNL     1      -0.658   0.318   0.759  1.00  0.00    -0.180 N 
HETATM   16  N5  UNL     1       1.524  -0.308   1.062  1.00  0.00    -0.220 N 
ATOM     17  H4  UNL     1      -0.543   1.062   1.447  1.00  0.00     0.185 HD
ATOM     18  H5  UNL     1       1.581   0.451   1.741  1.00  0.00     0.178 HD
BRANCH  16  19
HETATM   19  C8  UNL     1       2.709  -1.093   0.841  1.00  0.00     0.195 C 
BRANCH  19  20
HETATM   20  C9  UNL     1       3.833  -0.164   0.451  1.00  0.00     0.029 A 
HETATM   21  C10 UNL     1       4.343   0.870   1.199  1.00  0.00     0.048 A 
HETATM   22  C11 UNL     1       5.368   1.492   0.518  1.00  0.00     0.046 A 
HETATM   23 BR1  UNL     1       6.425   2.992   1.097  1.00  0.00    -0.048 Br
HETATM   24  C12 UNL     1       5.474   0.809  -0.674  1.00  0.00     0.097 A 
HETATM   25 BR2  UNL     1       6.733   1.219  -2.036  1.00  0.00    -0.030 Br
HETATM   26  N6  UNL     1       4.545  -0.177  -0.690  1.00  0.00    -0.351 N 
ATOM     27  H6  UNL     1       4.406  -0.835  -1.457  1.00  0.00     0.166 HD
ENDBRANCH  19  20
ENDBRANCH  16  19
ENDBRANCH   6   7
ENDBRANCH   5   6
ENDBRANCH   1   5
TORSDOF 5
