REMARK  4 active torsions:
REMARK  status: ('A' for Active; 'I' for Inactive)
REMARK    1  A    between atoms: C3_5  and  C4_6 
REMARK    2  A    between atoms: C6_13  and  C7_14 
REMARK    3  A    between atoms: C7_14  and  O2_15 
REMARK    4  A    between atoms: O2_15  and  C8_16 
ROOT
HETATM    1  C1  UNL     1       0.719  -1.696   1.478  1.00  0.00     0.069 C 
HETATM    2  C2  UNL     1       1.029  -0.627   0.519  1.00  0.00     0.023 A 
HETATM    3  N1  UNL     1       2.262  -0.041   0.566  1.00  0.00    -0.341 N 
ATOM      4  H1  UNL     1       2.939  -0.392   1.243  1.00  0.00     0.167 HD
HETATM    5  C3  UNL     1       2.629   0.974  -0.234  1.00  0.00     0.173 A 
HETATM    6  N3  UNL     1       1.732   1.421  -1.113  1.00  0.00    -0.328 N 
ATOM      7  H3  UNL     1       1.982   2.191  -1.733  1.00  0.00     0.168 HD
HETATM    8  C5  UNL     1       0.505   0.879  -1.200  1.00  0.00     0.117 A 
HETATM    9  S1  UNL     1      -0.498   1.499  -2.299  1.00  0.00    -0.059 SA
HETATM   10  C6  UNL     1       0.122  -0.181  -0.366  1.00  0.00     0.060 A 
ENDROOT
BRANCH  10  11
HETATM   11  C7  UNL     1      -1.233  -0.735  -0.586  1.00  0.00     0.119 C 
HETATM   12  C10 UNL     1      -1.422  -1.982  -0.976  1.00  0.00     0.137 C 
HETATM   13 CL2  UNL     1      -2.996  -2.713  -1.250  1.00  0.00    -0.068 Cl
HETATM   14 CL3  UNL     1      -0.051  -3.054  -1.338  1.00  0.00    -0.068 Cl
BRANCH  11  15
HETATM   15  O2  UNL     1      -2.317   0.047  -0.384  1.00  0.00    -0.328 OA
BRANCH  15  16
HETATM   16  C8  UNL     1      -3.638  -0.038  -0.198  1.00  0.00     0.220 C 
HETATM   17  C9  UNL     1      -4.181   1.404  -0.023  1.00  0.00     0.057 C 
HETATM   18 CL1  UNL     1      -4.196  -0.887   1.260  1.00  0.00    -0.095 Cl
ENDBRANCH  15  16
ENDBRANCH  11  15
ENDBRANCH  10  11
BRANCH   5  19
HETATM   19  C4  UNL     1       3.959   1.564  -0.143  1.00  0.00     0.298 C 
HETATM   20  N2  UNL     1       4.927   1.105   0.783  1.00  0.00    -0.054 NA
HETATM   21  O1  UNL     1       4.257   2.512  -0.911  1.00  0.00    -0.268 OA
ENDBRANCH   5  19
TORSDOF 4
