REMARK  17 active torsions:
REMARK  status: ('A' for Active; 'I' for Inactive)
REMARK    1  A    between atoms: N1_1  and  C1_4 
REMARK    2  A    between atoms: N3_8  and  C3_10 
REMARK    3  A    between atoms: C4_11  and  C5_12 
REMARK    4  A    between atoms: C5_12  and  O1_13 
REMARK    5  A    between atoms: C5_12  and  O2_15 
REMARK    6  A    between atoms: N4_19  and  O4_21 
REMARK    7  A    between atoms: C7_23  and  O5_24 
REMARK    8  A    between atoms: O5_24  and  C8_25 
REMARK    9  A    between atoms: C8_25  and  C9_27 
REMARK   10  A    between atoms: C9_27  and  N5_28 
REMARK   11  A    between atoms: C9_27  and  C10_32 
REMARK   12  A    between atoms: N9_39  and  C11_40 
REMARK   13  A    between atoms: C11_40  and  C12_41 
REMARK   14  A    between atoms: C12_41  and  C13_42 
REMARK   15  A    between atoms: C16_48  and  C17_49 
REMARK   16  A    between atoms: C17_49  and  O10_50 
REMARK   17  A    between atoms: C17_49  and  O11_52 
ROOT
HETATM    1  C3  UNL     1      -1.861   1.227  -0.029  1.00  0.00     0.049 C 
HETATM    2  C4  UNL     1      -2.062   2.486  -0.443  1.00  0.00     0.132 C 
HETATM    3  O3  UNL     1      -1.073   3.398  -0.670  1.00  0.00    -0.291 OA
HETATM    4  C6  UNL     1       0.244   3.066  -0.477  1.00  0.00     0.173 C 
HETATM    5  N4  UNL     1       1.192   3.731  -1.023  1.00  0.00    -0.248 N 
ATOM      6  H4  UNL     1       2.167   3.472  -0.871  1.00  0.00     0.196 HD
HETATM    7  C7  UNL     1       0.523   1.880   0.410  1.00  0.00     0.214 C 
HETATM    8  C14 UNL     1      -0.477   0.791   0.174  1.00  0.00     0.101 C 
ENDROOT
BRANCH   1   9
HETATM    9  N3  UNL     1      -2.941   0.397   0.173  1.00  0.00    -0.341 N 
HETATM   10  C2  UNL     1      -3.245  -0.791   0.190  1.00  0.00     0.159 A 
HETATM   11  N2  UNL     1      -2.403  -1.803  -0.036  1.00  0.00    -0.174 N 
HETATM   12  C15 UNL     1      -4.583  -1.110   0.472  1.00  0.00     0.166 A 
HETATM   13  C1  UNL     1      -2.758  -3.115  -0.011  1.00  0.00     0.679 A 
ATOM     14  H2  UNL     1      -1.430  -1.576  -0.241  1.00  0.00     0.186 HD
HETATM   15  N11 UNL     1      -4.049  -3.388   0.262  1.00  0.00    -0.174 N 
HETATM   16  C18 UNL     1      -4.949  -2.422   0.499  1.00  0.00     0.161 A 
ATOM     17  H11 UNL     1      -4.352  -4.362   0.289  1.00  0.00     0.186 HD
HETATM   18  N10 UNL     1      -6.283  -2.429   0.792  1.00  0.00    -0.319 N 
HETATM   19  C16 UNL     1      -6.678  -1.138   0.932  1.00  0.00     0.181 A 
ATOM     20  H10 UNL     1      -6.875  -3.254   0.888  1.00  0.00     0.169 HD
HETATM   21  O9  UNL     1      -5.637  -0.367   0.734  1.00  0.00    -0.285 OA
ATOM     22  H3  UNL     1      -3.767   0.960   0.377  1.00  0.00     0.167 HD
BRANCH  13  23
HETATM   23  N1  UNL     1      -1.891  -4.057  -0.240  1.00  0.00    -0.234 N 
ATOM     24  H12 UNL     1      -0.914  -3.850  -0.447  1.00  0.00     0.174 HD
ATOM     25  H11 UNL     1      -2.157  -5.041  -0.221  1.00  0.00     0.174 HD
ENDBRANCH  13  23
BRANCH  19  26
HETATM   26  C17 UNL     1      -8.052  -0.667   1.253  1.00  0.00     0.331 C 
BRANCH  26  27
HETATM   27  O10 UNL     1      -8.421   0.409   0.433  1.00  0.00    -0.364 OA
ATOM     28  H10 UNL     1      -9.298   0.710   0.638  1.00  0.00     0.213 HD
ENDBRANCH  26  27
BRANCH  26  29
HETATM   29  O11 UNL     1      -8.965  -1.718   1.014  1.00  0.00    -0.364 OA
ATOM     30  H11 UNL     1      -9.842  -1.417   1.219  1.00  0.00     0.213 HD
ENDBRANCH  26  29
ENDBRANCH  19  26
ENDBRANCH   1   9
BRANCH   2  31
HETATM   31  C5  UNL     1      -3.465   2.903  -0.664  1.00  0.00     0.314 C 
BRANCH  31  32
HETATM   32  O1  UNL     1      -3.768   3.973   0.173  1.00  0.00    -0.365 OA
ATOM     33  H1  UNL     1      -4.668   4.241   0.031  1.00  0.00     0.213 HD
ENDBRANCH  31  32
BRANCH  31  34
HETATM   34  O2  UNL     1      -3.583   3.398  -1.984  1.00  0.00    -0.365 OA
ATOM     35  H2  UNL     1      -4.483   3.666  -2.126  1.00  0.00     0.213 HD
ENDBRANCH  31  34
ENDBRANCH   2  31
BRANCH   7  36
HETATM   36  O5  UNL     1       1.798   1.408  -0.002  1.00  0.00    -0.305 OA
BRANCH  36  37
HETATM   37  C8  UNL     1       2.942   1.460   0.775  1.00  0.00     0.298 C 
HETATM   38  O6  UNL     1       2.842   1.958   1.924  1.00  0.00    -0.262 OA
BRANCH  37  39
HETATM   39  C9  UNL     1       4.253   0.949   0.280  1.00  0.00     0.351 C 
BRANCH  39  40
HETATM   40  N5  UNL     1       5.284   1.224   1.208  1.00  0.00    -0.059 N 
ATOM     41  H53 UNL     1       5.329   2.217   1.438  1.00  0.00     0.275 HD
ATOM     42  H52 UNL     1       5.063   0.860   2.135  1.00  0.00     0.275 HD
ATOM     43  H51 UNL     1       6.181   0.875   0.870  1.00  0.00     0.275 HD
ENDBRANCH  39  40
BRANCH  39  44
HETATM   44  C10 UNL     1       4.129  -0.486  -0.112  1.00  0.00     0.156 A 
HETATM   45  N6  UNL     1       3.030  -1.249  -0.066  1.00  0.00    -0.270 N 
HETATM   46  N7  UNL     1       3.322  -2.433  -0.532  1.00  0.00    -0.227 N 
ATOM     47  H6  UNL     1       2.116  -0.954   0.277  1.00  0.00     0.190 HD
HETATM   48  N8  UNL     1       4.585  -2.432  -0.871  1.00  0.00    -0.225 N 
ATOM     49  H7  UNL     1       2.679  -3.220  -0.617  1.00  0.00     0.210 HD
HETATM   50  N9  UNL     1       5.127  -1.214  -0.618  1.00  0.00    -0.261 N 
ATOM     51  H8  UNL     1       5.087  -3.227  -1.266  1.00  0.00     0.210 HD
BRANCH  50  52
HETATM   52  C11 UNL     1       6.509  -0.941  -0.882  1.00  0.00     0.163 C 
BRANCH  52  53
HETATM   53  C12 UNL     1       7.474  -1.334   0.189  1.00  0.00     0.135 C 
BRANCH  53  54
HETATM   54  C13 UNL     1       7.441  -2.778   0.487  1.00  0.00     0.174 C 
HETATM   55  O7  UNL     1       6.557  -3.229   1.254  1.00  0.00    -0.648 OA
HETATM   56  O8  UNL     1       8.348  -3.673  -0.048  1.00  0.00    -0.648 OA
ENDBRANCH  53  54
ENDBRANCH  52  53
ENDBRANCH  50  52
ENDBRANCH  39  44
ENDBRANCH  37  39
ENDBRANCH  36  37
ENDBRANCH   7  36
BRANCH   5  57
HETATM   57  O4  UNL     1       0.866   4.801  -1.818  1.00  0.00    -0.288 OA
ATOM     58  H4  UNL     1       1.569   5.294  -2.223  1.00  0.00     0.244 HD
ENDBRANCH   5  57
TORSDOF 17
