REMARK  10 active torsions:
REMARK  status: ('A' for Active; 'I' for Inactive)
REMARK    1  A    between atoms: C2_5  and  C3_6 
REMARK    2  A    between atoms: C3_6  and  C4_7 
REMARK    3  A    between atoms: C5_8  and  C6_9 
REMARK    4  A    between atoms: C7_10  and  O1_11 
REMARK    5  A    between atoms: C8_13  and  O2_14 
REMARK    6  A    between atoms: C9_16  and  N3_17 
REMARK    7  A    between atoms: C10_20  and  C11_21 
REMARK       I    between atoms: C11_21  and  N5_23 
REMARK    8  A    between atoms: C15_37  and  N11_38 
REMARK    9  A    between atoms: N13_44  and  O5_45 
REMARK   10  A    between atoms: O5_45  and  O6_46 
ROOT
HETATM    1  N1  UNL     1      -9.171   1.817   2.524  1.00  0.00    -0.172 NA
HETATM    2  C1  UNL     1      -8.252   2.046   1.856  1.00  0.00     0.181 C 
HETATM    3  N2  UNL     1      -7.146   2.320   1.062  1.00  0.00    -0.308 N 
ATOM      4  H2  UNL     1      -6.915   3.277   0.795  1.00  0.00     0.177 HD
HETATM    5  C2  UNL     1      -6.421   1.328   0.673  1.00  0.00     0.076 C 
ENDROOT
BRANCH   5   6
HETATM    6  C3  UNL     1      -5.238   1.630  -0.177  1.00  0.00     0.072 C 
BRANCH   6   7
HETATM    7  C4  UNL     1      -4.410   0.412  -0.373  1.00  0.00    -0.024 C 
HETATM    8  C5  UNL     1      -3.145   0.341   0.009  1.00  0.00    -0.006 C 
BRANCH   8   9
HETATM    9  C6  UNL     1      -2.386  -0.911  -0.222  1.00  0.00     0.145 C 
HETATM   10  C7  UNL     1      -1.804  -0.998  -1.613  1.00  0.00     0.174 C 
HETATM   11  C8  UNL     1      -0.479  -0.275  -1.484  1.00  0.00     0.190 C 
HETATM   12  C9  UNL     1      -0.256  -0.182  -0.003  1.00  0.00     0.244 C 
HETATM   13  N13 UNL     1      -1.239  -1.004   0.632  1.00  0.00    -0.126 NA
BRANCH  10  14
HETATM   14  O1  UNL     1      -2.624  -0.373  -2.552  1.00  0.00    -0.391 OA
ATOM     15  H1  UNL     1      -2.258  -0.428  -3.427  1.00  0.00     0.210 HD
ENDBRANCH  10  14
BRANCH  11  16
HETATM   16  O2  UNL     1       0.478  -0.999  -2.157  1.00  0.00    -0.389 OA
ATOM     17  H2  UNL     1       1.309  -0.546  -2.076  1.00  0.00     0.210 HD
ENDBRANCH  11  16
BRANCH  12  18
HETATM   18  N3  UNL     1       1.106  -0.480   0.392  1.00  0.00    -0.251 N 
HETATM   19  N4  UNL     1       2.001   0.418   0.748  1.00  0.00    -0.289 N 
HETATM   20  C10 UNL     1       3.185  -0.179   1.062  1.00  0.00     0.136 A 
ATOM     21  H4  UNL     1       1.831   1.423   0.784  1.00  0.00     0.187 HD
HETATM   22  C13 UNL     1       2.955  -1.516   0.873  1.00  0.00     0.112 A 
HETATM   23  C14 UNL     1       3.740  -2.624   1.018  1.00  0.00     0.276 A 
HETATM   24  C16 UNL     1       1.647  -1.704   0.452  1.00  0.00     0.157 A 
HETATM   25  O4  UNL     1       4.925  -2.493   1.396  1.00  0.00    -0.267 OA
HETATM   26  N10 UNL     1       3.232  -3.860   0.752  1.00  0.00    -0.155 N 
HETATM   27  C15 UNL     1       1.961  -4.007   0.346  1.00  0.00     0.680 A 
ATOM     28  H10 UNL     1       3.824  -4.683   0.863  1.00  0.00     0.187 HD
HETATM   29  N12 UNL     1       1.150  -2.950   0.189  1.00  0.00    -0.174 N 
ATOM     30  H12 UNL     1       0.186  -3.073  -0.119  1.00  0.00     0.186 HD
BRANCH  20  31
HETATM   31  C11 UNL     1       4.346   0.572   1.486  1.00  0.00     0.277 C 
HETATM   32  O3  UNL     1       5.453   0.078   1.786  1.00  0.00    -0.266 OA
HETATM   33  N5  UNL     1       4.295   2.006   1.594  1.00  0.00    -0.291 N 
HETATM   34  C12 UNL     1       4.424   2.716   0.531  1.00  0.00     0.212 C 
ATOM     35  H5  UNL     1       4.158   2.452   2.501  1.00  0.00     0.172 HD
HETATM   36  N6  UNL     1       4.405   4.136   0.420  1.00  0.00    -0.256 N 
HETATM   37  N9  UNL     1       4.618   2.229  -0.787  1.00  0.00    -0.256 N 
HETATM   38  N7  UNL     1       4.513   4.457  -0.931  1.00  0.00    -0.006 NA
ATOM     39  H6  UNL     1       4.326   4.799   1.191  1.00  0.00     0.187 HD
HETATM   40  N8  UNL     1       4.248   3.278  -1.636  1.00  0.00    -0.006 NA
ATOM     41  H9  UNL     1       4.957   1.306  -1.059  1.00  0.00     0.187 HD
ENDBRANCH  20  31
BRANCH  27  42
HETATM   42  N11 UNL     1       1.464  -5.187   0.089  1.00  0.00    -0.234 N 
ATOM     43 2H11 UNL     1       2.081  -5.991   0.208  1.00  0.00     0.174 HD
ATOM     44 1H11 UNL     1       0.498  -5.299  -0.220  1.00  0.00     0.174 HD
ENDBRANCH  27  42
ENDBRANCH  12  18
BRANCH  13  45
HETATM   45  O5  UNL     1      -1.494  -0.624   1.888  1.00  0.00    -0.139 OA
BRANCH  45  46
HETATM   46  O6  UNL     1      -1.677  -1.637   2.697  1.00  0.00    -0.232 OA
ATOM     47  H6  UNL     1      -1.858  -1.367   3.590  1.00  0.00     0.255 HD
ENDBRANCH  45  46
ENDBRANCH  13  45
ENDBRANCH   8   9
ENDBRANCH   6   7
ENDBRANCH   5   6
TORSDOF 10
