REMARK  14 active torsions:
REMARK  status: ('A' for Active; 'I' for Inactive)
REMARK    1  A    between atoms: C2_2  and  C3_3 
REMARK    2  A    between atoms: C3_3  and  O1_4 
REMARK    3  A    between atoms: C4_8  and  S1_9 
REMARK    4  A    between atoms: S1_9  and  C5_10 
REMARK    5  A    between atoms: C5_10  and  C6_11 
REMARK       I    between atoms: C6_11  and  N2_13 
REMARK    6  A    between atoms: N2_13  and  N3_15 
REMARK       I    between atoms: N3_15  and  C7_17 
REMARK       I    between atoms: C7_17  and  N4_19 
REMARK    7  A    between atoms: N4_19  and  N5_21 
REMARK    8  A    between atoms: C9_23  and  N6_24 
REMARK    9  A    between atoms: C10_28  and  S2_29 
REMARK   10  A    between atoms: S2_29  and  N7_32 
REMARK   11  A    between atoms: N7_32  and  N8_34 
REMARK   12  A    between atoms: C11_38  and  O7_39 
REMARK   13  A    between atoms: C12_41  and  C13_42 
REMARK   14  A    between atoms: C13_42  and  O8_43 
ROOT
HETATM    1  N3  UNL     1       0.517  -2.065   0.980  1.00  0.00    -0.248 N 
ATOM      2  H3  UNL     1       0.639  -2.394   1.938  1.00  0.00     0.192 HD
HETATM    3  C7  UNL     1       1.661  -1.808   0.169  1.00  0.00     0.353 C 
HETATM    4  O3  UNL     1       1.475  -1.430  -0.995  1.00  0.00    -0.244 OA
HETATM    5  N4  UNL     1       2.915  -2.001   0.756  1.00  0.00    -0.248 N 
ATOM      6  H4  UNL     1       2.934  -2.311   1.728  1.00  0.00     0.191 HD
ENDROOT
BRANCH   1   7
HETATM    7  N2  UNL     1      -0.760  -1.871   0.475  1.00  0.00    -0.265 N 
HETATM    8  C6  UNL     1      -1.137  -0.552   0.146  1.00  0.00     0.245 C 
HETATM    9  O2  UNL     1      -0.403   0.439   0.259  1.00  0.00    -0.271 OA
ATOM     10  H2  UNL     1      -1.403  -2.653   0.346  1.00  0.00     0.190 HD
BRANCH   8  11
HETATM   11  C5  UNL     1      -2.553  -0.394  -0.372  1.00  0.00     0.185 C 
BRANCH  11  12
HETATM   12  S1  UNL     1      -3.293   0.972   0.499  1.00  0.00    -0.105 SA
BRANCH  12  13
HETATM   13  C4  UNL     1      -5.088   1.081   0.360  1.00  0.00     0.076 C 
HETATM   14  N1  UNL     1      -5.694   2.243   0.337  1.00  0.00    -0.353 N 
HETATM   15  C2  UNL     1      -7.093   2.028   0.214  1.00  0.00     0.153 C 
ATOM     16  H1  UNL     1      -5.236   3.153   0.397  1.00  0.00     0.163 HD
HETATM   17  C1  UNL     1      -7.517   2.992  -0.932  1.00  0.00     0.073 C 
HETATM   18  O9  UNL     1      -7.230   0.729  -0.256  1.00  0.00    -0.345 OA
HETATM   19  C12 UNL     1      -6.119   0.045   0.253  1.00  0.00     0.204 C 
BRANCH  15  20
HETATM   20  C3  UNL     1      -7.873   2.352   1.438  1.00  0.00     0.224 C 
BRANCH  20  21
HETATM   21  O1  UNL     1      -9.208   2.112   1.227  1.00  0.00    -0.396 OA
ATOM     22  H1  UNL     1      -9.706   2.319   2.009  1.00  0.00     0.209 HD
ENDBRANCH  20  21
ENDBRANCH  15  20
BRANCH  19  23
HETATM   23  C13 UNL     1      -5.780  -1.171  -0.538  1.00  0.00     0.203 C 
BRANCH  23  24
HETATM   24  O8  UNL     1      -6.924  -2.020  -0.555  1.00  0.00    -0.398 OA
ATOM     25  H8  UNL     1      -6.708  -2.795  -1.059  1.00  0.00     0.209 HD
ENDBRANCH  23  24
ENDBRANCH  19  23
ENDBRANCH  12  13
ENDBRANCH  11  12
ENDBRANCH   8  11
ENDBRANCH   1   7
BRANCH   5  26
HETATM   26  N5  UNL     1       4.109  -1.810   0.140  1.00  0.00    -0.270 N 
HETATM   27  C8  UNL     1       5.249  -2.309   0.827  1.00  0.00     0.184 C 
HETATM   28  C9  UNL     1       6.470  -1.431   0.725  1.00  0.00     0.248 C 
HETATM   29  C10 UNL     1       6.049  -0.151   0.012  1.00  0.00     0.302 C 
HETATM   30  O6  UNL     1       5.504  -0.506  -1.220  1.00  0.00    -0.318 OA
HETATM   31  C11 UNL     1       4.259  -1.130  -1.057  1.00  0.00     0.387 C 
BRANCH  28  32
HETATM   32  N6  UNL     1       7.054  -1.137   2.023  1.00  0.00    -0.070 N 
ATOM     33  H63 UNL     1       6.362  -0.732   2.653  1.00  0.00     0.274 HD
ATOM     34  H62 UNL     1       7.260  -1.994   2.535  1.00  0.00     0.274 HD
ATOM     35  H61 UNL     1       7.880  -0.543   1.954  1.00  0.00     0.274 HD
ENDBRANCH  28  32
BRANCH  29  36
HETATM   36  S2  UNL     1       7.428   0.924  -0.299  1.00  0.00     0.273 S 
HETATM   37  O4  UNL     1       8.369   0.187  -1.212  1.00  0.00    -0.202 OA
HETATM   38  O5  UNL     1       8.115   1.287   1.008  1.00  0.00    -0.202 OA
BRANCH  36  39
HETATM   39  N7  UNL     1       6.845   2.339  -1.076  1.00  0.00    -0.231 N 
ATOM     40  H7  UNL     1       6.716   2.460  -2.080  1.00  0.00     0.199 HD
BRANCH  39  41
HETATM   41  N8  UNL     1       6.575   3.309  -0.081  1.00  0.00    -0.336 N 
ATOM     42  H82 UNL     1       6.709   3.175   0.921  1.00  0.00     0.177 HD
ATOM     43  H81 UNL     1       6.229   4.150  -0.543  1.00  0.00     0.177 HD
ENDBRANCH  39  41
ENDBRANCH  36  39
ENDBRANCH  29  36
BRANCH  31  44
HETATM   44  O7  UNL     1       4.003  -1.979  -2.140  1.00  0.00    -0.353 OA
ATOM     45  H7  UNL     1       4.106  -1.513  -2.961  1.00  0.00     0.214 HD
ENDBRANCH  31  44
ENDBRANCH   5  26
TORSDOF 14
