REMARK  10 active torsions:
REMARK  status: ('A' for Active; 'I' for Inactive)
REMARK       I    between atoms: C2_2  and  N1_4 
REMARK    1  A    between atoms: N1_4  and  C3_6 
REMARK    2  A    between atoms: C4_7  and  N2_8 
REMARK       I    between atoms: N2_8  and  C5_10 
REMARK    3  A    between atoms: C5_10  and  C6_12 
REMARK    4  A    between atoms: C6_12  and  O3_13 
REMARK    5  A    between atoms: C6_12  and  C7_15 
REMARK    6  A    between atoms: C9_21  and  N5_22 
REMARK    7  A    between atoms: N6_26  and  O5_27 
REMARK    8  A    between atoms: C10_30  and  C11_31 
REMARK    9  A    between atoms: C12_34  and  C13_35 
REMARK   10  A    between atoms: C14_39  and  O12_40 
ROOT
HETATM    1  C3  UNL     1      -2.215   0.729   0.155  1.00  0.00     0.167 C 
HETATM    2  C4  UNL     1      -1.573  -0.235   1.145  1.00  0.00     0.250 C 
HETATM    3  O6  UNL     1      -2.388  -0.512   2.206  1.00  0.00    -0.342 OA
HETATM    4  C10 UNL     1      -3.167  -1.644   2.074  1.00  0.00     0.298 C 
HETATM    5  C12 UNL     1      -4.040  -1.575   0.835  1.00  0.00     0.295 C 
HETATM    6  O11 UNL     1      -3.436  -2.059  -0.295  1.00  0.00    -0.311 OA
HETATM    7  C14 UNL     1      -3.355  -1.036  -1.217  1.00  0.00     0.292 C 
HETATM    8  C15 UNL     1      -3.508   0.207  -0.371  1.00  0.00     0.208 C 
HETATM    9  O13 UNL     1      -4.324  -0.224   0.644  1.00  0.00    -0.331 OA
ENDROOT
BRANCH   2  10
HETATM   10  N2  UNL     1      -0.297   0.336   1.551  1.00  0.00    -0.330 N 
HETATM   11  C5  UNL     1       0.965  -0.157   1.139  1.00  0.00     0.252 C 
HETATM   12  O2  UNL     1       0.978  -1.161   0.362  1.00  0.00    -0.270 OA
ATOM     13  H2  UNL     1      -0.313   1.144   2.173  1.00  0.00     0.165 HD
BRANCH  11  14
HETATM   14  C6  UNL     1       2.227   0.452   1.579  1.00  0.00     0.256 C 
BRANCH  14  15
HETATM   15  O3  UNL     1       1.890   1.532   2.428  1.00  0.00    -0.382 OA
ATOM     16  H3  UNL     1       2.706   1.926   2.713  1.00  0.00     0.210 HD
ENDBRANCH  14  15
BRANCH  14  17
HETATM   17  C7  UNL     1       3.076   0.953   0.458  1.00  0.00     0.273 C 
HETATM   18  O4  UNL     1       4.241   1.564   1.035  1.00  0.00    -0.298 OA
HETATM   19  C8  UNL     1       5.395   1.733   0.277  1.00  0.00     0.231 C 
HETATM   20  N3  UNL     1       6.481   2.528   0.723  1.00  0.00    -0.056 NA
HETATM   21  N4  UNL     1       5.505   1.168  -0.852  1.00  0.00    -0.318 N 
HETATM   22  C9  UNL     1       4.474   0.347  -1.394  1.00  0.00     0.390 C 
ATOM     23  H4  UNL     1       6.360   1.305  -1.391  1.00  0.00     0.166 HD
HETATM   24  N6  UNL     1       3.475  -0.094  -0.462  1.00  0.00    -0.118 NA
BRANCH  22  25
HETATM   25  N5  UNL     1       5.108  -0.874  -1.918  1.00  0.00    -0.043 N 
ATOM     26  H53 UNL     1       5.853  -0.679  -2.586  1.00  0.00     0.278 HD
ATOM     27  H52 UNL     1       5.676  -1.357  -1.222  1.00  0.00     0.278 HD
ATOM     28  H51 UNL     1       4.370  -1.462  -2.306  1.00  0.00     0.278 HD
ENDBRANCH  22  25
BRANCH  24  29
HETATM   29  O5  UNL     1       3.852  -1.217   0.198  1.00  0.00    -0.307 OA
ATOM     30  H5  UNL     1       4.113  -1.903  -0.405  1.00  0.00     0.237 HD
ENDBRANCH  24  29
ENDBRANCH  14  17
ENDBRANCH  11  14
ENDBRANCH   2  10
BRANCH   1  31
HETATM   31  N1  UNL     1      -1.271   1.002  -0.886  1.00  0.00    -0.350 N 
HETATM   32  C2  UNL     1      -0.786   2.298  -1.198  1.00  0.00     0.214 C 
HETATM   33  C1  UNL     1       0.187   2.562  -2.276  1.00  0.00     0.117 C 
HETATM   34  O1  UNL     1      -1.200   3.268  -0.530  1.00  0.00    -0.274 OA
ATOM     35  H1  UNL     1      -0.926   0.216  -1.437  1.00  0.00     0.163 HD
ENDBRANCH   1  31
BRANCH   4  36
HETATM   36  C11 UNL     1      -2.386  -2.889   2.167  1.00  0.00     0.209 C 
HETATM   37  O7  UNL     1      -1.163  -2.846   2.361  1.00  0.00    -0.646 OA
HETATM   38  O8  UNL     1      -3.009  -4.141   2.038  1.00  0.00    -0.646 OA
ENDBRANCH   4  36
BRANCH   7  39
HETATM   39  O12 UNL     1      -4.515  -1.123  -2.018  1.00  0.00    -0.368 OA
ATOM     40  H12 UNL     1      -4.459  -0.419  -2.653  1.00  0.00     0.212 HD
ENDBRANCH   7  39
BRANCH   5  41
HETATM   41  C13 UNL     1      -5.277  -2.359   1.088  1.00  0.00     0.242 C 
HETATM   42  O9  UNL     1      -5.591  -3.286   0.310  1.00  0.00    -0.644 OA
HETATM   43  O10 UNL     1      -6.088  -2.078   2.173  1.00  0.00    -0.644 OA
ENDBRANCH   5  41
TORSDOF 10
