REMARK  16 active torsions:
REMARK  status: ('A' for Active; 'I' for Inactive)
REMARK    1  A    between atoms: C2_2  and  O2_4 
REMARK    2  A    between atoms: O2_4  and  C3_5 
REMARK    3  A    between atoms: C4_6  and  O3_7 
REMARK    4  A    between atoms: C5_9  and  N1_10 
REMARK    5  A    between atoms: C8_15  and  N3_16 
REMARK    6  A    between atoms: N3_16  and  N4_18 
REMARK    7  A    between atoms: C11_28  and  C12_29 
REMARK    8  A    between atoms: C12_29  and  O5_30 
REMARK    9  A    between atoms: C12_29  and  C13_32 
REMARK   10  A    between atoms: C13_32  and  O6_33 
REMARK   11  A    between atoms: C13_32  and  C14_35 
REMARK   12  A    between atoms: C14_35  and  N7_36 
REMARK   13  A    between atoms: C14_35  and  O7_40 
REMARK   14  A    between atoms: C15_42  and  N8_43 
REMARK       I    between atoms: N8_43  and  C16_45 
REMARK   15  A    between atoms: C16_45  and  C17_47 
REMARK   16  A    between atoms: C17_47  and  N9_48 
ROOT
HETATM    1  C3  UNL     1      -0.329  -0.666  -1.528  1.00  0.00     0.190 C 
HETATM    2  C4  UNL     1       1.010  -1.105  -0.919  1.00  0.00     0.199 C 
HETATM    3  C5  UNL     1       1.362  -0.144   0.213  1.00  0.00     0.262 C 
HETATM    4  O4  UNL     1       0.877   1.108  -0.000  1.00  0.00    -0.353 OA
HETATM    5  C11 UNL     1      -0.523   1.230  -0.060  1.00  0.00     0.181 C 
HETATM    6  C15 UNL     1      -1.105  -0.099  -0.307  1.00  0.00     0.148 C 
ENDROOT
BRANCH   3   7
HETATM    7  N1  UNL     1       2.811  -0.051   0.224  1.00  0.00    -0.297 N 
HETATM    8  C6  UNL     1       3.579   0.956  -0.232  1.00  0.00     0.188 A 
HETATM    9  N2  UNL     1       4.881   0.692  -0.055  1.00  0.00    -0.346 N 
HETATM   10  C7  UNL     1       4.960  -0.515   0.529  1.00  0.00     0.124 A 
ATOM     11  H2  UNL     1       5.663   1.293  -0.314  1.00  0.00     0.167 HD
HETATM   12  C8  UNL     1       5.989  -1.317   0.954  1.00  0.00     0.151 A 
HETATM   13  C10 UNL     1       3.673  -0.969   0.698  1.00  0.00     0.142 A 
HETATM   14  N5  UNL     1       5.716  -2.506   1.515  1.00  0.00    -0.336 N 
HETATM   15  C9  UNL     1       4.448  -2.934   1.673  1.00  0.00     0.183 A 
ATOM     16  H5  UNL     1       6.485  -3.098   1.828  1.00  0.00     0.168 HD
HETATM   17  N6  UNL     1       3.424  -2.165   1.264  1.00  0.00    -0.336 N 
ATOM     18  H6  UNL     1       2.463  -2.486   1.382  1.00  0.00     0.168 HD
BRANCH  12  19
HETATM   19  N3  UNL     1       7.222  -0.932   0.816  1.00  0.00    -0.290 N 
ATOM     20  H3  UNL     1       7.986  -1.529   1.132  1.00  0.00     0.188 HD
BRANCH  19  21
HETATM   21  N4  UNL     1       7.491   0.310   0.229  1.00  0.00    -0.344 N 
ATOM     22  H42 UNL     1       6.715   0.895  -0.082  1.00  0.00     0.176 HD
ATOM     23  H41 UNL     1       8.459   0.612   0.121  1.00  0.00     0.176 HD
ENDBRANCH  19  21
ENDBRANCH  12  19
ENDBRANCH   3   7
BRANCH   2  24
HETATM   24  O3  UNL     1       0.825  -2.360  -0.346  1.00  0.00    -0.388 OA
ATOM     25  H3  UNL     1       1.654  -2.632   0.031  1.00  0.00     0.210 HD
ENDBRANCH   2  24
BRANCH   1  26
HETATM   26  O2  UNL     1      -1.012  -1.707  -2.134  1.00  0.00    -0.311 OA
BRANCH  26  27
HETATM   27  C2  UNL     1      -1.357  -1.590  -3.491  1.00  0.00     0.255 C 
HETATM   28  C1  UNL     1      -2.093  -2.671  -4.208  1.00  0.00     0.126 C 
HETATM   29  O1  UNL     1      -1.026  -0.533  -4.101  1.00  0.00    -0.266 OA
ENDBRANCH  26  27
ENDBRANCH   1  26
BRANCH   5  30
HETATM   30  C12 UNL     1      -0.990   2.019   1.110  1.00  0.00     0.182 C 
BRANCH  30  31
HETATM   31  O5  UNL     1      -0.773   1.478   2.352  1.00  0.00    -0.390 OA
ATOM     32  H5  UNL     1      -1.071   1.982   3.100  1.00  0.00     0.210 HD
ENDBRANCH  30  31
BRANCH  30  33
HETATM   33  C13 UNL     1      -2.274   2.769   0.934  1.00  0.00     0.205 C 
BRANCH  33  34
HETATM   34  O6  UNL     1      -3.425   2.085   1.183  1.00  0.00    -0.389 OA
ATOM     35  H6  UNL     1      -4.240   2.561   1.071  1.00  0.00     0.210 HD
ENDBRANCH  33  34
BRANCH  33  36
HETATM   36  C14 UNL     1      -2.286   4.073   1.715  1.00  0.00     0.347 C 
BRANCH  36  37
HETATM   37  N7  UNL     1      -3.414   4.882   1.318  1.00  0.00    -0.051 N 
ATOM     38  H73 UNL     1      -3.433   5.041   0.311  1.00  0.00     0.277 HD
ATOM     39  H72 UNL     1      -4.295   4.377   1.407  1.00  0.00     0.277 HD
ATOM     40  H71 UNL     1      -3.422   5.757   1.842  1.00  0.00     0.277 HD
ENDBRANCH  36  37
BRANCH  36  41
HETATM   41  O7  UNL     1      -2.379   3.731   3.065  1.00  0.00    -0.368 OA
ATOM     42  H7  UNL     1      -2.386   4.546   3.553  1.00  0.00     0.212 HD
ENDBRANCH  36  41
ENDBRANCH  33  36
ENDBRANCH  30  33
ENDBRANCH   5  30
BRANCH   6  43
HETATM   43  N8  UNL     1      -2.507  -0.202  -0.545  1.00  0.00    -0.350 N 
HETATM   44  C16 UNL     1      -3.252  -1.275   0.074  1.00  0.00     0.243 C 
HETATM   45  O8  UNL     1      -2.677  -2.112   0.818  1.00  0.00    -0.272 OA
ATOM     46  H8  UNL     1      -2.979   0.474  -1.145  1.00  0.00     0.163 HD
BRANCH  44  47
HETATM   47  C17 UNL     1      -4.703  -1.434  -0.135  1.00  0.00     0.332 C 
BRANCH  47  48
HETATM   48  N9  UNL     1      -5.235  -2.571   0.579  1.00  0.00    -0.071 N 
ATOM     49  H93 UNL     1      -4.732  -3.425   0.340  1.00  0.00     0.274 HD
ATOM     50  H92 UNL     1      -5.008  -2.522   1.572  1.00  0.00     0.274 HD
ATOM     51  H91 UNL     1      -6.239  -2.681   0.434  1.00  0.00     0.274 HD
ENDBRANCH  47  48
ENDBRANCH  44  47
ENDBRANCH   6  43
TORSDOF 16
