REMARK  9 active torsions:
REMARK  status: ('A' for Active; 'I' for Inactive)
REMARK    1  A    between atoms: N1_2  and  C2_5 
REMARK    2  A    between atoms: C2_5  and  O1_6 
REMARK    3  A    between atoms: C2_5  and  N2_8 
REMARK    4  A    between atoms: N2_8  and  C3_10 
REMARK    5  A    between atoms: C5_12  and  N3_13 
REMARK    6  A    between atoms: N3_13  and  C6_15 
REMARK    7  A    between atoms: C6_15  and  C7_16 
REMARK    8  A    between atoms: C7_16  and  N4_17 
REMARK    9  A    between atoms: C8_23  and  N6_24 
ROOT
HETATM    1  C3  UNL     1      -0.974   0.297  -0.213  1.00  0.00     0.140 A 
HETATM    2  C4  UNL     1      -0.063   1.153   0.456  1.00  0.00     0.100 A 
HETATM    3  C5  UNL     1       0.990   0.553   1.169  1.00  0.00     0.135 A 
HETATM    4  N5  UNL     1       1.865   1.347   1.807  1.00  0.00    -0.176 N 
ATOM      5  H5  UNL     1       2.633   0.923   2.328  1.00  0.00     0.186 HD
HETATM    6  C8  UNL     1       1.754   2.692   1.776  1.00  0.00     0.679 A 
HETATM    7  N7  UNL     1       0.750   3.248   1.093  1.00  0.00    -0.173 N 
ATOM      8  H7  UNL     1       0.675   4.265   1.074  1.00  0.00     0.186 HD
HETATM    9  C9  UNL     1      -0.169   2.520   0.427  1.00  0.00     0.178 A 
HETATM   10  N8  UNL     1      -1.169   3.106  -0.257  1.00  0.00    -0.067 N 
HETATM   11  N9  UNL     1      -1.450   4.368  -0.412  1.00  0.00    -0.273 N 
ATOM     12  H9  UNL     1      -0.932   5.155  -0.021  1.00  0.00     0.189 HD
HETATM   13  C10 UNL     1      -2.555   4.443  -1.187  1.00  0.00     0.216 A 
HETATM   14  N10 UNL     1      -2.908   3.180  -1.478  1.00  0.00    -0.184 N 
ATOM     15  H10 UNL     1      -3.708   2.911  -2.050  1.00  0.00     0.185 HD
HETATM   16  C11 UNL     1      -2.034   2.313  -0.892  1.00  0.00     0.709 A 
HETATM   17  N11 UNL     1      -1.949   0.952  -0.879  1.00  0.00    -0.170 N 
HETATM   18  C12 UNL     1      -2.939   0.221  -1.609  1.00  0.00     0.177 C 
ENDROOT
BRANCH   1  19
HETATM   19  N2  UNL     1      -0.791  -0.925  -0.113  1.00  0.00    -0.326 N 
ATOM     20  H2  UNL     1       0.029  -1.105   0.466  1.00  0.00     0.165 HD
BRANCH  19  21
HETATM   21  C2  UNL     1      -1.337  -2.118  -0.531  1.00  0.00     0.427 C 
BRANCH  21  22
HETATM   22  N1  UNL     1      -0.632  -2.690  -1.692  1.00  0.00    -0.035 N 
HETATM   23  C1  UNL     1      -1.264  -3.903  -2.149  1.00  0.00     0.272 C 
ATOM     24  H12 UNL     1       0.357  -2.837  -1.492  1.00  0.00     0.281 HD
ATOM     25  H11 UNL     1      -0.542  -2.009  -2.446  1.00  0.00     0.281 HD
ENDBRANCH  21  22
BRANCH  21  26
HETATM   26  O1  UNL     1      -1.250  -3.163   0.447  1.00  0.00    -0.354 OA
ATOM     27  H1  UNL     1      -1.704  -2.794   1.195  1.00  0.00     0.214 HD
ENDBRANCH  21  26
ENDBRANCH  19  21
ENDBRANCH   1  19
BRANCH   3  28
HETATM   28  N3  UNL     1       1.025  -0.706   1.141  1.00  0.00    -0.373 N 
ATOM     29  H3  UNL     1       0.300  -1.190   0.612  1.00  0.00     0.161 HD
BRANCH  28  30
HETATM   30  C6  UNL     1       2.002  -1.494   1.794  1.00  0.00     0.148 C 
BRANCH  30  31
HETATM   31  C7  UNL     1       3.056  -2.061   0.869  1.00  0.00     0.249 C 
BRANCH  31  32
HETATM   32  N4  UNL     1       3.730  -0.961   0.222  1.00  0.00    -0.078 N 
ATOM     33  H43 UNL     1       3.085  -0.332  -0.256  1.00  0.00     0.274 HD
ATOM     34  H42 UNL     1       4.112  -0.288   0.887  1.00  0.00     0.274 HD
ATOM     35  H41 UNL     1       4.441  -1.343  -0.402  1.00  0.00     0.274 HD
ENDBRANCH  31  32
ENDBRANCH  30  31
ENDBRANCH  28  30
ENDBRANCH   3  28
BRANCH   6  36
HETATM   36  N6  UNL     1       2.632   3.403   2.413  1.00  0.00    -0.234 N 
ATOM     37  H62 UNL     1       3.399   2.978   2.935  1.00  0.00     0.174 HD
ATOM     38  H61 UNL     1       2.548   4.419   2.390  1.00  0.00     0.174 HD
ENDBRANCH   6  36
TORSDOF 9
