REMARK  7 active torsions:
REMARK  status: ('A' for Active; 'I' for Inactive)
REMARK    1  A    between atoms: N1_2  and  C2_4 
REMARK    2  A    between atoms: C4_8  and  N3_9 
REMARK    3  A    between atoms: N6_19  and  C9_20 
REMARK    4  A    between atoms: C9_20  and  O1_21 
REMARK    5  A    between atoms: O1_21  and  C10_22 
REMARK    6  A    between atoms: C10_22  and  C11_23 
REMARK    7  A    between atoms: C11_23  and  O2_24 
ROOT
HETATM    1  C2  UNL     1       4.108   0.190   0.305  1.00  0.00     0.694 A 
HETATM    2  N2  UNL     1       3.187  -0.766   0.146  1.00  0.00    -0.171 N 
ATOM      3  H2  UNL     1       3.509  -1.714  -0.050  1.00  0.00     0.186 HD
HETATM    4  C3  UNL     1       1.871  -0.556   0.228  1.00  0.00     0.190 A 
HETATM    5  C4  UNL     1       0.961  -1.575   0.056  1.00  0.00     0.149 A 
HETATM    6  N4  UNL     1      -0.344  -1.271   0.156  1.00  0.00    -0.322 N 
ATOM      7  H4  UNL     1      -1.032  -2.014   0.033  1.00  0.00     0.169 HD
HETATM    8  C6  UNL     1      -0.772  -0.035   0.410  1.00  0.00     0.158 A 
HETATM    9  C7  UNL     1       0.149   0.988   0.582  1.00  0.00     0.176 A 
HETATM   10  N5  UNL     1      -0.591   2.084   0.819  1.00  0.00    -0.334 N 
ATOM     11  H5  UNL     1      -0.200   3.011   0.988  1.00  0.00     0.168 HD
HETATM   12  C8  UNL     1      -1.900   1.817   0.807  1.00  0.00     0.188 A 
HETATM   13  N6  UNL     1      -1.992   0.490   0.550  1.00  0.00    -0.304 N 
HETATM   14  N7  UNL     1       1.467   0.727   0.491  1.00  0.00    -0.109 N 
HETATM   15  C12 UNL     1       2.326   1.743   0.664  1.00  0.00     0.700 A 
HETATM   16  N8  UNL     1       2.058   2.946   0.907  1.00  0.00    -0.233 N 
ATOM     17  H81 UNL     1       2.711   3.718   1.039  1.00  0.00     0.174 HD
ATOM     18  H82 UNL     1       1.069   3.184   0.984  1.00  0.00     0.174 HD
HETATM   19  N9  UNL     1       3.669   1.420   0.559  1.00  0.00    -0.022 N 
ATOM     20  H9  UNL     1       4.357   2.163   0.683  1.00  0.00     0.203 HD
ENDROOT
BRANCH  13  21
HETATM   21  C9  UNL     1      -3.266  -0.200   0.453  1.00  0.00     0.301 C 
BRANCH  21  22
HETATM   22  O1  UNL     1      -3.645  -0.124  -0.874  1.00  0.00    -0.369 OA
BRANCH  22  23
HETATM   23  C10 UNL     1      -4.830  -0.740  -1.197  1.00  0.00     0.196 C 
BRANCH  23  24
HETATM   24  C11 UNL     1      -5.991  -0.152  -0.440  1.00  0.00     0.190 C 
BRANCH  24  25
HETATM   25  O2  UNL     1      -6.053   1.217  -0.783  1.00  0.00    -0.399 OA
ATOM     26  H2  UNL     1      -6.786   1.588  -0.305  1.00  0.00     0.209 HD
ENDBRANCH  24  25
ENDBRANCH  23  24
ENDBRANCH  22  23
ENDBRANCH  21  22
ENDBRANCH  13  21
BRANCH   5  27
HETATM   27  N3  UNL     1       1.305  -2.756  -0.185  1.00  0.00    -0.378 N 
HETATM   28  C5  UNL     1       2.570  -3.367  -0.344  1.00  0.00     0.148 C 
ATOM     29  H3  UNL     1       0.521  -3.401  -0.286  1.00  0.00     0.160 HD
ENDBRANCH   5  27
BRANCH   1  30
HETATM   30  N1  UNL     1       5.387  -0.084   0.213  1.00  0.00    -0.230 N 
HETATM   31  C1  UNL     1       6.303   1.020   0.401  1.00  0.00     0.165 C 
ATOM     32  H1  UNL     1       5.720  -1.028   0.019  1.00  0.00     0.177 HD
ENDBRANCH   1  30
TORSDOF 7
