REMARK  6 active torsions:
REMARK  status: ('A' for Active; 'I' for Inactive)
REMARK    1  A    between atoms: N4_8  and  N5_9 
REMARK       I    between atoms: N5_9  and  C4_11 
REMARK    2  A    between atoms: C4_11  and  C5_13 
REMARK    3  A    between atoms: C5_13  and  C6_15 
REMARK    4  A    between atoms: C6_15  and  C7_16 
REMARK    5  A    between atoms: C9_20  and  N7_21 
REMARK    6  A    between atoms: C10_26  and  N9_27 
ROOT
HETATM    1  C1  UNL     1       6.572   0.778   0.580  1.00  0.00     0.163 C 
HETATM    2  N1  UNL     1       5.201   0.455   0.234  1.00  0.00    -0.277 N 
HETATM    3  C2  UNL     1       4.752  -0.306  -0.776  1.00  0.00     0.210 A 
HETATM    4  C3  UNL     1       5.602  -0.972  -1.733  1.00  0.00     0.138 C 
HETATM    5  N2  UNL     1       6.280  -1.525  -2.484  1.00  0.00    -0.188 NA
HETATM    6  N3  UNL     1       3.434  -0.328  -0.709  1.00  0.00    -0.250 N 
ATOM      7  H3  UNL     1       2.820  -0.829  -1.351  1.00  0.00     0.191 HD
HETATM    8  N4  UNL     1       3.031   0.403   0.324  1.00  0.00    -0.136 N 
HETATM    9  C11 UNL     1       4.126   0.896   0.921  1.00  0.00     0.365 A 
HETATM   10  O3  UNL     1       4.217   1.648   1.951  1.00  0.00    -0.243 OA
ENDROOT
BRANCH   8  11
HETATM   11  N5  UNL     1       1.710   0.635   0.742  1.00  0.00    -0.237 N 
HETATM   12  C4  UNL     1       0.682   0.050  -0.045  1.00  0.00     0.307 C 
HETATM   13  O1  UNL     1       0.971  -0.631  -1.084  1.00  0.00    -0.263 OA
ATOM     14  H5  UNL     1       1.500   1.195   1.568  1.00  0.00     0.192 HD
BRANCH  12  15
HETATM   15  C5  UNL     1      -0.720   0.257   0.380  1.00  0.00     0.222 C 
HETATM   16  O2  UNL     1      -0.918   0.817   1.471  1.00  0.00    -0.287 OA
BRANCH  15  17
HETATM   17  C6  UNL     1      -1.714  -0.239  -0.577  1.00  0.00     0.133 C 
BRANCH  17  18
HETATM   18  C7  UNL     1      -3.107  -0.291  -0.191  1.00  0.00     0.009 A 
HETATM   19  C8  UNL     1      -3.625  -0.372   1.078  1.00  0.00     0.117 A 
HETATM   20  N6  UNL     1      -4.972  -0.461   1.269  1.00  0.00    -0.202 N 
HETATM   21  C9  UNL     1      -5.863  -0.475   0.262  1.00  0.00     0.677 A 
ATOM     22  H6  UNL     1      -5.322  -0.520   2.225  1.00  0.00     0.183 HD
HETATM   23  N8  UNL     1      -5.373  -0.396  -0.989  1.00  0.00    -0.177 N 
HETATM   24  C10 UNL     1      -4.075  -0.308  -1.220  1.00  0.00     0.122 A 
ATOM     25  H8  UNL     1      -6.019  -0.404  -1.778  1.00  0.00     0.185 HD
BRANCH  21  26
HETATM   26  N7  UNL     1      -7.156  -0.588   0.456  1.00  0.00    -0.234 N 
ATOM     27  H72 UNL     1      -7.527  -0.648   1.404  1.00  0.00     0.174 HD
ATOM     28  H71 UNL     1      -7.832  -0.599  -0.308  1.00  0.00     0.174 HD
ENDBRANCH  21  26
BRANCH  24  29
HETATM   29  N9  UNL     1      -3.698  -0.234  -2.452  1.00  0.00    -0.385 N 
ATOM     30  H92 UNL     1      -2.696  -0.166  -2.630  1.00  0.00     0.157 HD
ATOM     31  H91 UNL     1      -4.397  -0.246  -3.195  1.00  0.00     0.157 HD
ENDBRANCH  24  29
ENDBRANCH  17  18
ENDBRANCH  15  17
ENDBRANCH  12  15
ENDBRANCH   8  11
TORSDOF 6
