REMARK  8 active torsions:
REMARK  status: ('A' for Active; 'I' for Inactive)
REMARK    1  A    between atoms: N1_1  and  C1_4 
REMARK    2  A    between atoms: C2_7  and  S1_8 
REMARK    3  A    between atoms: S1_8  and  C3_9 
REMARK    4  A    between atoms: N6_16  and  O1_17 
REMARK    5  A    between atoms: C4_21  and  N8_22 
REMARK    6  A    between atoms: N8_22  and  C5_24 
REMARK    7  A    between atoms: C8_27  and  C9_28 
REMARK    8  A    between atoms: C9_28  and  N9_29 
ROOT
HETATM    1  C1  UNL     1      -1.590  -2.949  -0.294  1.00  0.00     0.692 A 
HETATM    2  N2  UNL     1      -2.868  -2.535  -0.309  1.00  0.00    -0.169 N 
ATOM      3  H2  UNL     1      -3.622  -3.210  -0.439  1.00  0.00     0.186 HD
HETATM    4  C2  UNL     1      -3.153  -1.224  -0.152  1.00  0.00     0.182 A 
HETATM    5  N7  UNL     1      -2.159  -0.363   0.016  1.00  0.00    -0.169 N 
ATOM      6  H7  UNL     1      -2.391   0.623   0.134  1.00  0.00     0.186 HD
HETATM    7  C4  UNL     1      -0.835  -0.724   0.040  1.00  0.00     0.695 A 
HETATM    8  N10 UNL     1      -0.601  -2.031  -0.119  1.00  0.00    -0.023 N 
ATOM      9  H10 UNL     1       0.366  -2.356  -0.109  1.00  0.00     0.203 HD
ENDROOT
BRANCH   7  10
HETATM   10  N8  UNL     1       0.005   0.158   0.203  1.00  0.00    -0.221 N 
ATOM     11  H8  UNL     1      -0.484   1.048   0.295  1.00  0.00     0.178 HD
BRANCH  10  12
HETATM   12  C5  UNL     1       1.353   0.399   0.308  1.00  0.00     0.100 C 
HETATM   13  C6  UNL     1       1.790   1.260   1.473  1.00  0.00     0.026 C 
HETATM   14  C7  UNL     1       3.290   1.149   1.442  1.00  0.00     0.008 C 
HETATM   15  C8  UNL     1       3.642  -0.016   0.585  1.00  0.00     0.013 C 
HETATM   16  C10 UNL     1       2.314  -0.739   0.369  1.00  0.00     0.032 C 
BRANCH  15  17
HETATM   17  C9  UNL     1       4.206   0.341  -0.754  1.00  0.00     0.234 C 
BRANCH  17  18
HETATM   18  N9  UNL     1       5.424   1.114  -0.637  1.00  0.00    -0.079 N 
ATOM     19  H93 UNL     1       5.283   1.944  -0.061  1.00  0.00     0.274 HD
ATOM     20  H92 UNL     1       6.114   0.634  -0.060  1.00  0.00     0.274 HD
ATOM     21  H91 UNL     1       5.809   1.357  -1.550  1.00  0.00     0.274 HD
ENDBRANCH  17  18
ENDBRANCH  15  17
ENDBRANCH  10  12
ENDBRANCH   7  10
BRANCH   4  22
HETATM   22  S1  UNL     1      -4.877  -0.755  -0.185  1.00  0.00    -0.011 SA
BRANCH  22  23
HETATM   23  C3  UNL     1      -5.033   1.016   0.040  1.00  0.00     0.214 A 
HETATM   24  N3  UNL     1      -4.068   1.926   0.213  1.00  0.00    -0.261 N 
HETATM   25  N4  UNL     1      -4.666   3.095   0.335  1.00  0.00    -0.224 N 
ATOM     26  H3  UNL     1      -3.064   1.750   0.244  1.00  0.00     0.191 HD
HETATM   27  N5  UNL     1      -5.969   2.976   0.248  1.00  0.00    -0.199 N 
ATOM     28  H4  UNL     1      -4.177   3.979   0.479  1.00  0.00     0.210 HD
HETATM   29  N6  UNL     1      -6.189   1.675   0.064  1.00  0.00    -0.122 N 
ATOM     30  H5  UNL     1      -6.665   3.720   0.308  1.00  0.00     0.212 HD
BRANCH  29  31
HETATM   31  O1  UNL     1      -7.455   1.137  -0.076  1.00  0.00    -0.265 OA
ATOM     32  H1  UNL     1      -8.280   1.607  -0.059  1.00  0.00     0.247 HD
ENDBRANCH  29  31
ENDBRANCH  22  23
ENDBRANCH   4  22
BRANCH   1  33
HETATM   33  N1  UNL     1      -1.316  -4.202  -0.445  1.00  0.00    -0.234 N 
ATOM     34  H12 UNL     1      -2.057  -4.890  -0.576  1.00  0.00     0.174 HD
ATOM     35  H11 UNL     1      -0.346  -4.516  -0.434  1.00  0.00     0.174 HD
ENDBRANCH   1  33
TORSDOF 8
