REMARK  8 active torsions:
REMARK  status: ('A' for Active; 'I' for Inactive)
REMARK    1  A    between atoms: N1_4  and  N2_6 
REMARK    2  A    between atoms: N2_6  and  C4_8 
REMARK    3  A    between atoms: C7_11  and  N3_12 
REMARK    4  A    between atoms: N3_12  and  N4_14 
REMARK    5  A    between atoms: N4_14  and  C8_16 
REMARK    6  A    between atoms: C8_16  and  O1_17 
REMARK    7  A    between atoms: C9_21  and  N6_22 
REMARK       I    between atoms: N6_22  and  C10_24 
REMARK    8  A    between atoms: C10_24  and  C11_26 
ROOT
HETATM    1  C4  UNL     1       1.314   0.480   0.016  1.00  0.00     0.135 C 
HETATM    2  C5  UNL     1       1.056  -0.857   0.231  1.00  0.00     0.054 C 
HETATM    3  C6  UNL     1      -0.185  -1.455   0.064  1.00  0.00     0.054 C 
HETATM    4  C7  UNL     1      -1.396  -0.875  -0.241  1.00  0.00     0.135 C 
HETATM    5  N5  UNL     1      -1.644   0.433  -0.431  1.00  0.00    -0.175 N 
ATOM      6  H5  UNL     1      -2.632   0.686  -0.404  1.00  0.00     0.186 HD
HETATM    7  C9  UNL     1      -0.810   1.462  -0.650  1.00  0.00     0.688 C 
HETATM    8  N11 UNL     1       0.525   1.446  -0.485  1.00  0.00    -0.175 N 
ATOM      9  H11 UNL     1       1.010   2.292  -0.784  1.00  0.00     0.186 HD
ENDROOT
BRANCH   7  10
HETATM   10  N6  UNL     1      -1.317   2.586  -1.058  1.00  0.00    -0.153 N 
HETATM   11  C10 UNL     1      -2.687   2.773  -1.279  1.00  0.00     0.306 C 
HETATM   12  O2  UNL     1      -3.283   2.228  -2.240  1.00  0.00    -0.263 OA
ATOM     13  H6  UNL     1      -0.687   3.370  -1.226  1.00  0.00     0.187 HD
BRANCH  11  14
HETATM   14  C11 UNL     1      -3.443   3.639  -0.351  1.00  0.00     0.207 A 
HETATM   15  N7  UNL     1      -4.750   3.914  -0.430  1.00  0.00    -0.264 N 
HETATM   16  N8  UNL     1      -5.036   4.718   0.579  1.00  0.00    -0.226 N 
ATOM     17  H7  UNL     1      -5.402   3.569  -1.135  1.00  0.00     0.190 HD
HETATM   18  N9  UNL     1      -3.953   4.952   1.280  1.00  0.00    -0.226 N 
ATOM     19  H8  UNL     1      -5.960   5.099   0.782  1.00  0.00     0.210 HD
HETATM   20  N10 UNL     1      -2.963   4.293   0.719  1.00  0.00    -0.264 N 
ATOM     21  H9  UNL     1      -3.890   5.540   2.111  1.00  0.00     0.210 HD
ATOM     22  H10 UNL     1      -1.995   4.281   1.042  1.00  0.00     0.190 HD
ENDBRANCH  11  14
ENDBRANCH   7  10
BRANCH   4  23
HETATM   23  N3  UNL     1      -2.397  -1.676  -0.355  1.00  0.00    -0.288 N 
ATOM     24  H3  UNL     1      -3.322  -1.309  -0.579  1.00  0.00     0.188 HD
BRANCH  23  25
HETATM   25  N4  UNL     1      -2.215  -3.045  -0.172  1.00  0.00    -0.312 N 
ATOM     26  H4  UNL     1      -1.906  -3.615  -0.959  1.00  0.00     0.182 HD
BRANCH  25  27
HETATM   27  C8  UNL     1      -2.456  -3.683   1.119  1.00  0.00     0.304 C 
BRANCH  27  28
HETATM   28  O1  UNL     1      -2.209  -5.043   1.056  1.00  0.00    -0.381 OA
ATOM     29  H1  UNL     1      -2.366  -5.458   1.896  1.00  0.00     0.211 HD
ENDBRANCH  27  28
ENDBRANCH  25  27
ENDBRANCH  23  25
ENDBRANCH   4  23
BRANCH   1  30
HETATM   30  N2  UNL     1       2.480   0.860   0.342  1.00  0.00    -0.285 N 
ATOM     31  H2  UNL     1       2.716   1.842   0.200  1.00  0.00     0.188 HD
BRANCH  30  32
HETATM   32  N1  UNL     1       3.462   0.028   0.881  1.00  0.00    -0.308 N 
HETATM   33  C2  UNL     1       4.385  -0.401   0.124  1.00  0.00    -0.004 C 
HETATM   34  C1  UNL     1       4.421  -0.030  -1.297  1.00  0.00     0.064 C 
HETATM   35  C3  UNL     1       5.432  -1.280   0.671  1.00  0.00     0.064 C 
ATOM     36  H1  UNL     1       3.438  -0.231   1.867  1.00  0.00     0.186 HD
ENDBRANCH  30  32
ENDBRANCH   1  30
TORSDOF 8
