REMARK  5 active torsions:
REMARK  status: ('A' for Active; 'I' for Inactive)
REMARK    1  A    between atoms: C2_2  and  C3_3 
REMARK    2  A    between atoms: C3_3  and  C4_4 
REMARK    3  A    between atoms: C8_9  and  O1_10 
REMARK    4  A    between atoms: C9_12  and  C10_13 
REMARK    5  A    between atoms: C10_13  and  O2_14 
ROOT
HETATM    1  C4  UNL     1       0.507  -0.279   0.545  1.00  0.00     0.123 C 
HETATM    2  C5  UNL     1      -0.156  -1.603   0.156  1.00  0.00     0.053 C 
HETATM    3  C6  UNL     1      -1.626  -1.599   0.467  1.00  0.00     0.126 C 
HETATM    4  C7  UNL     1      -2.203  -2.835   0.008  1.00  0.00     0.066 C 
HETATM    5  N1  UNL     1      -2.666  -3.825  -0.345  1.00  0.00    -0.197 NA
HETATM    6  C8  UNL     1      -2.204  -0.380  -0.267  1.00  0.00     0.166 C 
HETATM    7  C9  UNL     1      -1.455   0.810   0.336  1.00  0.00     0.175 C 
HETATM    8  O3  UNL     1      -0.140   0.796  -0.051  1.00  0.00    -0.376 OA
ENDROOT
BRANCH   6   9
HETATM    9  O1  UNL     1      -3.553  -0.303   0.000  1.00  0.00    -0.392 OA
ATOM     10  H1  UNL     1      -3.911   0.451  -0.454  1.00  0.00     0.210 HD
ENDBRANCH   6   9
BRANCH   1  11
HETATM   11  C3  UNL     1       1.930  -0.404   0.041  1.00  0.00     0.032 C 
BRANCH  11  12
HETATM   12  C2  UNL     1       2.747   0.832   0.342  1.00  0.00    -0.002 C 
HETATM   13  C1  UNL     1       4.143   0.572  -0.214  1.00  0.00     0.005 C 
ENDBRANCH  11  12
ENDBRANCH   1  11
BRANCH   7  14
HETATM   14  C10 UNL     1      -2.188   2.054  -0.104  1.00  0.00     0.198 C 
BRANCH  14  15
HETATM   15  O2  UNL     1      -1.550   3.147   0.464  1.00  0.00    -0.398 OA
ATOM     16  H2  UNL     1      -2.011   3.930   0.187  1.00  0.00     0.209 HD
ENDBRANCH  14  15
ENDBRANCH   7  14
TORSDOF 5
