REMARK  3 active torsions:
REMARK  status: ('A' for Active; 'I' for Inactive)
REMARK    1  A    between atoms: C7_7  and  N1_8 
REMARK    2  A    between atoms: N1_8  and  C8_11 
REMARK    3  A    between atoms: C8_11  and  C9_12 
ROOT
HETATM    1  N1  UNL     1       0.826   0.333   0.027  1.00  0.00    -0.064 N 
ATOM      2  H11 UNL     1       1.056   1.311   0.203  1.00  0.00     0.278 HD
ATOM      3  H12 UNL     1       0.819   0.342  -0.993  1.00  0.00     0.278 HD
ENDROOT
BRANCH   1   4
HETATM    4  C7  UNL     1      -0.467   0.017   0.539  1.00  0.00     0.190 C 
HETATM    5  C2  UNL     1      -1.500   0.939  -0.003  1.00  0.00     0.012 C 
HETATM    6  C1  UNL     1      -0.991   2.327  -0.288  1.00  0.00     0.012 C 
HETATM    7  C3  UNL     1      -2.086   0.316  -1.265  1.00  0.00     0.006 C 
HETATM    8  C4  UNL     1      -3.055  -0.770  -0.813  1.00  0.00     0.000 C 
HETATM    9  C5  UNL     1      -2.360  -1.581   0.257  1.00  0.00     0.002 C 
HETATM   10  C6  UNL     1      -0.855  -1.392   0.146  1.00  0.00     0.033 C 
ENDBRANCH   1   4
BRANCH   1  11
HETATM   11  C8  UNL     1       1.869  -0.538   0.526  1.00  0.00     0.311 C 
BRANCH  11  12
HETATM   12  C9  UNL     1       3.198  -0.177  -0.028  1.00  0.00     0.136 A 
HETATM   13  N2  UNL     1       4.096   0.695   0.499  1.00  0.00    -0.269 N 
HETATM   14  N3  UNL     1       5.159   0.741  -0.293  1.00  0.00    -0.005 NA
ATOM     15  H2  UNL     1       3.973   1.226   1.361  1.00  0.00     0.185 HD
HETATM   16  N4  UNL     1       4.973  -0.076  -1.315  1.00  0.00    -0.225 N 
HETATM   17  N5  UNL     1       3.792  -0.628  -1.155  1.00  0.00    -0.274 N 
ATOM     18  H4  UNL     1       5.623  -0.246  -2.082  1.00  0.00     0.205 HD
ATOM     19  H5  UNL     1       3.379  -1.306  -1.795  1.00  0.00     0.189 HD
ENDBRANCH  11  12
ENDBRANCH   1  11
TORSDOF 3
