REMARK  5 active torsions:
REMARK  status: ('A' for Active; 'I' for Inactive)
REMARK    1  A    between atoms: C7_7  and  C9_9 
REMARK       I    between atoms: C9_9  and  N1_11 
REMARK    2  A    between atoms: N1_11  and  C10_13 
REMARK    3  A    between atoms: N2_16  and  C13_17 
REMARK    4  A    between atoms: C13_17  and  C14_18 
REMARK    5  A    between atoms: C13_17  and  C15_21 
ROOT
HETATM    1  C10 UNL     1       1.535   0.221  -0.454  1.00  0.00     0.087 C 
HETATM    2  C11 UNL     1       2.347  -0.789  -1.239  1.00  0.00     0.044 C 
HETATM    3  C12 UNL     1       3.642  -1.142  -0.574  1.00  0.00     0.120 C 
HETATM    4  N2  UNL     1       4.358  -0.043  -0.029  1.00  0.00    -0.396 N 
HETATM    5  C16 UNL     1       3.622   1.027   0.470  1.00  0.00     0.120 C 
HETATM    6  C17 UNL     1       2.231   0.496   0.862  1.00  0.00     0.044 C 
ENDROOT
BRANCH   1   7
HETATM    7  N1  UNL     1       0.221  -0.297  -0.137  1.00  0.00    -0.356 N 
HETATM    8  C9  UNL     1      -0.956   0.253  -0.653  1.00  0.00     0.226 C 
HETATM    9  O1  UNL     1      -0.891   1.248  -1.431  1.00  0.00    -0.273 OA
ATOM     10  H1  UNL     1       0.151  -1.098   0.490  1.00  0.00     0.162 HD
BRANCH   8  11
HETATM   11  C7  UNL     1      -2.315  -0.306  -0.306  1.00  0.00     0.038 C 
HETATM   12  C6  UNL     1      -2.508  -0.041   1.155  1.00  0.00     0.019 C 
HETATM   13  C5  UNL     1      -3.852  -0.442   1.665  1.00  0.00     0.002 C 
HETATM   14  C4  UNL     1      -4.960  -0.387   0.679  1.00  0.00     0.009 C 
HETATM   15  C2  UNL     1      -4.718   0.403  -0.556  1.00  0.00    -0.047 C 
HETATM   16  C1  UNL     1      -5.203   1.835  -0.341  1.00  0.00     0.015 C 
HETATM   17  C3  UNL     1      -5.643  -0.175  -1.631  1.00  0.00     0.015 C 
HETATM   18  C18 UNL     1      -3.334   0.391  -1.111  1.00  0.00     0.027 C 
HETATM   19  C8  UNL     1      -2.221  -1.788  -0.604  1.00  0.00     0.025 C 
ENDBRANCH   8  11
ENDBRANCH   1   7
BRANCH   4  20
HETATM   20  C13 UNL     1       5.751  -0.116   0.060  1.00  0.00     0.235 C 
BRANCH  20  21
HETATM   21  C14 UNL     1       6.380   1.224   0.084  1.00  0.00     0.201 C 
HETATM   22  O2  UNL     1       7.660   1.272   0.199  1.00  0.00    -0.646 OA
HETATM   23  O3  UNL     1       5.703   2.426  -0.007  1.00  0.00    -0.646 OA
ENDBRANCH  20  21
BRANCH  20  24
HETATM   24  C15 UNL     1       6.257  -0.919   1.272  1.00  0.00     0.218 C 
HETATM   25 CL1  UNL     1       8.040  -0.957   1.320  1.00  0.00    -0.081 Cl
HETATM   26 CL2  UNL     1       5.729  -2.623   1.159  1.00  0.00    -0.081 Cl
HETATM   27 CL3  UNL     1       5.664  -0.245   2.794  1.00  0.00    -0.081 Cl
ENDBRANCH  20  24
ENDBRANCH   4  20
TORSDOF 5
