REMARK  5 active torsions:
REMARK  status: ('A' for Active; 'I' for Inactive)
REMARK    1  A    between atoms: C2_2  and  C3_5 
REMARK       I    between atoms: C3_5  and  N1_7 
REMARK    2  A    between atoms: N1_7  and  C4_9 
REMARK    3  A    between atoms: C4_9  and  C5_10 
REMARK       I    between atoms: C5_10  and  N2_12 
REMARK    4  A    between atoms: N2_12  and  C6_14 
REMARK    5  A    between atoms: C6_14  and  C7_15 
ROOT
HETATM    1  C5  UNL     1       0.627  -0.090   0.078  1.00  0.00     0.236 C 
HETATM    2  O2  UNL     1       0.591  -0.611   1.214  1.00  0.00    -0.272 OA
HETATM    3  N2  UNL     1      -0.567   0.202  -0.620  1.00  0.00    -0.346 N 
ATOM      4  H2  UNL     1      -0.477   0.627  -1.543  1.00  0.00     0.163 HD
ENDROOT
BRANCH   3   5
HETATM    5  C6  UNL     1      -1.899  -0.051  -0.137  1.00  0.00     0.066 C 
HETATM    6  C11 UNL     1      -2.931   0.411  -1.160  1.00  0.00     0.036 C 
HETATM    7  C12 UNL     1      -3.883   1.434  -0.586  1.00  0.00     0.003 C 
HETATM    8  C13 UNL     1      -3.150   2.611  -0.018  1.00  0.00     0.000 C 
HETATM    9  C14 UNL     1      -1.996   2.165   0.834  1.00  0.00     0.003 C 
HETATM   10  C15 UNL     1      -2.159   0.689   1.129  1.00  0.00     0.036 C 
BRANCH   5  11
HETATM   11  C7  UNL     1      -2.166  -1.524   0.048  1.00  0.00     0.012 A 
HETATM   12  C8  UNL     1      -2.724  -2.164   1.116  1.00  0.00     0.019 A 
HETATM   13  C9  UNL     1      -2.853  -3.504   1.029  1.00  0.00     0.028 A 
HETATM   14  C10 UNL     1      -2.414  -4.101  -0.116  1.00  0.00     0.051 A 
HETATM   15 BR1  UNL     1      -2.450  -5.975  -0.573  1.00  0.00    -0.043 Br
HETATM   16  S1  UNL     1      -1.836  -2.791  -1.041  1.00  0.00    -0.085 SA
ENDBRANCH   5  11
ENDBRANCH   3   5
BRANCH   1  17
HETATM   17  C4  UNL     1       1.928   0.226  -0.539  1.00  0.00     0.225 C 
BRANCH  17  18
HETATM   18  N1  UNL     1       3.069  -0.095   0.279  1.00  0.00    -0.350 N 
HETATM   19  C3  UNL     1       4.357   0.203  -0.263  1.00  0.00     0.256 C 
HETATM   20  O1  UNL     1       4.458   0.729  -1.419  1.00  0.00    -0.270 OA
ATOM     21  H1  UNL     1       2.963  -0.515   1.202  1.00  0.00     0.163 HD
BRANCH  19  22
HETATM   22  C2  UNL     1       5.605  -0.076   0.475  1.00  0.00     0.189 C 
HETATM   23  C1  UNL     1       6.801   0.411  -0.306  1.00  0.00     0.061 C 
HETATM   24 CL1  UNL     1       5.796  -1.858   0.670  1.00  0.00    -0.091 Cl
HETATM   25 CL2  UNL     1       5.622   0.714   2.075  1.00  0.00    -0.091 Cl
ENDBRANCH  19  22
ENDBRANCH  17  18
ENDBRANCH   1  17
TORSDOF 5
