REMARK  6 active torsions:
REMARK  status: ('A' for Active; 'I' for Inactive)
REMARK    1  A    between atoms: C3_3  and  C4_4 
REMARK    2  A    between atoms: N1_9  and  C9_10 
REMARK    3  A    between atoms: C9_10  and  C10_11 
REMARK    4  A    between atoms: C10_11  and  C11_12 
REMARK    5  A    between atoms: C21_24  and  C22_25 
REMARK    6  A    between atoms: C26_30  and  C27_31 
ROOT
HETATM    1  C11 UNL     1       4.278   0.169   0.986  1.00  0.00     0.053 C 
HETATM    2  C12 UNL     1       4.067  -1.095   1.653  1.00  0.00     0.069 C 
HETATM    3  N2  UNL     1       3.890  -2.091   2.201  1.00  0.00    -0.196 NA
HETATM    4  C13 UNL     1       4.352   1.410   1.795  1.00  0.00     0.025 C 
HETATM    5  C14 UNL     1       5.652   1.762   1.055  1.00  0.00     0.004 C 
HETATM    6  C15 UNL     1       5.752   0.312   0.638  1.00  0.00     0.025 C 
ENDROOT
BRANCH   1   7
HETATM    7  C10 UNL     1       3.494   0.263  -0.334  1.00  0.00     0.069 C 
BRANCH   7   8
HETATM    8  C9  UNL     1       2.032   0.083   0.055  1.00  0.00     0.060 C 
BRANCH   8   9
HETATM    9  N1  UNL     1       1.215   0.164  -1.076  1.00  0.00    -0.383 N 
HETATM   10  C4  UNL     1      -0.168  -0.093  -1.013  1.00  0.00     0.136 C 
HETATM   11  C5  UNL     1      -0.321  -1.590  -0.830  1.00  0.00    -0.044 C 
HETATM   12  C6  UNL     1      -0.059  -2.207  -2.189  1.00  0.00     0.039 C 
HETATM   13  C16 UNL     1      -1.374  -2.145  -0.046  1.00  0.00    -0.024 A 
HETATM   14  C7  UNL     1       1.405  -1.861  -2.505  1.00  0.00     0.024 C 
HETATM   15  C8  UNL     1       1.701  -0.414  -2.301  1.00  0.00     0.123 C 
HETATM   16  C17 UNL     1      -1.084  -3.487   0.193  1.00  0.00     0.015 A 
HETATM   17  C21 UNL     1      -2.552  -1.695   0.516  1.00  0.00    -0.036 A 
HETATM   18  C18 UNL     1      -1.905  -4.298   0.929  1.00  0.00     0.043 A 
HETATM   19  C19 UNL     1      -3.057  -3.827   1.470  1.00  0.00     0.117 A 
HETATM   20  F1  UNL     1      -3.903  -4.600   2.214  1.00  0.00    -0.206 F 
HETATM   21  C20 UNL     1      -3.386  -2.499   1.258  1.00  0.00     0.051 A 
BRANCH  10  22
HETATM   22  C3  UNL     1      -1.095   0.567  -0.154  1.00  0.00     0.115 C 
HETATM   23  C2  UNL     1      -2.482   0.318  -0.725  1.00  0.00     0.019 C 
HETATM   24  C1  UNL     1      -3.193   1.418  -1.362  1.00  0.00     0.013 C 
HETATM   25  C22 UNL     1      -3.163  -0.333   0.449  1.00  0.00    -0.009 C 
HETATM   26  C23 UNL     1      -4.644  -0.419   0.181  1.00  0.00     0.021 C 
HETATM   27  C24 UNL     1      -2.834   0.530   1.623  1.00  0.00     0.034 C 
HETATM   28  C25 UNL     1      -2.180   1.853   1.343  1.00  0.00     0.124 C 
HETATM   29  N3  UNL     1      -1.178   1.857   0.319  1.00  0.00    -0.377 N 
HETATM   30  C26 UNL     1      -0.537   2.937  -0.111  1.00  0.00     0.171 C 
BRANCH  30  31
HETATM   31  C27 UNL     1      -0.730   4.204   0.620  1.00  0.00     0.214 C 
HETATM   32  O1  UNL     1      -0.147   5.254   0.156  1.00  0.00    -0.644 OA
HETATM   33  O2  UNL     1      -1.458   4.425   1.752  1.00  0.00    -0.644 OA
ENDBRANCH  30  31
ENDBRANCH  10  22
ENDBRANCH   8   9
ENDBRANCH   7   8
ENDBRANCH   1   7
TORSDOF 6
