REMARK  8 active torsions:
REMARK  status: ('A' for Active; 'I' for Inactive)
REMARK    1  A    between atoms: O1_1  and  C1_3 
REMARK    2  A    between atoms: C1_3  and  C2_4 
REMARK    3  A    between atoms: C1_3  and  N2_27 
REMARK    4  A    between atoms: C6_8  and  O2_9 
REMARK    5  A    between atoms: O2_9  and  C7_10 
REMARK    6  A    between atoms: C7_10  and  C8_11 
REMARK       I    between atoms: N1_14  and  C11_15 
REMARK    7  A    between atoms: C11_15  and  C12_17 
REMARK    8  A    between atoms: C23_30  and  O4_31 
ROOT
HETATM    1  C2  UNL     1       4.184  -1.235   0.169  1.00  0.00     0.017 A 
HETATM    2  C3  UNL     1       4.632  -2.441  -0.274  1.00  0.00     0.016 A 
HETATM    3  C4  UNL     1       3.768  -3.515  -0.543  1.00  0.00     0.004 A 
HETATM    4  C5  UNL     1       2.412  -3.373  -0.361  1.00  0.00     0.037 A 
HETATM    5  C6  UNL     1       1.924  -2.167   0.086  1.00  0.00     0.069 A 
HETATM    6  C20 UNL     1       2.787  -1.149   0.336  1.00  0.00     0.052 A 
ENDROOT
BRANCH   5   7
HETATM    7  O2  UNL     1       0.550  -2.070   0.255  1.00  0.00    -0.351 OA
BRANCH   7   8
HETATM    8  C7  UNL     1       0.036  -0.831   0.712  1.00  0.00     0.181 C 
BRANCH   8   9
HETATM    9  C8  UNL     1      -1.467  -0.991   0.808  1.00  0.00     0.031 C 
HETATM   10  C9  UNL     1      -2.079   0.294   1.282  1.00  0.00     0.028 C 
HETATM   11  C10 UNL     1      -3.601   0.104   1.116  1.00  0.00     0.126 C 
HETATM   12  N1  UNL     1      -3.845   0.146  -0.294  1.00  0.00    -0.350 N 
HETATM   13  C11 UNL     1      -4.983   0.755  -0.835  1.00  0.00     0.224 C 
HETATM   14  C18 UNL     1      -2.885  -0.459  -1.193  1.00  0.00     0.146 C 
HETATM   15  O3  UNL     1      -5.181   0.796  -2.105  1.00  0.00    -0.273 OA
HETATM   16  C19 UNL     1      -1.996  -1.462  -0.508  1.00  0.00     0.106 C 
HETATM   17 CL1  UNL     1      -2.890  -2.991  -0.336  1.00  0.00    -0.123 Cl
BRANCH  13  18
HETATM   18  C12 UNL     1      -6.005   1.373   0.026  1.00  0.00     0.078 C 
HETATM   19  C13 UNL     1      -6.774   0.291   0.728  1.00  0.00     0.014 C 
HETATM   20  C14 UNL     1      -7.932  -0.204  -0.143  1.00  0.00     0.001 C 
HETATM   21  C15 UNL     1      -8.934   0.890  -0.319  1.00  0.00     0.000 C 
HETATM   22  C16 UNL     1      -8.317   2.267  -0.202  1.00  0.00     0.001 C 
HETATM   23  C17 UNL     1      -6.911   2.270  -0.799  1.00  0.00     0.014 C 
ENDBRANCH  13  18
ENDBRANCH   8   9
ENDBRANCH   7   8
ENDBRANCH   5   7
BRANCH   1  24
HETATM   24  C1  UNL     1       4.988  -0.070   0.458  1.00  0.00     0.148 C 
BRANCH  24  25
HETATM   25  O1  UNL     1       4.331   0.966   0.953  1.00  0.00    -0.346 OA
ATOM     26  H1  UNL     1       4.860   1.732   1.143  1.00  0.00     0.219 HD
ENDBRANCH  24  25
BRANCH  24  27
HETATM   27  N2  UNL     1       6.344   0.183   0.315  1.00  0.00    -0.361 N 
HETATM   28  C21 UNL     1       6.826   1.511   0.745  1.00  0.00     0.127 C 
HETATM   29  C22 UNL     1       7.473   2.184  -0.432  1.00  0.00     0.051 C 
HETATM   30  C23 UNL     1       8.435   1.268  -1.112  1.00  0.00     0.121 C 
HETATM   31  C24 UNL     1       8.655   0.014  -0.327  1.00  0.00     0.051 C 
HETATM   32  C25 UNL     1       7.298  -0.721  -0.226  1.00  0.00     0.127 C 
BRANCH  30  33
HETATM   33  O4  UNL     1       9.685   1.915  -1.267  1.00  0.00    -0.395 OA
ATOM     34  H4  UNL     1      10.297   1.332  -1.700  1.00  0.00     0.210 HD
ENDBRANCH  30  33
ENDBRANCH  24  27
ENDBRANCH   1  24
TORSDOF 8
