REMARK  5 active torsions:
REMARK  status: ('A' for Active; 'I' for Inactive)
REMARK    1  A    between atoms: C2_2  and  C3_3 
REMARK    2  A    between atoms: C3_3  and  S1_4 
REMARK    3  A    between atoms: S1_4  and  C4_7 
REMARK    4  A    between atoms: C5_12  and  N3_13 
REMARK    5  A    between atoms: C6_15  and  C7_16 
ROOT
HETATM    1  N3  UNL     1      -1.226   0.041   0.050  1.00  0.00    -0.344 N 
ATOM      2  H3  UNL     1      -1.564   0.999  -0.040  1.00  0.00     0.167 HD
HETATM    3  C6  UNL     1      -2.188  -0.921   0.016  1.00  0.00     0.103 C 
ENDROOT
BRANCH   1   4
HETATM    4  C5  UNL     1       0.064  -0.084   0.181  1.00  0.00     0.166 A 
HETATM    5  N2  UNL     1       0.829  -1.171   0.320  1.00  0.00    -0.278 N 
HETATM    6  N1  UNL     1       2.085  -1.026   0.432  1.00  0.00    -0.282 N 
ATOM      7  H2  UNL     1       0.411  -2.101   0.336  1.00  0.00     0.189 HD
HETATM    8  C4  UNL     1       2.631   0.178   0.413  1.00  0.00     0.188 A 
ATOM      9  H1  UNL     1       2.680  -1.848   0.538  1.00  0.00     0.188 HD
HETATM   10  S3  UNL     1       1.242   1.156   0.221  1.00  0.00    -0.021 SA
BRANCH   8  11
HETATM   11  S1  UNL     1       4.331   0.621   0.550  1.00  0.00     0.199 S 
HETATM   12  O1  UNL     1       4.410   2.025   1.102  1.00  0.00    -0.221 OA
HETATM   13  O2  UNL     1       5.082  -0.284   1.448  1.00  0.00    -0.221 OA
BRANCH  11  14
HETATM   14  C3  UNL     1       5.036   0.662  -1.082  1.00  0.00     0.147 C 
BRANCH  14  15
HETATM   15  C2  UNL     1       6.513   1.046  -0.974  1.00  0.00     0.011 C 
HETATM   16  C1  UNL     1       7.289   0.061  -0.143  1.00  0.00     0.006 C 
ENDBRANCH  14  15
ENDBRANCH  11  14
ENDBRANCH   8  11
ENDBRANCH   1   4
BRANCH   3  17
HETATM   17  C7  UNL     1      -3.649  -0.642   0.091  1.00  0.00     0.010 A 
HETATM   18  C8  UNL     1      -4.446  -1.814   0.039  1.00  0.00    -0.008 A 
HETATM   19  C9  UNL     1      -4.024  -3.230  -0.076  1.00  0.00     0.057 C 
HETATM   20  S2  UNL     1      -6.022  -1.245   0.140  1.00  0.00    -0.093 SA
HETATM   21  C10 UNL     1      -5.713   0.428   0.245  1.00  0.00     0.024 A 
HETATM   22  C11 UNL     1      -6.552   1.539   0.355  1.00  0.00     0.044 A 
HETATM   23  C14 UNL     1      -4.338   0.505   0.198  1.00  0.00     0.069 A 
HETATM   24  C12 UNL     1      -6.013   2.818   0.423  1.00  0.00     0.147 A 
HETATM   25  O3  UNL     1      -4.716   2.846   0.375  1.00  0.00    -0.287 OA
HETATM   26  C13 UNL     1      -3.895   1.840   0.274  1.00  0.00     0.300 A 
HETATM   27  O4  UNL     1      -2.691   2.186   0.251  1.00  0.00    -0.259 OA
ENDBRANCH   3  17
TORSDOF 5
