REMARK  5 active torsions:
REMARK  status: ('A' for Active; 'I' for Inactive)
REMARK    1  A    between atoms: O1_2  and  C2_3 
REMARK    2  A    between atoms: N1_6  and  C5_7 
REMARK    3  A    between atoms: C5_7  and  C6_8 
REMARK    4  A    between atoms: C6_8  and  O2_9 
REMARK    5  A    between atoms: O2_9  and  C7_10 
ROOT
HETATM    1  C7  UNL     1      -0.942   0.379   0.539  1.00  0.00     0.167 A 
HETATM    2  N2  UNL     1      -0.220   1.334  -0.011  1.00  0.00    -0.303 N 
ATOM      3  H2  UNL     1       0.769   1.464   0.201  1.00  0.00     0.176 HD
HETATM    4  S1  UNL     1      -1.046   2.317  -1.083  1.00  0.00     0.031 SA
HETATM    5  C8  UNL     1      -2.677   1.894  -1.262  1.00  0.00     0.241 A 
HETATM    6  O3  UNL     1      -3.397   2.558  -2.040  1.00  0.00    -0.278 OA
HETATM    7  C9  UNL     1      -3.145   0.786  -0.504  1.00  0.00     0.051 A 
HETATM    8  C10 UNL     1      -4.431   0.321  -0.543  1.00  0.00    -0.027 A 
HETATM    9  C11 UNL     1      -4.735  -0.756   0.234  1.00  0.00    -0.008 A 
HETATM   10  S2  UNL     1      -3.267  -1.117   1.006  1.00  0.00    -0.089 SA
HETATM   11  C12 UNL     1      -2.288   0.119   0.318  1.00  0.00     0.072 A 
HETATM   12  C13 UNL     1      -6.013  -1.534   0.439  1.00  0.00     0.074 C 
HETATM   13  C14 UNL     1      -6.539  -1.895  -0.920  1.00  0.00     0.237 C 
HETATM   14  N3  UNL     1      -7.194  -0.819  -1.587  1.00  0.00    -0.074 N 
ATOM     15  H31 UNL     1      -8.204  -0.959  -1.577  1.00  0.00     0.277 HD
ATOM     16  H32 UNL     1      -7.020  -0.866  -2.591  1.00  0.00     0.277 HD
HETATM   17  C15 UNL     1      -6.868   0.476  -1.087  1.00  0.00     0.237 C 
HETATM   18  C16 UNL     1      -5.506   0.980  -1.400  1.00  0.00     0.068 C 
ENDROOT
BRANCH   1  19
HETATM   19  O2  UNL     1      -0.304  -0.458   1.434  1.00  0.00    -0.333 OA
BRANCH  19  20
HETATM   20  C6  UNL     1       1.023  -0.424   1.823  1.00  0.00     0.197 C 
BRANCH  20  21
HETATM   21  C5  UNL     1       1.982  -0.672   0.699  1.00  0.00     0.148 C 
BRANCH  21  22
HETATM   22  N1  UNL     1       3.355  -0.649   1.114  1.00  0.00    -0.391 N 
HETATM   23  C4  UNL     1       3.819   0.626   1.491  1.00  0.00     0.060 C 
HETATM   24  C3  UNL     1       4.736   1.304   0.478  1.00  0.00     0.076 C 
HETATM   25  C2  UNL     1       5.779   0.306   0.081  1.00  0.00     0.127 C 
HETATM   26  C18 UNL     1       5.053  -0.818  -0.649  1.00  0.00     0.052 C 
HETATM   27  C17 UNL     1       4.233  -1.517   0.422  1.00  0.00     0.124 C 
BRANCH  25  28
HETATM   28  O1  UNL     1       6.788   0.853  -0.698  1.00  0.00    -0.390 OA
HETATM   29  C1  UNL     1       8.044   0.724  -0.157  1.00  0.00     0.202 C 
ENDBRANCH  25  28
ENDBRANCH  21  22
ENDBRANCH  20  21
ENDBRANCH  19  20
ENDBRANCH   1  19
TORSDOF 5
