REMARK  7 active torsions:
REMARK  status: ('A' for Active; 'I' for Inactive)
REMARK    1  A    between atoms: C2_2  and  C3_3 
REMARK    2  A    between atoms: C3_3  and  C4_4 
REMARK    3  A    between atoms: C4_4  and  C5_5 
REMARK    4  A    between atoms: C7_9  and  O2_10 
REMARK    5  A    between atoms: C8_12  and  C9_13 
REMARK    6  A    between atoms: C9_13  and  C10_14 
REMARK    7  A    between atoms: C16_22  and  O4_24 
ROOT
HETATM    1  C5  UNL     1      -2.255   4.405  -0.645  1.00  0.00     0.124 C 
HETATM    2  C6  UNL     1      -2.750   4.799  -1.971  1.00  0.00     0.059 C 
HETATM    3  N1  UNL     1      -3.131   5.091  -3.024  1.00  0.00    -0.197 NA
ENDROOT
BRANCH   1   4
HETATM    4  C4  UNL     1      -1.782   2.964  -0.711  1.00  0.00     0.019 C 
BRANCH   4   5
HETATM    5  C3  UNL     1      -1.270   2.534   0.635  1.00  0.00     0.070 C 
BRANCH   5   6
HETATM    6  C2  UNL     1      -0.774   1.060   0.593  1.00  0.00     0.177 C 
HETATM    7  C1  UNL     1      -0.315   0.902   2.064  1.00  0.00     0.080 C 
HETATM    8  O1  UNL     1       0.166   0.888  -0.338  1.00  0.00    -0.292 OA
HETATM    9  C7  UNL     1       1.358   0.871  -0.871  1.00  0.00     0.183 C 
HETATM   10  C8  UNL     1       2.447  -0.144  -0.784  1.00  0.00    -0.021 C 
HETATM   11  C11 UNL     1       2.077  -1.513  -1.292  1.00  0.00     0.039 C 
HETATM   12  C12 UNL     1       1.831  -2.546  -0.250  1.00  0.00     0.012 C 
HETATM   13  C13 UNL     1       0.997  -3.696  -0.701  1.00  0.00     0.079 C 
HETATM   14  C14 UNL     1      -0.457  -3.581  -0.438  1.00  0.00     0.130 C 
HETATM   15  O3  UNL     1      -1.143  -4.566  -0.377  1.00  0.00    -0.298 OA
HETATM   16  C15 UNL     1      -0.973  -2.255  -0.267  1.00  0.00     0.126 C 
HETATM   17  C16 UNL     1      -2.403  -2.036   0.123  1.00  0.00     0.148 C 
HETATM   18  C17 UNL     1      -2.681  -2.360   1.569  1.00  0.00     0.057 C 
HETATM   19  C18 UNL     1      -2.601  -0.572  -0.148  1.00  0.00     0.296 C 
HETATM   20  O5  UNL     1      -3.443  -0.396  -1.089  1.00  0.00    -0.262 OA
HETATM   21  O6  UNL     1      -1.936   0.318   0.562  1.00  0.00    -0.281 OA
BRANCH   9  22
HETATM   22  O2  UNL     1       1.699   1.888  -1.615  1.00  0.00    -0.341 OA
ATOM     23  H2  UNL     1       2.566   1.876  -2.003  1.00  0.00     0.220 HD
ENDBRANCH   9  22
BRANCH  10  24
HETATM   24  C9  UNL     1       3.219  -0.153   0.485  1.00  0.00     0.050 C 
BRANCH  24  25
HETATM   25  C10 UNL     1       3.978   1.088   0.835  1.00  0.00     0.090 C 
HETATM   26  S1  UNL     1       3.067   2.589   1.048  1.00  0.00    -0.097 SA
ENDBRANCH  24  25
ENDBRANCH  10  24
BRANCH  17  27
HETATM   27  O4  UNL     1      -3.180  -2.857  -0.665  1.00  0.00    -0.380 OA
ATOM     28  H4  UNL     1      -4.087  -2.718  -0.418  1.00  0.00     0.211 HD
ENDBRANCH  17  27
ENDBRANCH   5   6
ENDBRANCH   4   5
ENDBRANCH   1   4
TORSDOF 7
