REMARK  6 active torsions:
REMARK  status: ('A' for Active; 'I' for Inactive)
REMARK    1  A    between atoms: C2_2  and  O1_3 
REMARK    2  A    between atoms: O1_3  and  C3_4 
REMARK    3  A    between atoms: C3_4  and  C4_6 
REMARK    4  A    between atoms: C5_7  and  S1_8 
REMARK    5  A    between atoms: S1_8  and  C6_9 
REMARK    6  A    between atoms: N3_15  and  C8_17 
ROOT
HETATM    1  C6  UNL     1       0.296  -0.313   0.781  1.00  0.00     0.134 A 
HETATM    2  N1  UNL     1       1.077   0.680   1.111  1.00  0.00    -0.286 N 
ATOM      3  H1  UNL     1       0.683   1.479   1.607  1.00  0.00     0.188 HD
HETATM    4  N2  UNL     1       2.317   0.676   0.829  1.00  0.00    -0.279 N 
ATOM      5  H2  UNL     1       2.917   1.458   1.093  1.00  0.00     0.189 HD
HETATM    6  C7  UNL     1       2.814  -0.380   0.177  1.00  0.00     0.162 A 
HETATM    7  N3  UNL     1       4.029  -0.585  -0.203  1.00  0.00    -0.365 N 
ATOM      8  H3  UNL     1       4.225  -1.457  -0.694  1.00  0.00     0.162 HD
HETATM    9  S2  UNL     1       1.429  -1.358  -0.010  1.00  0.00    -0.026 SA
ENDROOT
BRANCH   1  10
HETATM   10  S1  UNL     1      -1.476  -0.561   1.054  1.00  0.00    -0.067 SA
BRANCH  10  11
HETATM   11  C5  UNL     1      -2.387   0.117  -0.320  1.00  0.00     0.005 C 
HETATM   12  C4  UNL     1      -3.705   0.093  -0.413  1.00  0.00     0.085 C 
HETATM   13  C16 UNL     1      -4.423   0.677  -1.589  1.00  0.00     0.302 C 
HETATM   14  O3  UNL     1      -4.417   2.060  -1.552  1.00  0.00    -0.354 OA
HETATM   15  O4  UNL     1      -3.653   0.341  -2.710  1.00  0.00    -0.349 OA
HETATM   16  C15 UNL     1      -3.250   2.487  -2.161  1.00  0.00     0.203 C 
HETATM   17  C14 UNL     1      -2.553   1.189  -2.551  1.00  0.00     0.153 C 
HETATM   18  C13 UNL     1      -1.647   0.750  -1.434  1.00  0.00     0.081 C 
BRANCH  12  19
HETATM   19  C3  UNL     1      -4.456  -0.521   0.665  1.00  0.00     0.295 C 
HETATM   20  O2  UNL     1      -3.925  -1.028   1.677  1.00  0.00    -0.259 OA
BRANCH  19  21
HETATM   21  O1  UNL     1      -5.830  -0.551   0.577  1.00  0.00    -0.318 OA
BRANCH  21  22
HETATM   22  C2  UNL     1      -6.700  -1.110   1.539  1.00  0.00     0.174 C 
HETATM   23  C1  UNL     1      -6.354  -2.577   1.667  1.00  0.00     0.034 C 
ENDBRANCH  21  22
ENDBRANCH  19  21
ENDBRANCH  12  19
ENDBRANCH  10  11
ENDBRANCH   1  10
BRANCH   7  24
HETATM   24  C8  UNL     1       5.116   0.302   0.005  1.00  0.00     0.083 C 
HETATM   25  C9  UNL     1       5.514   0.453   1.452  1.00  0.00     0.025 C 
HETATM   26  C10 UNL     1       6.585  -0.627   1.566  1.00  0.00     0.002 C 
HETATM   27  C11 UNL     1       7.393  -0.363   0.314  1.00  0.00     0.002 C 
HETATM   28  C12 UNL     1       6.317  -0.201  -0.732  1.00  0.00     0.025 C 
ENDBRANCH   7  24
TORSDOF 6
