REMARK  12 active torsions:
REMARK  status: ('A' for Active; 'I' for Inactive)
REMARK    1  A    between atoms: O1_2  and  C2_3 
REMARK    2  A    between atoms: C2_3  and  C3_4 
REMARK    3  A    between atoms: C3_4  and  C4_5 
REMARK    4  A    between atoms: C3_4  and  C15_19 
REMARK    5  A    between atoms: C5_6  and  C6_7 
REMARK    6  A    between atoms: C8_9  and  O2_10 
REMARK    7  A    between atoms: C10_12  and  O3_13 
REMARK    8  A    between atoms: C12_15  and  O4_16 
REMARK    9  A    between atoms: C15_19  and  C16_20 
REMARK   10  A    between atoms: C18_22  and  O5_23 
REMARK   11  A    between atoms: C21_26  and  O6_27 
REMARK   12  A    between atoms: C24_32  and  O8_33 
ROOT
HETATM    1  C15 UNL     1      -1.948   0.119  -1.237  1.00  0.00     0.034 C 
HETATM    2  C26 UNL     1      -2.324  -1.438  -1.256  1.00  0.00     0.022 C 
HETATM    3  C27 UNL     1      -3.190  -1.155  -2.464  1.00  0.00     0.045 C 
HETATM    4  C28 UNL     1      -3.286   0.270  -1.816  1.00  0.00     0.102 A 
HETATM    5  C29 UNL     1      -3.759   1.270  -2.695  1.00  0.00     0.019 A 
HETATM    6  C30 UNL     1      -5.032   1.614  -2.360  1.00  0.00     0.081 A 
HETATM    7  C31 UNL     1      -5.421   0.839  -1.207  1.00  0.00     0.283 A 
HETATM    8  O9  UNL     1      -6.565   0.908  -0.641  1.00  0.00    -0.260 OA
HETATM    9  O10 UNL     1      -4.366   0.055  -0.861  1.00  0.00    -0.301 OA
ENDROOT
BRANCH   1  10
HETATM   10  C3  UNL     1      -0.658   0.322  -1.879  1.00  0.00     0.048 C 
BRANCH  10  11
HETATM   11  C2  UNL     1      -0.393   0.032  -3.310  1.00  0.00     0.176 C 
BRANCH  11  12
HETATM   12  O1  UNL     1      -1.161   0.540  -4.284  1.00  0.00    -0.395 OA
HETATM   13  C1  UNL     1      -0.801   0.195  -5.569  1.00  0.00     0.201 C 
ENDBRANCH  11  12
ENDBRANCH  10  11
BRANCH  10  14
HETATM   14  C4  UNL     1       0.520  -0.394  -1.216  1.00  0.00    -0.018 C 
HETATM   15  C5  UNL     1       1.548   0.317  -0.783  1.00  0.00     0.008 C 
BRANCH  15  16
HETATM   16  C6  UNL     1       2.690  -0.290  -0.147  1.00  0.00    -0.031 A 
HETATM   17  C7  UNL     1       2.799  -1.647   0.084  1.00  0.00     0.051 A 
HETATM   18  C8  UNL     1       3.924  -2.182   0.721  1.00  0.00     0.105 A 
HETATM   19  C10 UNL     1       4.927  -1.314   1.115  1.00  0.00     0.135 A 
HETATM   20  C12 UNL     1       4.808   0.034   0.880  1.00  0.00     0.105 A 
HETATM   21  C14 UNL     1       3.706   0.538   0.258  1.00  0.00     0.051 A 
BRANCH  18  22
HETATM   22  O2  UNL     1       4.061  -3.514   0.964  1.00  0.00    -0.353 OA
HETATM   23  C9  UNL     1       3.129  -4.528   0.598  1.00  0.00     0.210 C 
ENDBRANCH  18  22
BRANCH  19  24
HETATM   24  O3  UNL     1       6.049  -1.870   1.752  1.00  0.00    -0.351 OA
HETATM   25  C11 UNL     1       5.959  -1.951   3.168  1.00  0.00     0.210 C 
ENDBRANCH  19  24
BRANCH  20  26
HETATM   26  O4  UNL     1       5.859   0.854   1.303  1.00  0.00    -0.353 OA
HETATM   27  C13 UNL     1       5.800   2.252   1.091  1.00  0.00     0.210 C 
ENDBRANCH  20  26
ENDBRANCH  15  16
ENDBRANCH  10  14
ENDBRANCH   1  10
BRANCH   1  28
HETATM   28  C16 UNL     1      -1.935   0.539   0.212  1.00  0.00    -0.008 A 
HETATM   29  C17 UNL     1      -2.506   1.823   0.417  1.00  0.00     0.048 A 
HETATM   30  C18 UNL     1      -2.440   2.492   1.614  1.00  0.00     0.084 A 
HETATM   31  C20 UNL     1      -1.789   1.899   2.671  1.00  0.00     0.070 A 
HETATM   32  C21 UNL     1      -1.543   2.286   3.977  1.00  0.00     0.197 A 
HETATM   33  C23 UNL     1      -1.228   0.673   2.521  1.00  0.00     0.038 A 
HETATM   34  O7  UNL     1      -0.866   1.327   4.572  1.00  0.00    -0.299 OA
HETATM   35  C22 UNL     1      -0.655   0.332   3.725  1.00  0.00     0.160 A 
HETATM   36  C24 UNL     1      -1.322   0.013   1.269  1.00  0.00     0.088 A 
BRANCH  30  37
HETATM   37  O5  UNL     1      -2.996   3.729   1.795  1.00  0.00    -0.355 OA
HETATM   38  C19 UNL     1      -3.667   4.386   0.770  1.00  0.00     0.210 C 
ENDBRANCH  30  37
BRANCH  32  39
HETATM   39  O6  UNL     1      -1.966   3.501   4.516  1.00  0.00    -0.340 OA
ATOM     40  H6  UNL     1      -1.797   3.767   5.412  1.00  0.00     0.220 HD
ENDBRANCH  32  39
BRANCH  36  41
HETATM   41  O8  UNL     1      -0.727  -1.215   1.289  1.00  0.00    -0.354 OA
HETATM   42  C25 UNL     1      -1.258  -2.420   1.742  1.00  0.00     0.210 C 
ENDBRANCH  36  41
ENDBRANCH   1  28
TORSDOF 12
