REMARK  16 active torsions:
REMARK  status: ('A' for Active; 'I' for Inactive)
REMARK    1  A    between atoms: O1_2  and  C2_3 
REMARK    2  A    between atoms: C4_5  and  C5_6 
REMARK    3  A    between atoms: C6_7  and  C7_8 
REMARK    4  A    between atoms: C7_8  and  O3_10 
REMARK    5  A    between atoms: O3_10  and  C8_11 
REMARK    6  A    between atoms: C8_11  and  C9_12 
REMARK    7  A    between atoms: C9_12  and  C23_30 
REMARK    8  A    between atoms: C10_13  and  C11_14 
REMARK    9  A    between atoms: C13_16  and  O4_17 
REMARK   10  A    between atoms: C15_20  and  O5_21 
REMARK   11  A    between atoms: O5_21  and  C16_22 
REMARK   12  A    between atoms: C18_25  and  C19_26 
REMARK   13  A    between atoms: C23_30  and  O7_31 
REMARK   14  A    between atoms: O7_31  and  C24_32 
REMARK   15  A    between atoms: C27_36  and  O9_37 
REMARK   16  A    between atoms: C29_39  and  O10_40 
ROOT
HETATM    1  C9  UNL     1      -1.606  -0.296   0.502  1.00  0.00    -0.031 C 
HETATM    2  C10 UNL     1      -2.405   0.195  -0.426  1.00  0.00     0.019 C 
ENDROOT
BRANCH   1   3
HETATM    3  C8  UNL     1      -0.179   0.221   0.537  1.00  0.00     0.215 C 
BRANCH   3   4
HETATM    4  O3  UNL     1       0.682  -0.873   0.343  1.00  0.00    -0.314 OA
BRANCH   4   5
HETATM    5  C7  UNL     1       2.095  -0.590   0.330  1.00  0.00     0.283 C 
HETATM    6  O2  UNL     1       2.327   0.610   0.498  1.00  0.00    -0.260 OA
BRANCH   5   7
HETATM    7  C6  UNL     1       3.004  -1.676   0.134  1.00  0.00     0.083 C 
HETATM    8  C5  UNL     1       4.264  -1.792   0.039  1.00  0.00     0.017 C 
BRANCH   8   9
HETATM    9  C4  UNL     1       5.394  -0.921   0.068  1.00  0.00    -0.031 A 
HETATM   10  C3  UNL     1       5.413   0.429  -0.105  1.00  0.00     0.051 A 
HETATM   11  C2  UNL     1       6.555   1.232   0.024  1.00  0.00     0.105 A 
HETATM   12  C29 UNL     1       7.754   0.666   0.341  1.00  0.00     0.135 A 
HETATM   13  C27 UNL     1       7.778  -0.697   0.521  1.00  0.00     0.105 A 
HETATM   14  C26 UNL     1       6.667  -1.473   0.396  1.00  0.00     0.051 A 
BRANCH  11  15
HETATM   15  O1  UNL     1       6.487   2.606  -0.166  1.00  0.00    -0.353 OA
HETATM   16  C1  UNL     1       5.262   3.218  -0.493  1.00  0.00     0.210 C 
ENDBRANCH  11  15
BRANCH  12  17
HETATM   17  O10 UNL     1       8.921   1.410   0.483  1.00  0.00    -0.351 OA
HETATM   18  C30 UNL     1       9.733   1.616  -0.674  1.00  0.00     0.210 C 
ENDBRANCH  12  17
BRANCH  13  19
HETATM   19  O9  UNL     1       9.020  -1.279   0.847  1.00  0.00    -0.353 OA
HETATM   20  C28 UNL     1       9.076  -2.675   1.040  1.00  0.00     0.210 C 
ENDBRANCH  13  19
ENDBRANCH   8   9
ENDBRANCH   5   7
ENDBRANCH   4   5
ENDBRANCH   3   4
ENDBRANCH   1   3
BRANCH   1  21
HETATM   21  C23 UNL     1      -1.973  -1.275   1.535  1.00  0.00     0.215 C 
BRANCH  21  22
HETATM   22  O7  UNL     1      -1.200  -2.480   1.447  1.00  0.00    -0.317 OA
BRANCH  22  23
HETATM   23  C24 UNL     1      -1.466  -3.468   2.373  1.00  0.00     0.255 C 
HETATM   24  C25 UNL     1      -0.724  -4.749   2.368  1.00  0.00     0.126 C 
HETATM   25  O8  UNL     1      -2.351  -3.295   3.242  1.00  0.00    -0.266 OA
ENDBRANCH  22  23
ENDBRANCH  21  22
ENDBRANCH   1  21
BRANCH   2  26
HETATM   26  C11 UNL     1      -3.785  -0.152  -0.644  1.00  0.00    -0.023 A 
HETATM   27  C12 UNL     1      -4.036  -1.523  -0.705  1.00  0.00     0.048 A 
HETATM   28  C13 UNL     1      -5.271  -2.064  -0.872  1.00  0.00     0.069 A 
HETATM   29  C14 UNL     1      -6.325  -1.217  -0.986  1.00  0.00     0.074 A 
HETATM   30  C15 UNL     1      -6.105   0.168  -0.929  1.00  0.00     0.089 A 
HETATM   31  C18 UNL     1      -4.860   0.722  -0.762  1.00  0.00    -0.006 A 
BRANCH  28  32
HETATM   32  O4  UNL     1      -5.425  -3.465  -0.922  1.00  0.00    -0.361 OA
ATOM     33  H4  UNL     1      -6.289  -3.843  -1.039  1.00  0.00     0.217 HD
ENDBRANCH  28  32
BRANCH  30  34
HETATM   34  O5  UNL     1      -7.218   0.978  -1.052  1.00  0.00    -0.279 OA
BRANCH  34  35
HETATM   35  C16 UNL     1      -8.182   0.970  -0.055  1.00  0.00     0.260 C 
HETATM   36  C17 UNL     1      -9.380   1.833  -0.173  1.00  0.00     0.126 C 
HETATM   37  O6  UNL     1      -7.993   0.214   0.928  1.00  0.00    -0.265 OA
ENDBRANCH  34  35
ENDBRANCH  30  34
BRANCH  31  38
HETATM   38  C19 UNL     1      -4.582   2.155  -0.735  1.00  0.00    -0.021 C 
HETATM   39  C20 UNL     1      -3.670   2.610  -1.887  1.00  0.00     0.019 C 
HETATM   40  C21 UNL     1      -3.780   2.435   0.553  1.00  0.00     0.019 C 
HETATM   41  C22 UNL     1      -5.713   3.109  -0.721  1.00  0.00     0.019 C 
ENDBRANCH  31  38
ENDBRANCH   2  26
TORSDOF 16
