REMARK  15 active torsions:
REMARK  status: ('A' for Active; 'I' for Inactive)
REMARK    1  A    between atoms: C2_2  and  C3_3 
REMARK    2  A    between atoms: C3_3  and  O2_5 
REMARK    3  A    between atoms: O2_5  and  C4_6 
REMARK    4  A    between atoms: C4_6  and  C5_7 
REMARK    5  A    between atoms: C8_11  and  O4_12 
REMARK    6  A    between atoms: C9_14  and  C10_15 
REMARK    7  A    between atoms: C10_15  and  C11_16 
REMARK    8  A    between atoms: C12_17  and  C14_19 
REMARK    9  A    between atoms: C14_19  and  C15_20 
REMARK   10  A    between atoms: C15_20  and  C16_21 
REMARK   11  A    between atoms: C16_21  and  O6_23 
REMARK   12  A    between atoms: C22_30  and  O8_31 
REMARK   13  A    between atoms: O8_31  and  C23_32 
REMARK   14  A    between atoms: C23_32  and  C24_34 
REMARK   15  A    between atoms: C24_34  and  C26_36 
ROOT
HETATM    1  C5  UNL     1      -3.033   3.105   1.612  1.00  0.00     0.177 C 
HETATM    2  C6  UNL     1      -2.043   3.991   2.297  1.00  0.00     0.210 C 
HETATM    3  O3  UNL     1      -0.697   3.658   2.075  1.00  0.00    -0.343 OA
HETATM    4  C7  UNL     1      -0.268   2.343   1.874  1.00  0.00     0.137 A 
HETATM    5  C8  UNL     1       1.068   1.981   2.062  1.00  0.00     0.111 A 
HETATM    6  C9  UNL     1       1.450   0.677   1.854  1.00  0.00     0.016 A 
HETATM    7  C18 UNL     1       0.501  -0.245   1.463  1.00  0.00     0.093 A 
HETATM    8  C19 UNL     1      -0.826   0.150   1.284  1.00  0.00     0.037 A 
HETATM    9  C20 UNL     1      -1.216   1.453   1.490  1.00  0.00     0.118 A 
HETATM   10  O7  UNL     1      -2.518   1.826   1.310  1.00  0.00    -0.338 OA
HETATM   11  C21 UNL     1      -1.736  -0.884   0.883  1.00  0.00     0.053 A 
HETATM   12  C22 UNL     1      -1.391  -2.183   0.675  1.00  0.00     0.092 A 
HETATM   13  C28 UNL     1      -0.007  -2.582   0.862  1.00  0.00     0.109 A 
HETATM   14  C29 UNL     1       0.075  -3.586   2.022  1.00  0.00     0.053 C 
HETATM   15  C30 UNL     1       0.646  -3.179  -0.384  1.00  0.00     0.053 C 
HETATM   16  O10 UNL     1       0.870  -1.541   1.253  1.00  0.00    -0.333 OA
ENDROOT
BRANCH   6  17
HETATM   17  C10 UNL     1       2.875   0.323   2.055  1.00  0.00     0.072 C 
BRANCH  17  18
HETATM   18  C11 UNL     1       3.742   0.745   0.933  1.00  0.00    -0.020 C 
HETATM   19  C12 UNL     1       4.510  -0.101   0.262  1.00  0.00    -0.087 C 
HETATM   20  C13 UNL     1       4.517  -1.539   0.637  1.00  0.00     0.043 C 
BRANCH  19  21
HETATM   21  C14 UNL     1       5.371   0.377  -0.873  1.00  0.00     0.043 C 
BRANCH  21  22
HETATM   22  C15 UNL     1       6.817   0.099  -0.576  1.00  0.00     0.115 C 
BRANCH  22  23
HETATM   23  C16 UNL     1       7.655   0.581  -1.707  1.00  0.00     0.258 C 
HETATM   24  O5  UNL     1       7.117   1.122  -2.704  1.00  0.00    -0.265 OA
BRANCH  23  25
HETATM   25  O6  UNL     1       9.043   0.438  -1.673  1.00  0.00    -0.326 OA
HETATM   26  C17 UNL     1       9.780   0.920  -2.785  1.00  0.00     0.213 C 
ENDBRANCH  23  25
ENDBRANCH  22  23
ENDBRANCH  21  22
ENDBRANCH  19  21
ENDBRANCH  17  18
ENDBRANCH   6  17
BRANCH   5  27
HETATM   27  O4  UNL     1       1.980   2.927   2.453  1.00  0.00    -0.357 OA
ATOM     28  H4  UNL     1       2.889   2.681   2.581  1.00  0.00     0.217 HD
ENDBRANCH   5  27
BRANCH  12  29
HETATM   29  O8  UNL     1      -2.471  -2.940   0.301  1.00  0.00    -0.280 OA
BRANCH  29  30
HETATM   30  C23 UNL     1      -2.684  -4.213   0.007  1.00  0.00     0.267 C 
HETATM   31  O9  UNL     1      -1.716  -4.997   0.059  1.00  0.00    -0.264 OA
BRANCH  30  32
HETATM   32  C24 UNL     1      -3.992  -4.815  -0.387  1.00  0.00     0.081 C 
HETATM   33  C25 UNL     1      -4.471  -4.156  -1.661  1.00  0.00     0.020 C 
BRANCH  32  34
HETATM   34  C26 UNL     1      -3.873  -6.296  -0.630  1.00  0.00     0.010 C 
HETATM   35  C27 UNL     1      -5.247  -6.797  -1.020  1.00  0.00     0.006 C 
ENDBRANCH  32  34
ENDBRANCH  30  32
ENDBRANCH  29  30
ENDBRANCH  12  29
BRANCH   1  36
HETATM   36  C4  UNL     1      -3.468   3.762   0.319  1.00  0.00     0.213 C 
BRANCH  36  37
HETATM   37  O2  UNL     1      -3.996   5.058   0.560  1.00  0.00    -0.319 OA
BRANCH  37  38
HETATM   38  C3  UNL     1      -4.454   5.834  -0.492  1.00  0.00     0.258 C 
HETATM   39  O1  UNL     1      -4.385   5.354  -1.649  1.00  0.00    -0.265 OA
BRANCH  38  40
HETATM   40  C2  UNL     1      -5.008   7.196  -0.241  1.00  0.00     0.106 C 
HETATM   41  C1  UNL     1      -5.420   7.797  -1.550  1.00  0.00     0.015 C 
ENDBRANCH  38  40
ENDBRANCH  37  38
ENDBRANCH  36  37
ENDBRANCH   1  36
TORSDOF 15
