REMARK  4 active torsions:
REMARK  status: ('A' for Active; 'I' for Inactive)
REMARK    1  A    between atoms: C2_2  and  S1_4 
REMARK    2  A    between atoms: S1_4  and  C4_5 
REMARK    3  A    between atoms: C12_15  and  C14_17 
REMARK       I    between atoms: C14_17  and  N2_19 
REMARK    4  A    between atoms: N2_19  and  N3_21 
ROOT
HETATM    1  C4  UNL     1      -2.798  -0.344  -0.271  1.00  0.00     0.043 C 
HETATM    2  N1  UNL     1      -1.798  -1.125  -0.385  1.00  0.00    -0.378 N 
ATOM      3  H1  UNL     1      -1.736  -1.886  -1.061  1.00  0.00     0.160 HD
HETATM    4  C5  UNL     1      -0.773  -0.797   0.557  1.00  0.00     0.035 C 
HETATM    5  C6  UNL     1      -1.080  -1.645   1.794  1.00  0.00     0.039 C 
HETATM    6  C7  UNL     1      -0.994   0.646   0.822  1.00  0.00     0.020 C 
HETATM    7  C8  UNL     1      -0.584   1.445  -0.378  1.00  0.00     0.008 C 
HETATM    8  C9  UNL     1       0.831   1.187  -0.809  1.00  0.00     0.005 C 
HETATM    9  C10 UNL     1       1.142  -0.271  -0.982  1.00  0.00    -0.007 C 
HETATM   10  C11 UNL     1       2.603  -0.423  -1.202  1.00  0.00     0.024 C 
HETATM   11  C12 UNL     1       3.451  -0.490   0.029  1.00  0.00     0.039 C 
HETATM   12  C13 UNL     1       4.179  -1.843  -0.016  1.00  0.00     0.025 C 
HETATM   13  C15 UNL     1       2.693  -0.455   1.308  1.00  0.00     0.019 C 
HETATM   14  C16 UNL     1       1.543  -1.430   1.219  1.00  0.00     0.009 C 
HETATM   15  C17 UNL     1       0.601  -1.171   0.083  1.00  0.00     0.018 C 
HETATM   16  C18 UNL     1      -2.538   0.666   0.824  1.00  0.00     0.071 C 
ENDROOT
BRANCH  11  17
HETATM   17  C14 UNL     1       4.512   0.537   0.050  1.00  0.00     0.243 C 
HETATM   18  O1  UNL     1       4.529   1.377   0.983  1.00  0.00    -0.271 OA
HETATM   19  N2  UNL     1       5.525   0.632  -0.934  1.00  0.00    -0.276 N 
ATOM     20  H2  UNL     1       5.527  -0.042  -1.699  1.00  0.00     0.189 HD
BRANCH  19  21
HETATM   21  N3  UNL     1       6.518   1.605  -0.902  1.00  0.00    -0.343 N 
ATOM     22  H32 UNL     1       6.501   2.271  -0.130  1.00  0.00     0.176 HD
ATOM     23  H31 UNL     1       7.248   1.673  -1.611  1.00  0.00     0.176 HD
ENDBRANCH  19  21
ENDBRANCH  11  17
BRANCH   1  24
HETATM   24  S1  UNL     1      -4.328  -0.327  -1.200  1.00  0.00    -0.113 SA
BRANCH  24  25
HETATM   25  C2  UNL     1      -5.443   0.967  -0.679  1.00  0.00     0.045 C 
HETATM   26  C1  UNL     1      -5.934   0.730   0.727  1.00  0.00     0.021 C 
HETATM   27  C3  UNL     1      -6.659   0.918  -1.604  1.00  0.00     0.021 C 
ENDBRANCH  24  25
ENDBRANCH   1  24
TORSDOF 4
