REMARK  4 active torsions:
REMARK  status: ('A' for Active; 'I' for Inactive)
REMARK    1  A    between atoms: O1_2  and  C2_3 
REMARK    2  A    between atoms: C6_7  and  O2_9 
REMARK    3  A    between atoms: C8_11  and  C9_12 
REMARK    4  A    between atoms: C13_16  and  O3_17 
ROOT
HETATM    1  C9  UNL     1      -0.708  -0.477  -0.690  1.00  0.00    -0.014 C 
HETATM    2  C10 UNL     1       0.531  -0.628  -0.300  1.00  0.00    -0.083 C 
HETATM    3  C11 UNL     1       0.920   0.031   0.977  1.00  0.00     0.037 C 
HETATM    4  C12 UNL     1       2.271  -0.378   1.464  1.00  0.00     0.043 C 
HETATM    5  C13 UNL     1       3.429  -0.031   0.660  1.00  0.00     0.075 C 
HETATM    6  C14 UNL     1       3.347   1.180  -0.213  1.00  0.00     0.082 C 
HETATM    7  C15 UNL     1       2.541   0.760  -1.397  1.00  0.00     0.023 C 
HETATM    8  C16 UNL     1       2.741  -0.728  -1.462  1.00  0.00    -0.002 C 
HETATM    9  C17 UNL     1       1.457  -1.439  -1.146  1.00  0.00     0.039 C 
HETATM   10  C18 UNL     1       3.795  -1.076  -0.407  1.00  0.00     0.035 C 
HETATM   11  C19 UNL     1       5.190  -0.710  -0.877  1.00  0.00     0.082 C 
HETATM   12  S1  UNL     1       5.095   1.130  -0.811  1.00  0.00    -0.161 SA
ENDROOT
BRANCH   1  13
HETATM   13  C8  UNL     1      -1.769   0.273  -0.011  1.00  0.00     0.071 C 
HETATM   14  C2  UNL     1      -2.905  -0.690   0.268  1.00  0.00     0.131 C 
HETATM   15  C3  UNL     1      -4.094  -0.029   0.902  1.00  0.00     0.033 C 
HETATM   16  C4  UNL     1      -4.533   1.221   0.178  1.00  0.00     0.006 C 
HETATM   17  C5  UNL     1      -3.331   2.134   0.083  1.00  0.00     0.038 C 
HETATM   18  C6  UNL     1      -2.346   1.403  -0.840  1.00  0.00     0.063 C 
HETATM   19  C7  UNL     1      -1.341   2.404  -1.284  1.00  0.00     0.046 C 
BRANCH  14  20
HETATM   20  O1  UNL     1      -2.505  -1.727   1.098  1.00  0.00    -0.390 OA
HETATM   21  C1  UNL     1      -2.656  -2.924   0.412  1.00  0.00     0.202 C 
ENDBRANCH  14  20
BRANCH  18  22
HETATM   22  O2  UNL     1      -3.044   0.843  -1.893  1.00  0.00    -0.389 OA
ATOM     23  H2  UNL     1      -2.434   0.391  -2.464  1.00  0.00     0.210 HD
ENDBRANCH  18  22
ENDBRANCH   1  13
BRANCH   5  24
HETATM   24  O3  UNL     1       4.554   0.140   1.498  1.00  0.00    -0.388 OA
ATOM     25  H3  UNL     1       5.312   0.367   0.972  1.00  0.00     0.210 HD
ENDBRANCH   5  24
TORSDOF 4
