REMARK  4 active torsions:
REMARK  status: ('A' for Active; 'I' for Inactive)
REMARK    1  A    between atoms: C2_2  and  O1_4 
REMARK    2  A    between atoms: O1_4  and  C4_5 
REMARK    3  A    between atoms: C4_5  and  C5_9 
REMARK    4  A    between atoms: C19_24  and  O3_25 
ROOT
HETATM    1  C5  UNL     1       2.680   0.050   0.059  1.00  0.00     0.061 C 
HETATM    2  C6  UNL     1       1.990  -0.660   1.231  1.00  0.00     0.013 C 
HETATM    3  C7  UNL     1       0.606  -0.079   1.349  1.00  0.00     0.009 C 
HETATM    4  C8  UNL     1      -0.167  -0.320   0.096  1.00  0.00     0.027 C 
HETATM    5  C9  UNL     1       0.574   0.029  -1.161  1.00  0.00    -0.007 C 
HETATM    6  C10 UNL     1      -0.215  -0.515  -2.329  1.00  0.00     0.007 C 
HETATM    7  C11 UNL     1      -1.576  -1.000  -1.956  1.00  0.00     0.035 C 
HETATM    8  C12 UNL     1      -2.321  -0.064  -1.035  1.00  0.00     0.157 C 
HETATM    9  O2  UNL     1      -3.354  -0.802  -0.455  1.00  0.00    -0.373 OA
HETATM   10  C13 UNL     1      -4.479  -0.066  -0.195  1.00  0.00     0.054 C 
HETATM   11  C14 UNL     1      -5.300  -0.792   0.850  1.00  0.00     0.045 C 
HETATM   12  C15 UNL     1      -5.297   0.027  -1.455  1.00  0.00     0.045 C 
HETATM   13  C16 UNL     1      -4.187   1.324   0.315  1.00  0.00     0.037 C 
HETATM   14  C17 UNL     1      -3.292   1.343   1.507  1.00  0.00     0.006 C 
HETATM   15  C18 UNL     1      -2.132   0.394   1.416  1.00  0.00     0.041 C 
HETATM   16  C19 UNL     1      -1.464   0.462   0.076  1.00  0.00     0.088 C 
HETATM   17  C20 UNL     1       1.989  -0.447  -1.190  1.00  0.00     0.018 C 
ENDROOT
BRANCH   1  18
HETATM   18  C4  UNL     1       4.101  -0.385   0.105  1.00  0.00     0.121 C 
HETATM   19  N1  UNL     1       4.657  -1.008  -0.882  1.00  0.00    -0.383 N 
ATOM     20  H12 UNL     1       5.632  -1.306  -0.850  1.00  0.00     0.158 HD
ATOM     21  H11 UNL     1       4.060  -1.181  -1.691  1.00  0.00     0.158 HD
BRANCH  18  22
HETATM   22  O1  UNL     1       4.913  -0.149   1.206  1.00  0.00    -0.303 OA
BRANCH  22  23
HETATM   23  C2  UNL     1       6.244   0.206   1.063  1.00  0.00     0.042 C 
HETATM   24  C1  UNL     1       6.692   1.257   1.713  1.00  0.00     0.046 C 
HETATM   25  C3  UNL     1       7.189  -0.553   0.204  1.00  0.00     0.076 C 
ENDBRANCH  22  23
ENDBRANCH  18  22
ENDBRANCH   1  18
BRANCH  16  26
HETATM   26  O3  UNL     1      -1.131   1.790  -0.180  1.00  0.00    -0.387 OA
ATOM     27  H3  UNL     1      -1.944   2.280  -0.193  1.00  0.00     0.210 HD
ENDBRANCH  16  26
TORSDOF 4
