REMARK  4 active torsions:
REMARK  status: ('A' for Active; 'I' for Inactive)
REMARK    1  A    between atoms: C3_3  and  C5_5 
REMARK    2  A    between atoms: C9_11  and  N2_12 
REMARK    3  A    between atoms: C10_18  and  N4_19 
REMARK    4  A    between atoms: N4_19  and  C11_21 
ROOT
HETATM    1  C5  UNL     1      -2.345   0.260  -0.235  1.00  0.00     0.075 C 
HETATM    2  C6  UNL     1      -2.419   1.674  -0.860  1.00  0.00     0.035 C 
HETATM    3  C7  UNL     1      -3.210  -0.600  -1.063  1.00  0.00     0.001 C 
HETATM    4  C8  UNL     1      -4.325  -0.028  -1.839  1.00  0.00     0.064 C 
HETATM    5  N1  UNL     1      -2.941  -1.870  -1.077  1.00  0.00    -0.353 N 
ATOM      6  H1  UNL     1      -3.510  -2.509  -1.632  1.00  0.00     0.163 HD
HETATM    7  C9  UNL     1      -1.831  -2.372  -0.302  1.00  0.00     0.387 C 
HETATM    8  N3  UNL     1      -0.725  -1.446  -0.363  1.00  0.00    -0.336 N 
ATOM      9  H3  UNL     1       0.232  -1.793  -0.429  1.00  0.00     0.164 HD
HETATM   10  C10 UNL     1      -0.952  -0.194  -0.334  1.00  0.00     0.095 C 
ENDROOT
BRANCH  10  11
HETATM   11  N4  UNL     1       0.147   0.724  -0.395  1.00  0.00    -0.369 N 
ATOM     12  H4  UNL     1      -0.078   1.717  -0.461  1.00  0.00     0.161 HD
BRANCH  11  13
HETATM   13  C11 UNL     1       1.527   0.369  -0.371  1.00  0.00     0.032 C 
HETATM   14  C12 UNL     1       1.973  -0.506  -1.510  1.00  0.00     0.035 C 
HETATM   15  C13 UNL     1       3.488  -0.590  -1.544  1.00  0.00    -0.012 C 
HETATM   16  C14 UNL     1       3.876  -1.395  -0.305  1.00  0.00     0.009 C 
HETATM   17  C18 UNL     1       4.169   0.734  -1.588  1.00  0.00     0.009 C 
HETATM   18  C15 UNL     1       3.418  -0.596   0.888  1.00  0.00    -0.012 C 
HETATM   19  C16 UNL     1       4.221   0.689   0.877  1.00  0.00     0.009 C 
HETATM   20  C20 UNL     1       1.935  -0.357   0.918  1.00  0.00     0.035 C 
HETATM   21  C17 UNL     1       3.797   1.477  -0.325  1.00  0.00    -0.012 C 
HETATM   22  C19 UNL     1       2.322   1.679  -0.333  1.00  0.00     0.035 C 
ENDBRANCH  11  13
ENDBRANCH  10  11
BRANCH   1  23
HETATM   23  C3  UNL     1      -2.806   0.434   1.163  1.00  0.00    -0.067 C 
HETATM   24  C2  UNL     1      -2.063   0.184   2.220  1.00  0.00    -0.027 C 
HETATM   25  C1  UNL     1      -2.577   0.387   3.598  1.00  0.00     0.036 C 
HETATM   26  C4  UNL     1      -4.193   0.933   1.373  1.00  0.00     0.044 C 
ENDBRANCH   1  23
BRANCH   7  27
HETATM   27  N2  UNL     1      -1.362  -3.641  -0.849  1.00  0.00    -0.041 N 
ATOM     28  H23 UNL     1      -2.115  -4.325  -0.921  1.00  0.00     0.279 HD
ATOM     29  H22 UNL     1      -1.131  -3.565  -1.840  1.00  0.00     0.279 HD
ATOM     30  H21 UNL     1      -0.578  -3.996  -0.302  1.00  0.00     0.279 HD
ENDBRANCH   7  27
TORSDOF 4
