REMARK  4 active torsions:
REMARK  status: ('A' for Active; 'I' for Inactive)
REMARK    1  A    between atoms: C6_6  and  C7_7 
REMARK    2  A    between atoms: C7_7  and  C8_8 
REMARK    3  A    between atoms: C12_12  and  O1_14 
REMARK    4  A    between atoms: N1_24  and  O3_26 
ROOT
HETATM    1  C8  UNL     1      -1.041  -1.271  -1.171  1.00  0.00    -0.003 C 
HETATM    2  C9  UNL     1      -1.694  -2.463  -0.497  1.00  0.00     0.006 C 
HETATM    3  C10 UNL     1      -3.030  -1.901  -0.060  1.00  0.00     0.009 C 
HETATM    4  C11 UNL     1      -3.036  -0.460  -0.444  1.00  0.00     0.036 C 
HETATM    5  C12 UNL     1      -3.934   0.412   0.325  1.00  0.00     0.118 C 
HETATM    6  C13 UNL     1      -5.253   0.501  -0.465  1.00  0.00     0.055 C 
HETATM    7  C14 UNL     1      -3.386   1.810   0.280  1.00  0.00     0.161 C 
HETATM    8  O2  UNL     1      -3.724   2.591   1.137  1.00  0.00    -0.295 OA
HETATM    9  C15 UNL     1      -2.458   2.185  -0.799  1.00  0.00     0.082 C 
HETATM   10  C16 UNL     1      -1.324   1.221  -0.993  1.00  0.00     0.017 C 
HETATM   11  C17 UNL     1      -1.547  -0.132  -0.367  1.00  0.00    -0.033 C 
HETATM   12  C18 UNL     1      -1.143  -0.177   1.079  1.00  0.00     0.016 C 
ENDROOT
BRANCH   1  13
HETATM   13  C7  UNL     1       0.394  -1.421  -1.420  1.00  0.00     0.033 C 
BRANCH  13  14
HETATM   14  C6  UNL     1       1.283  -1.636  -0.297  1.00  0.00    -0.023 C 
HETATM   15  C5  UNL     1       2.312  -0.857  -0.095  1.00  0.00    -0.078 C 
HETATM   16  C4  UNL     1       2.568   0.263  -1.037  1.00  0.00     0.035 C 
HETATM   17  C19 UNL     1       3.216  -1.105   1.082  1.00  0.00     0.088 C 
HETATM   18  C3  UNL     1       3.889   0.950  -0.730  1.00  0.00     0.014 C 
HETATM   19  C2  UNL     1       3.851   1.341   0.712  1.00  0.00     0.030 C 
HETATM   20  C1  UNL     1       5.050   2.232   0.989  1.00  0.00     0.016 C 
HETATM   21  C20 UNL     1       3.884   0.111   1.533  1.00  0.00     0.017 C 
HETATM   22  N1  UNL     1       4.514   0.138   2.652  1.00  0.00    -0.277 N 
ATOM     23  H1  UNL     1       4.965   1.012   2.923  1.00  0.00     0.193 HD
BRANCH  22  24
HETATM   24  O3  UNL     1       4.621  -0.923   3.502  1.00  0.00    -0.290 OA
ATOM     25  H3  UNL     1       5.087  -0.903   4.330  1.00  0.00     0.244 HD
ENDBRANCH  22  24
ENDBRANCH  13  14
ENDBRANCH   1  13
BRANCH   5  26
HETATM   26  O1  UNL     1      -4.290   0.000   1.584  1.00  0.00    -0.382 OA
ATOM     27  H1  UNL     1      -4.871   0.564   2.081  1.00  0.00     0.211 HD
ENDBRANCH   5  26
TORSDOF 4
