REMARK  12 active torsions:
REMARK  status: ('A' for Active; 'I' for Inactive)
REMARK    1  A    between atoms: O1_2  and  C2_3 
REMARK    2  A    between atoms: C5_8  and  O4_9 
REMARK    3  A    between atoms: C7_11  and  O5_12 
REMARK    4  A    between atoms: C8_14  and  O6_15 
REMARK    5  A    between atoms: C9_17  and  O7_18 
REMARK    6  A    between atoms: O7_18  and  C10_19 
REMARK    7  A    between atoms: C11_21  and  O9_23 
REMARK    8  A    between atoms: N1_26  and  O10_28 
REMARK    9  A    between atoms: C14_30  and  N2_31 
REMARK   10  A    between atoms: N2_31  and  N3_33 
REMARK   11  A    between atoms: N3_33  and  N4_34 
REMARK   12  A    between atoms: C15_37  and  O11_38 
ROOT
HETATM    1  C2  UNL     1      -4.355  -0.064  -0.597  1.00  0.00     0.199 C 
HETATM    2  C3  UNL     1      -3.659  -1.086  -1.459  1.00  0.00     0.208 C 
HETATM    3  O2  UNL     1      -2.303  -0.738  -1.487  1.00  0.00    -0.348 OA
HETATM    4  C4  UNL     1      -1.727  -0.932  -0.235  1.00  0.00     0.224 C 
HETATM    5  O3  UNL     1      -2.609  -0.717   0.809  1.00  0.00    -0.317 OA
HETATM    6  C5  UNL     1      -3.401   0.381   0.473  1.00  0.00     0.293 C 
HETATM    7  C7  UNL     1      -1.157  -2.356  -0.200  1.00  0.00     0.214 C 
HETATM    8  C8  UNL     1       0.201  -2.109  -0.863  1.00  0.00     0.184 C 
HETATM    9  C9  UNL     1       0.688  -0.917  -0.080  1.00  0.00     0.190 C 
HETATM   10  C15 UNL     1      -0.526  -0.031  -0.041  1.00  0.00     0.215 C 
ENDROOT
BRANCH   9  11
HETATM   11  O7  UNL     1       1.784  -0.303  -0.672  1.00  0.00    -0.348 OA
BRANCH  11  12
HETATM   12  C10 UNL     1       2.836  -0.327   0.257  1.00  0.00     0.295 C 
HETATM   13  O8  UNL     1       3.931  -1.023  -0.240  1.00  0.00    -0.317 OA
HETATM   14  C11 UNL     1       4.972  -0.635   0.601  1.00  0.00     0.205 C 
HETATM   15  C12 UNL     1       6.282  -1.039  -0.024  1.00  0.00     0.086 C 
HETATM   16  C13 UNL     1       4.799   0.837   0.661  1.00  0.00     0.101 C 
HETATM   17  N1  UNL     1       5.728   1.721   0.801  1.00  0.00    -0.270 N 
HETATM   18  C14 UNL     1       3.341   1.087   0.526  1.00  0.00     0.222 C 
ATOM     19  H1  UNL     1       6.690   1.392   0.882  1.00  0.00     0.193 HD
BRANCH  14  20
HETATM   20  O9  UNL     1       4.789  -1.207   1.853  1.00  0.00    -0.361 OA
ATOM     21  H9  UNL     1       5.499  -0.942   2.426  1.00  0.00     0.213 HD
ENDBRANCH  14  20
BRANCH  17  22
HETATM   22  O10 UNL     1       5.511   3.055   0.848  1.00  0.00    -0.290 OA
ATOM     23  H10 UNL     1       6.195   3.706   0.951  1.00  0.00     0.244 HD
ENDBRANCH  17  22
BRANCH  18  24
HETATM   24  N2  UNL     1       2.847   1.493   1.828  1.00  0.00    -0.237 N 
ATOM     25  H2  UNL     1       2.526   0.762   2.463  1.00  0.00     0.198 HD
BRANCH  24  26
HETATM   26  N3  UNL     1       2.789   2.644   2.215  1.00  0.00    -0.248 NA
BRANCH  26  27
HETATM   27  N4  UNL     1       2.378   3.794   2.437  1.00  0.00    -0.261 N 
ATOM     28  H42 UNL     1       1.479   3.669   1.973  1.00  0.00     0.193 HD
ATOM     29  H41 UNL     1       2.329   4.760   2.762  1.00  0.00     0.193 HD
ENDBRANCH  26  27
ENDBRANCH  24  26
ENDBRANCH  18  24
ENDBRANCH  11  12
ENDBRANCH   9  11
BRANCH   8  30
HETATM   30  O6  UNL     1      -0.093  -1.765  -2.194  1.00  0.00    -0.390 OA
ATOM     31  H6  UNL     1       0.750  -1.612  -2.605  1.00  0.00     0.210 HD
ENDBRANCH   8  30
BRANCH  10  32
HETATM   32  O11 UNL     1      -0.470   0.989  -0.987  1.00  0.00    -0.387 OA
ATOM     33  H11 UNL     1       0.284   1.554  -0.865  1.00  0.00     0.210 HD
ENDBRANCH  10  32
BRANCH   7  34
HETATM   34  O5  UNL     1      -0.975  -2.760   1.121  1.00  0.00    -0.387 OA
ATOM     35  H5  UNL     1      -0.622  -3.642   1.143  1.00  0.00     0.210 HD
ENDBRANCH   7  34
BRANCH   6  36
HETATM   36  O4  UNL     1      -4.058   0.901   1.589  1.00  0.00    -0.363 OA
HETATM   37  C6  UNL     1      -3.645   2.221   1.740  1.00  0.00     0.204 C 
ENDBRANCH   6  36
BRANCH   1  38
HETATM   38  O1  UNL     1      -4.910   0.968  -1.313  1.00  0.00    -0.384 OA
HETATM   39  C1  UNL     1      -6.286   1.051  -1.203  1.00  0.00     0.202 C 
ENDBRANCH   1  38
TORSDOF 12
