REMARK  10 active torsions:
REMARK  status: ('A' for Active; 'I' for Inactive)
REMARK    1  A    between atoms: O1_2  and  C2_3 
REMARK       I    between atoms: C2_3  and  N1_5 
REMARK    2  A    between atoms: C3_6  and  O3_7 
REMARK    3  A    between atoms: C5_9  and  S1_10 
REMARK    4  A    between atoms: C6_14  and  N2_15 
REMARK    5  A    between atoms: N2_15  and  N3_17 
REMARK    6  A    between atoms: N3_17  and  N4_19 
REMARK    7  A    between atoms: N4_19  and  C7_21 
REMARK    8  A    between atoms: C7_21  and  N5_23 
REMARK    9  A    between atoms: C9_27  and  C10_28 
REMARK   10  A    between atoms: N7_34  and  O8_35 
ROOT
HETATM    1  C2  UNL     1      -3.596  -0.068  -1.417  1.00  0.00     0.375 C 
HETATM    2  O2  UNL     1      -4.170  -1.013  -1.968  1.00  0.00    -0.237 OA
HETATM    3  N1  UNL     1      -2.324  -0.209  -0.804  1.00  0.00    -0.200 N 
HETATM    4  C3  UNL     1      -1.676  -1.376  -0.775  1.00  0.00     0.183 A 
HETATM    5  C5  UNL     1      -0.412  -1.480  -0.185  1.00  0.00     0.161 A 
HETATM    6  C6  UNL     1       0.129  -0.344   0.357  1.00  0.00     0.093 A 
HETATM    7  C9  UNL     1      -0.523   0.904   0.349  1.00  0.00     0.085 A 
HETATM    8  C13 UNL     1      -1.746   0.910  -0.246  1.00  0.00     0.270 A 
HETATM    9  O9  UNL     1      -2.401   1.973  -0.302  1.00  0.00    -0.267 OA
ENDROOT
BRANCH   6  10
HETATM   10  N2  UNL     1       1.431  -0.419   0.952  1.00  0.00    -0.284 N 
ATOM     11  H2  UNL     1       1.585  -0.812   1.881  1.00  0.00     0.188 HD
BRANCH  10  12
HETATM   12  N3  UNL     1       2.397   0.046   0.229  1.00  0.00    -0.245 N 
ATOM     13  H3  UNL     1       2.166   0.422  -0.691  1.00  0.00     0.208 HD
BRANCH  12  14
HETATM   14  N4  UNL     1       3.718   0.067   0.619  1.00  0.00    -0.292 N 
ATOM     15  H4  UNL     1       3.983   0.492   1.508  1.00  0.00     0.184 HD
BRANCH  14  16
HETATM   16  C7  UNL     1       4.723  -0.513  -0.232  1.00  0.00     0.293 C 
HETATM   17  C8  UNL     1       4.695   0.224  -1.553  1.00  0.00     0.064 C 
BRANCH  16  18
HETATM   18  N5  UNL     1       6.018  -0.406   0.407  1.00  0.00    -0.058 N 
ATOM     19  H53 UNL     1       6.241   0.555   0.667  1.00  0.00     0.276 HD
ATOM     20  H52 UNL     1       6.022  -0.815   1.341  1.00  0.00     0.276 HD
ATOM     21  H51 UNL     1       6.730  -0.817  -0.196  1.00  0.00     0.276 HD
ENDBRANCH  16  18
ENDBRANCH  14  16
ENDBRANCH  12  14
ENDBRANCH  10  12
ENDBRANCH   6  10
BRANCH   5  22
HETATM   22  S1  UNL     1       0.433  -3.017  -0.178  1.00  0.00     0.144 S 
HETATM   23  O4  UNL     1       1.924  -2.858  -0.092  1.00  0.00    -0.591 OA
HETATM   24  O5  UNL     1       0.051  -3.809  -1.397  1.00  0.00    -0.591 OA
HETATM   25  O6  UNL     1      -0.043  -3.844   1.201  1.00  0.00    -0.591 OA
ENDBRANCH   5  22
BRANCH   7  26
HETATM   26  C10 UNL     1       0.189   1.993   1.008  1.00  0.00     0.257 A 
HETATM   27  N6  UNL     1       0.663   1.488   2.324  1.00  0.00    -0.367 N 
HETATM   28  C11 UNL     1       0.322   2.286   3.258  1.00  0.00     0.162 A 
ATOM     29  H6  UNL     1       1.188   0.624   2.460  1.00  0.00     0.161 HD
HETATM   30  C12 UNL     1      -0.405   3.423   2.719  1.00  0.00     0.284 A 
HETATM   31  O7  UNL     1      -0.888   4.386   3.370  1.00  0.00    -0.265 OA
HETATM   32  N7  UNL     1      -0.446   3.198   1.304  1.00  0.00    -0.195 N 
BRANCH  32  33
HETATM   33  O8  UNL     1      -0.998   4.107   0.482  1.00  0.00    -0.282 OA
ATOM     34  H8  UNL     1      -1.431   4.928   0.684  1.00  0.00     0.245 HD
ENDBRANCH  32  33
ENDBRANCH   7  26
BRANCH   4  35
HETATM   35  O3  UNL     1      -2.248  -2.534  -1.333  1.00  0.00    -0.339 OA
HETATM   36  C4  UNL     1      -2.987  -3.448  -0.547  1.00  0.00     0.211 C 
ENDBRANCH   4  35
BRANCH   1  37
HETATM   37  O1  UNL     1      -4.274   1.159  -1.430  1.00  0.00    -0.308 OA
HETATM   38  C1  UNL     1      -5.544   1.271  -2.050  1.00  0.00     0.215 C 
ENDBRANCH   1  37
TORSDOF 10
