REMARK  12 active torsions:
REMARK  status: ('A' for Active; 'I' for Inactive)
REMARK    1  A    between atoms: C2_2  and  O2_4 
REMARK    2  A    between atoms: O2_4  and  C3_5 
REMARK    3  A    between atoms: C4_6  and  O3_7 
REMARK    4  A    between atoms: C6_11  and  O5_12 
REMARK    5  A    between atoms: O5_12  and  C7_13 
REMARK    6  A    between atoms: C8_15  and  C9_16 
REMARK    7  A    between atoms: C11_20  and  O7_21 
REMARK    8  A    between atoms: C12_24  and  O9_25 
REMARK    9  A    between atoms: C13_27  and  O10_28 
REMARK   10  A    between atoms: C14_30  and  O11_31 
REMARK   11  A    between atoms: O11_31  and  C15_32 
REMARK   12  A    between atoms: C17_35  and  O13_36 
ROOT
HETATM    1  C7  UNL     1      -0.966  -0.088  -0.565  1.00  0.00     0.296 C 
HETATM    2  O6  UNL     1      -1.586   1.160  -0.532  1.00  0.00    -0.342 OA
HETATM    3  C8  UNL     1      -2.076   1.308   0.783  1.00  0.00     0.231 C 
HETATM    4  C12 UNL     1      -3.123   0.252   1.096  1.00  0.00     0.186 C 
HETATM    5  C13 UNL     1      -3.324  -0.572  -0.137  1.00  0.00     0.184 C 
HETATM    6  C14 UNL     1      -1.985  -1.200  -0.514  1.00  0.00     0.218 C 
ENDROOT
BRANCH   1   7
HETATM    7  O5  UNL     1      -0.059  -0.227  -1.582  1.00  0.00    -0.326 OA
BRANCH   7   8
HETATM    8  C6  UNL     1       1.249  -0.411  -1.201  1.00  0.00     0.294 C 
HETATM    9  O4  UNL     1       1.784  -1.616  -1.536  1.00  0.00    -0.356 OA
HETATM   10  C5  UNL     1       2.714  -1.557  -2.534  1.00  0.00     0.205 C 
HETATM   11  C4  UNL     1       3.975  -0.817  -2.120  1.00  0.00     0.174 C 
HETATM   12  C3  UNL     1       3.583   0.321  -1.160  1.00  0.00     0.196 C 
HETATM   13  C17 UNL     1       2.163   0.698  -1.613  1.00  0.00     0.205 C 
BRANCH  11  14
HETATM   14  O3  UNL     1       4.545  -0.305  -3.282  1.00  0.00    -0.391 OA
ATOM     15  H3  UNL     1       4.787  -1.007  -3.874  1.00  0.00     0.210 HD
ENDBRANCH  11  14
BRANCH  12  16
HETATM   16  O2  UNL     1       3.449  -0.239   0.132  1.00  0.00    -0.311 OA
BRANCH  16  17
HETATM   17  C2  UNL     1       4.148   0.250   1.223  1.00  0.00     0.255 C 
HETATM   18  C1  UNL     1       4.030  -0.316   2.593  1.00  0.00     0.126 C 
HETATM   19  O1  UNL     1       4.916   1.223   1.024  1.00  0.00    -0.266 OA
ENDBRANCH  16  17
ENDBRANCH  12  16
BRANCH  13  20
HETATM   20  O13 UNL     1       1.794   1.924  -1.056  1.00  0.00    -0.388 OA
ATOM     21  H13 UNL     1       0.917   2.157  -1.336  1.00  0.00     0.210 HD
ENDBRANCH  13  20
ENDBRANCH   7   8
ENDBRANCH   1   7
BRANCH   6  22
HETATM   22  O11 UNL     1      -1.664  -2.155   0.477  1.00  0.00    -0.309 OA
BRANCH  22  23
HETATM   23  C15 UNL     1      -1.564  -3.503   0.242  1.00  0.00     0.255 C 
HETATM   24  C16 UNL     1      -1.227  -4.516   1.276  1.00  0.00     0.126 C 
HETATM   25  O12 UNL     1      -1.771  -3.916  -0.934  1.00  0.00    -0.266 OA
ENDBRANCH  22  23
ENDBRANCH   6  22
BRANCH   3  26
HETATM   26  C9  UNL     1      -2.560   2.672   1.045  1.00  0.00     0.158 A 
HETATM   27  N1  UNL     1      -2.319   3.422   2.131  1.00  0.00    -0.343 N 
HETATM   28  C10 UNL     1      -2.949   4.622   1.983  1.00  0.00     0.153 A 
ATOM     29  H1  UNL     1      -1.757   3.141   2.935  1.00  0.00     0.167 HD
HETATM   30  C11 UNL     1      -3.573   4.546   0.762  1.00  0.00     0.200 A 
HETATM   31  O8  UNL     1      -3.316   3.374   0.242  1.00  0.00    -0.271 OA
BRANCH  30  32
HETATM   32  O7  UNL     1      -4.334   5.555   0.210  1.00  0.00    -0.340 OA
ATOM     33  H7  UNL     1      -4.766   5.502  -0.635  1.00  0.00     0.220 HD
ENDBRANCH  30  32
ENDBRANCH   3  26
BRANCH   5  34
HETATM   34  O10 UNL     1      -4.292  -1.549  -0.003  1.00  0.00    -0.390 OA
ATOM     35  H10 UNL     1      -4.420  -2.072  -0.786  1.00  0.00     0.210 HD
ENDBRANCH   5  34
BRANCH   4  36
HETATM   36  O9  UNL     1      -2.829  -0.487   2.215  1.00  0.00    -0.390 OA
ATOM     37  H9  UNL     1      -3.484  -1.147   2.411  1.00  0.00     0.210 HD
ENDBRANCH   4  36
TORSDOF 12
