REMARK  9 active torsions:
REMARK  status: ('A' for Active; 'I' for Inactive)
REMARK       I    between atoms: C2_2  and  N1_4 
REMARK    1  A    between atoms: N1_4  and  C3_6 
REMARK    2  A    between atoms: C3_6  and  C4_7 
REMARK    3  A    between atoms: C4_7  and  C5_8 
REMARK    4  A    between atoms: C5_8  and  C6_9 
REMARK    5  A    between atoms: C6_9  and  C7_10 
REMARK    6  A    between atoms: C7_10  and  N2_11 
REMARK       I    between atoms: N2_11  and  C8_13 
REMARK    7  A    between atoms: C8_13  and  C9_15 
REMARK    8  A    between atoms: C9_15  and  N3_16 
REMARK    9  A    between atoms: C9_15  and  C10_20 
ROOT
HETATM    1  C10 UNL     1      -0.890  -0.477   0.287  1.00  0.00     0.127 C 
HETATM    2  C11 UNL     1      -0.167  -1.215  -0.829  1.00  0.00     0.214 C 
HETATM    3  O3  UNL     1       0.272  -0.689  -1.861  1.00  0.00    -0.288 OA
HETATM    4  C12 UNL     1       0.036  -2.659  -0.698  1.00  0.00     0.255 C 
HETATM    5  O4  UNL     1       1.019  -3.278  -1.132  1.00  0.00    -0.277 OA
HETATM    6  S1  UNL     1      -1.243  -3.545   0.151  1.00  0.00    -0.083 SA
HETATM    7  C13 UNL     1      -2.095  -2.337   1.221  1.00  0.00     0.107 C 
HETATM    8  C14 UNL     1      -2.223  -0.976   0.585  1.00  0.00     0.089 C 
HETATM    9  C15 UNL     1      -2.964  -1.345  -0.692  1.00  0.00     0.236 C 
HETATM   10  O5  UNL     1      -2.449  -1.619  -1.833  1.00  0.00    -0.272 OA
HETATM   11  N4  UNL     1      -4.336  -1.329  -0.397  1.00  0.00    -0.319 N 
HETATM   12  C16 UNL     1      -5.766  -1.459  -0.426  1.00  0.00     0.206 C 
HETATM   13  C17 UNL     1      -6.377  -1.443  -1.748  1.00  0.00     0.085 C 
HETATM   14  N5  UNL     1      -6.855  -1.452  -2.808  1.00  0.00    -0.195 NA
HETATM   15  C18 UNL     1      -5.693  -0.034   0.245  1.00  0.00     0.015 C 
HETATM   16  C19 UNL     1      -6.987   0.126   1.028  1.00  0.00     0.021 C 
HETATM   17  C20 UNL     1      -5.694   0.897  -0.867  1.00  0.00     0.021 C 
HETATM   18  C21 UNL     1      -4.564  -0.693   0.894  1.00  0.00     0.068 C 
HETATM   19  C22 UNL     1      -5.164  -1.550   2.011  1.00  0.00     0.045 C 
HETATM   20  C23 UNL     1      -3.216  -0.115   1.227  1.00  0.00    -0.030 C 
HETATM   21  C24 UNL     1      -3.155   1.315   1.429  1.00  0.00    -0.082 C 
HETATM   22  C25 UNL     1      -2.971   2.322   0.390  1.00  0.00     0.043 C 
HETATM   23  C26 UNL     1      -2.498   1.844   2.687  1.00  0.00     0.043 C 
ENDROOT
BRANCH   1  24
HETATM   24  C9  UNL     1       0.161  -0.372   1.378  1.00  0.00     0.287 C 
BRANCH  24  25
HETATM   25  C8  UNL     1       1.293   0.473   0.865  1.00  0.00     0.249 C 
HETATM   26  N2  UNL     1       2.400   0.071   0.139  1.00  0.00    -0.359 N 
ATOM     27  H2  UNL     1       2.506  -0.917  -0.092  1.00  0.00     0.162 HD
HETATM   28  O2  UNL     1       1.190   1.719   1.144  1.00  0.00    -0.271 OA
BRANCH  26  29
HETATM   29  C7  UNL     1       3.422   1.016  -0.307  1.00  0.00     0.122 C 
BRANCH  29  30
HETATM   30  C6  UNL     1       4.490   0.436  -1.136  1.00  0.00     0.021 C 
BRANCH  30  31
HETATM   31  C5  UNL     1       5.319  -0.641  -0.488  1.00  0.00     0.014 C 
BRANCH  31  32
HETATM   32  C4  UNL     1       6.413  -1.076  -1.502  1.00  0.00     0.104 C 
BRANCH  32  33
HETATM   33  C3  UNL     1       7.339  -0.087  -1.835  1.00  0.00    -0.068 C 
BRANCH  33  34
HETATM   34  N1  UNL     1       8.251   0.872  -2.113  1.00  0.00    -0.297 N 
HETATM   35  C2  UNL     1       8.333   2.121  -1.366  1.00  0.00     0.224 C 
HETATM   36  C1  UNL     1       9.335   3.147  -1.721  1.00  0.00     0.118 C 
HETATM   37  O1  UNL     1       7.522   2.272  -0.424  1.00  0.00    -0.273 OA
ATOM     38  H1  UNL     1       8.909   0.715  -2.877  1.00  0.00     0.178 HD
ENDBRANCH  33  34
ENDBRANCH  32  33
ENDBRANCH  31  32
ENDBRANCH  30  31
ENDBRANCH  29  30
ENDBRANCH  26  29
ENDBRANCH  24  25
BRANCH  24  39
HETATM   39  N3  UNL     1       0.797  -1.677   1.621  1.00  0.00    -0.066 N 
ATOM     40  H33 UNL     1       1.286  -2.067   0.815  1.00  0.00     0.275 HD
ATOM     41  H32 UNL     1       1.613  -1.644   2.233  1.00  0.00     0.275 HD
ATOM     42  H31 UNL     1       0.029  -2.251   1.969  1.00  0.00     0.275 HD
ENDBRANCH  24  39
ENDBRANCH   1  24
TORSDOF 9
