REMARK  4 active torsions:
REMARK  status: ('A' for Active; 'I' for Inactive)
REMARK    1  A    between atoms: C4_5  and  C5_6 
REMARK       I    between atoms: C5_6  and  N2_8 
REMARK    2  A    between atoms: N2_8  and  C6_10 
REMARK    3  A    between atoms: C6_10  and  N3_12 
REMARK    4  A    between atoms: N3_12  and  C7_14 
ROOT
HETATM    1  C1  UNL     1       6.148  -0.877   0.229  1.00  0.00     0.060 C 
HETATM    2  C2  UNL     1       4.892  -0.111  -0.107  1.00  0.00     0.024 C 
HETATM    3  C3  UNL     1       5.081   1.074  -0.893  1.00  0.00     0.095 C 
HETATM    4  N1  UNL     1       5.256   2.032  -1.531  1.00  0.00    -0.192 NA
HETATM    5  C4  UNL     1       3.728  -0.547   0.319  1.00  0.00     0.092 C 
ENDROOT
BRANCH   5   6
HETATM    6  C5  UNL     1       2.478   0.129   0.040  1.00  0.00     0.248 C 
HETATM    7  O1  UNL     1       2.517   1.199  -0.653  1.00  0.00    -0.268 OA
HETATM    8  N2  UNL     1       1.252  -0.377   0.519  1.00  0.00    -0.300 N 
ATOM      9  H2  UNL     1       1.257  -1.235   1.071  1.00  0.00     0.171 HD
BRANCH   8  10
HETATM   10  C6  UNL     1       0.003   0.268   0.260  1.00  0.00     0.174 C 
HETATM   11  S1  UNL     1      -0.028   1.642  -0.620  1.00  0.00    -0.041 SA
BRANCH  10  12
HETATM   12  N3  UNL     1      -1.214  -0.249   0.761  1.00  0.00    -0.362 N 
ATOM     13  H3  UNL     1      -1.195  -1.099   1.324  1.00  0.00     0.162 HD
BRANCH  12  14
HETATM   14  C7  UNL     1      -2.465   0.379   0.505  1.00  0.00     0.083 C 
HETATM   15  C8  UNL     1      -2.917   0.372  -0.930  1.00  0.00     0.025 C 
HETATM   16  C9  UNL     1      -4.407   0.716  -0.755  1.00  0.00     0.002 C 
HETATM   17  C10 UNL     1      -4.801  -0.278   0.301  1.00  0.00     0.002 C 
HETATM   18  C11 UNL     1      -3.614  -0.263   1.241  1.00  0.00     0.025 C 
ENDBRANCH  12  14
ENDBRANCH  10  12
ENDBRANCH   8  10
ENDBRANCH   5   6
TORSDOF 4
