REMARK  2 active torsions:
REMARK  status: ('A' for Active; 'I' for Inactive)
REMARK    1  A    between atoms: C2_3  and  N2_4 
REMARK       I    between atoms: N2_4  and  C3_6 
REMARK       I    between atoms: C3_6  and  N3_8 
REMARK    2  A    between atoms: N3_8  and  C4_10 
ROOT
HETATM    1  N1  UNL     1       7.603   1.107  -1.197  1.00  0.00    -0.196 NA
HETATM    2  C1  UNL     1       6.659   0.439  -1.030  1.00  0.00     0.078 C 
HETATM    3  C2  UNL     1       5.488  -0.381  -0.808  1.00  0.00     0.248 C 
ENDROOT
BRANCH   3   4
HETATM    4  N2  UNL     1       4.417   0.409  -0.299  1.00  0.00    -0.331 N 
HETATM    5  C3  UNL     1       3.150  -0.203  -0.004  1.00  0.00     0.317 C 
HETATM    6  O1  UNL     1       3.013  -1.437  -0.203  1.00  0.00    -0.247 OA
HETATM    7  N3  UNL     1       2.062   0.542   0.502  1.00  0.00    -0.338 N 
ATOM      8  H3  UNL     1       2.162   1.543   0.668  1.00  0.00     0.164 HD
ATOM      9  H2  UNL     1       4.549   1.408  -0.144  1.00  0.00     0.165 HD
BRANCH   7  10
HETATM   10  C4  UNL     1       0.813  -0.113   0.783  1.00  0.00     0.091 C 
HETATM   11  C5  UNL     1       0.512   0.109   2.245  1.00  0.00     0.051 C 
HETATM   12  C6  UNL     1      -0.942   0.531   2.340  1.00  0.00     0.171 C 
HETATM   13  O2  UNL     1      -1.667  -0.364   1.582  1.00  0.00    -0.380 OA
HETATM   14  C7  UNL     1      -1.635  -0.039   0.203  1.00  0.00     0.062 C 
HETATM   15  C8  UNL     1      -1.822  -1.308  -0.529  1.00  0.00     0.038 C 
HETATM   16  C12 UNL     1      -2.586   1.055  -0.025  1.00  0.00     0.038 C 
HETATM   17  C13 UNL     1      -0.228   0.482  -0.121  1.00  0.00     0.063 C 
HETATM   18  C9  UNL     1      -3.185  -1.552  -1.097  1.00  0.00     0.003 C 
HETATM   19  C10 UNL     1      -3.779  -0.330  -1.748  1.00  0.00     0.000 C 
HETATM   20  C11 UNL     1      -3.895   0.695  -0.655  1.00  0.00     0.003 C 
ENDBRANCH   7  10
ENDBRANCH   3   4
TORSDOF 2
