REMARK  3 active torsions:
REMARK  status: ('A' for Active; 'I' for Inactive)
REMARK    1  A    between atoms: O1_2  and  C2_3 
REMARK       I    between atoms: N1_6  and  C5_7 
REMARK       I    between atoms: C5_7  and  N3_12 
REMARK    2  A    between atoms: N2_8  and  O2_10 
REMARK    3  A    between atoms: N3_12  and  C6_14 
ROOT
HETATM    1  C2  UNL     1       3.420  -0.029   0.246  1.00  0.00     0.123 C 
HETATM    2  C3  UNL     1       2.709  -1.160   0.972  1.00  0.00     0.052 C 
HETATM    3  C4  UNL     1       1.252  -0.841   1.041  1.00  0.00     0.143 C 
HETATM    4  N1  UNL     1       0.780  -0.576  -0.307  1.00  0.00    -0.216 N 
HETATM    5  C5  UNL     1      -0.546  -1.013  -0.616  1.00  0.00     0.696 C 
HETATM    6  N2  UNL     1      -0.782  -2.265  -0.595  1.00  0.00    -0.099 N 
ATOM      7  H2  UNL     1      -0.000  -2.875  -0.356  1.00  0.00     0.213 HD
HETATM    8  N3  UNL     1      -1.603  -0.124  -0.941  1.00  0.00    -0.220 N 
ATOM      9  H3  UNL     1      -1.863  -0.011  -1.921  1.00  0.00     0.178 HD
HETATM   10  C11 UNL     1       1.542   0.081  -1.321  1.00  0.00     0.143 C 
HETATM   11  C12 UNL     1       3.033  -0.130  -1.205  1.00  0.00     0.052 C 
ENDROOT
BRANCH   6  12
HETATM   12  O2  UNL     1      -1.967  -2.867  -0.858  1.00  0.00    -0.276 OA
ATOM     13  H2  UNL     1      -2.143  -3.800  -0.842  1.00  0.00     0.245 HD
ENDBRANCH   6  12
BRANCH   8  14
HETATM   14  C6  UNL     1      -2.324   0.625   0.056  1.00  0.00     0.099 C 
HETATM   15  C7  UNL     1      -3.381   1.481  -0.557  1.00  0.00     0.026 C 
HETATM   16  C8  UNL     1      -4.566   1.482   0.379  1.00  0.00     0.002 C 
HETATM   17  C9  UNL     1      -4.099   0.732   1.595  1.00  0.00     0.002 C 
HETATM   18  C10 UNL     1      -3.146  -0.294   0.967  1.00  0.00     0.026 C 
ENDBRANCH   8  14
BRANCH   1  19
HETATM   19  O1  UNL     1       4.773  -0.195   0.463  1.00  0.00    -0.391 OA
HETATM   20  C1  UNL     1       5.384   0.894   1.058  1.00  0.00     0.202 C 
ENDBRANCH   1  19
TORSDOF 3
