REMARK  4 active torsions:
REMARK  status: ('A' for Active; 'I' for Inactive)
REMARK    1  A    between atoms: C2_2  and  O1_3 
REMARK    2  A    between atoms: C7_9  and  O2_10 
REMARK    3  A    between atoms: C9_13  and  C10_14 
REMARK    4  A    between atoms: C10_14  and  N1_15 
ROOT
HETATM    1  C1  UNL     1      -0.916  -2.527   1.235  1.00  0.00     0.046 C 
HETATM    2  C2  UNL     1      -1.453  -1.612   0.179  1.00  0.00     0.060 C 
HETATM    3  C3  UNL     1      -2.924  -1.498   0.365  1.00  0.00     0.038 C 
HETATM    4  C4  UNL     1      -3.331  -0.068   0.572  1.00  0.00     0.008 C 
HETATM    5  C5  UNL     1      -2.910   0.686  -0.668  1.00  0.00    -0.005 C 
HETATM    6  C6  UNL     1      -3.018   2.168  -0.452  1.00  0.00     0.037 C 
HETATM    7  C7  UNL     1      -1.525   2.155  -0.140  1.00  0.00     0.123 C 
HETATM    8  C8  UNL     1      -1.406   0.753  -0.663  1.00  0.00     0.027 C 
HETATM    9  C9  UNL     1      -0.722  -0.263   0.168  1.00  0.00     0.055 C 
ENDROOT
BRANCH   9  10
HETATM   10  C10 UNL     1       0.617  -0.595  -0.507  1.00  0.00     0.280 C 
BRANCH  10  11
HETATM   11  N1  UNL     1       1.485   0.534  -0.628  1.00  0.00     0.088 N 
HETATM   12  C11 UNL     1       1.999   1.010   0.633  1.00  0.00     0.272 C 
HETATM   13  C12 UNL     1       3.494   1.254   0.612  1.00  0.00     0.030 C 
HETATM   14  C13 UNL     1       4.224  -0.027   0.331  1.00  0.00     0.003 C 
HETATM   15  C14 UNL     1       3.598  -0.718  -0.829  1.00  0.00     0.030 C 
HETATM   16  C15 UNL     1       2.583   0.158  -1.491  1.00  0.00     0.272 C 
ENDBRANCH  10  11
ENDBRANCH   9  10
BRANCH   2  17
HETATM   17  O1  UNL     1      -1.205  -2.214  -1.063  1.00  0.00    -0.390 OA
ATOM     18  H1  UNL     1      -1.546  -1.633  -1.733  1.00  0.00     0.210 HD
ENDBRANCH   2  17
BRANCH   7  19
HETATM   19  O2  UNL     1      -1.329   2.363   1.202  1.00  0.00    -0.395 OA
ATOM     20  H2  UNL     1      -0.399   2.355   1.396  1.00  0.00     0.210 HD
ENDBRANCH   7  19
TORSDOF 4
