REMARK  3 active torsions:
REMARK  status: ('A' for Active; 'I' for Inactive)
REMARK    1  A    between atoms: C2_2  and  O1_3 
REMARK    2  A    between atoms: C2_2  and  C3_5 
REMARK    3  A    between atoms: C3_5  and  N1_6 
ROOT
HETATM    1  N1  UNL     1       1.155  -0.284  -0.384  1.00  0.00     0.101 N 
HETATM    2  C4  UNL     1       0.957  -0.423  -1.803  1.00  0.00     0.274 C 
HETATM    3  C5  UNL     1      -0.245  -1.378  -1.891  1.00  0.00     0.046 C 
HETATM    4  C6  UNL     1      -0.980  -1.063  -0.694  1.00  0.00     0.039 A 
HETATM    5  C7  UNL     1      -2.317  -0.600  -0.667  1.00  0.00     0.046 A 
HETATM    6  C8  UNL     1      -2.270   0.766  -0.060  1.00  0.00    -0.038 C 
HETATM    7  C9  UNL     1      -3.205   0.989   1.075  1.00  0.00     0.015 C 
HETATM    8  C10 UNL     1      -2.649   1.756  -1.171  1.00  0.00     0.015 C 
HETATM    9  C11 UNL     1      -0.808   1.028   0.319  1.00  0.00     0.052 C 
HETATM   10  C12 UNL     1      -0.112  -0.287   0.258  1.00  0.00     0.174 C 
HETATM   11  C13 UNL     1      -0.189  -1.083   1.514  1.00  0.00     0.077 C 
HETATM   12  C14 UNL     1      -1.212  -2.147   1.213  1.00  0.00     0.161 A 
HETATM   13  O2  UNL     1      -2.495  -1.774   1.246  1.00  0.00    -0.368 OA
HETATM   14  C15 UNL     1      -1.950  -1.839   0.014  1.00  0.00     0.103 A 
ENDROOT
BRANCH   1  15
HETATM   15  C3  UNL     1       2.024   0.756   0.011  1.00  0.00     0.304 C 
BRANCH  15  16
HETATM   16  C2  UNL     1       3.455   0.508  -0.379  1.00  0.00     0.142 C 
HETATM   17  C1  UNL     1       4.053  -0.722   0.221  1.00  0.00     0.041 C 
BRANCH  16  18
HETATM   18  O1  UNL     1       4.197   1.615   0.077  1.00  0.00    -0.394 OA
ATOM     19  H1  UNL     1       3.817   2.397  -0.305  1.00  0.00     0.210 HD
ENDBRANCH  16  18
ENDBRANCH  15  16
ENDBRANCH   1  15
TORSDOF 3
