REMARK  2 active torsions:
REMARK  status: ('A' for Active; 'I' for Inactive)
REMARK    1  A    between atoms: N1_1  and  C1_5 
REMARK    2  A    between atoms: C1_5  and  C2_6 
ROOT
HETATM    1  C2  UNL     1      -1.610   0.624  -0.652  1.00  0.00     0.016 C 
HETATM    2  C3  UNL     1      -2.814  -0.225  -0.963  1.00  0.00     0.008 C 
HETATM    3  C4  UNL     1      -2.546  -1.700  -0.763  1.00  0.00     0.033 C 
HETATM    4  C5  UNL     1      -1.873  -1.979   0.549  1.00  0.00     0.186 C 
HETATM    5  C6  UNL     1      -1.890  -0.712   1.361  1.00  0.00     0.038 C 
HETATM    6  C7  UNL     1      -0.975   0.309   0.664  1.00  0.00    -0.000 C 
HETATM    7  C8  UNL     1       0.333  -0.343   0.603  1.00  0.00     0.027 C 
HETATM    8  C9  UNL     1       0.253  -1.579  -0.308  1.00  0.00     0.193 C 
HETATM    9  C10 UNL     1       1.698  -1.925  -0.457  1.00  0.00     0.065 C 
HETATM   10  C11 UNL     1       2.502  -0.782   0.041  1.00  0.00     0.128 C 
HETATM   11  O1  UNL     1       3.597  -0.439  -0.688  1.00  0.00    -0.385 OA
HETATM   12  C12 UNL     1       4.278   0.557   0.027  1.00  0.00     0.168 C 
HETATM   13  C13 UNL     1       3.451   1.772   0.279  1.00  0.00     0.027 C 
HETATM   14  C14 UNL     1       2.083   1.450   0.867  1.00  0.00     0.010 C 
HETATM   15  C15 UNL     1       1.481   0.371   0.039  1.00  0.00     0.021 C 
HETATM   16  N2  UNL     1      -0.539  -2.530   0.395  1.00  0.00    -0.066 N 
ATOM     17  H21 UNL     1      -0.541  -3.448  -0.050  1.00  0.00     0.278 HD
ATOM     18  H22 UNL     1      -0.123  -2.810   1.283  1.00  0.00     0.278 HD
ENDROOT
BRANCH   1  19
HETATM   19  C1  UNL     1      -2.101   2.073  -0.599  1.00  0.00     0.234 C 
BRANCH  19  20
HETATM   20  N1  UNL     1      -3.112   2.250   0.423  1.00  0.00    -0.079 N 
ATOM     21  H13 UNL     1      -3.886   1.597   0.301  1.00  0.00     0.274 HD
ATOM     22  H12 UNL     1      -2.782   1.933   1.335  1.00  0.00     0.274 HD
ATOM     23  H11 UNL     1      -3.439   3.215   0.458  1.00  0.00     0.274 HD
ENDBRANCH  19  20
ENDBRANCH   1  19
TORSDOF 2
