REMARK  5 active torsions:
REMARK  status: ('A' for Active; 'I' for Inactive)
REMARK    1  A    between atoms: C3_3  and  C4_4 
REMARK    2  A    between atoms: N1_9  and  O1_10 
REMARK    3  A    between atoms: O1_10  and  C9_11 
REMARK    4  A    between atoms: C10_12  and  O2_13 
REMARK    5  A    between atoms: C14_18  and  O3_19 
ROOT
HETATM    1  C9  UNL     1      -2.070  -0.696   0.036  1.00  0.00     0.181 C 
HETATM    2  C10 UNL     1      -3.202  -1.452  -0.690  1.00  0.00     0.156 C 
HETATM    3  C11 UNL     1      -4.369  -0.658  -0.230  1.00  0.00     0.047 C 
HETATM    4  C12 UNL     1      -4.057  -0.476   1.263  1.00  0.00     0.019 C 
HETATM    5  C13 UNL     1      -2.900   0.352   0.725  1.00  0.00     0.049 C 
HETATM    6  C14 UNL     1      -3.864   0.774  -0.365  1.00  0.00     0.131 C 
ENDROOT
BRANCH   1   7
HETATM    7  O1  UNL     1      -1.174  -0.150  -0.816  1.00  0.00    -0.295 OA
BRANCH   7   8
HETATM    8  N1  UNL     1       0.107  -0.436  -0.677  1.00  0.00    -0.192 NA
HETATM    9  C2  UNL     1       0.701  -0.345   0.641  1.00  0.00     0.088 A 
HETATM   10  C1  UNL     1       1.303  -1.619   1.113  1.00  0.00     0.029 C 
HETATM   11  C3  UNL     1       1.546   0.800   0.309  1.00  0.00     0.028 A 
HETATM   12  C8  UNL     1       0.903   0.752  -1.034  1.00  0.00     0.128 A 
BRANCH  11  13
HETATM   13  C4  UNL     1       3.020   0.719   0.253  1.00  0.00    -0.045 C 
HETATM   14  C5  UNL     1       3.592   0.294   1.615  1.00  0.00     0.015 C 
HETATM   15  C6  UNL     1       3.533   2.152   0.038  1.00  0.00     0.015 C 
HETATM   16  C7  UNL     1       3.633  -0.149  -0.774  1.00  0.00     0.015 C 
ENDBRANCH  11  13
ENDBRANCH   7   8
ENDBRANCH   1   7
BRANCH   2  17
HETATM   17  O2  UNL     1      -3.282  -2.723  -0.133  1.00  0.00    -0.392 OA
ATOM     18  H2  UNL     1      -3.979  -3.189  -0.580  1.00  0.00     0.210 HD
ENDBRANCH   2  17
BRANCH   6  19
HETATM   19  O3  UNL     1      -3.293   1.021  -1.601  1.00  0.00    -0.395 OA
ATOM     20  H3  UNL     1      -2.978   1.913  -1.685  1.00  0.00     0.210 HD
ENDBRANCH   6  19
TORSDOF 5
