REMARK  3 active torsions:
REMARK  status: ('A' for Active; 'I' for Inactive)
REMARK       I    between atoms: C1_2  and  N1_3 
REMARK    1  A    between atoms: C1_2  and  C10_15 
REMARK    2  A    between atoms: C2_5  and  C3_6 
REMARK    3  A    between atoms: C9_12  and  O2_13 
ROOT
HETATM    1  O1  UNL     1       1.873  -2.123   2.172  1.00  0.00    -0.273 OA
HETATM    2  C1  UNL     1       1.503  -1.404   1.224  1.00  0.00     0.227 C 
HETATM    3  N1  UNL     1       0.130  -1.179   1.003  1.00  0.00    -0.340 N 
ATOM      4  H1  UNL     1      -0.507  -1.132   1.798  1.00  0.00     0.167 HD
HETATM    5  C2  UNL     1      -0.326  -1.033  -0.180  1.00  0.00     0.071 C 
ENDROOT
BRANCH   2   6
HETATM    6  C10 UNL     1       2.516  -0.796   0.341  1.00  0.00     0.104 C 
HETATM    7  C11 UNL     1       3.923  -1.155   0.739  1.00  0.00     0.017 C 
HETATM    8  C12 UNL     1       4.854  -0.441  -0.236  1.00  0.00     0.028 C 
HETATM    9  C13 UNL     1       4.625   1.054  -0.051  1.00  0.00     0.232 C 
HETATM   10  N2  UNL     1       3.276   1.345  -0.489  1.00  0.00    -0.074 N 
HETATM   11  C14 UNL     1       2.357   0.708   0.436  1.00  0.00     0.246 C 
ATOM     12  H22 UNL     1       3.102   2.345  -0.593  1.00  0.00     0.277 HD
ATOM     13  H21 UNL     1       3.109   1.076  -1.459  1.00  0.00     0.277 HD
ENDBRANCH   2   6
BRANCH   5  14
HETATM   14  C3  UNL     1      -1.761  -0.793  -0.481  1.00  0.00     0.053 C 
HETATM   15  C4  UNL     1      -1.863   0.499  -1.243  1.00  0.00     0.012 C 
HETATM   16  C5  UNL     1      -3.302   0.697  -1.626  1.00  0.00     0.001 C 
HETATM   17  C6  UNL     1      -4.136   1.267  -0.537  1.00  0.00     0.000 C 
HETATM   18  C7  UNL     1      -3.414   1.502   0.751  1.00  0.00     0.002 C 
HETATM   19  C8  UNL     1      -2.920   0.329   1.465  1.00  0.00     0.032 C 
HETATM   20  C9  UNL     1      -2.652  -0.911   0.685  1.00  0.00     0.127 C 
BRANCH  20  21
HETATM   21  O2  UNL     1      -3.854  -1.555   0.349  1.00  0.00    -0.395 OA
ATOM     22  H2  UNL     1      -4.429  -1.631   1.101  1.00  0.00     0.210 HD
ENDBRANCH  20  21
ENDBRANCH   5  14
TORSDOF 3
