REMARK  3 active torsions:
REMARK  status: ('A' for Active; 'I' for Inactive)
REMARK       I    between atoms: N1_2  and  C2_4 
REMARK       I    between atoms: C2_4  and  N2_6 
REMARK    1  A    between atoms: N2_6  and  C3_8 
REMARK    2  A    between atoms: C7_13  and  S1_14 
REMARK    3  A    between atoms: S1_14  and  C8_15 
ROOT
HETATM    1  C3  UNL     1       1.016  -0.750  -0.871  1.00  0.00     0.131 C 
HETATM    2  C4  UNL     1       1.179  -2.276  -0.872  1.00  0.00     0.032 C 
HETATM    3  C5  UNL     1       1.856  -2.737   0.409  1.00  0.00     0.014 C 
HETATM    4  C6  UNL     1      -0.267  -2.740  -0.744  1.00  0.00     0.175 C 
HETATM    5  O2  UNL     1      -0.730  -1.775   0.137  1.00  0.00    -0.373 OA
HETATM    6  C7  UNL     1      -0.449  -0.598  -0.631  1.00  0.00     0.206 C 
ENDROOT
BRANCH   1   7
HETATM    7  N2  UNL     1       1.874  -0.159   0.112  1.00  0.00    -0.335 N 
HETATM    8  C2  UNL     1       2.690   0.946  -0.224  1.00  0.00     0.316 C 
HETATM    9  N1  UNL     1       3.564   1.544   0.717  1.00  0.00    -0.347 N 
HETATM   10  O1  UNL     1       2.665   1.447  -1.398  1.00  0.00    -0.247 OA
HETATM   11  C1  UNL     1       4.344   2.694   0.332  1.00  0.00     0.151 C 
ATOM     12  H1  UNL     1       3.641   1.164   1.660  1.00  0.00     0.163 HD
ATOM     13  H2  UNL     1       1.897  -0.537   1.059  1.00  0.00     0.164 HD
ENDBRANCH   1   7
BRANCH   6  14
HETATM   14  S1  UNL     1      -0.907   0.839   0.354  1.00  0.00    -0.126 SA
BRANCH  14  15
HETATM   15  C8  UNL     1      -2.700   0.939   0.457  1.00  0.00    -0.000 C 
HETATM   16  C9  UNL     1      -3.166   2.262  -0.101  1.00  0.00     0.026 C 
HETATM   17  C10 UNL     1      -3.172   0.713   1.861  1.00  0.00     0.026 C 
HETATM   18  C11 UNL     1      -3.373  -0.112  -0.438  1.00  0.00     0.026 C 
ENDBRANCH  14  15
ENDBRANCH   6  14
TORSDOF 3
