REMARK  4 active torsions:
REMARK  status: ('A' for Active; 'I' for Inactive)
REMARK    1  A    between atoms: C2_2  and  N1_4 
REMARK    2  A    between atoms: C10_11  and  O1_12 
REMARK    3  A    between atoms: C11_14  and  C12_15 
REMARK    4  A    between atoms: C12_15  and  O2_16 
ROOT
HETATM    1  N1  UNL     1       2.012   0.587  -0.211  1.00  0.00     0.092 N 
HETATM    2  C4  UNL     1       1.433   0.137   1.029  1.00  0.00     0.273 C 
HETATM    3  C5  UNL     1       0.175  -0.649   0.767  1.00  0.00     0.040 C 
HETATM    4  C6  UNL     1      -0.814   0.161  -0.053  1.00  0.00    -0.029 C 
HETATM    5  C7  UNL     1      -1.140   1.403   0.707  1.00  0.00     0.010 C 
HETATM    6  C8  UNL     1      -2.462   2.008   0.473  1.00  0.00     0.003 C 
HETATM    7  C9  UNL     1      -3.453   1.191  -0.279  1.00  0.00     0.032 C 
HETATM    8  C10 UNL     1      -3.292  -0.246   0.157  1.00  0.00     0.125 C 
HETATM    9  C11 UNL     1      -1.972  -0.713  -0.370  1.00  0.00     0.046 C 
HETATM   10  C13 UNL     1      -0.092   0.552  -1.328  1.00  0.00     0.040 C 
HETATM   11  C14 UNL     1       1.321   0.040  -1.362  1.00  0.00     0.273 C 
ENDROOT
BRANCH   9  12
HETATM   12  C12 UNL     1      -1.799  -2.151   0.050  1.00  0.00     0.172 C 
BRANCH  12  13
HETATM   13  O2  UNL     1      -2.976  -2.848  -0.300  1.00  0.00    -0.400 OA
ATOM     14  H2  UNL     1      -2.867  -3.754  -0.035  1.00  0.00     0.209 HD
ENDBRANCH  12  13
ENDBRANCH   9  12
BRANCH   8  15
HETATM   15  O1  UNL     1      -3.507  -0.444   1.488  1.00  0.00    -0.395 OA
ATOM     16  H1  UNL     1      -3.406  -1.348   1.762  1.00  0.00     0.210 HD
ENDBRANCH   8  15
BRANCH   1  17
HETATM   17  C2  UNL     1       3.435   0.336  -0.281  1.00  0.00     0.215 C 
HETATM   18  C1  UNL     1       3.825  -1.102  -0.293  1.00  0.00     0.042 C 
HETATM   19  C3  UNL     1       4.044   0.969   0.952  1.00  0.00     0.042 C 
ENDBRANCH   1  17
TORSDOF 4
