REMARK  3 active torsions:
REMARK  status: ('A' for Active; 'I' for Inactive)
REMARK    1  A    between atoms: N1_2  and  C4_5 
REMARK    2  A    between atoms: C4_5  and  C5_6 
REMARK    3  A    between atoms: C8_10  and  N2_11 
ROOT
HETATM    1  C5  UNL     1       0.784  -0.729  -0.142  1.00  0.00     0.068 C 
HETATM    2  C6  UNL     1       0.929  -1.034   1.307  1.00  0.00     0.176 C 
HETATM    3  O1  UNL     1       2.295  -0.935   1.623  1.00  0.00    -0.389 OA
HETATM    4  C7  UNL     1       2.752   0.097   0.769  1.00  0.00     0.200 C 
HETATM    5  C8  UNL     1       2.208  -0.418  -0.544  1.00  0.00     0.214 C 
ENDROOT
BRANCH   1   6
HETATM    6  C4  UNL     1      -0.106   0.430  -0.467  1.00  0.00     0.245 C 
BRANCH   6   7
HETATM    7  N1  UNL     1      -1.461   0.312  -0.036  1.00  0.00    -0.078 N 
HETATM    8  C1  UNL     1      -1.756   0.957   1.204  1.00  0.00     0.271 C 
HETATM    9  C2  UNL     1      -2.324   0.901  -1.075  1.00  0.00     0.271 C 
HETATM   10  C3  UNL     1      -1.914  -1.069   0.085  1.00  0.00     0.271 C 
ENDBRANCH   6   7
ENDBRANCH   1   6
BRANCH   5  11
HETATM   11  N2  UNL     1       2.298   0.534  -1.611  1.00  0.00    -0.072 N 
ATOM     12  H23 UNL     1       1.752   0.229  -2.417  1.00  0.00     0.274 HD
ATOM     13  H22 UNL     1       1.792   1.388  -1.379  1.00  0.00     0.274 HD
ATOM     14  H21 UNL     1       3.259   0.744  -1.882  1.00  0.00     0.274 HD
ENDBRANCH   5  11
TORSDOF 3
