REMARK  4 active torsions:
REMARK  status: ('A' for Active; 'I' for Inactive)
REMARK    1  A    between atoms: C2_2  and  C3_3 
REMARK    2  A    between atoms: N2_10  and  C8_12 
REMARK    3  A    between atoms: C8_12  and  C9_13 
REMARK    4  A    between atoms: C9_13  and  N3_14 
ROOT
HETATM    1  C3  UNL     1      -1.128   0.172  -0.387  1.00  0.00     0.193 C 
HETATM    2  C4  UNL     1      -1.729   0.425   0.960  1.00  0.00     0.061 C 
HETATM    3  C5  UNL     1      -1.767  -0.904   1.690  1.00  0.00     0.236 C 
HETATM    4  N1  UNL     1      -0.390  -1.341   1.790  1.00  0.00    -0.051 N 
ATOM      5  H11 UNL     1      -0.270  -2.138   2.415  1.00  0.00     0.279 HD
ATOM      6  H12 UNL     1       0.200  -0.683   2.299  1.00  0.00     0.279 HD
HETATM    7  C6  UNL     1       0.081  -1.600   0.455  1.00  0.00     0.467 C 
HETATM    8  N2  UNL     1       0.212  -0.385  -0.328  1.00  0.00    -0.041 N 
HETATM    9  C7  UNL     1       0.485  -0.842  -1.704  1.00  0.00     0.275 C 
ENDROOT
BRANCH   8  10
HETATM   10  C8  UNL     1       1.214   0.523   0.037  1.00  0.00     0.266 C 
BRANCH  10  11
HETATM   11  C9  UNL     1       2.563  -0.031   0.272  1.00  0.00     0.257 C 
BRANCH  11  12
HETATM   12  N3  UNL     1       2.658  -0.971   1.359  1.00  0.00    -0.078 N 
ATOM     13  H33 UNL     1       2.295  -0.554   2.216  1.00  0.00     0.274 HD
ATOM     14  H32 UNL     1       1.986  -1.727   1.229  1.00  0.00     0.274 HD
ATOM     15  H31 UNL     1       3.590  -1.354   1.521  1.00  0.00     0.274 HD
ENDBRANCH  11  12
ENDBRANCH  10  11
ENDBRANCH   8  10
BRANCH   1  16
HETATM   16  C2  UNL     1      -1.384   1.221  -1.390  1.00  0.00     0.029 C 
HETATM   17  C1  UNL     1      -0.909   2.604  -1.061  1.00  0.00     0.007 C 
ENDBRANCH   1  16
TORSDOF 4
