REMARK  4 active torsions:
REMARK  status: ('A' for Active; 'I' for Inactive)
REMARK    1  A    between atoms: C2_2  and  C3_3 
REMARK    2  A    between atoms: C3_3  and  C4_4 
REMARK    3  A    between atoms: C4_4  and  N1_5 
REMARK    4  A    between atoms: C8_12  and  N3_13 
ROOT
HETATM    1  N1  UNL     1      -0.384  -0.336  -0.295  1.00  0.00    -0.066 N 
HETATM    2  C5  UNL     1      -0.437  -1.666  -0.912  1.00  0.00     0.272 C 
HETATM    3  C6  UNL     1      -0.614  -0.533   1.119  1.00  0.00     0.264 C 
HETATM    4  C7  UNL     1      -2.070  -0.850   1.395  1.00  0.00     0.262 C 
HETATM    5  N2  UNL     1      -2.971   0.135   0.883  1.00  0.00    -0.043 N 
ATOM      6  H21 UNL     1      -3.546   0.545   1.619  1.00  0.00     0.279 HD
ATOM      7  H22 UNL     1      -3.716  -0.283   0.326  1.00  0.00     0.279 HD
HETATM    8  C8  UNL     1      -2.230   1.158   0.131  1.00  0.00     0.406 C 
HETATM    9  C9  UNL     1      -1.421   0.449  -0.928  1.00  0.00     0.299 C 
ENDROOT
BRANCH   1  10
HETATM   10  C4  UNL     1       0.918   0.256  -0.504  1.00  0.00     0.237 C 
BRANCH  10  11
HETATM   11  C3  UNL     1       1.984  -0.731  -0.144  1.00  0.00     0.027 C 
BRANCH  11  12
HETATM   12  C2  UNL     1       3.367  -0.206  -0.328  1.00  0.00    -0.003 C 
HETATM   13  C1  UNL     1       3.692   1.000   0.481  1.00  0.00     0.005 C 
ENDBRANCH  11  12
ENDBRANCH  10  11
ENDBRANCH   1  10
BRANCH   8  14
HETATM   14  N3  UNL     1      -3.199   2.052  -0.412  1.00  0.00    -0.049 N 
ATOM     15  H33 UNL     1      -3.913   1.582  -0.969  1.00  0.00     0.276 HD
ATOM     16  H32 UNL     1      -3.824   2.444   0.293  1.00  0.00     0.276 HD
ATOM     17  H31 UNL     1      -2.685   2.762  -0.934  1.00  0.00     0.276 HD
ENDBRANCH   8  14
TORSDOF 4
