REMARK  12 active torsions:
REMARK  status: ('A' for Active; 'I' for Inactive)
REMARK    1  A    between atoms: C4_4  and  C5_5 
REMARK    2  A    between atoms: C5_5  and  C6_6 
REMARK    3  A    between atoms: C7_9  and  C8_10 
REMARK    4  A    between atoms: C11_13  and  O1_14 
REMARK    5  A    between atoms: O1_14  and  C12_15 
REMARK    6  A    between atoms: C12_15  and  C13_16 
REMARK    7  A    between atoms: C13_16  and  C14_17 
REMARK    8  A    between atoms: N5_35  and  C26_36 
REMARK    9  A    between atoms: C26_36  and  C27_37 
REMARK   10  A    between atoms: C26_36  and  C28_40 
REMARK   11  A    between atoms: C27_37  and  O2_38 
REMARK   12  A    between atoms: C28_40  and  O3_41 
ROOT
HETATM    1  C6  UNL     1       2.647   1.207   1.928  1.00  0.00     0.097 A 
HETATM    2  N1  UNL     1       1.659   0.569   1.260  1.00  0.00    -0.329 N 
ATOM      3  H1  UNL     1       1.610  -0.439   1.114  1.00  0.00     0.168 HD
HETATM    4  C7  UNL     1       0.751   1.455   0.816  1.00  0.00     0.131 A 
HETATM    5  N3  UNL     1       1.208   2.649   1.228  1.00  0.00    -0.283 N 
ATOM      6  H3  UNL     1       0.745   3.541   1.052  1.00  0.00     0.188 HD
HETATM    7  N4  UNL     1       2.333   2.509   1.889  1.00  0.00    -0.287 N 
ATOM      8  H4  UNL     1       2.878   3.265   2.304  1.00  0.00     0.188 HD
ENDROOT
BRANCH   4   9
HETATM    9  C8  UNL     1      -0.457   1.164   0.058  1.00  0.00     0.009 A 
HETATM   10  C9  UNL     1      -1.313   2.159  -0.352  1.00  0.00     0.018 A 
HETATM   11  C10 UNL     1      -2.462   1.845  -1.075  1.00  0.00     0.037 A 
HETATM   12  C11 UNL     1      -2.798   0.559  -1.410  1.00  0.00     0.068 A 
HETATM   13  C22 UNL     1      -1.920  -0.447  -0.988  1.00  0.00     0.037 A 
HETATM   14  C23 UNL     1      -0.806  -0.123  -0.286  1.00  0.00     0.018 A 
BRANCH  12  15
HETATM   15  O1  UNL     1      -3.889   0.153  -2.104  1.00  0.00    -0.351 OA
BRANCH  15  16
HETATM   16  C12 UNL     1      -4.956   0.827  -2.653  1.00  0.00     0.181 C 
BRANCH  16  17
HETATM   17  C13 UNL     1      -5.882   1.536  -1.755  1.00  0.00     0.079 C 
BRANCH  17  18
HETATM   18  C14 UNL     1      -6.658   0.729  -0.759  1.00  0.00    -0.009 C 
HETATM   19  C15 UNL     1      -5.856  -0.054   0.228  1.00  0.00     0.064 C 
HETATM   20  C16 UNL     1      -6.697  -0.750   1.260  1.00  0.00    -0.007 C 
HETATM   21  C17 UNL     1      -6.319  -2.205   1.397  1.00  0.00     0.018 C 
HETATM   22  C18 UNL     1      -6.400  -0.102   2.609  1.00  0.00     0.018 C 
HETATM   23  C19 UNL     1      -8.167  -0.647   1.034  1.00  0.00     0.216 C 
HETATM   24  F1  UNL     1      -8.716   0.407   1.787  1.00  0.00    -0.243 F 
HETATM   25  C20 UNL     1      -8.650  -0.498  -0.350  1.00  0.00     0.100 C 
HETATM   26  N2  UNL     1      -7.766   0.028  -1.304  1.00  0.00    -0.369 N 
HETATM   27  C21 UNL     1      -8.360   0.590  -2.471  1.00  0.00     0.154 C 
ENDBRANCH  17  18
ENDBRANCH  16  17
ENDBRANCH  15  16
ENDBRANCH  12  15
ENDBRANCH   4   9
BRANCH   1  28
HETATM   28  C5  UNL     1       3.848   0.605   2.580  1.00  0.00     0.083 C 
BRANCH  28  29
HETATM   29  C4  UNL     1       4.975   0.565   1.547  1.00  0.00    -0.001 C 
HETATM   30  C3  UNL     1       6.176  -0.045   2.212  1.00  0.00     0.030 C 
HETATM   31  C2  UNL     1       7.286  -0.053   1.170  1.00  0.00     0.080 C 
HETATM   32  C1  UNL     1       7.415   1.381   0.674  1.00  0.00     0.032 C 
HETATM   33  N5  UNL     1       6.966  -0.909   0.099  1.00  0.00    -0.380 N 
HETATM   34  C25 UNL     1       5.643  -1.022  -0.316  1.00  0.00     0.059 C 
HETATM   35  C24 UNL     1       4.587  -0.265   0.383  1.00  0.00     0.049 C 
BRANCH  33  36
HETATM   36  C26 UNL     1       7.994  -1.175  -0.830  1.00  0.00     0.131 C 
BRANCH  36  37
HETATM   37  C27 UNL     1       7.598  -2.087  -1.941  1.00  0.00     0.191 C 
BRANCH  37  38
HETATM   38  O2  UNL     1       7.184  -3.342  -1.486  1.00  0.00    -0.399 OA
ATOM     39  H2  UNL     1       6.932  -3.923  -2.194  1.00  0.00     0.209 HD
ENDBRANCH  37  38
ENDBRANCH  36  37
BRANCH  36  40
HETATM   40  C28 UNL     1       9.241  -1.784  -0.179  1.00  0.00     0.191 C 
BRANCH  40  41
HETATM   41  O3  UNL     1      10.219  -2.029  -1.143  1.00  0.00    -0.399 OA
ATOM     42  H3  UNL     1      10.992  -2.406  -0.740  1.00  0.00     0.209 HD
ENDBRANCH  40  41
ENDBRANCH  36  40
ENDBRANCH  33  36
ENDBRANCH  28  29
ENDBRANCH   1  28
TORSDOF 12
