REMARK  14 active torsions:
REMARK  status: ('A' for Active; 'I' for Inactive)
REMARK    1  A    between atoms: C2_2  and  N1_3 
REMARK    2  A    between atoms: N1_3  and  C3_4 
REMARK       I    between atoms: N1_3  and  C21_36 
REMARK    3  A    between atoms: C3_4  and  C4_5 
REMARK    4  A    between atoms: C4_5  and  O1_6 
REMARK    5  A    between atoms: O1_6  and  N2_7 
REMARK    6  A    between atoms: C5_9  and  C6_10 
REMARK    7  A    between atoms: C10_17  and  N4_18 
REMARK    8  A    between atoms: N4_18  and  C12_20 
REMARK    9  A    between atoms: C12_20  and  C13_21 
REMARK   10  A    between atoms: C16_24  and  N5_25 
REMARK   11  A    between atoms: N5_25  and  C17_27 
REMARK   12  A    between atoms: C21_36  and  C22_38 
REMARK   13  A    between atoms: C22_38  and  O3_39 
REMARK   14  A    between atoms: C22_38  and  C23_41 
ROOT
HETATM    1  C6  UNL     1      -1.340  -1.748  -0.097  1.00  0.00     0.035 A 
HETATM    2  C7  UNL     1      -1.836  -3.050   0.133  1.00  0.00     0.144 A 
HETATM    3  F1  UNL     1      -0.970  -4.113   0.026  1.00  0.00    -0.204 F 
HETATM    4  C8  UNL     1      -3.126  -3.278   0.453  1.00  0.00     0.131 A 
HETATM    5  N3  UNL     1      -3.960  -2.274   0.557  1.00  0.00    -0.360 N 
ATOM      6  H3  UNL     1      -4.931  -2.472   0.799  1.00  0.00     0.165 HD
HETATM    7  C9  UNL     1      -3.600  -1.006   0.361  1.00  0.00     0.075 A 
HETATM    8  C10 UNL     1      -4.535  -0.013   0.509  1.00  0.00     0.102 A 
HETATM    9  C16 UNL     1      -4.090   1.302   0.311  1.00  0.00     0.136 A 
HETATM   10  N7  UNL     1      -2.816   1.550  -0.006  1.00  0.00    -0.349 N 
ATOM     11  H7  UNL     1      -2.531   2.520  -0.142  1.00  0.00     0.166 HD
HETATM   12  C19 UNL     1      -1.887   0.582  -0.155  1.00  0.00     0.104 A 
HETATM   13  C20 UNL     1      -2.260  -0.730   0.027  1.00  0.00     0.023 A 
ENDROOT
BRANCH   1  14
HETATM   14  C5  UNL     1       0.047  -1.572  -0.438  1.00  0.00     0.129 C 
HETATM   15  N2  UNL     1       0.732  -0.546  -0.689  1.00  0.00    -0.277 N 
ATOM     16  H2  UNL     1       0.266   0.361  -0.659  1.00  0.00     0.193 HD
BRANCH  15  17
HETATM   17  O1  UNL     1       2.054  -0.575  -0.997  1.00  0.00    -0.279 OA
BRANCH  17  18
HETATM   18  C4  UNL     1       3.050  -1.256  -0.282  1.00  0.00     0.221 C 
BRANCH  18  19
HETATM   19  C3  UNL     1       4.424  -1.070  -0.918  1.00  0.00     0.154 C 
BRANCH  19  20
HETATM   20  N1  UNL     1       4.798   0.320  -0.959  1.00  0.00    -0.348 N 
HETATM   21  C21 UNL     1       5.510   0.959   0.059  1.00  0.00     0.249 C 
HETATM   22  O2  UNL     1       5.659   2.226  -0.003  1.00  0.00    -0.270 OA
BRANCH  20  23
HETATM   23  C2  UNL     1       4.350   1.139  -2.107  1.00  0.00     0.121 C 
HETATM   24  C1  UNL     1       5.416   1.150  -3.182  1.00  0.00     0.026 C 
ENDBRANCH  20  23
BRANCH  21  25
HETATM   25  C22 UNL     1       6.120   0.306   1.229  1.00  0.00     0.217 C 
BRANCH  25  26
HETATM   26  O3  UNL     1       6.117   1.242   2.326  1.00  0.00    -0.385 OA
ATOM     27  H3  UNL     1       6.511   0.821   3.081  1.00  0.00     0.210 HD
ENDBRANCH  25  26
BRANCH  25  28
HETATM   28  C23 UNL     1       7.641   0.139   1.013  1.00  0.00    -0.017 C 
HETATM   29  C24 UNL     1       7.900  -0.677  -0.187  1.00  0.00     0.017 C 
HETATM   30  C25 UNL     1       8.223   1.538   0.829  1.00  0.00     0.017 C 
HETATM   31  C26 UNL     1       8.201  -0.469   2.281  1.00  0.00     0.017 C 
ENDBRANCH  25  28
ENDBRANCH  21  25
ENDBRANCH  19  20
ENDBRANCH  18  19
ENDBRANCH  17  18
ENDBRANCH  15  17
ENDBRANCH   1  14
BRANCH   8  32
HETATM   32  N4  UNL     1      -5.897  -0.183   0.798  1.00  0.00    -0.380 N 
HETATM   33  C11 UNL     1      -6.263  -0.318   2.217  1.00  0.00     0.150 C 
BRANCH  32  34
HETATM   34  C12 UNL     1      -6.934  -0.113  -0.162  1.00  0.00     0.126 C 
BRANCH  34  35
HETATM   35  C13 UNL     1      -7.822  -1.259  -0.410  1.00  0.00    -0.005 C 
HETATM   36  C14 UNL     1      -7.243  -2.529  -0.891  1.00  0.00     0.011 C 
HETATM   37  C15 UNL     1      -8.668  -1.601   0.835  1.00  0.00     0.011 C 
ENDBRANCH  34  35
ENDBRANCH  32  34
ENDBRANCH   8  32
BRANCH   9  38
HETATM   38  N5  UNL     1      -4.904   2.272   0.433  1.00  0.00    -0.331 N 
ATOM     39  H5  UNL     1      -5.869   2.047   0.675  1.00  0.00     0.168 HD
BRANCH  38  40
HETATM   40  C17 UNL     1      -4.580   3.629   0.261  1.00  0.00     0.072 C 
HETATM   41  C18 UNL     1      -4.913   4.310  -1.014  1.00  0.00     0.088 C 
HETATM   42  N6  UNL     1      -3.993   4.236   1.240  1.00  0.00    -0.389 N 
ATOM     43  H62 UNL     1      -3.764   3.768   2.117  1.00  0.00     0.157 HD
ATOM     44  H61 UNL     1      -3.758   5.221   1.115  1.00  0.00     0.157 HD
ENDBRANCH  38  40
ENDBRANCH   9  38
TORSDOF 14
