REMARK  11 active torsions:
REMARK  status: ('A' for Active; 'I' for Inactive)
REMARK    1  A    between atoms: O1_2  and  C2_3 
REMARK    2  A    between atoms: C3_4  and  N1_5 
REMARK       I    between atoms: N1_5  and  C4_7 
REMARK    3  A    between atoms: C4_7  and  C5_9 
REMARK    4  A    between atoms: C9_13  and  O3_14 
REMARK    5  A    between atoms: O3_14  and  C10_15 
REMARK    6  A    between atoms: C10_15  and  C11_16 
REMARK    7  A    between atoms: C11_16  and  C12_17 
REMARK    8  A    between atoms: C12_17  and  O4_18 
REMARK    9  A    between atoms: C19_26  and  O5_27 
REMARK   10  A    between atoms: N2_30  and  C22_31 
REMARK   11  A    between atoms: C22_31  and  C23_32 
ROOT
HETATM    1  C2  UNL     1      -1.107   0.824   1.194  1.00  0.00     0.129 A 
HETATM    2  C3  UNL     1      -0.249   0.354   0.182  1.00  0.00     0.072 A 
HETATM    3  C16 UNL     1      -0.890  -0.207  -0.894  1.00  0.00     0.040 A 
HETATM    4  C17 UNL     1      -2.264  -0.322  -1.015  1.00  0.00    -0.044 A 
HETATM    5  C18 UNL     1      -3.044   0.154   0.005  1.00  0.00     0.002 A 
HETATM    6  C19 UNL     1      -2.472   0.740   1.135  1.00  0.00     0.112 A 
HETATM    7  C21 UNL     1      -4.509   0.046  -0.086  1.00  0.00     0.159 C 
HETATM    8  N2  UNL     1      -5.027  -0.047  -1.397  1.00  0.00    -0.406 N 
HETATM    9  C27 UNL     1      -4.096   0.055  -2.471  1.00  0.00     0.122 C 
HETATM   10  C28 UNL     1      -2.947  -0.926  -2.187  1.00  0.00     0.058 C 
ENDROOT
BRANCH   2  11
HETATM   11  N1  UNL     1       1.145   0.481   0.326  1.00  0.00    -0.320 N 
HETATM   12  C4  UNL     1       2.148   0.080  -0.556  1.00  0.00     0.257 C 
HETATM   13  O2  UNL     1       1.863  -0.500  -1.655  1.00  0.00    -0.267 OA
ATOM     14  H1  UNL     1       1.463   0.924   1.188  1.00  0.00     0.169 HD
BRANCH  12  15
HETATM   15  C5  UNL     1       3.562   0.270  -0.313  1.00  0.00     0.044 A 
HETATM   16  C6  UNL     1       4.082   1.367   0.280  1.00  0.00    -0.043 A 
HETATM   17  C7  UNL     1       3.273   2.584   0.629  1.00  0.00     0.049 C 
HETATM   18  C8  UNL     1       5.446   1.490   0.564  1.00  0.00     0.044 A 
HETATM   19  C9  UNL     1       6.281   0.456   0.225  1.00  0.00     0.069 A 
HETATM   20  C13 UNL     1       5.800  -0.681  -0.382  1.00  0.00     0.044 A 
HETATM   21  C14 UNL     1       4.427  -0.765  -0.649  1.00  0.00    -0.043 A 
HETATM   22  C15 UNL     1       3.923  -2.003  -1.292  1.00  0.00     0.049 C 
BRANCH  19  23
HETATM   23  O3  UNL     1       7.635   0.596   0.515  1.00  0.00    -0.351 OA
BRANCH  23  24
HETATM   24  C10 UNL     1       8.567  -0.423   0.199  1.00  0.00     0.178 C 
BRANCH  24  25
HETATM   25  C11 UNL     1       9.936   0.055   0.648  1.00  0.00     0.053 C 
BRANCH  25  26
HETATM   26  C12 UNL     1      10.932  -1.044   0.305  1.00  0.00     0.166 C 
BRANCH  26  27
HETATM   27  O4  UNL     1      10.942  -1.292  -1.062  1.00  0.00    -0.401 OA
ATOM     28  H4  UNL     1      11.564  -1.978  -1.276  1.00  0.00     0.209 HD
ENDBRANCH  26  27
ENDBRANCH  25  26
ENDBRANCH  24  25
ENDBRANCH  23  24
ENDBRANCH  19  23
ENDBRANCH  12  15
ENDBRANCH   2  11
BRANCH   1  29
HETATM   29  O1  UNL     1      -0.536   1.413   2.331  1.00  0.00    -0.351 OA
HETATM   30  C1  UNL     1      -0.296   2.829   2.354  1.00  0.00     0.210 C 
ENDBRANCH   1  29
BRANCH   6  31
HETATM   31  O5  UNL     1      -3.286   1.220   2.165  1.00  0.00    -0.352 OA
HETATM   32  C20 UNL     1      -3.679   0.404   3.250  1.00  0.00     0.210 C 
ENDBRANCH   6  31
BRANCH   8  33
HETATM   33  C22 UNL     1      -6.276   0.586  -1.636  1.00  0.00     0.150 C 
BRANCH  33  34
HETATM   34  C23 UNL     1      -7.410  -0.090  -0.947  1.00  0.00     0.206 C 
HETATM   35  C24 UNL     1      -7.510  -1.539  -1.443  1.00  0.00     0.073 C 
HETATM   36  C25 UNL     1      -8.474  -2.120  -0.430  1.00  0.00     0.197 C 
HETATM   37  F1  UNL     1      -9.753  -2.078  -0.979  1.00  0.00    -0.248 F 
HETATM   38  C26 UNL     1      -8.346  -1.228   0.772  1.00  0.00     0.269 C 
HETATM   39  N3  UNL     1      -7.288  -0.263   0.462  1.00  0.00    -0.067 N 
ATOM     40  H32 UNL     1      -6.357  -0.537   0.777  1.00  0.00     0.277 HD
ATOM     41  H31 UNL     1      -7.330   0.602   1.001  1.00  0.00     0.277 HD
ENDBRANCH  33  34
ENDBRANCH   8  33
TORSDOF 11
