REMARK  12 active torsions:
REMARK  status: ('A' for Active; 'I' for Inactive)
REMARK    1  A    between atoms: C2_2  and  C3_3 
REMARK    2  A    between atoms: C3_3  and  O1_4 
REMARK    3  A    between atoms: O1_4  and  C4_5 
REMARK    4  A    between atoms: C6_7  and  N1_8 
REMARK    5  A    between atoms: N1_8  and  C7_10 
REMARK    6  A    between atoms: C10_15  and  N3_16 
REMARK    7  A    between atoms: C19_30  and  O2_31 
REMARK    8  A    between atoms: O2_31  and  C20_32 
REMARK    9  A    between atoms: C20_32  and  C21_33 
REMARK   10  A    between atoms: C21_33  and  C22_34 
REMARK   11  A    between atoms: C22_34  and  N5_35 
REMARK   12  A    between atoms: C27_41  and  O4_42 
ROOT
HETATM    1  C4  UNL     1      -0.337   2.682  -1.411  1.00  0.00     0.107 A 
HETATM    2  C5  UNL     1       0.820   1.979  -1.635  1.00  0.00     0.070 A 
HETATM    3  C6  UNL     1       0.714   0.622  -1.823  1.00  0.00     0.054 A 
HETATM    4  C18 UNL     1      -0.538  -0.016  -1.785  1.00  0.00     0.070 A 
HETATM    5  C19 UNL     1      -1.687   0.703  -1.559  1.00  0.00     0.107 A 
HETATM    6  C27 UNL     1      -1.572   2.093  -1.368  1.00  0.00     0.135 A 
ENDROOT
BRANCH   3   7
HETATM    7  N1  UNL     1       1.897  -0.128  -2.058  1.00  0.00    -0.191 N 
ATOM      8  H1  UNL     1       2.176  -0.347  -3.014  1.00  0.00     0.184 HD
BRANCH   7   9
HETATM    9  C7  UNL     1       2.620  -0.534  -1.071  1.00  0.00     0.684 A 
HETATM   10  N2  UNL     1       3.744  -1.247  -1.290  1.00  0.00    -0.190 N 
HETATM   11  C8  UNL     1       4.533  -1.694  -0.289  1.00  0.00     0.073 A 
ATOM     12  H2  UNL     1       4.009  -1.457  -2.252  1.00  0.00     0.184 HD
HETATM   13  C9  UNL     1       4.140  -1.389   0.992  1.00  0.00     0.018 A 
HETATM   14  C17 UNL     1       5.768  -2.464  -0.236  1.00  0.00     0.037 A 
HETATM   15  C10 UNL     1       2.991  -0.659   1.250  1.00  0.00     0.123 A 
HETATM   16  C11 UNL     1       5.131  -1.964   1.916  1.00  0.00     0.084 A 
HETATM   17  N4  UNL     1       2.264  -0.254   0.195  1.00  0.00    -0.176 N 
ATOM     18  H4  UNL     1       1.413   0.284   0.360  1.00  0.00     0.186 HD
HETATM   19  C12 UNL     1       6.128  -2.628   1.080  1.00  0.00    -0.038 A 
HETATM   20  C13 UNL     1       7.271  -3.327   1.452  1.00  0.00     0.008 A 
HETATM   21  C14 UNL     1       8.057  -3.865   0.464  1.00  0.00     0.004 A 
HETATM   22  C15 UNL     1       7.704  -3.707  -0.880  1.00  0.00     0.043 A 
HETATM   23  C16 UNL     1       6.565  -3.009  -1.216  1.00  0.00     0.129 A 
HETATM   24  F1  UNL     1       6.242  -2.866  -2.501  1.00  0.00    -0.205 F 
BRANCH  15  25
HETATM   25  N3  UNL     1       2.595  -0.356   2.434  1.00  0.00    -0.385 N 
ATOM     26  H32 UNL     1       3.147  -0.663   3.235  1.00  0.00     0.157 HD
ATOM     27  H31 UNL     1       1.749   0.181   2.624  1.00  0.00     0.157 HD
ENDBRANCH  15  25
ENDBRANCH   7   9
ENDBRANCH   3   7
BRANCH   1  28
HETATM   28  O1  UNL     1      -0.216   4.071  -1.220  1.00  0.00    -0.348 OA
BRANCH  28  29
HETATM   29  C3  UNL     1       1.018   4.730  -1.254  1.00  0.00     0.175 C 
BRANCH  29  30
HETATM   30  C2  UNL     1       0.735   6.210  -1.008  1.00  0.00     0.022 C 
HETATM   31  C1  UNL     1       0.080   6.439   0.314  1.00  0.00     0.007 C 
ENDBRANCH  29  30
ENDBRANCH  28  29
ENDBRANCH   1  28
BRANCH   5  32
HETATM   32  O2  UNL     1      -2.927   0.189  -1.500  1.00  0.00    -0.348 OA
BRANCH  32  33
HETATM   33  C20 UNL     1      -3.445  -1.085  -1.591  1.00  0.00     0.177 C 
BRANCH  33  34
HETATM   34  C21 UNL     1      -2.995  -1.948  -0.466  1.00  0.00     0.057 C 
BRANCH  34  35
HETATM   35  C22 UNL     1      -3.458  -1.345   0.843  1.00  0.00     0.274 C 
BRANCH  35  36
HETATM   36  N5  UNL     1      -4.865  -1.213   0.945  1.00  0.00     0.092 N 
HETATM   37  C23 UNL     1      -5.303  -0.645   2.175  1.00  0.00     0.298 C 
HETATM   38  C24 UNL     1      -5.200  -1.651   3.269  1.00  0.00     0.198 C 
HETATM   39  O3  UNL     1      -5.793  -2.854   3.028  1.00  0.00    -0.388 OA
HETATM   40  C25 UNL     1      -5.795  -3.340   1.775  1.00  0.00     0.198 C 
HETATM   41  C26 UNL     1      -5.643  -2.366   0.657  1.00  0.00     0.298 C 
ENDBRANCH  35  36
ENDBRANCH  34  35
ENDBRANCH  33  34
ENDBRANCH  32  33
ENDBRANCH   5  32
BRANCH   6  42
HETATM   42  O4  UNL     1      -2.704   2.835  -1.141  1.00  0.00    -0.351 OA
HETATM   43  C28 UNL     1      -3.471   3.439  -2.155  1.00  0.00     0.210 C 
ENDBRANCH   6  42
TORSDOF 12
