REMARK  14 active torsions:
REMARK  status: ('A' for Active; 'I' for Inactive)
REMARK    1  A    between atoms: C6_7  and  C7_8 
REMARK    2  A    between atoms: C7_8  and  O2_9 
REMARK    3  A    between atoms: C10_13  and  C11_14 
REMARK    4  A    between atoms: C11_14  and  O3_15 
REMARK    5  A    between atoms: C15_20  and  C16_21 
REMARK    6  A    between atoms: C18_24  and  C19_25 
REMARK    7  A    between atoms: C19_25  and  O6_27 
REMARK    8  A    between atoms: C21_29  and  C22_30 
REMARK    9  A    between atoms: C23_31  and  C24_32 
REMARK   10  A    between atoms: C24_32  and  N1_33 
REMARK   11  A    between atoms: C24_32  and  C25_37 
REMARK   12  A    between atoms: C25_37  and  C26_38 
REMARK   13  A    between atoms: C26_38  and  O7_39 
REMARK   14  A    between atoms: C26_38  and  C27_41 
ROOT
HETATM    1  C1  UNL     1      -3.345  -1.119  -2.899  1.00  0.00     0.015 C 
HETATM    2  C2  UNL     1      -2.444  -1.813  -2.246  1.00  0.00    -0.080 C 
HETATM    3  C3  UNL     1      -1.956  -3.073  -2.847  1.00  0.00     0.041 C 
HETATM    4  C4  UNL     1      -0.487  -3.229  -2.460  1.00  0.00     0.084 C 
HETATM    5  C5  UNL     1      -0.054  -1.839  -2.177  1.00  0.00     0.143 C 
HETATM    6  O1  UNL     1       0.623  -1.236  -2.984  1.00  0.00    -0.297 OA
HETATM    7  C6  UNL     1      -0.427  -1.119  -0.906  1.00  0.00     0.078 C 
HETATM    8  C8  UNL     1      -1.934  -1.313  -0.904  1.00  0.00     0.059 C 
HETATM    9  C9  UNL     1      -2.330  -2.297   0.112  1.00  0.00    -0.011 C 
HETATM   10  C10 UNL     1      -2.738  -2.149   1.350  1.00  0.00    -0.059 C 
HETATM   11  C12 UNL     1      -2.903  -0.854   2.043  1.00  0.00     0.040 C 
HETATM   12  C13 UNL     1      -3.885   0.079   1.405  1.00  0.00     0.034 C 
HETATM   13  C14 UNL     1      -3.568   1.494   1.623  1.00  0.00     0.006 C 
HETATM   14  C15 UNL     1      -2.532   2.233   1.142  1.00  0.00     0.044 C 
HETATM   15  O4  UNL     1      -1.651   1.648   0.357  1.00  0.00    -0.336 OA
HETATM   16  C18 UNL     1      -0.488   1.438  -0.261  1.00  0.00     0.258 C 
HETATM   17  C21 UNL     1       0.062   0.270  -0.892  1.00  0.00    -0.022 C 
ENDROOT
BRANCH  17  18
HETATM   18  C22 UNL     1       1.551   0.275  -0.815  1.00  0.00     0.005 C 
HETATM   19  C23 UNL     1       2.378   1.119  -0.272  1.00  0.00     0.006 C 
BRANCH  19  20
HETATM   20  C24 UNL     1       3.885   0.906  -0.321  1.00  0.00     0.208 C 
BRANCH  20  21
HETATM   21  N1  UNL     1       4.125  -0.045  -1.395  1.00  0.00    -0.072 N 
ATOM     22  H13 UNL     1       3.596  -0.911  -1.296  1.00  0.00     0.275 HD
ATOM     23  H12 UNL     1       3.727   0.243  -2.289  1.00  0.00     0.275 HD
ATOM     24  H11 UNL     1       5.134  -0.188  -1.428  1.00  0.00     0.275 HD
ENDBRANCH  20  21
BRANCH  20  25
HETATM   25  C25 UNL     1       4.344   0.344   0.996  1.00  0.00     0.069 C 
BRANCH  25  26
HETATM   26  C26 UNL     1       5.826   0.133   0.950  1.00  0.00     0.130 C 
BRANCH  26  27
HETATM   27  O7  UNL     1       6.451   1.344   0.716  1.00  0.00    -0.395 OA
ATOM     28  H7  UNL     1       7.391   1.210   0.687  1.00  0.00     0.210 HD
ENDBRANCH  26  27
BRANCH  26  29
HETATM   29  C27 UNL     1       6.310  -0.478   2.248  1.00  0.00     0.116 C 
HETATM   30 BR1  UNL     1       5.873   0.727   3.701  1.00  0.00    -0.094 Br
ENDBRANCH  26  29
ENDBRANCH  25  26
ENDBRANCH  20  25
ENDBRANCH  19  20
ENDBRANCH  17  18
BRANCH   7  31
HETATM   31  C7  UNL     1       0.139  -1.989   0.177  1.00  0.00     0.187 C 
BRANCH  31  32
HETATM   32  O2  UNL     1       1.512  -2.195   0.140  1.00  0.00    -0.399 OA
ATOM     33  H2  UNL     1       1.870  -2.746   0.826  1.00  0.00     0.209 HD
ENDBRANCH  31  32
ENDBRANCH   7  31
BRANCH  16  34
HETATM   34  C19 UNL     1      -0.387   2.559  -1.307  1.00  0.00     0.292 C 
HETATM   35  O5  UNL     1      -1.328   3.373  -1.387  1.00  0.00    -0.262 OA
BRANCH  34  36
HETATM   36  O6  UNL     1       0.657   2.731  -2.157  1.00  0.00    -0.324 OA
HETATM   37  C20 UNL     1       0.633   3.802  -3.077  1.00  0.00     0.213 C 
ENDBRANCH  34  36
ENDBRANCH  16  34
BRANCH  14  38
HETATM   38  C16 UNL     1      -2.602   3.689   1.640  1.00  0.00     0.060 C 
HETATM   39  C17 UNL     1      -1.365   4.028   2.469  1.00  0.00     0.012 C 
ENDBRANCH  14  38
BRANCH  10  40
HETATM   40  C11 UNL     1      -3.093  -3.317   2.215  1.00  0.00     0.198 C 
BRANCH  40  41
HETATM   41  O3  UNL     1      -4.431  -3.172   2.592  1.00  0.00    -0.397 OA
ATOM     42  H3  UNL     1      -4.656  -3.914   3.141  1.00  0.00     0.209 HD
ENDBRANCH  40  41
ENDBRANCH  10  40
TORSDOF 14
