REMARK  12 active torsions:
REMARK  status: ('A' for Active; 'I' for Inactive)
REMARK    1  A    between atoms: C3_3  and  N1_4 
REMARK       I    between atoms: N1_4  and  C4_6 
REMARK    2  A    between atoms: C4_6  and  C5_8 
REMARK    3  A    between atoms: C5_8  and  N2_9 
REMARK    4  A    between atoms: N2_9  and  C6_11 
REMARK    5  A    between atoms: C7_16  and  C8_17 
REMARK    6  A    between atoms: C11_21  and  C12_22 
REMARK    7  A    between atoms: C12_22  and  N5_23 
REMARK    8  A    between atoms: N5_23  and  C13_25 
REMARK    9  A    between atoms: C13_25  and  C14_26 
REMARK   10  A    between atoms: C19_31  and  C20_32 
REMARK   11  A    between atoms: C20_32  and  O2_33 
REMARK   12  A    between atoms: C20_32  and  N6_35 
ROOT
HETATM    1  C6  UNL     1       2.412  -0.177   1.003  1.00  0.00     0.130 A 
HETATM    2  N3  UNL     1       3.460  -0.912   1.321  1.00  0.00    -0.285 N 
ATOM      3  H3  UNL     1       4.401  -0.562   1.500  1.00  0.00     0.188 HD
HETATM    4  N4  UNL     1       3.096  -2.146   1.367  1.00  0.00    -0.300 N 
ATOM      5  H4  UNL     1       3.723  -2.919   1.592  1.00  0.00     0.186 HD
HETATM    6  C7  UNL     1       1.766  -2.296   1.078  1.00  0.00     0.064 A 
HETATM    7  C11 UNL     1       1.303  -1.049   0.844  1.00  0.00     0.050 A 
ENDROOT
BRANCH   7   8
HETATM    8  C12 UNL     1      -0.055  -0.571   0.628  1.00  0.00     0.100 C 
BRANCH   8   9
HETATM    9  N5  UNL     1      -1.121  -1.466   0.427  1.00  0.00    -0.397 N 
ATOM     10  H5  UNL     1      -1.017  -2.457   0.208  1.00  0.00     0.158 HD
BRANCH   9  11
HETATM   11  C13 UNL     1      -2.422  -0.762   0.580  1.00  0.00     0.128 C 
BRANCH  11  12
HETATM   12  C14 UNL     1      -3.570  -1.703   0.450  1.00  0.00     0.036 C 
HETATM   13  C15 UNL     1      -3.607  -2.333  -0.888  1.00  0.00     0.011 C 
HETATM   14  C16 UNL     1      -4.880  -3.007  -1.256  1.00  0.00     0.001 C 
HETATM   15  C17 UNL     1      -5.851  -3.143  -0.131  1.00  0.00     0.004 C 
HETATM   16  C18 UNL     1      -6.077  -1.890   0.639  1.00  0.00     0.039 C 
HETATM   17  C19 UNL     1      -4.816  -1.134   1.007  1.00  0.00    -0.024 C 
BRANCH  17  18
HETATM   18  C20 UNL     1      -4.977   0.330   0.946  1.00  0.00     0.141 C 
BRANCH  18  19
HETATM   19  O2  UNL     1      -4.895   0.931   2.098  1.00  0.00    -0.346 OA
ATOM     20  H2  UNL     1      -4.999   1.874   2.059  1.00  0.00     0.219 HD
ENDBRANCH  18  19
BRANCH  18  21
HETATM   21  N6  UNL     1      -5.202   1.166  -0.138  1.00  0.00    -0.358 N 
HETATM   22  C21 UNL     1      -5.326   2.622   0.099  1.00  0.00     0.151 C 
HETATM   23  C22 UNL     1      -6.637   3.110  -0.464  1.00  0.00     0.187 C 
HETATM   24  O3  UNL     1      -6.965   2.457  -1.655  1.00  0.00    -0.388 OA
HETATM   25  C23 UNL     1      -5.818   1.993  -2.310  1.00  0.00     0.187 C 
HETATM   26  C24 UNL     1      -5.333   0.774  -1.503  1.00  0.00     0.151 C 
ENDBRANCH  18  21
ENDBRANCH  17  18
ENDBRANCH  11  12
ENDBRANCH   9  11
ENDBRANCH   8   9
ENDBRANCH   7   8
BRANCH   1  27
HETATM   27  N2  UNL     1       2.355   1.226   0.803  1.00  0.00    -0.366 N 
ATOM     28  H2  UNL     1       1.472   1.648   0.516  1.00  0.00     0.161 HD
BRANCH  27  29
HETATM   29  C5  UNL     1       3.488   2.061   0.990  1.00  0.00     0.224 C 
BRANCH  29  30
HETATM   30  C4  UNL     1       4.590   1.750   0.063  1.00  0.00     0.239 C 
HETATM   31  N1  UNL     1       5.786   2.494   0.185  1.00  0.00    -0.323 N 
ATOM     32  H1  UNL     1       5.808   3.223   0.898  1.00  0.00     0.169 HD
HETATM   33  O1  UNL     1       4.504   0.858  -0.811  1.00  0.00    -0.271 OA
BRANCH  31  34
HETATM   34  C3  UNL     1       6.961   2.319  -0.596  1.00  0.00     0.075 A 
HETATM   35  C2  UNL     1       8.124   3.084  -0.495  1.00  0.00     0.052 A 
HETATM   36  C1  UNL     1       8.313   4.233   0.438  1.00  0.00     0.072 C 
HETATM   37  N8  UNL     1       9.005   2.569  -1.389  1.00  0.00    -0.299 N 
HETATM   38  N7  UNL     1       8.440   1.564  -2.000  1.00  0.00    -0.308 N 
HETATM   39  C26 UNL     1      10.333   3.120  -1.566  1.00  0.00     0.177 C 
HETATM   40  C25 UNL     1       7.203   1.365  -1.563  1.00  0.00     0.139 A 
ATOM     41  H7  UNL     1       8.892   1.003  -2.722  1.00  0.00     0.186 HD
ENDBRANCH  31  34
ENDBRANCH  29  30
ENDBRANCH  27  29
ENDBRANCH   1  27
BRANCH   6  42
HETATM   42  C8  UNL     1       1.197  -3.653   1.059  1.00  0.00     0.074 C 
HETATM   43  C9  UNL     1       0.683  -4.083  -0.279  1.00  0.00     0.039 C 
HETATM   44  C10 UNL     1       0.150  -3.864   2.130  1.00  0.00     0.039 C 
HETATM   45 CL1  UNL     1       2.505  -4.823   1.463  1.00  0.00    -0.113 Cl
ENDBRANCH   6  42
TORSDOF 12
