REMARK  14 active torsions:
REMARK  status: ('A' for Active; 'I' for Inactive)
REMARK    1  A    between atoms: C5_8  and  C6_9 
REMARK    2  A    between atoms: C6_9  and  O1_10 
REMARK    3  A    between atoms: C6_9  and  C7_12 
REMARK    4  A    between atoms: C7_12  and  N2_13 
REMARK    5  A    between atoms: N2_13  and  C8_15 
REMARK    6  A    between atoms: N3_23  and  C14_24 
REMARK    7  A    between atoms: C14_24  and  C15_25 
REMARK    8  A    between atoms: C15_25  and  O3_26 
REMARK    9  A    between atoms: O3_26  and  C16_27 
REMARK   10  A    between atoms: C16_27  and  N4_28 
REMARK   11  A    between atoms: C16_27  and  C17_32 
REMARK   12  A    between atoms: C17_32  and  N5_34 
REMARK   13  A    between atoms: C19_36  and  N6_37 
REMARK   14  A    between atoms: C19_36  and  C24_43 
ROOT
HETATM    1  C1  UNL     1       0.659  -4.275  -1.310  1.00  0.00     0.068 C 
HETATM    2  C2  UNL     1       1.644  -3.172  -1.090  1.00  0.00     0.011 A 
HETATM    3  C3  UNL     1       2.443  -2.793  -2.171  1.00  0.00     0.054 A 
HETATM    4  C4  UNL     1       3.358  -1.791  -2.026  1.00  0.00     0.039 A 
HETATM    5  N1  UNL     1       4.116  -1.416  -3.011  1.00  0.00    -0.398 N 
ATOM      6  H11 UNL     1       4.800  -0.667  -2.903  1.00  0.00     0.156 HD
ATOM      7  H12 UNL     1       3.982  -1.915  -3.890  1.00  0.00     0.156 HD
HETATM    8  C5  UNL     1       3.544  -1.098  -0.806  1.00  0.00     0.037 A 
HETATM    9  C13 UNL     1       2.737  -1.513   0.206  1.00  0.00     0.117 A 
HETATM   10 CL1  UNL     1       2.851  -0.751   1.805  1.00  0.00    -0.064 Cl
HETATM   11  N3  UNL     1       1.814  -2.523   0.061  1.00  0.00    -0.339 N 
ENDROOT
BRANCH  11  12
HETATM   12  C14 UNL     1       1.014  -2.875   1.201  1.00  0.00     0.156 C 
BRANCH  12  13
HETATM   13  C15 UNL     1      -0.276  -2.108   1.316  1.00  0.00     0.190 C 
BRANCH  13  14
HETATM   14  O3  UNL     1      -1.137  -2.247   0.262  1.00  0.00    -0.356 OA
BRANCH  14  15
HETATM   15  C16 UNL     1      -2.278  -1.452   0.565  1.00  0.00     0.340 C 
BRANCH  15  16
HETATM   16  N4  UNL     1      -3.458  -2.265   0.563  1.00  0.00    -0.051 N 
ATOM     17  H43 UNL     1      -3.569  -2.774  -0.314  1.00  0.00     0.277 HD
ATOM     18  H42 UNL     1      -3.372  -3.065   1.190  1.00  0.00     0.277 HD
ATOM     19  H41 UNL     1      -4.276  -1.695   0.780  1.00  0.00     0.277 HD
ENDBRANCH  15  16
BRANCH  15  20
HETATM   20  C17 UNL     1      -2.435  -0.374  -0.494  1.00  0.00     0.135 C 
HETATM   21  C18 UNL     1      -2.504  -1.043  -1.882  1.00  0.00     0.036 C 
BRANCH  20  22
HETATM   22  N5  UNL     1      -3.455   0.514  -0.360  1.00  0.00    -0.371 N 
HETATM   23  C19 UNL     1      -4.561   0.903  -0.075  1.00  0.00     0.083 C 
ATOM     24  H5  UNL     1      -3.026   1.369  -0.715  1.00  0.00     0.161 HD
BRANCH  23  25
HETATM   25  N6  UNL     1      -5.687   0.221   0.475  1.00  0.00    -0.366 N 
HETATM   26  C20 UNL     1      -5.889   0.227   1.902  1.00  0.00     0.150 C 
HETATM   27  C21 UNL     1      -6.697  -1.044   2.200  1.00  0.00     0.187 C 
HETATM   28  O4  UNL     1      -7.972  -0.798   1.695  1.00  0.00    -0.388 OA
HETATM   29  C22 UNL     1      -8.010  -0.502   0.358  1.00  0.00     0.187 C 
HETATM   30  C23 UNL     1      -6.664  -0.485  -0.324  1.00  0.00     0.150 C 
ENDBRANCH  23  25
BRANCH  23  31
HETATM   31  C24 UNL     1      -4.858   2.381  -0.347  1.00  0.00     0.007 C 
HETATM   32  C25 UNL     1      -3.657   3.025  -1.036  1.00  0.00     0.022 C 
HETATM   33  C26 UNL     1      -5.136   3.081   0.956  1.00  0.00     0.022 C 
HETATM   34  C27 UNL     1      -6.052   2.529  -1.245  1.00  0.00     0.022 C 
ENDBRANCH  23  31
ENDBRANCH  20  22
ENDBRANCH  15  20
ENDBRANCH  14  15
ENDBRANCH  13  14
ENDBRANCH  12  13
ENDBRANCH  11  12
BRANCH   8  35
HETATM   35  C6  UNL     1       4.565  -0.045  -0.802  1.00  0.00     0.174 C 
BRANCH  35  36
HETATM   36  O1  UNL     1       5.768  -0.678  -1.201  1.00  0.00    -0.389 OA
ATOM     37  H1  UNL     1       6.429   0.004  -1.198  1.00  0.00     0.210 HD
ENDBRANCH  35  36
BRANCH  35  38
HETATM   38  C7  UNL     1       4.719   0.815   0.372  1.00  0.00     0.150 C 
BRANCH  38  39
HETATM   39  N2  UNL     1       5.640   1.921   0.181  1.00  0.00    -0.414 N 
ATOM     40  H2  UNL     1       5.315   2.887   0.147  1.00  0.00     0.153 HD
BRANCH  39  41
HETATM   41  C8  UNL     1       7.008   1.596   0.044  1.00  0.00     0.080 C 
HETATM   42  C9  UNL     1       7.596   0.905   1.257  1.00  0.00     0.051 C 
HETATM   43  C10 UNL     1       9.033   1.363   1.388  1.00  0.00     0.169 C 
HETATM   44  O2  UNL     1       9.122   2.670   1.859  1.00  0.00    -0.391 OA
HETATM   45  C11 UNL     1       7.992   3.374   1.415  1.00  0.00     0.169 C 
HETATM   46  C12 UNL     1       7.753   2.954  -0.010  1.00  0.00     0.051 C 
ENDBRANCH  39  41
ENDBRANCH  38  39
ENDBRANCH  35  38
ENDBRANCH   8  35
TORSDOF 14
