REMARK  5 active torsions:
REMARK  status: ('A' for Active; 'I' for Inactive)
REMARK    1  A    between atoms: C2_2  and  N1_4 
REMARK    2  A    between atoms: N1_4  and  C13_19 
REMARK    3  A    between atoms: C5_6  and  O1_7 
REMARK    4  A    between atoms: C6_9  and  O2_10 
REMARK    5  A    between atoms: C13_19  and  C16_22 
ROOT
HETATM    1  N1  UNL     1       0.005  -0.328  -0.205  1.00  0.00    -0.349 N 
HETATM    2  C4  UNL     1       1.273  -0.318   0.283  1.00  0.00     0.025 C 
HETATM    3  C5  UNL     1       1.708  -0.093   1.663  1.00  0.00     0.193 C 
HETATM    4  C6  UNL     1       3.213  -0.398   1.580  1.00  0.00     0.157 C 
HETATM    5  C7  UNL     1       3.570  -0.489   0.140  1.00  0.00     0.034 C 
HETATM    6  C8  UNL     1       4.898   0.109  -0.197  1.00  0.00     0.086 C 
HETATM    7  C9  UNL     1       4.710   1.006  -1.391  1.00  0.00     0.127 C 
HETATM    8  O3  UNL     1       5.301   0.825  -2.437  1.00  0.00    -0.298 OA
HETATM    9  C10 UNL     1       3.760   2.139  -1.258  1.00  0.00     0.079 C 
HETATM   10  C11 UNL     1       2.699   1.703  -0.254  1.00  0.00     0.018 C 
HETATM   11  C12 UNL     1       2.405   0.268  -0.532  1.00  0.00     0.041 C 
ENDROOT
BRANCH   1  12
HETATM   12  C2  UNL     1      -0.152  -1.295  -1.245  1.00  0.00    -0.018 C 
HETATM   13  C1  UNL     1      -0.635  -0.882  -2.563  1.00  0.00     0.063 C 
HETATM   14  C3  UNL     1      -0.716  -2.627  -0.829  1.00  0.00     0.063 C 
ENDBRANCH   1  12
BRANCH   1  15
HETATM   15  C13 UNL     1      -1.001   0.632  -0.069  1.00  0.00     0.033 C 
HETATM   16  C14 UNL     1      -0.822   1.495   1.188  1.00  0.00     0.039 C 
HETATM   17  C15 UNL     1      -1.108   1.665  -1.168  1.00  0.00     0.039 C 
BRANCH  15  18
HETATM   18  C16 UNL     1      -2.381   0.045   0.171  1.00  0.00     0.013 C 
HETATM   19  C17 UNL     1      -3.476   1.065   0.216  1.00  0.00     0.007 C 
HETATM   20  C18 UNL     1      -4.765   0.248  -0.022  1.00  0.00     0.000 C 
HETATM   21  C19 UNL     1      -4.958  -0.574   1.240  1.00  0.00     0.000 C 
HETATM   22  C20 UNL     1      -3.736  -1.354   1.625  1.00  0.00     0.000 C 
HETATM   23  C21 UNL     1      -2.464  -0.536   1.603  1.00  0.00     0.007 C 
ENDBRANCH  15  18
ENDBRANCH   1  15
BRANCH   3  24
HETATM   24  O1  UNL     1       1.200  -1.086   2.508  1.00  0.00    -0.387 OA
ATOM     25  H1  UNL     1       1.482  -0.940   3.403  1.00  0.00     0.210 HD
ENDBRANCH   3  24
BRANCH   4  26
HETATM   26  O2  UNL     1       3.552  -1.590   2.188  1.00  0.00    -0.392 OA
ATOM     27  H2  UNL     1       4.482  -1.778   2.137  1.00  0.00     0.210 HD
ENDBRANCH   4  26
TORSDOF 5
