REMARK  5 active torsions:
REMARK  status: ('A' for Active; 'I' for Inactive)
REMARK    1  A    between atoms: C3_3  and  N1_4 
REMARK    2  A    between atoms: N1_4  and  C4_6 
REMARK    3  A    between atoms: C4_6  and  C5_7 
REMARK    4  A    between atoms: C10_17  and  O1_18 
REMARK    5  A    between atoms: O1_18  and  C11_19 
ROOT
HETATM    1  C1  UNL     1       0.428  -2.717   0.203  1.00  0.00     0.095 A 
HETATM    2  C2  UNL     1       1.705  -2.265   0.168  1.00  0.00     0.065 A 
HETATM    3  C3  UNL     1       1.937  -0.925   0.138  1.00  0.00     0.105 A 
HETATM    4  N3  UNL     1       0.890  -0.079   0.144  1.00  0.00    -0.308 N 
ATOM      5  H3  UNL     1       1.073   0.924   0.121  1.00  0.00     0.171 HD
HETATM    6  C10 UNL     1      -0.402  -0.505   0.179  1.00  0.00     0.225 A 
HETATM    7  N4  UNL     1      -0.564  -1.834   0.208  1.00  0.00    -0.332 N 
ATOM      8  H4  UNL     1      -1.518  -2.194   0.236  1.00  0.00     0.168 HD
ENDROOT
BRANCH   6   9
HETATM    9  O1  UNL     1      -1.363   0.438   0.183  1.00  0.00    -0.310 OA
BRANCH   9  10
HETATM   10  C11 UNL     1      -2.741   0.391   0.206  1.00  0.00     0.072 C 
HETATM   11  C12 UNL     1      -3.242  -0.324  -1.000  1.00  0.00     0.043 C 
HETATM   12  C13 UNL     1      -4.694  -0.661  -1.011  1.00  0.00    -0.011 C 
HETATM   13  C14 UNL     1      -5.590   0.371  -1.593  1.00  0.00     0.005 C 
HETATM   14  C19 UNL     1      -5.237  -1.090   0.336  1.00  0.00     0.009 C 
HETATM   15  C15 UNL     1      -5.321   1.772  -1.244  1.00  0.00     0.005 C 
HETATM   16  C16 UNL     1      -4.687   2.001   0.099  1.00  0.00    -0.011 C 
HETATM   17  C17 UNL     1      -5.369   1.238   1.212  1.00  0.00     0.009 C 
HETATM   18  C21 UNL     1      -3.203   1.851   0.088  1.00  0.00     0.043 C 
HETATM   19  C18 UNL     1      -4.814  -0.127   1.411  1.00  0.00    -0.011 C 
HETATM   20  C20 UNL     1      -3.311  -0.167   1.490  1.00  0.00     0.043 C 
ENDBRANCH   9  10
ENDBRANCH   6   9
BRANCH   3  21
HETATM   21  N1  UNL     1       3.146  -0.484   0.104  1.00  0.00    -0.376 N 
ATOM     22  H1  UNL     1       3.322   0.520   0.081  1.00  0.00     0.161 HD
BRANCH  21  23
HETATM   23  C4  UNL     1       4.238  -1.398   0.098  1.00  0.00     0.126 C 
BRANCH  23  24
HETATM   24  C5  UNL     1       5.583  -0.740   0.032  1.00  0.00     0.006 C 
HETATM   25  C6  UNL     1       5.776   0.098  -1.193  1.00  0.00     0.034 C 
HETATM   26  C7  UNL     1       7.234   0.497  -1.275  1.00  0.00     0.232 C 
HETATM   27  N2  UNL     1       7.767   0.961  -0.032  1.00  0.00    -0.075 N 
HETATM   28  C8  UNL     1       6.737   1.285   0.935  1.00  0.00     0.232 C 
ATOM     29  H22 UNL     1       8.432   0.290   0.353  1.00  0.00     0.277 HD
ATOM     30  H21 UNL     1       8.394   1.752  -0.176  1.00  0.00     0.277 HD
HETATM   31  C9  UNL     1       5.870   0.084   1.247  1.00  0.00     0.034 C 
ENDBRANCH  23  24
ENDBRANCH  21  23
ENDBRANCH   3  21
TORSDOF 5
