REMARK  5 active torsions:
REMARK  status: ('A' for Active; 'I' for Inactive)
REMARK    1  A    between atoms: C3_7  and  N3_8 
REMARK    2  A    between atoms: C4_10  and  C5_11 
REMARK    3  A    between atoms: C5_11  and  C6_12 
REMARK    4  A    between atoms: C6_12  and  N4_13 
REMARK    5  A    between atoms: C12_20  and  C13_21 
ROOT
HETATM    1  C1  UNL     1       0.243   4.726  -0.249  1.00  0.00     0.165 C 
HETATM    2  N1  UNL     1      -0.358   3.492  -0.576  1.00  0.00    -0.230 N 
ATOM      3  H1  UNL     1      -1.359   3.501  -0.773  1.00  0.00     0.177 HD
HETATM    4  C2  UNL     1       0.235   2.370  -0.647  1.00  0.00     0.679 A 
HETATM    5  N2  UNL     1      -0.575   1.321  -0.983  1.00  0.00    -0.175 N 
ATOM      6  H2  UNL     1      -1.568   1.457  -1.170  1.00  0.00     0.186 HD
HETATM    7  C3  UNL     1      -0.014   0.109  -1.057  1.00  0.00     0.140 A 
HETATM    8  C11 UNL     1       1.381  -0.014  -0.783  1.00  0.00     0.077 A 
HETATM    9  S1  UNL     1       2.457  -1.343  -0.762  1.00  0.00    -0.088 SA
HETATM   10  C12 UNL     1       3.887  -0.523  -0.330  1.00  0.00    -0.007 A 
HETATM   11  C17 UNL     1       3.474   0.777  -0.215  1.00  0.00     0.047 A 
HETATM   12  C18 UNL     1       2.165   1.033  -0.453  1.00  0.00     0.071 A 
HETATM   13  N5  UNL     1       1.535   2.255  -0.392  1.00  0.00    -0.190 N 
ATOM     14  H5  UNL     1       2.074   3.086  -0.147  1.00  0.00     0.184 HD
ENDROOT
BRANCH   7  15
HETATM   15  N3  UNL     1      -0.559  -0.959  -1.350  1.00  0.00    -0.354 N 
HETATM   16  C4  UNL     1      -1.790  -1.439  -1.697  1.00  0.00     0.064 C 
ATOM     17  H3  UNL     1       0.121  -1.719  -1.325  1.00  0.00     0.166 HD
BRANCH  16  18
HETATM   18  C5  UNL     1      -3.028  -1.025  -0.947  1.00  0.00     0.074 C 
BRANCH  18  19
HETATM   19  C6  UNL     1      -2.980  -1.371   0.500  1.00  0.00     0.277 C 
BRANCH  19  20
HETATM   20  N4  UNL     1      -4.168  -0.995   1.226  1.00  0.00     0.088 N 
HETATM   21  C7  UNL     1      -5.322  -1.778   0.845  1.00  0.00     0.272 C 
HETATM   22  C8  UNL     1      -6.294  -0.890   0.150  1.00  0.00     0.032 C 
HETATM   23  C9  UNL     1      -5.737   0.506   0.234  1.00  0.00     0.032 C 
HETATM   24  C10 UNL     1      -4.534   0.375   1.144  1.00  0.00     0.272 C 
ENDBRANCH  19  20
ENDBRANCH  18  19
ENDBRANCH  16  18
ENDBRANCH   7  15
BRANCH  10  25
HETATM   25  C13 UNL     1       5.284  -1.056  -0.114  1.00  0.00    -0.018 C 
HETATM   26  C14 UNL     1       5.633  -1.000   1.337  1.00  0.00     0.020 C 
HETATM   27  C15 UNL     1       5.358  -2.449  -0.629  1.00  0.00     0.020 C 
HETATM   28  C16 UNL     1       6.203  -0.129  -0.885  1.00  0.00     0.020 C 
ENDBRANCH  10  25
TORSDOF 5
