REMARK  3 active torsions:
REMARK  status: ('A' for Active; 'I' for Inactive)
REMARK    1  A    between atoms: C1_2  and  C2_4 
REMARK    2  A    between atoms: C2_4  and  C3_5 
REMARK    3  A    between atoms: N1_12  and  C10_13 
ROOT
HETATM    1  C3  UNL     1       1.995   0.164  -0.008  1.00  0.00    -0.027 C 
HETATM    2  C4  UNL     1       2.359  -1.279  -0.032  1.00  0.00     0.014 C 
HETATM    3  C5  UNL     1       1.203  -2.216   0.266  1.00  0.00    -0.012 C 
HETATM    4  C6  UNL     1       0.511  -2.504  -1.023  1.00  0.00     0.007 C 
HETATM    5  C7  UNL     1      -0.376  -1.469  -1.559  1.00  0.00     0.025 C 
HETATM    6  C8  UNL     1      -0.316  -0.097  -0.994  1.00  0.00     0.080 C 
HETATM    7  C9  UNL     1       1.081   0.514  -1.130  1.00  0.00     0.035 C 
HETATM    8  N1  UNL     1      -0.855  -0.020   0.281  1.00  0.00    -0.400 N 
HETATM    9  C15 UNL     1       0.022  -0.312   1.377  1.00  0.00     0.081 C 
HETATM   10  C16 UNL     1       0.322  -1.779   1.375  1.00  0.00     0.029 C 
HETATM   11  C17 UNL     1       1.259   0.504   1.289  1.00  0.00     0.035 C 
ENDROOT
BRANCH   8  12
HETATM   12  C10 UNL     1      -2.091   0.498   0.591  1.00  0.00     0.080 C 
HETATM   13  C11 UNL     1      -3.324  -0.190   0.049  1.00  0.00     0.025 C 
HETATM   14  C12 UNL     1      -4.444   0.844   0.197  1.00  0.00     0.002 C 
HETATM   15  C13 UNL     1      -3.773   2.076   0.745  1.00  0.00     0.002 C 
HETATM   16  C14 UNL     1      -2.369   1.931   0.193  1.00  0.00     0.025 C 
ENDBRANCH   8  12
BRANCH   1  17
HETATM   17  C2  UNL     1       3.225   1.010  -0.004  1.00  0.00     0.122 C 
BRANCH  17  18
HETATM   18  C1  UNL     1       4.129   0.869  -1.147  1.00  0.00     0.173 C 
HETATM   19  O1  UNL     1       3.857   0.171  -2.137  1.00  0.00    -0.648 OA
HETATM   20  O2  UNL     1       5.342   1.535  -1.137  1.00  0.00    -0.648 OA
ENDBRANCH  17  18
ENDBRANCH   1  17
TORSDOF 3
