REMARK  3 active torsions:
REMARK  status: ('A' for Active; 'I' for Inactive)
REMARK    1  A    between atoms: C2_2  and  C9_9 
REMARK    2  A    between atoms: C3_3  and  C4_4 
REMARK    3  A    between atoms: C9_9  and  N1_10 
REMARK       I    between atoms: N1_10  and  C10_12 
REMARK       I    between atoms: C10_12  and  N2_14 
ROOT
HETATM    1  N1  UNL     1       1.184  -0.558  -1.268  1.00  0.00    -0.339 N 
ATOM      2  H1  UNL     1       1.873  -1.210  -1.643  1.00  0.00     0.164 HD
HETATM    3  C10 UNL     1       1.552   0.288  -0.200  1.00  0.00     0.319 C 
HETATM    4  O1  UNL     1       0.712   1.078   0.252  1.00  0.00    -0.247 OA
HETATM    5  N2  UNL     1       2.860   0.215   0.324  1.00  0.00    -0.325 N 
HETATM    6  C11 UNL     1       3.807  -0.707  -0.219  1.00  0.00     0.129 C 
HETATM    7  C12 UNL     1       5.184  -0.634   0.342  1.00  0.00     0.030 C 
HETATM    8  C13 UNL     1       5.815   0.731   0.204  1.00  0.00     0.077 C 
HETATM    9  S1  UNL     1       4.695   2.012   0.897  1.00  0.00    -0.149 SA
HETATM   10  C14 UNL     1       3.206   1.092   1.415  1.00  0.00     0.201 C 
ENDROOT
BRANCH   1  11
HETATM   11  C9  UNL     1      -0.152  -0.529  -1.852  1.00  0.00     0.157 C 
BRANCH  11  12
HETATM   12  C2  UNL     1      -1.177  -0.853  -0.831  1.00  0.00    -0.070 C 
HETATM   13  C1  UNL     1      -1.113  -2.170  -0.150  1.00  0.00     0.044 C 
HETATM   14  C3  UNL     1      -2.134  -0.005  -0.517  1.00  0.00    -0.018 C 
BRANCH  14  15
HETATM   15  C4  UNL     1      -3.156  -0.345   0.511  1.00  0.00     0.008 C 
HETATM   16  C5  UNL     1      -3.187   0.787   1.521  1.00  0.00     0.008 C 
HETATM   17  C6  UNL     1      -4.359   1.658   1.130  1.00  0.00     0.001 C 
HETATM   18  C7  UNL     1      -4.747   1.206  -0.241  1.00  0.00     0.001 C 
HETATM   19  C8  UNL     1      -4.505  -0.297  -0.177  1.00  0.00     0.008 C 
ENDBRANCH  14  15
ENDBRANCH  11  12
ENDBRANCH   1  11
TORSDOF 3
