REMARK  4 active torsions:
REMARK  status: ('A' for Active; 'I' for Inactive)
REMARK    1  A    between atoms: C3_5  and  C4_6 
REMARK    2  A    between atoms: N2_10  and  N3_11 
REMARK    3  A    between atoms: C8_14  and  C9_15 
REMARK    4  A    between atoms: N4_18  and  C12_19 
ROOT
HETATM    1  C1  UNL     1      -1.650  -1.709  -2.700  1.00  0.00     0.070 C 
HETATM    2  C2  UNL     1      -2.292  -0.931  -1.596  1.00  0.00     0.032 A 
HETATM    3  N1  UNL     1      -3.641  -0.848  -1.396  1.00  0.00    -0.346 N 
ATOM      4  H1  UNL     1      -4.343  -1.320  -1.966  1.00  0.00     0.167 HD
HETATM    5  C3  UNL     1      -3.911  -0.063  -0.350  1.00  0.00     0.111 A 
HETATM    6  N2  UNL     1      -2.729   0.349   0.108  1.00  0.00    -0.251 N 
HETATM    7  C8  UNL     1      -1.711  -0.148  -0.611  1.00  0.00     0.062 A 
ENDROOT
BRANCH   7   8
HETATM    8  C9  UNL     1      -0.254  -0.005  -0.475  1.00  0.00     0.049 C 
HETATM    9  C10 UNL     1       0.225   1.059   0.455  1.00  0.00     0.056 C 
HETATM   10  C11 UNL     1       1.733   0.981   0.570  1.00  0.00     0.064 C 
HETATM   11  N4  UNL     1       2.368   0.023  -0.246  1.00  0.00    -0.369 N 
HETATM   12  C18 UNL     1       1.818  -1.259  -0.406  1.00  0.00     0.064 C 
HETATM   13  C19 UNL     1       0.380  -1.300   0.060  1.00  0.00     0.056 C 
BRANCH  11  14
HETATM   14  C12 UNL     1       3.771  -0.013  -0.052  1.00  0.00     0.088 C 
HETATM   15  C13 UNL     1       4.209  -0.365   1.341  1.00  0.00     0.026 C 
HETATM   16  C14 UNL     1       5.683  -0.684   1.340  1.00  0.00     0.002 C 
HETATM   17  C15 UNL     1       6.539   0.305   0.625  1.00  0.00     0.000 C 
HETATM   18  C16 UNL     1       5.972   0.743  -0.697  1.00  0.00     0.002 C 
HETATM   19  C17 UNL     1       4.519   1.211  -0.500  1.00  0.00     0.026 C 
ENDBRANCH  11  14
ENDBRANCH   7   8
BRANCH   6  20
HETATM   20  N3  UNL     1      -2.591   1.189   1.196  1.00  0.00    -0.337 N 
ATOM     21  H32 UNL     1      -3.365   1.567   1.743  1.00  0.00     0.177 HD
ATOM     22  H31 UNL     1      -1.686   1.504   1.546  1.00  0.00     0.177 HD
ENDBRANCH   6  20
BRANCH   5  23
HETATM   23  C4  UNL     1      -5.293   0.204   0.109  1.00  0.00     0.009 C 
HETATM   24  C5  UNL     1      -5.418   1.353   1.043  1.00  0.00     0.023 C 
HETATM   25  C6  UNL     1      -6.265   0.418  -1.028  1.00  0.00     0.023 C 
HETATM   26  C7  UNL     1      -5.797  -1.030   0.882  1.00  0.00     0.023 C 
ENDBRANCH   5  23
TORSDOF 4
