REMARK  2 active torsions:
REMARK  status: ('A' for Active; 'I' for Inactive)
REMARK    1  A    between atoms: C7_7  and  C8_8 
REMARK    2  A    between atoms: C10_15  and  C11_16 
ROOT
HETATM    1  C8  UNL     1       1.498  -1.403   0.763  1.00  0.00     0.014 C 
HETATM    2  N1  UNL     1       2.480  -1.799   1.544  1.00  0.00    -0.337 N 
ATOM      3  H1  UNL     1       2.302  -1.802   2.548  1.00  0.00     0.168 HD
HETATM    4  C9  UNL     1       3.744  -2.215   1.122  1.00  0.00     0.172 C 
HETATM    5  S1  UNL     1       4.927  -2.700   2.141  1.00  0.00    -0.041 SA
HETATM    6  N2  UNL     1       4.024  -2.222  -0.271  1.00  0.00    -0.356 N 
ATOM      7  H2  UNL     1       4.773  -2.791  -0.665  1.00  0.00     0.162 HD
HETATM    8  C10 UNL     1       3.193  -1.381  -1.098  1.00  0.00     0.147 C 
HETATM    9  C14 UNL     1       1.737  -1.380  -0.669  1.00  0.00     0.089 C 
ENDROOT
BRANCH   1  10
HETATM   10  C7  UNL     1       0.234  -1.000   1.374  1.00  0.00     0.028 C 
HETATM   11  C6  UNL     1      -0.871  -0.594   0.873  1.00  0.00    -0.078 C 
HETATM   12  C5  UNL     1      -1.975  -0.266   1.885  1.00  0.00     0.035 C 
HETATM   13  C15 UNL     1      -1.199  -0.422  -0.523  1.00  0.00     0.035 C 
HETATM   14  C4  UNL     1      -2.586   1.031   1.382  1.00  0.00     0.013 C 
HETATM   15  C2  UNL     1      -3.347   0.736   0.132  1.00  0.00    -0.047 C 
HETATM   16  C1  UNL     1      -3.531   2.057  -0.627  1.00  0.00     0.015 C 
HETATM   17  C3  UNL     1      -4.759   0.320   0.553  1.00  0.00     0.015 C 
HETATM   18  C16 UNL     1      -2.707  -0.276  -0.750  1.00  0.00     0.013 C 
ENDBRANCH   1  10
BRANCH   8  19
HETATM   19  C11 UNL     1       3.766   0.005  -1.044  1.00  0.00     0.074 A 
HETATM   20  N3  UNL     1       4.177   0.648   0.038  1.00  0.00    -0.361 N 
HETATM   21  C12 UNL     1       4.652   1.848  -0.067  1.00  0.00     0.096 A 
ATOM     22  H3  UNL     1       4.120   0.199   0.952  1.00  0.00     0.165 HD
HETATM   23  C13 UNL     1       4.707   2.406  -1.320  1.00  0.00     0.068 A 
HETATM   24  S2  UNL     1       4.060   1.143  -2.280  1.00  0.00    -0.085 SA
ENDBRANCH   8  19
TORSDOF 2
