REMARK  3 active torsions:
REMARK  status: ('A' for Active; 'I' for Inactive)
REMARK    1  A    between atoms: O1_2  and  C2_3 
REMARK    2  A    between atoms: C2_3  and  N1_5 
REMARK    3  A    between atoms: N1_5  and  C3_7 
ROOT
HETATM    1  C3  UNL     1       0.999  -0.470  -0.685  1.00  0.00     0.137 C 
HETATM    2  C4  UNL     1      -0.224  -1.232  -0.275  1.00  0.00    -0.052 C 
HETATM    3  C5  UNL     1      -1.013  -0.519   0.487  1.00  0.00    -0.064 C 
HETATM    4  C6  UNL     1      -2.308  -1.003   1.056  1.00  0.00     0.035 C 
HETATM    5  C7  UNL     1      -2.498  -2.487   0.842  1.00  0.00     0.005 C 
HETATM    6  C8  UNL     1      -2.085  -2.773  -0.588  1.00  0.00     0.005 C 
HETATM    7  C9  UNL     1      -0.581  -2.625  -0.637  1.00  0.00     0.036 C 
HETATM    8  C10 UNL     1      -0.417   0.834   0.688  1.00  0.00     0.081 A 
HETATM    9  C11 UNL     1      -1.462   1.873   0.357  1.00  0.00     0.004 A 
HETATM   10  S2  UNL     1      -3.010   2.203   1.062  1.00  0.00    -0.105 SA
HETATM   11  C12 UNL     1      -3.482   3.488   0.066  1.00  0.00     0.051 A 
HETATM   12  C13 UNL     1      -2.438   3.634  -0.787  1.00  0.00     0.021 A 
HETATM   13  C14 UNL     1      -1.375   2.789  -0.638  1.00  0.00    -0.007 A 
HETATM   14  C15 UNL     1      -0.105   2.765  -1.435  1.00  0.00     0.096 A 
HETATM   15  N2  UNL     1       0.777   1.927  -1.145  1.00  0.00    -0.390 N 
ATOM     16  H2  UNL     1       1.612   1.966  -1.729  1.00  0.00     0.159 HD
HETATM   17  C16 UNL     1       0.803   0.928  -0.131  1.00  0.00     0.121 A 
ENDROOT
BRANCH   1  18
HETATM   18  N1  UNL     1       2.148  -1.047  -0.042  1.00  0.00    -0.351 N 
ATOM     19  H1  UNL     1       2.018  -1.836   0.591  1.00  0.00     0.163 HD
BRANCH  18  20
HETATM   20  C2  UNL     1       3.453  -0.550  -0.263  1.00  0.00     0.210 C 
HETATM   21  S1  UNL     1       3.788   0.702  -1.251  1.00  0.00    -0.033 SA
BRANCH  20  22
HETATM   22  O1  UNL     1       4.571  -1.124   0.376  1.00  0.00    -0.332 OA
HETATM   23  C1  UNL     1       5.542  -0.231   0.888  1.00  0.00     0.212 C 
ENDBRANCH  20  22
ENDBRANCH  18  20
ENDBRANCH   1  18
TORSDOF 3
