REMARK  4 active torsions:
REMARK  status: ('A' for Active; 'I' for Inactive)
REMARK    1  A    between atoms: C2_2  and  C3_3 
REMARK    2  A    between atoms: C9_12  and  N2_13 
REMARK    3  A    between atoms: N2_13  and  C10_15 
REMARK    4  A    between atoms: C12_19  and  C13_20 
ROOT
HETATM    1  C3  UNL     1      -3.708   0.709   0.465  1.00  0.00     0.020 C 
HETATM    2  C4  UNL     1      -4.618   0.283  -0.727  1.00  0.00     0.088 C 
HETATM    3  C5  UNL     1      -4.146  -0.929  -1.248  1.00  0.00    -0.178 C 
HETATM    4  C6  UNL     1      -3.359  -2.095  -1.524  1.00  0.00     0.124 C 
HETATM    5  C7  UNL     1      -2.219  -2.133  -0.527  1.00  0.00     0.018 A 
HETATM    6  C8  UNL     1      -1.615  -3.357  -0.437  1.00  0.00     0.128 A 
HETATM    7 CL1  UNL     1      -2.246  -4.634  -1.462  1.00  0.00    -0.063 Cl
HETATM    8  N1  UNL     1      -0.590  -3.524   0.420  1.00  0.00    -0.180 N 
ATOM      9  H1  UNL     1      -0.126  -4.429   0.500  1.00  0.00     0.185 HD
HETATM   10  C9  UNL     1      -0.186  -2.485   1.167  1.00  0.00     0.685 A 
HETATM   11  N4  UNL     1      -0.790  -1.308   1.060  1.00  0.00    -0.191 N 
ATOM     12  H4  UNL     1      -0.448  -0.548   1.648  1.00  0.00     0.184 HD
HETATM   13  C19 UNL     1      -1.819  -1.042   0.235  1.00  0.00     0.056 A 
HETATM   14  C20 UNL     1      -2.289   0.349   0.322  1.00  0.00     0.009 C 
ENDROOT
BRANCH  10  15
HETATM   15  N2  UNL     1       0.922  -2.670   2.092  1.00  0.00    -0.170 N 
ATOM     16  H2  UNL     1       0.871  -3.284   2.905  1.00  0.00     0.186 HD
BRANCH  15  17
HETATM   17  C10 UNL     1       1.995  -1.975   1.785  1.00  0.00     0.164 A 
HETATM   18  N3  UNL     1       3.147  -1.943   2.436  1.00  0.00    -0.345 N 
HETATM   19  C11 UNL     1       4.115  -1.186   1.980  1.00  0.00     0.110 A 
ATOM     20  H3  UNL     1       3.280  -2.499   3.280  1.00  0.00     0.167 HD
HETATM   21  C12 UNL     1       3.912  -0.461   0.860  1.00  0.00     0.035 A 
HETATM   22  S1  UNL     1       2.262  -0.917   0.490  1.00  0.00    -0.051 SA
BRANCH  21  23
HETATM   23  C13 UNL     1       4.720   0.473   0.062  1.00  0.00     0.004 A 
HETATM   24  C14 UNL     1       4.107   1.032  -1.079  1.00  0.00     0.016 A 
HETATM   25  C15 UNL     1       4.743   1.918  -1.913  1.00  0.00     0.025 A 
HETATM   26  C16 UNL     1       6.040   2.270  -1.613  1.00  0.00     0.035 A 
HETATM   27 CL2  UNL     1       6.861   3.393  -2.663  1.00  0.00    -0.084 Cl
HETATM   28  C17 UNL     1       6.642   1.736  -0.514  1.00  0.00     0.048 A 
HETATM   29  C18 UNL     1       5.971   0.826   0.333  1.00  0.00     0.047 A 
HETATM   30 CL3  UNL     1       6.847   0.213   1.708  1.00  0.00    -0.083 Cl
ENDBRANCH  21  23
ENDBRANCH  15  17
ENDBRANCH  10  15
BRANCH   1  31
HETATM   31  C2  UNL     1      -3.834   2.161   0.740  1.00  0.00     0.005 C 
HETATM   32  C1  UNL     1      -3.456   3.049  -0.397  1.00  0.00     0.006 C 
ENDBRANCH   1  31
TORSDOF 4
