REMARK  7 active torsions:
REMARK  status: ('A' for Active; 'I' for Inactive)
REMARK    1  A    between atoms: C2_2  and  C3_3 
REMARK    2  A    between atoms: C4_4  and  C5_5 
REMARK    3  A    between atoms: C15_17  and  O2_18 
REMARK    4  A    between atoms: C16_20  and  C17_21 
REMARK    5  A    between atoms: C17_21  and  C18_22 
REMARK    6  A    between atoms: C21_27  and  C22_28 
REMARK    7  A    between atoms: C22_28  and  C24_30 
ROOT
HETATM    1  C5  UNL     1       1.250  -1.276   0.036  1.00  0.00    -0.037 C 
HETATM    2  C6  UNL     1       1.172  -2.611  -0.239  1.00  0.00     0.063 C 
HETATM    3 BR1  UNL     1       2.862  -3.451  -0.446  1.00  0.00    -0.047 Br
HETATM    4  C7  UNL     1       0.027  -3.500  -0.353  1.00  0.00     0.171 C 
HETATM    5  O1  UNL     1       0.207  -4.616  -0.905  1.00  0.00    -0.291 OA
HETATM    6  C8  UNL     1      -1.340  -3.147   0.154  1.00  0.00     0.069 C 
HETATM    7  C9  UNL     1      -2.169  -4.377   0.136  1.00  0.00     0.019 C 
HETATM    8  C10 UNL     1      -1.906  -2.045  -0.711  1.00  0.00     0.006 C 
HETATM    9  C11 UNL     1      -2.344  -2.648  -2.014  1.00  0.00     0.014 C 
HETATM   10  C12 UNL     1      -3.532  -2.072  -2.661  1.00  0.00     0.001 C 
HETATM   11  C13 UNL     1      -4.636  -1.594  -1.796  1.00  0.00     0.003 C 
HETATM   12  C14 UNL     1      -4.328  -1.388  -0.358  1.00  0.00     0.039 C 
HETATM   13  C15 UNL     1      -2.904  -1.229   0.004  1.00  0.00     0.071 C 
HETATM   14  C16 UNL     1      -2.301  -0.010  -0.712  1.00  0.00     0.036 C 
HETATM   15  C19 UNL     1      -1.063  -0.869  -0.875  1.00  0.00     0.010 C 
HETATM   16  C20 UNL     1      -0.021  -0.515   0.138  1.00  0.00     0.046 C 
ENDROOT
BRANCH   1  17
HETATM   17  C4  UNL     1       2.556  -0.714   0.134  1.00  0.00     0.009 C 
HETATM   18  C3  UNL     1       3.196   0.346   0.376  1.00  0.00     0.007 C 
BRANCH  18  19
HETATM   19  C2  UNL     1       3.066   1.725   0.730  1.00  0.00    -0.065 C 
HETATM   20  C1  UNL     1       1.871   2.491   1.036  1.00  0.00     0.048 C 
HETATM   21  C21 UNL     1       4.225   2.444   0.835  1.00  0.00    -0.005 C 
BRANCH  21  22
HETATM   22  C22 UNL     1       4.371   3.829   1.201  1.00  0.00     0.106 C 
HETATM   23  C23 UNL     1       5.282   4.445   0.085  1.00  0.00     0.025 C 
BRANCH  22  24
HETATM   24  C24 UNL     1       5.176   4.028   2.447  1.00  0.00     0.180 C 
HETATM   25  O5  UNL     1       4.680   4.577   3.434  1.00  0.00    -0.647 OA
HETATM   26  O6  UNL     1       6.476   3.587   2.468  1.00  0.00    -0.647 OA
ENDBRANCH  22  24
ENDBRANCH  21  22
ENDBRANCH  18  19
ENDBRANCH   1  17
BRANCH  14  27
HETATM   27  C17 UNL     1      -2.270   1.128   0.230  1.00  0.00     0.121 C 
BRANCH  27  28
HETATM   28  C18 UNL     1      -1.734   2.368  -0.378  1.00  0.00     0.173 C 
HETATM   29  O3  UNL     1      -1.384   2.393  -1.583  1.00  0.00    -0.648 OA
HETATM   30  O4  UNL     1      -1.596   3.539   0.350  1.00  0.00    -0.648 OA
ENDBRANCH  27  28
ENDBRANCH  14  27
BRANCH  13  31
HETATM   31  O2  UNL     1      -2.740  -1.216   1.382  1.00  0.00    -0.389 OA
ATOM     32  H2  UNL     1      -3.383  -0.690   1.843  1.00  0.00     0.210 HD
ENDBRANCH  13  31
TORSDOF 7
