REMARK  7 active torsions:
REMARK  status: ('A' for Active; 'I' for Inactive)
REMARK    1  A    between atoms: O1_2  and  C2_3 
REMARK    2  A    between atoms: C7_8  and  O2_9 
REMARK    3  A    between atoms: C10_12  and  N1_13 
REMARK       I    between atoms: N1_13  and  C11_15 
REMARK    4  A    between atoms: C11_15  and  C12_17 
REMARK    5  A    between atoms: C15_20  and  C17_22 
REMARK    6  A    between atoms: C17_22  and  N2_23 
REMARK       I    between atoms: N2_23  and  C18_25 
REMARK       I    between atoms: C18_25  and  N3_27 
REMARK    7  A    between atoms: N3_27  and  C19_29 
ROOT
HETATM    1  C12 UNL     1      -0.352   0.217   1.004  1.00  0.00     0.096 C 
HETATM    2  C13 UNL     1      -1.093   1.528   1.201  1.00  0.00     0.017 C 
HETATM    3  C14 UNL     1      -1.612   1.944  -0.127  1.00  0.00     0.015 C 
HETATM    4  C15 UNL     1      -2.810   1.038  -0.451  1.00  0.00    -0.010 C 
HETATM    5  C16 UNL     1      -2.832   0.999  -1.990  1.00  0.00     0.021 C 
HETATM    6  C23 UNL     1      -2.624  -0.307   0.120  1.00  0.00     0.035 C 
HETATM    7  C24 UNL     1      -1.162  -0.740   0.180  1.00  0.00     0.096 C 
HETATM    8 CL1  UNL     1      -1.074  -2.383   0.811  1.00  0.00    -0.124 Cl
ENDROOT
BRANCH   1   9
HETATM    9  C11 UNL     1       0.977   0.513   0.460  1.00  0.00     0.223 C 
HETATM   10  N1  UNL     1       1.914  -0.525   0.140  1.00  0.00    -0.356 N 
ATOM     11  H1  UNL     1       1.627  -1.491   0.300  1.00  0.00     0.162 HD
HETATM   12  O3  UNL     1       1.352   1.689   0.253  1.00  0.00    -0.273 OA
BRANCH  10  13
HETATM   13  C10 UNL     1       3.219  -0.298  -0.387  1.00  0.00     0.089 C 
HETATM   14  C9  UNL     1       4.200  -0.815   0.677  1.00  0.00     0.064 C 
HETATM   15  C5  UNL     1       5.554  -0.368   0.222  1.00  0.00    -0.047 A 
HETATM   16  C4  UNL     1       5.837  -0.430  -1.111  1.00  0.00    -0.049 A 
HETATM   17  C6  UNL     1       6.456   0.092   1.177  1.00  0.00     0.047 A 
HETATM   18  C3  UNL     1       7.117   0.005  -1.490  1.00  0.00     0.047 A 
HETATM   19  C26 UNL     1       4.888  -0.921  -2.108  1.00  0.00     0.041 C 
HETATM   20  C2  UNL     1       8.040   0.467  -0.579  1.00  0.00     0.102 A 
HETATM   21  C7  UNL     1       7.704   0.509   0.759  1.00  0.00     0.102 A 
HETATM   22  C25 UNL     1       3.469  -1.028  -1.688  1.00  0.00     0.030 C 
BRANCH  20  23
HETATM   23  O1  UNL     1       9.305   0.897  -0.955  1.00  0.00    -0.353 OA
HETATM   24  C1  UNL     1       9.631   0.848  -2.330  1.00  0.00     0.210 C 
ENDBRANCH  20  23
BRANCH  21  25
HETATM   25  O2  UNL     1       8.659   0.980   1.649  1.00  0.00    -0.353 OA
HETATM   26  C8  UNL     1       8.310   1.021   3.024  1.00  0.00     0.210 C 
ENDBRANCH  21  25
ENDBRANCH  10  13
ENDBRANCH   1   9
BRANCH   4  27
HETATM   27  C17 UNL     1      -4.017   1.779   0.010  1.00  0.00     0.075 C 
BRANCH  27  28
HETATM   28  N2  UNL     1      -5.311   1.282  -0.189  1.00  0.00    -0.322 N 
HETATM   29  C18 UNL     1      -5.999   0.181   0.262  1.00  0.00     0.320 C 
HETATM   30  O4  UNL     1      -5.563  -0.676   1.040  1.00  0.00    -0.247 OA
HETATM   31  N3  UNL     1      -7.376  -0.075  -0.167  1.00  0.00    -0.335 N 
ATOM     32  H3  UNL     1      -7.819   0.585  -0.806  1.00  0.00     0.165 HD
ATOM     33  H2  UNL     1      -5.869   1.870  -0.808  1.00  0.00     0.169 HD
BRANCH  31  34
HETATM   34  C19 UNL     1      -8.125  -1.212   0.273  1.00  0.00     0.023 C 
HETATM   35  C20 UNL     1      -7.416  -2.468  -0.166  1.00  0.00     0.037 C 
HETATM   36  C21 UNL     1      -9.492  -1.171  -0.386  1.00  0.00     0.037 C 
HETATM   37  C22 UNL     1      -8.262  -1.254   1.786  1.00  0.00     0.037 C 
ENDBRANCH  31  34
ENDBRANCH  27  28
ENDBRANCH   4  27
TORSDOF 7
