REMARK  14 active torsions:
REMARK  status: ('A' for Active; 'I' for Inactive)
REMARK    1  A    between atoms: C2_2  and  O1_3 
REMARK    2  A    between atoms: O1_3  and  C3_4 
REMARK    3  A    between atoms: C4_7  and  C5_8 
REMARK    4  A    between atoms: C5_8  and  O3_10 
REMARK    5  A    between atoms: O3_10  and  C6_11 
REMARK    6  A    between atoms: C6_11  and  C7_12 
REMARK    7  A    between atoms: C7_12  and  N2_13 
REMARK    8  A    between atoms: C20_34  and  O6_35 
REMARK    9  A    between atoms: C21_39  and  N7_40 
REMARK   10  A    between atoms: N7_40  and  C22_42 
REMARK   11  A    between atoms: C22_42  and  C23_43 
REMARK   12  A    between atoms: N8_44  and  C24_46 
REMARK   13  A    between atoms: C24_46  and  O7_50 
REMARK   14  A    between atoms: O7_50  and  C25_51 
ROOT
HETATM    1  C3  UNL     1       0.695  -0.580  -0.263  1.00  0.00     0.157 A 
HETATM    2  N1  UNL     1       2.014  -0.317  -0.373  1.00  0.00    -0.317 N 
ATOM      3  H1  UNL     1       2.403   0.036  -1.248  1.00  0.00     0.169 HD
HETATM    4  C4  UNL     1       2.805  -0.529   0.691  1.00  0.00     0.184 A 
HETATM    5  N4  UNL     1       2.344  -0.990   1.860  1.00  0.00    -0.337 N 
ATOM      6  H4  UNL     1       2.992  -1.131   2.635  1.00  0.00     0.167 HD
HETATM    7  C12 UNL     1       1.023  -1.273   2.030  1.00  0.00     0.050 A 
HETATM    8  C13 UNL     1       0.546  -1.745   3.235  1.00  0.00     0.055 A 
HETATM    9  C14 UNL     1      -0.807  -2.003   3.320  1.00  0.00     0.049 A 
HETATM   10 CL1  UNL     1      -1.448  -2.611   4.858  1.00  0.00    -0.083 Cl
HETATM   11  C15 UNL     1      -1.669  -1.803   2.253  1.00  0.00     0.026 A 
HETATM   12  C16 UNL     1      -1.166  -1.331   1.063  1.00  0.00    -0.008 A 
HETATM   13  C17 UNL     1       0.206  -1.055   0.931  1.00  0.00     0.051 A 
HETATM   14  C18 UNL     1      -2.226  -1.215   0.115  1.00  0.00     0.188 A 
HETATM   15  N5  UNL     1      -3.424  -1.624   0.830  1.00  0.00    -0.174 N 
HETATM   16  C19 UNL     1      -3.103  -1.980   2.080  1.00  0.00     0.116 A 
HETATM   17  C20 UNL     1      -4.279  -2.370   2.711  1.00  0.00     0.184 A 
HETATM   18  N6  UNL     1      -5.253  -2.223   1.792  1.00  0.00    -0.168 N 
ATOM     19  H6  UNL     1      -6.238  -2.430   1.957  1.00  0.00     0.186 HD
HETATM   20  C21 UNL     1      -4.758  -1.768   0.631  1.00  0.00     0.683 A 
ENDROOT
BRANCH   4  21
HETATM   21  C5  UNL     1       4.241  -0.228   0.525  1.00  0.00     0.327 C 
HETATM   22  O2  UNL     1       5.033  -0.410   1.501  1.00  0.00    -0.256 OA
BRANCH  21  23
HETATM   23  O3  UNL     1       4.737   0.245  -0.658  1.00  0.00    -0.314 OA
BRANCH  23  24
HETATM   24  C6  UNL     1       6.065   0.564  -0.922  1.00  0.00     0.199 C 
BRANCH  24  25
HETATM   25  C7  UNL     1       6.532   1.676  -0.043  1.00  0.00     0.160 C 
BRANCH  25  26
HETATM   26  N2  UNL     1       7.914   1.959  -0.380  1.00  0.00    -0.308 N 
HETATM   27  C8  UNL     1       8.275   2.849  -1.313  1.00  0.00     0.101 A 
HETATM   28  C9  UNL     1       9.610   3.087  -1.602  1.00  0.00     0.092 A 
HETATM   29  C10 UNL     1      10.597   2.403  -0.926  1.00  0.00     0.250 A 
HETATM   30  O4  UNL     1      11.820   2.577  -1.146  1.00  0.00    -0.268 OA
HETATM   31  N3  UNL     1      10.195   1.507   0.014  1.00  0.00    -0.275 N 
HETATM   32  C11 UNL     1       8.880   1.297   0.274  1.00  0.00     0.329 A 
ATOM     33  H3  UNL     1      10.897   0.981   0.535  1.00  0.00     0.173 HD
HETATM   34  O5  UNL     1       8.598   0.458   1.152  1.00  0.00    -0.246 OA
ENDBRANCH  25  26
ENDBRANCH  24  25
ENDBRANCH  23  24
ENDBRANCH  21  23
ENDBRANCH   4  21
BRANCH   1  35
HETATM   35  O1  UNL     1      -0.185  -0.389  -1.308  1.00  0.00    -0.335 OA
BRANCH  35  36
HETATM   36  C2  UNL     1       0.157   0.085  -2.575  1.00  0.00     0.173 C 
HETATM   37  C1  UNL     1       1.147  -0.757  -3.310  1.00  0.00     0.034 C 
ENDBRANCH  35  36
ENDBRANCH   1  35
BRANCH  17  38
HETATM   38  O6  UNL     1      -4.431  -2.821   4.027  1.00  0.00    -0.344 OA
ATOM     39  H6  UNL     1      -5.235  -3.087   4.458  1.00  0.00     0.219 HD
ENDBRANCH  17  38
BRANCH  20  40
HETATM   40  N7  UNL     1      -5.409  -1.514  -0.462  1.00  0.00    -0.221 N 
ATOM     41  H7  UNL     1      -4.883  -1.170  -1.265  1.00  0.00     0.178 HD
BRANCH  40  42
HETATM   42  C22 UNL     1      -6.816  -1.687  -0.606  1.00  0.00     0.182 C 
BRANCH  42  43
HETATM   43  C23 UNL     1      -7.215  -1.199  -1.949  1.00  0.00     0.084 C 
HETATM   44  N8  UNL     1      -7.505   0.018  -2.220  1.00  0.00    -0.334 N 
ATOM     45  H8  UNL     1      -7.766   0.238  -3.181  1.00  0.00     0.168 HD
BRANCH  44  46
HETATM   46  C24 UNL     1      -7.490   1.075  -1.290  1.00  0.00     0.225 C 
HETATM   47  N9  UNL     1      -6.380   1.663  -0.979  1.00  0.00    -0.365 N 
ATOM     48  H92 UNL     1      -5.517   1.345  -1.420  1.00  0.00     0.159 HD
ATOM     49  H91 UNL     1      -6.369   2.429  -0.305  1.00  0.00     0.159 HD
BRANCH  46  50
HETATM   50  O7  UNL     1      -8.664   1.507  -0.690  1.00  0.00    -0.231 OA
BRANCH  50  51
HETATM   51  C25 UNL     1      -8.713   2.543   0.233  1.00  0.00     0.380 C 
HETATM   52  N10 UNL     1      -9.951   2.922   0.798  1.00  0.00    -0.032 NA
HETATM   53  O8  UNL     1      -7.662   3.134   0.558  1.00  0.00    -0.242 OA
ENDBRANCH  50  51
ENDBRANCH  46  50
ENDBRANCH  44  46
ENDBRANCH  42  43
ENDBRANCH  40  42
ENDBRANCH  20  40
TORSDOF 14
