REMARK  11 active torsions:
REMARK  status: ('A' for Active; 'I' for Inactive)
REMARK    1  A    between atoms: C2_2  and  C3_4 
REMARK    2  A    between atoms: C4_6  and  N1_7 
REMARK    3  A    between atoms: C5_12  and  C6_13 
REMARK    4  A    between atoms: C9_17  and  C10_18 
REMARK    5  A    between atoms: N3_20  and  N4_22 
REMARK       I    between atoms: N4_22  and  C12_24 
REMARK    6  A    between atoms: C12_24  and  C13_26 
REMARK    7  A    between atoms: C13_26  and  N5_27 
REMARK    8  A    between atoms: C15_30  and  C16_31 
REMARK    9  A    between atoms: C20_44  and  O7_45 
REMARK   10  A    between atoms: N9_47  and  C21_48 
REMARK   11  A    between atoms: C21_48  and  C22_49 
ROOT
HETATM    1  N5  UNL     1       2.644  -1.546  -0.763  1.00  0.00    -0.256 N 
HETATM    2  C14 UNL     1       3.184  -0.797   0.199  1.00  0.00     0.268 A 
HETATM    3  O4  UNL     1       2.516  -0.664   1.260  1.00  0.00    -0.267 OA
HETATM    4  C15 UNL     1       4.438  -0.154   0.107  1.00  0.00     0.112 A 
HETATM    5  C20 UNL     1       5.088  -0.351  -1.068  1.00  0.00     0.164 A 
HETATM    6  N9  UNL     1       4.538  -1.118  -2.061  1.00  0.00    -0.274 N 
HETATM    7  C23 UNL     1       3.349  -1.691  -1.893  1.00  0.00     0.334 A 
HETATM    8  O8  UNL     1       2.837  -2.403  -2.809  1.00  0.00    -0.246 OA
ENDROOT
BRANCH   1   9
HETATM    9  C13 UNL     1       1.377  -2.174  -0.626  1.00  0.00     0.241 C 
BRANCH   9  10
HETATM   10  C12 UNL     1       0.251  -1.333  -1.099  1.00  0.00     0.254 C 
HETATM   11  N4  UNL     1      -1.105  -1.791  -1.081  1.00  0.00    -0.269 N 
ATOM     12  H4  UNL     1      -1.269  -2.732  -0.723  1.00  0.00     0.190 HD
HETATM   13  O3  UNL     1       0.451  -0.182  -1.536  1.00  0.00    -0.270 OA
BRANCH  11  14
HETATM   14  N3  UNL     1      -2.178  -1.102  -1.489  1.00  0.00    -0.304 N 
HETATM   15  C10 UNL     1      -3.338  -0.848  -1.035  1.00  0.00     0.029 C 
HETATM   16  C11 UNL     1      -4.164  -0.015  -1.988  1.00  0.00     0.068 C 
ATOM     17  H3  UNL     1      -2.025  -0.669  -2.400  1.00  0.00     0.186 HD
BRANCH  15  18
HETATM   18  C9  UNL     1      -3.901  -1.292   0.220  1.00  0.00     0.177 C 
HETATM   19  C6  UNL     1      -4.352  -0.349   1.245  1.00  0.00     0.074 C 
HETATM   20  C7  UNL     1      -2.949   0.223   1.619  1.00  0.00     0.040 C 
HETATM   21  C8  UNL     1      -2.299  -1.162   1.824  1.00  0.00     0.169 C 
HETATM   22  O2  UNL     1      -2.852  -1.997   0.873  1.00  0.00    -0.379 OA
BRANCH  19  23
HETATM   23  C5  UNL     1      -5.285   0.753   0.883  1.00  0.00     0.039 A 
HETATM   24  C3  UNL     1      -6.632   0.543   0.872  1.00  0.00     0.076 A 
HETATM   25  S1  UNL     1      -7.240   2.089   0.370  1.00  0.00    -0.049 SA
HETATM   26  C4  UNL     1      -5.752   2.890   0.212  1.00  0.00     0.143 A 
HETATM   27  N2  UNL     1      -4.858   1.969   0.541  1.00  0.00    -0.339 N 
ATOM     28  H2  UNL     1      -3.861   2.186   0.533  1.00  0.00     0.168 HD
BRANCH  24  29
HETATM   29  C2  UNL     1      -7.450  -0.640   1.201  1.00  0.00     0.164 C 
HETATM   30  C1  UNL     1      -8.928  -0.543   1.070  1.00  0.00     0.097 C 
HETATM   31  O1  UNL     1      -6.954  -1.702   1.579  1.00  0.00    -0.292 OA
ENDBRANCH  24  29
BRANCH  26  32
HETATM   32  N1  UNL     1      -5.534   4.139  -0.153  1.00  0.00    -0.380 N 
ATOM     33  H12 UNL     1      -6.222   4.848  -0.406  1.00  0.00     0.158 HD
ATOM     34  H11 UNL     1      -4.640   4.620  -0.248  1.00  0.00     0.158 HD
ENDBRANCH  26  32
ENDBRANCH  19  23
ENDBRANCH  15  18
ENDBRANCH  11  14
ENDBRANCH   9  10
ENDBRANCH   1   9
BRANCH   4  35
HETATM   35  C16 UNL     1       4.907   0.650   1.257  1.00  0.00     0.077 A 
HETATM   36  N6  UNL     1       4.067   0.677   2.278  1.00  0.00    -0.277 N 
HETATM   37  S2  UNL     1       4.723   1.624   3.514  1.00  0.00     0.281 S 
ATOM     38  H6  UNL     1       3.165   0.201   2.314  1.00  0.00     0.179 HD
HETATM   39  O5  UNL     1       3.925   2.871   3.793  1.00  0.00    -0.199 OA
HETATM   40  O6  UNL     1       4.982   0.852   4.779  1.00  0.00    -0.199 OA
HETATM   41  C17 UNL     1       6.195   2.036   2.691  1.00  0.00     0.178 A 
HETATM   42  N7  UNL     1       7.324   2.710   2.812  1.00  0.00    -0.288 N 
HETATM   43  C19 UNL     1       6.099   1.399   1.464  1.00  0.00     0.051 A 
HETATM   44  N8  UNL     1       7.989   2.553   1.722  1.00  0.00    -0.310 N 
ATOM     45  H7  UNL     1       7.616   3.256   3.623  1.00  0.00     0.188 HD
HETATM   46  C18 UNL     1       7.311   1.776   0.865  1.00  0.00     0.124 A 
ATOM     47  H8  UNL     1       8.904   2.963   1.536  1.00  0.00     0.186 HD
ENDBRANCH   4  35
BRANCH   6  48
HETATM   48  C21 UNL     1       5.298  -1.262  -3.284  1.00  0.00     0.207 C 
BRANCH  48  49
HETATM   49  C22 UNL     1       4.889  -0.167  -4.235  1.00  0.00     0.371 C 
HETATM   50  F1  UNL     1       5.108   1.104  -3.764  1.00  0.00    -0.213 F 
HETATM   51  F2  UNL     1       3.541  -0.250  -4.585  1.00  0.00    -0.213 F 
ENDBRANCH  48  49
ENDBRANCH   6  48
BRANCH   5  52
HETATM   52  O7  UNL     1       6.309   0.180  -1.353  1.00  0.00    -0.345 OA
ATOM     53  H7  UNL     1       6.764   0.042  -2.175  1.00  0.00     0.219 HD
ENDBRANCH   5  52
TORSDOF 11
