REMARK  13 active torsions:
REMARK  status: ('A' for Active; 'I' for Inactive)
REMARK    1  A    between atoms: C2_2  and  O2_4 
REMARK    2  A    between atoms: O2_4  and  N1_5 
REMARK    3  A    between atoms: C3_6  and  C4_7 
REMARK    4  A    between atoms: C4_7  and  C5_8 
REMARK    5  A    between atoms: C4_7  and  S2_38 
REMARK       I    between atoms: C5_8  and  N2_10 
REMARK    6  A    between atoms: N2_10  and  C6_12 
REMARK    7  A    between atoms: C6_12  and  C7_13 
REMARK       I    between atoms: C7_13  and  N3_15 
REMARK    8  A    between atoms: N3_15  and  C8_17 
REMARK    9  A    between atoms: C9_19  and  C10_20 
REMARK   10  A    between atoms: C11_26  and  N6_27 
REMARK   11  A    between atoms: S2_38  and  N8_41 
REMARK   12  A    between atoms: C18_44  and  O7_45 
REMARK   13  A    between atoms: C19_47  and  O8_48 
ROOT
HETATM    1  C6  UNL     1       1.468   0.948   2.441  1.00  0.00     0.114 C 
HETATM    2  C13 UNL     1       1.783   2.357   2.769  1.00  0.00     0.041 C 
HETATM    3  C14 UNL     1       2.292   2.383   4.169  1.00  0.00     0.003 C 
HETATM    4  C15 UNL     1       2.047   1.056   4.782  1.00  0.00     0.003 C 
HETATM    5  C16 UNL     1       1.611   0.109   3.701  1.00  0.00     0.041 C 
ENDROOT
BRANCH   1   6
HETATM    6  N2  UNL     1       0.133   0.796   1.882  1.00  0.00    -0.342 N 
HETATM    7  C5  UNL     1      -0.321   1.382   0.687  1.00  0.00     0.237 C 
HETATM    8  O3  UNL     1       0.482   2.073   0.009  1.00  0.00    -0.272 OA
ATOM      9  H2  UNL     1      -0.528   0.217   2.400  1.00  0.00     0.163 HD
BRANCH   7  10
HETATM   10  C4  UNL     1      -1.739   1.223   0.189  1.00  0.00     0.203 C 
BRANCH  10  11
HETATM   11  C3  UNL     1      -2.086  -0.061  -0.393  1.00  0.00     0.145 C 
HETATM   12  N1  UNL     1      -3.490  -0.218  -0.792  1.00  0.00    -0.168 NA
HETATM   13  C20 UNL     1      -3.546  -1.112  -1.914  1.00  0.00     0.061 C 
HETATM   14  C19 UNL     1      -2.128  -1.546  -2.168  1.00  0.00     0.173 C 
HETATM   15  C21 UNL     1      -4.362  -2.365  -1.647  1.00  0.00     0.037 C 
HETATM   16  C22 UNL     1      -4.055  -0.483  -3.180  1.00  0.00     0.037 C 
HETATM   17  C18 UNL     1      -1.385  -0.253  -1.765  1.00  0.00     0.170 C 
BRANCH  12  18
HETATM   18  O2  UNL     1      -4.063  -0.917   0.241  1.00  0.00    -0.223 OA
BRANCH  18  19
HETATM   19  C2  UNL     1      -5.348  -0.860   0.675  1.00  0.00     0.271 C 
HETATM   20  C1  UNL     1      -5.762  -1.703   1.821  1.00  0.00     0.127 C 
HETATM   21  O1  UNL     1      -6.129  -0.093   0.083  1.00  0.00    -0.264 OA
ENDBRANCH  18  19
ENDBRANCH  12  18
BRANCH  14  22
HETATM   22  O8  UNL     1      -1.746  -2.586  -1.314  1.00  0.00    -0.391 OA
ATOM     23  H8  UNL     1      -2.203  -3.381  -1.562  1.00  0.00     0.210 HD
ENDBRANCH  14  22
BRANCH  17  24
HETATM   24  O7  UNL     1      -0.070  -0.549  -1.685  1.00  0.00    -0.391 OA
ATOM     25  H7  UNL     1       0.359  -0.666  -2.524  1.00  0.00     0.210 HD
ENDBRANCH  17  24
ENDBRANCH  10  11
BRANCH  10  26
HETATM   26  S2  UNL     1      -2.118   2.710  -0.665  1.00  0.00     0.058 S 
HETATM   27  C17 UNL     1      -3.837   2.939  -0.935  1.00  0.00     0.139 C 
HETATM   28  O6  UNL     1      -1.676   3.839   0.274  1.00  0.00    -0.247 OA
BRANCH  26  29
HETATM   29  N8  UNL     1      -1.297   2.967  -1.937  1.00  0.00    -0.181 N 
HETATM   30  F1  UNL     1      -0.734   4.168  -2.212  1.00  0.00    -0.093 F 
ATOM     31  H8  UNL     1      -1.171   2.203  -2.601  1.00  0.00     0.209 HD
ENDBRANCH  26  29
ENDBRANCH  10  26
ENDBRANCH   7  10
ENDBRANCH   1   6
BRANCH   1  32
HETATM   32  C7  UNL     1       2.455   0.426   1.484  1.00  0.00     0.251 C 
HETATM   33  O4  UNL     1       2.116  -0.455   0.667  1.00  0.00    -0.270 OA
HETATM   34  N3  UNL     1       3.779   0.916   1.479  1.00  0.00    -0.317 N 
ATOM     35  H3  UNL     1       4.086   1.632   2.137  1.00  0.00     0.169 HD
BRANCH  34  36
HETATM   36  C8  UNL     1       4.680   0.354   0.495  1.00  0.00     0.117 A 
HETATM   37  S1  UNL     1       4.398  -0.870  -0.659  1.00  0.00    -0.049 SA
HETATM   38  C9  UNL     1       5.944  -0.889  -1.406  1.00  0.00     0.110 A 
HETATM   39  N7  UNL     1       6.583   0.051  -0.718  1.00  0.00    -0.337 N 
HETATM   40  C12 UNL     1       5.982   0.684   0.231  1.00  0.00     0.138 A 
ATOM     41  H7  UNL     1       7.553   0.273  -0.942  1.00  0.00     0.167 HD
HETATM   42 CL1  UNL     1       6.788   1.956   1.185  1.00  0.00    -0.061 Cl
BRANCH  38  43
HETATM   43  C10 UNL     1       6.445  -1.709  -2.520  1.00  0.00     0.135 A 
HETATM   44  N4  UNL     1       7.695  -1.570  -2.986  1.00  0.00    -0.235 N 
HETATM   45  O5  UNL     1       7.879  -2.411  -3.965  1.00  0.00    -0.155 OA
ATOM     46  H4  UNL     1       8.390  -0.912  -2.632  1.00  0.00     0.197 HD
HETATM   47  N5  UNL     1       6.804  -3.078  -4.146  1.00  0.00    -0.224 N 
HETATM   48  C11 UNL     1       5.847  -2.676  -3.252  1.00  0.00     0.153 A 
ATOM     49  H5  UNL     1       6.677  -3.803  -4.852  1.00  0.00     0.198 HD
BRANCH  48  50
HETATM   50  N6  UNL     1       4.666  -3.130  -3.149  1.00  0.00    -0.382 N 
ATOM     51  H62 UNL     1       3.953  -2.831  -2.483  1.00  0.00     0.157 HD
ATOM     52  H61 UNL     1       4.215  -3.859  -3.701  1.00  0.00     0.157 HD
ENDBRANCH  48  50
ENDBRANCH  38  43
ENDBRANCH  34  36
ENDBRANCH   1  32
TORSDOF 13
