REMARK  13 active torsions:
REMARK  status: ('A' for Active; 'I' for Inactive)
REMARK    1  A    between atoms: C5_6  and  N1_7 
REMARK       I    between atoms: N1_7  and  C6_9 
REMARK    2  A    between atoms: C6_9  and  C7_11 
REMARK    3  A    between atoms: C9_14  and  N2_15 
REMARK    4  A    between atoms: C11_24  and  C12_25 
REMARK    5  A    between atoms: C12_25  and  O2_26 
REMARK    6  A    between atoms: C12_25  and  C15_31 
REMARK    7  A    between atoms: O2_26  and  C13_27 
REMARK    8  A    between atoms: C13_27  and  O4_29 
REMARK    9  A    between atoms: C15_31  and  O6_33 
REMARK   10  A    between atoms: C17_35  and  C18_36 
REMARK   11  A    between atoms: C18_36  and  S3_37 
REMARK   12  A    between atoms: S3_37  and  C19_38 
REMARK   13  A    between atoms: C20_40  and  N5_41 
ROOT
HETATM    1  C1  UNL     1      -2.531   1.502   1.828  1.00  0.00     0.020 C 
HETATM    2  C2  UNL     1      -1.548   1.205   1.004  1.00  0.00    -0.049 C 
HETATM    3  C3  UNL     1      -0.569   2.300   0.853  1.00  0.00     0.114 C 
HETATM    4  S1  UNL     1       0.780   2.018  -0.244  1.00  0.00    -0.137 SA
HETATM    5  C4  UNL     1       1.636   0.493  -0.116  1.00  0.00     0.183 C 
HETATM    6  C5  UNL     1       2.652   0.298   0.991  1.00  0.00     0.213 C 
HETATM    7  C10 UNL     1       2.085  -1.135   1.076  1.00  0.00     0.348 C 
HETATM    8  F1  UNL     1       2.869  -1.976   0.359  1.00  0.00    -0.180 F 
HETATM    9  F2  UNL     1       1.984  -1.469   2.386  1.00  0.00    -0.180 F 
HETATM   10  N4  UNL     1       0.888  -0.643   0.400  1.00  0.00    -0.298 N 
HETATM   11  C11 UNL     1      -0.499  -0.947   0.162  1.00  0.00     0.084 C 
HETATM   12  C17 UNL     1      -1.557  -0.152   0.417  1.00  0.00    -0.012 C 
ENDROOT
BRANCH  12  13
HETATM   13  C18 UNL     1      -2.867  -0.662   0.162  1.00  0.00     0.123 C 
BRANCH  13  14
HETATM   14  S3  UNL     1      -3.738   0.169  -1.141  1.00  0.00    -0.098 SA
BRANCH  14  15
HETATM   15  C19 UNL     1      -4.188   1.834  -1.031  1.00  0.00     0.146 A 
HETATM   16  O7  UNL     1      -5.270   2.259  -0.370  1.00  0.00    -0.270 OA
HETATM   17  C20 UNL     1      -5.597   3.508  -0.302  1.00  0.00     0.225 A 
HETATM   18  N6  UNL     1      -4.898   4.507  -0.879  1.00  0.00    -0.287 N 
HETATM   19  C21 UNL     1      -3.795   4.179  -1.567  1.00  0.00     0.276 A 
ATOM     20  H6  UNL     1      -5.198   5.478  -0.795  1.00  0.00     0.172 HD
HETATM   21  O8  UNL     1      -3.113   5.087  -2.123  1.00  0.00    -0.266 OA
HETATM   22  C22 UNL     1      -3.456   2.851  -1.635  1.00  0.00     0.154 A 
HETATM   23  N7  UNL     1      -2.319   2.513  -2.419  1.00  0.00    -0.093 NA
BRANCH  17  24
HETATM   24  N5  UNL     1      -6.661   3.859   0.356  1.00  0.00    -0.365 N 
ATOM     25  H52 UNL     1      -7.190   3.104   0.792  1.00  0.00     0.159 HD
ATOM     26  H51 UNL     1      -6.919   4.844   0.410  1.00  0.00     0.159 HD
ENDBRANCH  17  24
ENDBRANCH  14  15
ENDBRANCH  13  14
ENDBRANCH  12  13
BRANCH  11  27
HETATM   27  C12 UNL     1      -0.793  -2.275  -0.340  1.00  0.00     0.183 C 
BRANCH  27  28
HETATM   28  O2  UNL     1      -1.468  -3.178   0.470  1.00  0.00    -0.247 OA
BRANCH  28  29
HETATM   29  C13 UNL     1      -1.000  -4.344   1.016  1.00  0.00     0.411 C 
HETATM   30  O3  UNL     1       0.207  -4.646   0.755  1.00  0.00    -0.229 OA
BRANCH  29  31
HETATM   31  O4  UNL     1      -1.832  -5.126   1.806  1.00  0.00    -0.303 OA
HETATM   32  C14 UNL     1      -1.295  -6.319   2.343  1.00  0.00     0.215 C 
ENDBRANCH  29  31
ENDBRANCH  28  29
ENDBRANCH  27  28
BRANCH  27  33
HETATM   33  C15 UNL     1      -1.133  -2.364  -1.803  1.00  0.00     0.319 C 
HETATM   34  O5  UNL     1      -0.682  -1.603  -2.647  1.00  0.00    -0.257 OA
BRANCH  33  35
HETATM   35  O6  UNL     1      -2.003  -3.374  -2.182  1.00  0.00    -0.321 OA
HETATM   36  C16 UNL     1      -2.420  -3.591  -3.526  1.00  0.00     0.213 C 
ENDBRANCH  33  35
ENDBRANCH  27  33
ENDBRANCH  11  27
BRANCH   6  37
HETATM   37  N1  UNL     1       4.032   0.315   0.524  1.00  0.00    -0.341 N 
HETATM   38  C6  UNL     1       5.029   1.105   1.125  1.00  0.00     0.269 C 
HETATM   39  O1  UNL     1       4.768   1.839   2.109  1.00  0.00    -0.266 OA
ATOM     40  H1  UNL     1       4.286  -0.270  -0.272  1.00  0.00     0.163 HD
BRANCH  38  41
HETATM   41  C7  UNL     1       6.406   1.057   0.567  1.00  0.00     0.109 A 
HETATM   42  C8  UNL     1       6.719   0.225  -0.481  1.00  0.00     0.088 A 
HETATM   43  S2  UNL     1       8.379   0.557  -0.732  1.00  0.00    -0.064 SA
HETATM   44  C9  UNL     1       8.578   1.722   0.494  1.00  0.00     0.142 A 
HETATM   45  N3  UNL     1       7.374   1.803   1.038  1.00  0.00    -0.332 N 
ATOM     46  H3  UNL     1       7.202   2.440   1.816  1.00  0.00     0.168 HD
BRANCH  44  47
HETATM   47  N2  UNL     1       9.663   2.393   0.833  1.00  0.00    -0.380 N 
ATOM     48  H22 UNL     1      10.591   2.331   0.414  1.00  0.00     0.158 HD
ATOM     49  H21 UNL     1       9.782   3.091   1.567  1.00  0.00     0.158 HD
ENDBRANCH  44  47
ENDBRANCH  38  41
ENDBRANCH   6  37
TORSDOF 13
