REMARK  13 active torsions:
REMARK  status: ('A' for Active; 'I' for Inactive)
REMARK    1  A    between atoms: C2_2  and  O1_3 
REMARK    2  A    between atoms: O1_3  and  C3_4 
REMARK    3  A    between atoms: C3_4  and  C4_6 
REMARK    4  A    between atoms: C4_6  and  N1_7 
REMARK    5  A    between atoms: C4_6  and  C23_48 
REMARK    6  A    between atoms: N1_7  and  N2_9 
REMARK    7  A    between atoms: N2_9  and  C5_11 
REMARK    8  A    between atoms: N7_26  and  C10_27 
REMARK    9  A    between atoms: C10_27  and  C11_28 
REMARK   10  A    between atoms: C11_28  and  C12_29 
REMARK   11  A    between atoms: C12_29  and  N8_30 
REMARK   12  A    between atoms: N8_30  and  C13_32 
REMARK   13  A    between atoms: C23_48  and  O5_50 
ROOT
HETATM    1  C5  UNL     1      -4.029  -0.491   1.876  1.00  0.00     0.166 A 
HETATM    2  N3  UNL     1      -4.220  -0.592   3.212  1.00  0.00    -0.173 N 
ATOM      3  H3  UNL     1      -5.119  -0.305   3.599  1.00  0.00     0.186 HD
HETATM    4  C6  UNL     1      -3.274  -1.056   4.053  1.00  0.00     0.679 A 
HETATM    5  N4  UNL     1      -3.519  -1.122   5.299  1.00  0.00    -0.234 N 
ATOM      6  H41 UNL     1      -2.803  -1.473   5.935  1.00  0.00     0.174 HD
ATOM      7  H42 UNL     1      -4.405  -0.843   5.720  1.00  0.00     0.174 HD
HETATM    8  N5  UNL     1      -2.096  -1.427   3.494  1.00  0.00    -0.174 N 
ATOM      9  H5  UNL     1      -1.363  -1.782   4.108  1.00  0.00     0.186 HD
HETATM   10  C7  UNL     1      -1.841  -1.354   2.183  1.00  0.00     0.156 A 
HETATM   11  C8  UNL     1      -2.823  -0.873   1.321  1.00  0.00     0.126 A 
HETATM   12  N6  UNL     1      -2.298  -0.932   0.104  1.00  0.00    -0.326 N 
ATOM     13  H6  UNL     1      -2.766  -0.647  -0.756  1.00  0.00     0.168 HD
HETATM   14  C9  UNL     1      -1.034  -1.434   0.186  1.00  0.00     0.183 A 
HETATM   15 CL1  UNL     1       0.002  -1.701  -1.195  1.00  0.00    -0.044 Cl
HETATM   16  N7  UNL     1      -0.729  -1.700   1.450  1.00  0.00    -0.307 N 
ENDROOT
BRANCH  16  17
HETATM   17  C10 UNL     1       0.435  -2.265   2.072  1.00  0.00     0.135 C 
BRANCH  17  18
HETATM   18  C11 UNL     1       1.457  -1.309   2.540  1.00  0.00     0.039 C 
BRANCH  18  19
HETATM   19  C12 UNL     1       2.148  -0.572   1.422  1.00  0.00     0.116 C 
BRANCH  19  20
HETATM   20  N8  UNL     1       3.098   0.343   2.034  1.00  0.00    -0.406 N 
ATOM     21  H8  UNL     1       3.026   0.633   3.009  1.00  0.00     0.154 HD
BRANCH  20  22
HETATM   22  C13 UNL     1       4.136   0.805   1.177  1.00  0.00     0.209 C 
HETATM   23  C14 UNL     1       5.055  -0.329   0.749  1.00  0.00     0.247 C 
HETATM   24  O3  UNL     1       5.403  -1.351   1.374  1.00  0.00    -0.271 OA
HETATM   25  N9  UNL     1       5.233   0.301  -0.455  1.00  0.00    -0.324 N 
HETATM   26  C15 UNL     1       6.174   0.442  -1.571  1.00  0.00     0.167 C 
HETATM   27  C22 UNL     1       3.920   0.957  -0.279  1.00  0.00     0.222 C 
HETATM   28  C16 UNL     1       7.187   1.491  -1.214  1.00  0.00    -0.020 A 
HETATM   29  C17 UNL     1       8.456   1.190  -1.593  1.00  0.00     0.036 A 
HETATM   30  C21 UNL     1       6.826   2.660  -0.545  1.00  0.00     0.027 A 
HETATM   31  C18 UNL     1       9.446   2.095  -1.299  1.00  0.00     0.058 A 
HETATM   32 CL2  UNL     1      11.139   1.819  -1.735  1.00  0.00    -0.082 Cl
HETATM   33  C19 UNL     1       9.153   3.288  -0.631  1.00  0.00     0.069 A 
HETATM   34  N10 UNL     1      10.203   4.202  -0.337  1.00  0.00    -0.101 NA
HETATM   35  C20 UNL     1       7.836   3.544  -0.267  1.00  0.00     0.048 A 
HETATM   36  S1  UNL     1       5.246   3.212   0.024  1.00  0.00    -0.023 SA
HETATM   37  N11 UNL     1       4.006   2.304  -0.826  1.00  0.00    -0.146 NA
ENDBRANCH  20  22
ENDBRANCH  19  20
ENDBRANCH  18  19
ENDBRANCH  17  18
ENDBRANCH  16  17
BRANCH   1  38
HETATM   38  N2  UNL     1      -4.973  -0.084   1.160  1.00  0.00    -0.282 N 
ATOM     39  H2  UNL     1      -5.816   0.131   1.693  1.00  0.00     0.188 HD
BRANCH  38  40
HETATM   40  N1  UNL     1      -5.116   0.132  -0.168  1.00  0.00    -0.288 N 
ATOM     41  H1  UNL     1      -4.380   0.611  -0.688  1.00  0.00     0.187 HD
BRANCH  40  42
HETATM   42  C4  UNL     1      -6.172  -0.263  -0.773  1.00  0.00     0.199 C 
BRANCH  42  43
HETATM   43  C3  UNL     1      -6.298  -0.015  -2.200  1.00  0.00     0.317 C 
HETATM   44  O2  UNL     1      -5.389   0.588  -2.855  1.00  0.00    -0.257 OA
BRANCH  43  45
HETATM   45  O1  UNL     1      -7.428  -0.434  -2.902  1.00  0.00    -0.317 OA
BRANCH  45  46
HETATM   46  C2  UNL     1      -7.479  -0.157  -4.287  1.00  0.00     0.175 C 
HETATM   47  C1  UNL     1      -8.774  -0.707  -4.830  1.00  0.00     0.034 C 
ENDBRANCH  45  46
ENDBRANCH  43  45
ENDBRANCH  42  43
BRANCH  42  48
HETATM   48  C23 UNL     1      -7.216  -0.957  -0.056  1.00  0.00     0.317 C 
HETATM   49  O4  UNL     1      -7.122  -1.204   1.162  1.00  0.00    -0.257 OA
BRANCH  48  50
HETATM   50  O5  UNL     1      -8.387  -1.391  -0.687  1.00  0.00    -0.321 OA
HETATM   51  C24 UNL     1      -9.385  -2.077   0.067  1.00  0.00     0.213 C 
ENDBRANCH  48  50
ENDBRANCH  42  48
ENDBRANCH  40  42
ENDBRANCH  38  40
ENDBRANCH   1  38
TORSDOF 13
