REMARK  11 active torsions:
REMARK  status: ('A' for Active; 'I' for Inactive)
REMARK    1  A    between atoms: C2_3  and  C3_4 
REMARK    2  A    between atoms: N4_10  and  O2_11 
REMARK    3  A    between atoms: C5_15  and  N6_16 
REMARK    4  A    between atoms: N6_16  and  C6_19 
REMARK    5  A    between atoms: C6_19  and  O3_20 
REMARK    6  A    between atoms: C6_19  and  C7_22 
REMARK    7  A    between atoms: C7_22  and  N7_23 
REMARK    8  A    between atoms: C7_22  and  C8_27 
REMARK    9  A    between atoms: C8_27  and  C9_28 
REMARK   10  A    between atoms: C12_31  and  O4_32 
REMARK   11  A    between atoms: C18_43  and  N10_44 
ROOT
HETATM    1  C1  UNL     1      -4.885  -1.173   0.141  1.00  0.00     0.159 C 
HETATM    2  N1  UNL     1      -3.524  -0.749   0.335  1.00  0.00    -0.321 N 
HETATM    3  C2  UNL     1      -2.814  -0.075  -0.682  1.00  0.00     0.142 A 
HETATM    4  N5  UNL     1      -1.638   0.293  -0.459  1.00  0.00    -0.343 N 
ATOM      5  H5  UNL     1      -1.183   0.776  -1.233  1.00  0.00     0.163 HD
HETATM    6  C5  UNL     1      -0.830   0.139   0.723  1.00  0.00     0.330 A 
HETATM    7  C15 UNL     1      -1.599  -0.557   1.790  1.00  0.00     0.079 A 
HETATM    8  C16 UNL     1      -2.917  -1.006   1.606  1.00  0.00     0.123 A 
HETATM    9  N8  UNL     1      -3.582  -1.643   2.585  1.00  0.00    -0.338 N 
ATOM     10  H8  UNL     1      -4.538  -1.954   2.411  1.00  0.00     0.168 HD
HETATM   11  C17 UNL     1      -3.029  -1.883   3.783  1.00  0.00     0.183 A 
HETATM   12  N9  UNL     1      -1.779  -1.466   3.985  1.00  0.00    -0.338 N 
ATOM     13  H9  UNL     1      -1.345  -1.640   4.891  1.00  0.00     0.168 HD
HETATM   14  C18 UNL     1      -1.050  -0.809   3.018  1.00  0.00     0.113 A 
ENDROOT
BRANCH   6  15
HETATM   15  N6  UNL     1       0.394  -0.579   0.405  1.00  0.00    -0.022 N 
ATOM     16  H62 UNL     1       1.021  -0.598   1.210  1.00  0.00     0.283 HD
ATOM     17  H61 UNL     1       0.212  -1.578   0.308  1.00  0.00     0.283 HD
BRANCH  15  18
HETATM   18  C6  UNL     1       1.074  -0.069  -0.759  1.00  0.00     0.352 C 
BRANCH  18  19
HETATM   19  O3  UNL     1       0.285  -0.233  -1.910  1.00  0.00    -0.368 OA
ATOM     20  H3  UNL     1       0.733   0.103  -2.677  1.00  0.00     0.212 HD
ENDBRANCH  18  19
BRANCH  18  21
HETATM   21  C7  UNL     1       1.537   1.359  -0.633  1.00  0.00     0.243 C 
BRANCH  21  22
HETATM   22  N7  UNL     1       2.281   1.726  -1.840  1.00  0.00    -0.071 N 
ATOM     23  H73 UNL     1       3.050   1.084  -2.033  1.00  0.00     0.274 HD
ATOM     24  H72 UNL     1       1.743   1.565  -2.692  1.00  0.00     0.274 HD
ATOM     25  H71 UNL     1       2.594   2.693  -1.755  1.00  0.00     0.274 HD
ENDBRANCH  21  22
BRANCH  21  26
HETATM   26  C8  UNL     1       2.540   1.574   0.489  1.00  0.00     0.075 C 
BRANCH  26  27
HETATM   27  C9  UNL     1       3.776   0.777   0.322  1.00  0.00    -0.056 A 
HETATM   28  C10 UNL     1       4.858   1.261  -0.423  1.00  0.00     0.010 A 
HETATM   29  C11 UNL     1       6.017   0.538  -0.579  1.00  0.00     0.037 A 
HETATM   30  C12 UNL     1       6.148  -0.695  -0.002  1.00  0.00     0.065 A 
HETATM   31  C13 UNL     1       5.115  -1.195   0.729  1.00  0.00     0.037 A 
HETATM   32  C14 UNL     1       3.939  -0.458   0.886  1.00  0.00     0.010 A 
BRANCH  30  33
HETATM   33  O4  UNL     1       7.331  -1.437  -0.160  1.00  0.00    -0.361 OA
ATOM     34  H4  UNL     1       7.422  -2.293   0.241  1.00  0.00     0.217 HD
ENDBRANCH  30  33
ENDBRANCH  26  27
ENDBRANCH  21  26
ENDBRANCH  18  21
ENDBRANCH  15  18
ENDBRANCH   6  15
BRANCH   3  35
HETATM   35  C3  UNL     1      -3.510   0.155  -1.962  1.00  0.00     0.176 A 
HETATM   36  C4  UNL     1      -3.801   1.410  -2.481  1.00  0.00     0.173 A 
HETATM   37  N2  UNL     1      -3.495   2.652  -1.859  1.00  0.00    -0.078 NA
HETATM   38  N3  UNL     1      -4.413   1.233  -3.653  1.00  0.00    -0.223 N 
HETATM   39  O1  UNL     1      -4.506  -0.042  -3.868  1.00  0.00    -0.126 OA
ATOM     40  H3  UNL     1      -4.749   1.971  -4.271  1.00  0.00     0.198 HD
HETATM   41  N4  UNL     1      -3.972  -0.708  -2.869  1.00  0.00    -0.095 N 
BRANCH  41  42
HETATM   42  O2  UNL     1      -3.884  -2.070  -2.758  1.00  0.00    -0.261 OA
ATOM     43  H2  UNL     1      -4.213  -2.684  -3.404  1.00  0.00     0.247 HD
ENDBRANCH  41  42
ENDBRANCH   3  35
BRANCH  14  44
HETATM   44  N10 UNL     1       0.130  -0.417   3.300  1.00  0.00    -0.385 N 
ATOM     45 2H10 UNL     1       0.670   0.069   2.584  1.00  0.00     0.157 HD
ATOM     46 1H10 UNL     1       0.539  -0.605   4.215  1.00  0.00     0.157 HD
ENDBRANCH  14  44
TORSDOF 11
