REMARK  8 active torsions:
REMARK  status: ('A' for Active; 'I' for Inactive)
REMARK    1  A    between atoms: C2_4  and  C3_5 
REMARK       I    between atoms: C3_5  and  N2_7 
REMARK    2  A    between atoms: N2_7  and  C4_9 
REMARK    3  A    between atoms: C4_9  and  C5_10 
REMARK    4  A    between atoms: C5_10  and  C6_11 
REMARK    5  A    between atoms: C6_11  and  O3_12 
REMARK    6  A    between atoms: O3_12  and  C7_13 
REMARK    7  A    between atoms: C7_13  and  C8_15 
REMARK    8  A    between atoms: C20_38  and  O6_39 
ROOT
HETATM    1  C8  UNL     1      -1.459   1.035   0.785  1.00  0.00     0.181 C 
HETATM    2  C9  UNL     1      -1.774   0.677  -0.676  1.00  0.00     0.037 C 
HETATM    3  C10 UNL     1      -2.059   1.932  -1.492  1.00  0.00     0.030 C 
HETATM    4  C11 UNL     1      -3.541   2.076  -1.761  1.00  0.00     0.232 C 
HETATM    5  N3  UNL     1      -4.057   0.976  -2.514  1.00  0.00    -0.074 N 
ATOM      6  H31 UNL     1      -3.561   0.117  -2.277  1.00  0.00     0.277 HD
ATOM      7  H32 UNL     1      -3.796   1.061  -3.496  1.00  0.00     0.277 HD
HETATM    8  C12 UNL     1      -5.487   0.790  -2.383  1.00  0.00     0.259 C 
HETATM    9  C13 UNL     1      -5.916   0.450  -0.973  1.00  0.00     0.259 C 
HETATM   10  N4  UNL     1      -6.720  -0.736  -0.958  1.00  0.00    -0.072 N 
ATOM     11  H41 UNL     1      -6.587  -1.269  -1.817  1.00  0.00     0.277 HD
ATOM     12  H42 UNL     1      -7.708  -0.500  -1.052  1.00  0.00     0.277 HD
HETATM   13  C14 UNL     1      -6.507  -1.576   0.199  1.00  0.00     0.251 C 
HETATM   14  C15 UNL     1      -5.077  -1.920   0.453  1.00  0.00     0.141 C 
HETATM   15  N5  UNL     1      -4.688  -1.545   1.775  1.00  0.00    -0.415 N 
ATOM     16  H5  UNL     1      -5.349  -1.503   2.551  1.00  0.00     0.153 HD
HETATM   17  C16 UNL     1      -3.285  -1.229   1.930  1.00  0.00     0.158 C 
HETATM   18  C17 UNL     1      -3.044   0.149   2.445  1.00  0.00     0.075 C 
HETATM   19  N6  UNL     1      -2.615   1.128   1.545  1.00  0.00    -0.387 N 
ATOM     20  H6  UNL     1      -3.189   1.965   1.440  1.00  0.00     0.159 HD
ENDROOT
BRANCH   1  21
HETATM   21  C7  UNL     1      -0.331   0.241   1.256  1.00  0.00     0.281 C 
HETATM   22  O4  UNL     1      -0.377  -0.352   2.351  1.00  0.00    -0.263 OA
BRANCH  21  23
HETATM   23  O3  UNL     1       0.828   0.112   0.515  1.00  0.00    -0.320 OA
BRANCH  23  24
HETATM   24  C6  UNL     1       1.968  -0.606   0.846  1.00  0.00     0.180 C 
BRANCH  24  25
HETATM   25  C5  UNL     1       2.615  -0.094   2.106  1.00  0.00     0.046 C 
BRANCH  25  26
HETATM   26  C4  UNL     1       3.861  -0.883   2.456  1.00  0.00     0.125 C 
BRANCH  26  27
HETATM   27  N2  UNL     1       4.882  -0.849   1.459  1.00  0.00    -0.355 N 
HETATM   28  C3  UNL     1       5.530   0.332   1.007  1.00  0.00     0.275 C 
HETATM   29  O2  UNL     1       5.188   1.425   1.517  1.00  0.00    -0.265 OA
ATOM     30  H2  UNL     1       5.167  -1.735   1.042  1.00  0.00     0.162 HD
BRANCH  28  31
HETATM   31  C2  UNL     1       6.562   0.277  -0.017  1.00  0.00     0.148 A 
HETATM   32  O1  UNL     1       6.884  -0.899  -0.541  1.00  0.00    -0.287 OA
HETATM   33  C1  UNL     1       7.804  -1.002  -1.464  1.00  0.00     0.195 A 
HETATM   34  N1  UNL     1       8.132  -2.259  -2.009  1.00  0.00    -0.071 NA
HETATM   35  C20 UNL     1       8.439   0.143  -1.884  1.00  0.00     0.165 A 
HETATM   36  C19 UNL     1       8.134   1.387  -1.365  1.00  0.00     0.211 A 
HETATM   37  C18 UNL     1       7.166   1.453  -0.401  1.00  0.00     0.101 A 
HETATM   38  O5  UNL     1       8.728   2.414  -1.766  1.00  0.00    -0.285 OA
BRANCH  35  39
HETATM   39  O6  UNL     1       9.434   0.120  -2.866  1.00  0.00    -0.354 OA
ATOM     40  H6  UNL     1       9.873   0.911  -3.156  1.00  0.00     0.218 HD
ENDBRANCH  35  39
ENDBRANCH  28  31
ENDBRANCH  26  27
ENDBRANCH  25  26
ENDBRANCH  24  25
ENDBRANCH  23  24
ENDBRANCH  21  23
ENDBRANCH   1  21
TORSDOF 8
