REMARK  12 active torsions:
REMARK  status: ('A' for Active; 'I' for Inactive)
REMARK    1  A    between atoms: C3_4  and  C4_5 
REMARK    2  A    between atoms: C4_5  and  O2_6 
REMARK    3  A    between atoms: C6_10  and  O3_11 
REMARK    4  A    between atoms: O3_11  and  C7_12 
REMARK    5  A    between atoms: C8_14  and  C9_15 
REMARK    6  A    between atoms: C9_15  and  O5_16 
REMARK    7  A    between atoms: C10_18  and  O6_19 
REMARK    8  A    between atoms: O6_19  and  N1_20 
REMARK    9  A    between atoms: N1_20  and  C11_22 
REMARK   10  A    between atoms: C11_22  and  N2_24 
REMARK   11  A    between atoms: N2_24  and  C12_26 
REMARK   12  A    between atoms: C13_30  and  O8_31 
ROOT
HETATM    1  C7  UNL     1      -0.379  -0.152   0.645  1.00  0.00     0.316 C 
HETATM    2  O4  UNL     1       0.284   0.926   1.122  1.00  0.00    -0.344 OA
HETATM    3  C8  UNL     1       1.629   0.941   1.063  1.00  0.00     0.206 C 
HETATM    4  C10 UNL     1       2.269   0.164  -0.032  1.00  0.00     0.323 C 
HETATM    5  O7  UNL     1       1.362  -0.472  -0.876  1.00  0.00    -0.322 OA
HETATM    6  C13 UNL     1       0.464  -1.154  -0.088  1.00  0.00     0.315 C 
ENDROOT
BRANCH   1   7
HETATM    7  O3  UNL     1      -1.378   0.280  -0.228  1.00  0.00    -0.348 OA
BRANCH   7   8
HETATM    8  C6  UNL     1      -2.649  -0.033   0.197  1.00  0.00     0.163 C 
HETATM    9  C2  UNL     1      -3.432  -0.867  -0.768  1.00  0.00     0.148 C 
HETATM   10  C1  UNL     1      -3.888  -2.142  -0.088  1.00  0.00     0.042 C 
HETATM   11  O1  UNL     1      -4.445  -0.208  -1.408  1.00  0.00    -0.366 OA
HETATM   12  C3  UNL     1      -5.615  -0.097  -0.663  1.00  0.00     0.206 C 
HETATM   13  S1  UNL     1      -5.116   0.744   0.892  1.00  0.00    -0.133 SA
HETATM   14  C5  UNL     1      -3.384   1.260   0.561  1.00  0.00     0.111 C 
BRANCH  12  15
HETATM   15  C4  UNL     1      -6.504   0.906  -1.401  1.00  0.00     0.207 C 
BRANCH  15  16
HETATM   16  O2  UNL     1      -5.755   2.105  -1.433  1.00  0.00    -0.398 OA
ATOM     17  H2  UNL     1      -6.307   2.728  -1.891  1.00  0.00     0.209 HD
ENDBRANCH  15  16
ENDBRANCH  12  15
ENDBRANCH   7   8
ENDBRANCH   1   7
BRANCH   6  18
HETATM   18  O8  UNL     1       1.047  -2.087   0.748  1.00  0.00    -0.367 OA
ATOM     19  H8  UNL     1       1.581  -2.721   0.284  1.00  0.00     0.212 HD
ENDBRANCH   6  18
BRANCH   3  20
HETATM   20  C9  UNL     1       2.081   2.405   0.992  1.00  0.00     0.201 C 
BRANCH  20  21
HETATM   21  O5  UNL     1       1.644   3.093   2.124  1.00  0.00    -0.398 OA
ATOM     22  H5  UNL     1       1.924   4.000   2.080  1.00  0.00     0.209 HD
ENDBRANCH  20  21
ENDBRANCH   3  20
BRANCH   4  23
HETATM   23  O6  UNL     1       3.157  -0.801   0.412  1.00  0.00    -0.243 OA
BRANCH  23  24
HETATM   24  N1  UNL     1       4.416  -0.609  -0.082  1.00  0.00    -0.238 N 
ATOM     25  H1  UNL     1       4.795   0.331  -0.201  1.00  0.00     0.197 HD
BRANCH  24  26
HETATM   26  C11 UNL     1       5.174  -1.740  -0.421  1.00  0.00     0.197 C 
HETATM   27  S2  UNL     1       4.441  -3.238  -0.179  1.00  0.00    -0.039 SA
BRANCH  26  28
HETATM   28  N2  UNL     1       6.464  -1.696  -0.932  1.00  0.00    -0.311 N 
ATOM     29  H2  UNL     1       6.881  -2.606  -1.128  1.00  0.00     0.170 HD
BRANCH  28  30
HETATM   30  C12 UNL     1       7.265  -0.620  -1.214  1.00  0.00     0.187 C 
HETATM   31  N3  UNL     1       6.892   0.726  -1.022  1.00  0.00    -0.070 NA
HETATM   32  S3  UNL     1       8.796  -0.936  -1.833  1.00  0.00    -0.044 SA
ENDBRANCH  28  30
ENDBRANCH  26  28
ENDBRANCH  24  26
ENDBRANCH  23  24
ENDBRANCH   4  23
TORSDOF 12
