REMARK  12 active torsions:
REMARK  status: ('A' for Active; 'I' for Inactive)
REMARK    1  A    between atoms: N1_1  and  C1_4 
REMARK    2  A    between atoms: C2_7  and  N3_8 
REMARK    3  A    between atoms: N3_8  and  C3_10 
REMARK    4  A    between atoms: C6_13  and  C7_14 
REMARK    5  A    between atoms: C7_14  and  C8_16 
REMARK    6  A    between atoms: C8_16  and  N4_17 
REMARK    7  A    between atoms: C11_25  and  N5_26 
REMARK    8  A    between atoms: N5_26  and  C12_28 
REMARK    9  A    between atoms: C12_28  and  O3_29 
REMARK   10  A    between atoms: C12_28  and  C13_31 
REMARK   11  A    between atoms: C14_34  and  C15_35 
REMARK   12  A    between atoms: C15_35  and  N7_36 
ROOT
HETATM    1  C1  UNL     1      -0.529  -1.785   2.144  1.00  0.00     0.679 A 
HETATM    2  N2  UNL     1      -1.473  -1.580   1.206  1.00  0.00    -0.176 N 
ATOM      3  H2  UNL     1      -2.378  -2.049   1.232  1.00  0.00     0.186 HD
HETATM    4  C2  UNL     1      -1.141  -0.715   0.233  1.00  0.00     0.138 A 
HETATM    5  C10 UNL     1       0.116  -0.085   0.226  1.00  0.00     0.097 A 
HETATM    6  S1  UNL     1       0.914   1.039  -0.784  1.00  0.00    -0.047 SA
HETATM    7  C11 UNL     1       2.384   1.149   0.080  1.00  0.00     0.149 A 
HETATM    8  N9  UNL     1       2.191   0.318   1.102  1.00  0.00    -0.321 N 
ATOM      9  H9  UNL     1       2.920   0.178   1.802  1.00  0.00     0.169 HD
HETATM   10  C16 UNL     1       1.051  -0.316   1.194  1.00  0.00     0.144 A 
HETATM   11  N10 UNL     1       0.664  -1.207   2.166  1.00  0.00    -0.175 N 
ATOM     12  H10 UNL     1       1.310  -1.429   2.923  1.00  0.00     0.186 HD
ENDROOT
BRANCH   7  13
HETATM   13  N5  UNL     1       3.451   1.871  -0.186  1.00  0.00    -0.338 N 
ATOM     14  H5  UNL     1       3.466   2.471  -1.010  1.00  0.00     0.164 HD
BRANCH  13  15
HETATM   15  C12 UNL     1       4.584   1.817   0.673  1.00  0.00     0.298 C 
BRANCH  15  16
HETATM   16  O3  UNL     1       5.255   3.058   0.550  1.00  0.00    -0.369 OA
ATOM     17  H3  UNL     1       6.011   3.022   1.124  1.00  0.00     0.212 HD
ENDBRANCH  15  16
BRANCH  15  18
HETATM   18  C13 UNL     1       5.518   0.716   0.336  1.00  0.00     0.197 A 
HETATM   19  N6  UNL     1       6.857   0.796   0.260  1.00  0.00    -0.322 N 
HETATM   20  C14 UNL     1       7.321  -0.422  -0.071  1.00  0.00     0.129 A 
ATOM     21  H6  UNL     1       7.420   1.630   0.424  1.00  0.00     0.169 HD
HETATM   22  N8  UNL     1       6.264  -1.219  -0.191  1.00  0.00    -0.245 N 
HETATM   23  O4  UNL     1       5.198  -0.504   0.061  1.00  0.00    -0.218 OA
ATOM     24  H8  UNL     1       6.281  -2.209  -0.435  1.00  0.00     0.196 HD
BRANCH  20  25
HETATM   25  C15 UNL     1       8.722  -0.862  -0.280  1.00  0.00     0.307 C 
BRANCH  25  26
HETATM   26  N7  UNL     1       9.667   0.218  -0.085  1.00  0.00    -0.073 N 
ATOM     27  H73 UNL     1       9.439   1.019  -0.674  1.00  0.00     0.274 HD
ATOM     28  H72 UNL     1       9.549   0.652   0.830  1.00  0.00     0.274 HD
ATOM     29  H71 UNL     1      10.630  -0.085  -0.229  1.00  0.00     0.274 HD
ENDBRANCH  25  26
ENDBRANCH  20  25
ENDBRANCH  15  18
ENDBRANCH  13  15
ENDBRANCH   7  13
BRANCH   4  30
HETATM   30  N3  UNL     1      -1.915  -0.405  -0.733  1.00  0.00    -0.367 N 
ATOM     31  H3  UNL     1      -1.577   0.262  -1.427  1.00  0.00     0.161 HD
BRANCH  30  32
HETATM   32  C3  UNL     1      -3.247  -0.948  -0.898  1.00  0.00     0.115 C 
HETATM   33  C4  UNL     1      -3.847  -0.598  -2.226  1.00  0.00     0.031 C 
HETATM   34  C5  UNL     1      -4.479   0.780  -1.985  1.00  0.00     0.051 C 
HETATM   35  C6  UNL     1      -5.031   0.578  -0.590  1.00  0.00     0.151 A 
HETATM   36  O2  UNL     1      -4.178   0.952   0.425  1.00  0.00    -0.359 OA
HETATM   37  C9  UNL     1      -4.223  -0.402   0.095  1.00  0.00     0.188 A 
BRANCH  35  38
HETATM   38  C7  UNL     1      -6.466   0.790  -0.336  1.00  0.00     0.189 C 
HETATM   39  O1  UNL     1      -6.860   1.261   0.695  1.00  0.00    -0.293 OA
BRANCH  38  40
HETATM   40  C8  UNL     1      -7.499   0.420  -1.367  1.00  0.00     0.311 C 
BRANCH  40  41
HETATM   41  N4  UNL     1      -8.827   0.703  -0.912  1.00  0.00    -0.073 N 
ATOM     42  H43 UNL     1      -9.017   0.253  -0.017  1.00  0.00     0.274 HD
ATOM     43  H42 UNL     1      -8.922   1.677  -0.624  1.00  0.00     0.274 HD
ATOM     44  H41 UNL     1      -9.527   0.452  -1.610  1.00  0.00     0.274 HD
ENDBRANCH  40  41
ENDBRANCH  38  40
ENDBRANCH  35  38
ENDBRANCH  30  32
ENDBRANCH   4  30
BRANCH   1  45
HETATM   45  N1  UNL     1      -0.805  -2.622   3.117  1.00  0.00    -0.234 N 
ATOM     46  H12 UNL     1      -1.723  -3.067   3.100  1.00  0.00     0.174 HD
ATOM     47  H11 UNL     1      -0.090  -2.777   3.828  1.00  0.00     0.174 HD
ENDBRANCH   1  45
TORSDOF 12
