REMARK  10 active torsions:
REMARK  status: ('A' for Active; 'I' for Inactive)
REMARK    1  A    between atoms: C2_2  and  C3_3 
REMARK       I    between atoms: C3_3  and  N1_5 
REMARK    2  A    between atoms: C4_6  and  C5_7 
REMARK    3  A    between atoms: C5_7  and  S1_8 
REMARK    4  A    between atoms: S1_8  and  C6_11 
REMARK    5  A    between atoms: C6_11  and  C7_12 
REMARK       I    between atoms: C7_12  and  N2_14 
REMARK    6  A    between atoms: N2_14  and  C8_16 
REMARK    7  A    between atoms: C10_24  and  C11_25 
REMARK    8  A    between atoms: C11_25  and  O5_26 
REMARK    9  A    between atoms: C11_25  and  O6_28 
REMARK   10  A    between atoms: C13_36  and  N8_37 
ROOT
HETATM    1  C7  UNL     1       0.329  -0.197  -1.099  1.00  0.00     0.237 C 
HETATM    2  O4  UNL     1      -0.396  -1.243  -1.238  1.00  0.00    -0.272 OA
HETATM    3  N2  UNL     1       1.325  -0.201  -0.126  1.00  0.00    -0.311 N 
ATOM      4  H2  UNL     1       1.222   0.466   0.638  1.00  0.00     0.170 HD
ENDROOT
BRANCH   1   5
HETATM    5  C6  UNL     1       0.128   0.985  -1.933  1.00  0.00     0.243 C 
BRANCH   5   6
HETATM    6  S1  UNL     1      -0.247   2.477  -1.131  1.00  0.00     0.159 S 
HETATM    7  O2  UNL     1       0.880   2.947  -0.228  1.00  0.00    -0.227 OA
HETATM    8  O3  UNL     1      -0.371   3.573  -2.182  1.00  0.00    -0.227 OA
BRANCH   6   9
HETATM    9  C5  UNL     1      -1.715   2.530  -0.174  1.00  0.00     0.219 C 
BRANCH   9  10
HETATM   10  C4  UNL     1      -2.941   2.208  -0.973  1.00  0.00     0.137 A 
HETATM   11  N1  UNL     1      -3.718   1.139  -0.987  1.00  0.00    -0.101 N 
HETATM   12  C3  UNL     1      -3.738   0.015  -0.094  1.00  0.00     0.244 C 
HETATM   13  C13 UNL     1      -4.648   1.297  -1.981  1.00  0.00     0.701 A 
HETATM   14  O1  UNL     1      -4.541  -0.938  -0.395  1.00  0.00    -0.272 OA
HETATM   15  N7  UNL     1      -4.392   2.507  -2.552  1.00  0.00    -0.130 N 
HETATM   16  N6  UNL     1      -3.386   3.050  -1.962  1.00  0.00    -0.273 N 
ATOM     17  H7  UNL     1      -4.915   2.918  -3.325  1.00  0.00     0.205 HD
ATOM     18  H6  UNL     1      -2.984   3.959  -2.192  1.00  0.00     0.189 HD
BRANCH  12  19
HETATM   19  C2  UNL     1      -2.960  -0.163   1.113  1.00  0.00     0.100 C 
HETATM   20  C1  UNL     1      -3.353  -1.467   1.839  1.00  0.00     0.014 C 
ENDBRANCH  12  19
BRANCH  13  21
HETATM   21  N8  UNL     1      -5.595   0.521  -2.358  1.00  0.00    -0.233 N 
ATOM     22  H82 UNL     1      -5.787  -0.385  -1.930  1.00  0.00     0.174 HD
ATOM     23  H81 UNL     1      -6.287   0.639  -3.098  1.00  0.00     0.174 HD
ENDBRANCH  13  21
ENDBRANCH   9  10
ENDBRANCH   6   9
ENDBRANCH   5   6
ENDBRANCH   1   5
BRANCH   3  24
HETATM   24  C8  UNL     1       2.376  -0.971  -0.093  1.00  0.00     0.135 A 
HETATM   25  N3  UNL     1       2.566  -1.855  -1.054  1.00  0.00    -0.321 N 
HETATM   26  C9  UNL     1       3.576  -2.728  -1.171  1.00  0.00     0.144 A 
ATOM     27  H3  UNL     1       1.863  -1.876  -1.793  1.00  0.00     0.169 HD
HETATM   28  N4  UNL     1       3.694  -3.571  -2.155  1.00  0.00    -0.380 N 
HETATM   29  S2  UNL     1       4.726  -2.654   0.087  1.00  0.00    -0.052 SA
ATOM     30  H42 UNL     1       3.006  -3.615  -2.907  1.00  0.00     0.158 HD
ATOM     31  H41 UNL     1       4.463  -4.235  -2.244  1.00  0.00     0.158 HD
HETATM   32  C10 UNL     1       4.354  -1.474   1.249  1.00  0.00     0.068 A 
HETATM   33  C12 UNL     1       3.198  -0.762   1.009  1.00  0.00     0.108 A 
HETATM   34  N5  UNL     1       2.844   0.253   1.961  1.00  0.00    -0.097 NA
BRANCH  32  35
HETATM   35  C11 UNL     1       5.180  -1.179   2.467  1.00  0.00     0.297 C 
BRANCH  35  36
HETATM   36  O5  UNL     1       5.306   0.185   2.588  1.00  0.00    -0.367 OA
ATOM     37  H5  UNL     1       5.829   0.372   3.359  1.00  0.00     0.213 HD
ENDBRANCH  35  36
BRANCH  35  38
HETATM   38  O6  UNL     1       4.503  -1.720   3.573  1.00  0.00    -0.367 OA
ATOM     39  H6  UNL     1       5.026  -1.533   4.344  1.00  0.00     0.213 HD
ENDBRANCH  35  38
ENDBRANCH  32  35
ENDBRANCH   3  24
TORSDOF 10
