REMARK  5 active torsions:
REMARK  status: ('A' for Active; 'I' for Inactive)
REMARK    1  A    between atoms: C2_2  and  O1_3 
REMARK    2  A    between atoms: O1_3  and  C3_4 
REMARK    3  A    between atoms: C3_4  and  O3_6 
REMARK    4  A    between atoms: O3_6  and  N1_7 
REMARK       I    between atoms: N1_7  and  C4_9 
REMARK       I    between atoms: C4_9  and  N3_13 
REMARK    5  A    between atoms: N3_13  and  C5_15 
ROOT
HETATM    1  N1  UNL     1       0.126   0.455   1.674  1.00  0.00    -0.087 N 
ATOM      2  H1  UNL     1       0.122   0.868   2.607  1.00  0.00     0.214 HD
HETATM    3  C4  UNL     1       1.245   0.735   0.900  1.00  0.00     0.692 C 
HETATM    4  N2  UNL     1       1.320   1.808   0.218  1.00  0.00    -0.233 N 
ATOM      5  H21 UNL     1       2.142   2.014  -0.350  1.00  0.00     0.174 HD
ATOM      6  H22 UNL     1       0.544   2.470   0.243  1.00  0.00     0.174 HD
HETATM    7  N3  UNL     1       2.319  -0.181   0.865  1.00  0.00    -0.225 N 
ATOM      8  H3  UNL     1       2.882  -0.287   1.709  1.00  0.00     0.177 HD
ENDROOT
BRANCH   1   9
HETATM    9  O3  UNL     1      -0.952  -0.284   1.364  1.00  0.00    -0.160 OA
BRANCH   9  10
HETATM   10  C3  UNL     1      -1.906   0.196   0.491  1.00  0.00     0.433 C 
HETATM   11  O2  UNL     1      -1.699   1.339   0.025  1.00  0.00    -0.227 OA
BRANCH  10  12
HETATM   12  O1  UNL     1      -3.036  -0.482   0.115  1.00  0.00    -0.267 OA
BRANCH  12  13
HETATM   13  C2  UNL     1      -3.995  -0.009  -0.757  1.00  0.00     0.137 C 
HETATM   14  C1  UNL     1      -5.035  -0.755  -1.043  1.00  0.00     0.038 C 
ENDBRANCH  12  13
ENDBRANCH  10  12
ENDBRANCH   9  10
ENDBRANCH   1   9
BRANCH   7  15
HETATM   15  C5  UNL     1       2.672  -0.977  -0.286  1.00  0.00     0.134 C 
HETATM   16  C6  UNL     1       3.221  -0.174  -1.437  1.00  0.00     0.027 C 
ENDBRANCH   7  15
TORSDOF 5
