REMARK  4 active torsions:
REMARK  status: ('A' for Active; 'I' for Inactive)
REMARK    1  A    between atoms: C2_2  and  C3_3 
REMARK    2  A    between atoms: C3_3  and  C4_4 
REMARK    3  A    between atoms: C5_8  and  N2_9 
REMARK    4  A    between atoms: N2_9  and  N3_10 
ROOT
HETATM    1  C4  UNL     1      -0.136   0.163  -0.163  1.00  0.00     0.205 C 
HETATM    2  N1  UNL     1       1.295   0.259  -0.137  1.00  0.00    -0.041 N 
ATOM      3  H11 UNL     1       1.653   0.585   0.761  1.00  0.00     0.280 HD
ATOM      4  H12 UNL     1       1.650   1.024  -0.711  1.00  0.00     0.280 HD
HETATM    5  C5  UNL     1       1.832  -1.024  -0.521  1.00  0.00     0.360 C 
HETATM    6  S1  UNL     1       0.889  -2.082   0.634  1.00  0.00    -0.112 SA
HETATM    7  C6  UNL     1      -0.530  -0.929   0.833  1.00  0.00     0.077 C 
HETATM    8  C7  UNL     1      -1.753  -1.666   0.342  1.00  0.00     0.023 C 
ENDROOT
BRANCH   5   9
HETATM    9  N2  UNL     1       3.245  -1.069  -0.227  1.00  0.00    -0.104 NA
BRANCH   9  10
HETATM   10  N3  UNL     1       3.387  -0.877   1.151  1.00  0.00    -0.346 N 
ATOM     11  H32 UNL     1       2.624  -0.733   1.813  1.00  0.00     0.172 HD
ATOM     12  H31 UNL     1       4.385  -0.909   1.359  1.00  0.00     0.172 HD
ENDBRANCH   9  10
ENDBRANCH   5   9
BRANCH   1  13
HETATM   13  C3  UNL     1      -0.676   1.485   0.386  1.00  0.00     0.060 C 
BRANCH  13  14
HETATM   14  C2  UNL     1      -2.155   1.508   0.409  1.00  0.00    -0.035 C 
HETATM   15  C1  UNL     1      -2.855   2.403  -0.261  1.00  0.00     0.007 C 
ENDBRANCH  13  14
ENDBRANCH   1  13
TORSDOF 4
