REMARK  4 active torsions:
REMARK  status: ('A' for Active; 'I' for Inactive)
REMARK    1  A    between atoms: C1_2  and  O2_7 
REMARK    2  A    between atoms: N2_3  and  O1_5 
REMARK    3  A    between atoms: O2_7  and  C2_8 
REMARK    4  A    between atoms: C2_8  and  C3_9 
ROOT
HETATM    1  C2  UNL     1       0.180  -0.885  -0.680  1.00  0.00     0.211 C 
ENDROOT
BRANCH   1   2
HETATM    2  O2  UNL     1       1.322  -1.169   0.060  1.00  0.00    -0.321 OA
BRANCH   2   3
HETATM    3  C1  UNL     1       2.415  -0.339   0.196  1.00  0.00     0.251 C 
HETATM    4  N1  UNL     1       3.388  -0.461   1.226  1.00  0.00    -0.054 NA
HETATM    5  N2  UNL     1       2.557   0.603  -0.670  1.00  0.00    -0.235 N 
ATOM      6  H2  UNL     1       1.870   0.705  -1.417  1.00  0.00     0.197 HD
BRANCH   5   7
HETATM    7  O1  UNL     1       3.618   1.472  -0.605  1.00  0.00    -0.287 OA
ATOM      8  H1  UNL     1       3.723   2.167  -1.244  1.00  0.00     0.244 HD
ENDBRANCH   5   7
ENDBRANCH   2   3
ENDBRANCH   1   2
BRANCH   1   9
HETATM    9  C3  UNL     1      -0.560   0.345  -0.232  1.00  0.00     0.210 C 
HETATM   10  C4  UNL     1      -1.813   0.444  -1.105  1.00  0.00     0.037 C 
HETATM   11  C5  UNL     1      -2.845  -0.197  -0.179  1.00  0.00     0.029 C 
HETATM   12  C6  UNL     1      -2.428   0.414   1.156  1.00  0.00     0.233 C 
HETATM   13  N3  UNL     1      -1.005   0.253   1.123  1.00  0.00    -0.069 N 
ATOM     14  H32 UNL     1      -0.700  -0.609   1.575  1.00  0.00     0.277 HD
ATOM     15  H31 UNL     1      -0.525   0.912   1.736  1.00  0.00     0.277 HD
ENDBRANCH   1   9
TORSDOF 4
