REMARK  4 active torsions:
REMARK  status: ('A' for Active; 'I' for Inactive)
REMARK    1  A    between atoms: O1_2  and  N1_3 
REMARK    2  A    between atoms: N1_3  and  C2_5 
REMARK    3  A    between atoms: C2_5  and  O2_9 
REMARK    4  A    between atoms: O2_9  and  C3_10 
ROOT
HETATM    1  O2  UNL     1       0.413   0.752  -0.653  1.00  0.00    -0.316 OA
ENDROOT
BRANCH   1   2
HETATM    2  C2  UNL     1       1.544   0.863   0.134  1.00  0.00     0.237 C 
HETATM    3  N2  UNL     1       1.375   1.193   1.366  1.00  0.00    -0.364 N 
ATOM      4  H22 UNL     1       2.210   1.275   1.947  1.00  0.00     0.159 HD
ATOM      5  H21 UNL     1       0.454   1.370   1.768  1.00  0.00     0.159 HD
BRANCH   2   6
HETATM    6  N1  UNL     1       2.823   0.617  -0.424  1.00  0.00    -0.231 N 
ATOM      7  H1  UNL     1       2.907   0.351  -1.405  1.00  0.00     0.198 HD
BRANCH   6   8
HETATM    8  O1  UNL     1       3.917   0.732   0.329  1.00  0.00    -0.282 OA
HETATM    9  C1  UNL     1       4.678  -0.412   0.397  1.00  0.00     0.237 C 
ENDBRANCH   6   8
ENDBRANCH   2   6
ENDBRANCH   1   2
BRANCH   1  10
HETATM   10  C3  UNL     1      -0.906   0.669  -0.087  1.00  0.00     0.135 C 
HETATM   11  C4  UNL     1      -1.031  -0.518   0.796  1.00  0.00     0.060 C 
HETATM   12  C5  UNL     1      -2.406  -1.102   0.875  1.00  0.00     0.235 C 
HETATM   13  N3  UNL     1      -2.916  -1.269  -0.458  1.00  0.00    -0.075 N 
HETATM   14  C6  UNL     1      -3.165   0.054  -0.999  1.00  0.00     0.235 C 
ATOM     15  H32 UNL     1      -2.305  -1.832  -1.050  1.00  0.00     0.277 HD
ATOM     16  H31 UNL     1      -3.735  -1.875  -0.497  1.00  0.00     0.277 HD
HETATM   17  C7  UNL     1      -1.857   0.721  -1.228  1.00  0.00     0.060 C 
ENDBRANCH   1  10
TORSDOF 4
