REMARK  5 active torsions:
REMARK  status: ('A' for Active; 'I' for Inactive)
REMARK    1  A    between atoms: N1_7  and  O1_8 
REMARK    2  A    between atoms: O1_8  and  C7_9 
REMARK    3  A    between atoms: C7_9  and  N2_10 
REMARK    4  A    between atoms: C7_9  and  N3_14 
REMARK    5  A    between atoms: N3_14  and  N4_15 
ROOT
HETATM    1  C7  UNL     1       2.025  -0.248  -0.084  1.00  0.00     0.453 C 
ENDROOT
BRANCH   1   2
HETATM    2  O1  UNL     1       0.876   0.214  -0.676  1.00  0.00    -0.251 OA
BRANCH   2   3
HETATM    3  N1  UNL     1      -0.232   0.039   0.109  1.00  0.00    -0.189 NA
HETATM    4  C2  UNL     1      -1.256   0.943  -0.374  1.00  0.00     0.082 C 
HETATM    5  C1  UNL     1      -0.813   2.390  -0.296  1.00  0.00     0.028 C 
HETATM    6  C3  UNL     1      -2.478   0.806   0.501  1.00  0.00     0.022 C 
HETATM    7  C4  UNL     1      -3.010  -0.609   0.349  1.00  0.00     0.003 C 
HETATM    8  C5  UNL     1      -1.931  -1.625   0.683  1.00  0.00     0.017 C 
HETATM    9  C6  UNL     1      -0.698  -1.315  -0.127  1.00  0.00     0.121 C 
ENDBRANCH   2   3
ENDBRANCH   1   2
BRANCH   1  10
HETATM   10  N2  UNL     1       2.715  -1.247  -0.858  1.00  0.00    -0.035 N 
ATOM     11  H23 UNL     1       2.091  -2.021  -1.084  1.00  0.00     0.279 HD
ATOM     12  H22 UNL     1       2.908  -0.903  -1.799  1.00  0.00     0.279 HD
ATOM     13  H21 UNL     1       3.569  -1.590  -0.418  1.00  0.00     0.279 HD
ENDBRANCH   1  10
BRANCH   1  14
HETATM   14  N3  UNL     1       2.969   0.870   0.079  1.00  0.00    -0.086 NA
BRANCH  14  15
HETATM   15  N4  UNL     1       4.152   0.454   0.674  1.00  0.00    -0.344 N 
ATOM     16  H42 UNL     1       4.330  -0.510   0.957  1.00  0.00     0.172 HD
ATOM     17  H41 UNL     1       4.806   1.229   0.787  1.00  0.00     0.172 HD
ENDBRANCH  14  15
ENDBRANCH   1  14
TORSDOF 5
