REMARK  13 active torsions:
REMARK  status: ('A' for Active; 'I' for Inactive)
REMARK    1  A    between atoms: C2_2  and  C3_3 
REMARK    2  A    between atoms: C2_2  and  N12_41 
REMARK    3  A    between atoms: C3_3  and  N1_4 
REMARK    4  A    between atoms: C4_5  and  N2_6 
REMARK    5  A    between atoms: N2_6  and  C5_8 
REMARK    6  A    between atoms: C9_18  and  N6_19 
REMARK    7  A    between atoms: C11_24  and  O1_26 
REMARK    8  A    between atoms: C14_31  and  N9_32 
REMARK    9  A    between atoms: N12_41  and  C17_43 
REMARK   10  A    between atoms: C17_43  and  C18_44 
REMARK   11  A    between atoms: C18_44  and  O2_45 
REMARK   12  A    between atoms: C18_44  and  C19_47 
REMARK   13  A    between atoms: C19_47  and  O3_48 
ROOT
HETATM    1  N1  UNL     1       1.389   1.043  -2.060  1.00  0.00    -0.161 N 
HETATM    2  C4  UNL     1       0.240   0.395  -1.832  1.00  0.00     0.683 A 
HETATM    3  N8  UNL     1      -0.115  -0.189  -3.000  1.00  0.00    -0.184 N 
ATOM      4  H8  UNL     1      -0.953  -0.755  -3.129  1.00  0.00     0.184 HD
HETATM    5  C13 UNL     1       0.774   0.072  -3.962  1.00  0.00     0.137 A 
HETATM    6  C14 UNL     1       0.920  -0.246  -5.290  1.00  0.00     0.131 A 
HETATM    7  N10 UNL     1       1.983   0.203  -5.995  1.00  0.00    -0.337 N 
ATOM      8  H10 UNL     1       2.075  -0.043  -6.981  1.00  0.00     0.168 HD
HETATM    9  C15 UNL     1       2.935   0.982  -5.402  1.00  0.00     0.183 A 
HETATM   10  N11 UNL     1       2.792   1.291  -4.110  1.00  0.00    -0.336 N 
ATOM     11  H11 UNL     1       3.499   1.873  -3.660  1.00  0.00     0.168 HD
HETATM   12  C16 UNL     1       1.746   0.859  -3.385  1.00  0.00     0.156 A 
ENDROOT
BRANCH   2  13
HETATM   13  N2  UNL     1      -0.465   0.366  -0.603  1.00  0.00    -0.211 N 
ATOM     14  H2  UNL     1      -0.103   0.867   0.208  1.00  0.00     0.178 HD
BRANCH  13  15
HETATM   15  C5  UNL     1      -1.700  -0.377  -0.506  1.00  0.00     0.204 C 
HETATM   16  C6  UNL     1      -2.172  -0.444   0.908  1.00  0.00     0.142 A 
HETATM   17  N3  UNL     1      -1.549  -0.484   2.086  1.00  0.00    -0.177 N 
HETATM   18  N7  UNL     1      -3.509  -0.477   0.918  1.00  0.00    -0.166 N 
HETATM   19  C7  UNL     1      -2.189  -0.556   3.287  1.00  0.00     0.693 A 
ATOM     20  H3  UNL     1      -0.529  -0.459   2.089  1.00  0.00     0.185 HD
HETATM   21  N4  UNL     1      -1.512  -0.589   4.371  1.00  0.00    -0.234 N 
HETATM   22  N5  UNL     1      -3.528  -0.589   3.279  1.00  0.00    -0.019 N 
ATOM     23  H42 UNL     1      -0.492  -0.564   4.377  1.00  0.00     0.174 HD
ATOM     24  H41 UNL     1      -1.991  -0.643   5.270  1.00  0.00     0.174 HD
HETATM   25  C8  UNL     1      -4.329  -0.667   4.461  1.00  0.00     0.195 C 
HETATM   26  C9  UNL     1      -4.181  -0.548   2.072  1.00  0.00     0.696 A 
HETATM   27  C10 UNL     1      -4.028  -0.419  -0.439  1.00  0.00     0.189 C 
HETATM   28  C11 UNL     1      -2.884   0.351  -1.131  1.00  0.00     0.099 C 
HETATM   29  C12 UNL     1      -2.977   1.774  -0.633  1.00  0.00     0.050 C 
BRANCH  26  30
HETATM   30  N6  UNL     1      -5.464  -0.577   2.062  1.00  0.00    -0.234 N 
ATOM     31  H62 UNL     1      -5.977  -0.631   2.942  1.00  0.00     0.174 HD
ATOM     32  H61 UNL     1      -5.949  -0.547   1.165  1.00  0.00     0.174 HD
ENDBRANCH  26  30
BRANCH  28  33
HETATM   33  O1  UNL     1      -2.972   0.238  -2.490  1.00  0.00    -0.386 OA
ATOM     34  H1  UNL     1      -3.710   0.692  -2.880  1.00  0.00     0.210 HD
ENDBRANCH  28  33
ENDBRANCH  13  15
ENDBRANCH   2  13
BRANCH   1  35
HETATM   35  C3  UNL     1       2.248   1.795  -1.166  1.00  0.00     0.200 C 
BRANCH  35  36
HETATM   36  C2  UNL     1       3.405   1.062  -0.620  1.00  0.00    -0.003 C 
HETATM   37  C1  UNL     1       4.318   1.868   0.284  1.00  0.00     0.064 C 
BRANCH  36  38
HETATM   38  N12 UNL     1       3.242  -0.230  -0.075  1.00  0.00    -0.393 N 
ATOM     39  H12 UNL     1       3.486  -1.062  -0.613  1.00  0.00     0.159 HD
BRANCH  38  40
HETATM   40  C17 UNL     1       2.728  -0.336   1.246  1.00  0.00     0.153 C 
BRANCH  40  41
HETATM   41  C18 UNL     1       2.568  -1.817   1.577  1.00  0.00     0.159 C 
BRANCH  41  42
HETATM   42  O2  UNL     1       3.772  -2.482   1.494  1.00  0.00    -0.392 OA
ATOM     43  H2  UNL     1       3.672  -3.404   1.700  1.00  0.00     0.210 HD
ENDBRANCH  41  42
BRANCH  41  44
HETATM   44  C19 UNL     1       2.104  -1.925   3.027  1.00  0.00     0.197 C 
BRANCH  44  45
HETATM   45  O3  UNL     1       1.931  -3.238   3.411  1.00  0.00    -0.398 OA
ATOM     46  H3  UNL     1       1.642  -3.305   4.314  1.00  0.00     0.209 HD
ENDBRANCH  44  45
ENDBRANCH  41  44
ENDBRANCH  40  41
ENDBRANCH  38  40
ENDBRANCH  36  38
ENDBRANCH  35  36
ENDBRANCH   1  35
BRANCH   6  47
HETATM   47  N9  UNL     1       0.040  -0.978  -5.870  1.00  0.00    -0.383 N 
ATOM     48  H92 UNL     1      -0.762  -1.317  -5.338  1.00  0.00     0.157 HD
ATOM     49  H91 UNL     1       0.148  -1.214  -6.856  1.00  0.00     0.157 HD
ENDBRANCH   6  47
TORSDOF 13
