REMARK  13 active torsions:
REMARK  status: ('A' for Active; 'I' for Inactive)
REMARK    1  A    between atoms: N7_23  and  C8_25 
REMARK    2  A    between atoms: C8_25  and  O2_26 
REMARK    3  A    between atoms: C8_25  and  C9_28 
REMARK    4  A    between atoms: C11_30  and  O3_31 
REMARK    5  A    between atoms: N8_33  and  C12_34 
REMARK    6  A    between atoms: C12_34  and  C13_35 
REMARK    7  A    between atoms: C13_35  and  N9_36 
REMARK    8  A    between atoms: N9_36  and  C14_39 
REMARK    9  A    between atoms: C14_39  and  C15_40 
REMARK   10  A    between atoms: C15_40  and  N10_41 
REMARK   11  A    between atoms: N10_41  and  C16_44 
REMARK   12  A    between atoms: C16_44  and  N11_45 
REMARK   13  A    between atoms: C16_44  and  O4_49 
ROOT
HETATM    1  C8  UNL     1      -1.122  -1.750   2.122  1.00  0.00     0.287 C 
ENDROOT
BRANCH   1   2
HETATM    2  N7  UNL     1      -1.760  -1.865   0.879  1.00  0.00    -0.194 N 
HETATM    3  C7  UNL     1      -2.730  -1.110   0.382  1.00  0.00     0.677 C 
HETATM    4  N6  UNL     1      -3.183  -0.061   1.190  1.00  0.00    -0.225 N 
HETATM    5  N13 UNL     1      -3.153  -1.494  -0.900  1.00  0.00    -0.180 N 
HETATM    6  C6  UNL     1      -3.326   1.357   0.805  1.00  0.00     0.165 C 
ATOM      7  H6  UNL     1      -3.442  -0.302   2.147  1.00  0.00     0.177 HD
HETATM    8  C5  UNL     1      -4.658   1.516   0.125  1.00  0.00     0.253 C 
HETATM    9  N5  UNL     1      -5.255   2.796   0.126  1.00  0.00    -0.065 N 
HETATM   10  C4  UNL     1      -6.694   2.660   0.002  1.00  0.00     0.336 C 
ATOM     11  H52 UNL     1      -4.862   3.405  -0.592  1.00  0.00     0.277 HD
ATOM     12  H51 UNL     1      -4.989   3.344   0.944  1.00  0.00     0.277 HD
HETATM   13  C3  UNL     1      -7.096   1.784  -1.164  1.00  0.00     0.262 C 
HETATM   14  N4  UNL     1      -6.844   0.444  -1.235  1.00  0.00    -0.254 N 
HETATM   15  O1  UNL     1      -7.702   2.436  -2.083  1.00  0.00    -0.270 OA
HETATM   16  N3  UNL     1      -7.379  -0.615  -0.918  1.00  0.00    -0.244 N 
ATOM     17  H4  UNL     1      -5.945   0.271  -1.685  1.00  0.00     0.191 HD
HETATM   18  N2  UNL     1      -6.863  -1.891  -1.122  1.00  0.00    -0.315 N 
ATOM     19  H3  UNL     1      -8.289  -0.553  -0.461  1.00  0.00     0.208 HD
HETATM   20  C2  UNL     1      -5.581  -2.336  -0.629  1.00  0.00     0.217 C 
ATOM     21  H2  UNL     1      -7.426  -2.554  -1.654  1.00  0.00     0.182 HD
HETATM   22  C1  UNL     1      -4.429  -1.828  -1.404  1.00  0.00     0.110 C 
HETATM   23  N1  UNL     1      -4.697  -1.701  -2.686  1.00  0.00    -0.387 N 
ATOM     24  H12 UNL     1      -5.619  -1.942  -3.050  1.00  0.00     0.157 HD
ATOM     25  H11 UNL     1      -3.902  -1.351  -3.221  1.00  0.00     0.157 HD
ATOM     26  H13 UNL     1      -2.405  -1.540  -1.591  1.00  0.00     0.185 HD
ATOM     27  H7  UNL     1      -1.437  -2.626   0.281  1.00  0.00     0.180 HD
ENDBRANCH   1   2
BRANCH   1  28
HETATM   28  O2  UNL     1      -0.873  -3.042   2.617  1.00  0.00    -0.370 OA
ATOM     29  H2  UNL     1      -0.441  -2.964   3.459  1.00  0.00     0.212 HD
ENDBRANCH   1  28
BRANCH   1  30
HETATM   30  C9  UNL     1       0.200  -1.063   1.949  1.00  0.00     0.079 A 
HETATM   31  C10 UNL     1       0.454   0.055   1.188  1.00  0.00     0.088 A 
HETATM   32  C11 UNL     1       1.799   0.376   1.302  1.00  0.00     0.159 A 
HETATM   33  N8  UNL     1       2.345  -0.530   2.114  1.00  0.00    -0.269 N 
HETATM   34  N12 UNL     1       1.376  -1.389   2.497  1.00  0.00    -0.296 N 
ATOM     35  H12 UNL     1       1.522  -2.182   3.122  1.00  0.00     0.187 HD
BRANCH  32  36
HETATM   36  O3  UNL     1       2.331   1.463   0.639  1.00  0.00    -0.345 OA
ATOM     37  H3  UNL     1       3.252   1.683   0.717  1.00  0.00     0.219 HD
ENDBRANCH  32  36
BRANCH  33  38
HETATM   38  C12 UNL     1       3.732  -0.590   2.504  1.00  0.00     0.179 C 
BRANCH  38  39
HETATM   39  C13 UNL     1       4.599  -1.452   1.660  1.00  0.00     0.254 C 
BRANCH  39  40
HETATM   40  N9  UNL     1       4.754  -1.109   0.295  1.00  0.00    -0.072 N 
ATOM     41  H92 UNL     1       5.139  -1.895  -0.228  1.00  0.00     0.277 HD
ATOM     42  H91 UNL     1       3.843  -1.028  -0.157  1.00  0.00     0.277 HD
BRANCH  40  43
HETATM   43  C14 UNL     1       5.541   0.085   0.065  1.00  0.00     0.260 C 
BRANCH  43  44
HETATM   44  C15 UNL     1       5.571   0.355  -1.424  1.00  0.00     0.265 C 
BRANCH  44  45
HETATM   45  N10 UNL     1       6.344   1.541  -1.727  1.00  0.00    -0.022 N 
ATOM     46 2H10 UNL     1       6.177   1.850  -2.685  1.00  0.00     0.282 HD
ATOM     47 1H10 UNL     1       5.981   2.351  -1.225  1.00  0.00     0.282 HD
BRANCH  45  48
HETATM   48  C16 UNL     1       7.757   1.370  -1.478  1.00  0.00     0.519 C 
BRANCH  48  49
HETATM   49  N11 UNL     1       8.303   0.302  -2.293  1.00  0.00    -0.027 N 
ATOM     50 3H11 UNL     1       7.790  -0.570  -2.163  1.00  0.00     0.279 HD
ATOM     51 2H11 UNL     1       8.111   0.449  -3.284  1.00  0.00     0.279 HD
ATOM     52 1H11 UNL     1       9.300   0.181  -2.117  1.00  0.00     0.279 HD
ENDBRANCH  48  49
BRANCH  48  53
HETATM   53  O4  UNL     1       8.405   2.551  -1.815  1.00  0.00    -0.349 OA
ATOM     54  H4  UNL     1       9.334   2.439  -1.651  1.00  0.00     0.213 HD
ENDBRANCH  48  53
ENDBRANCH  45  48
ENDBRANCH  44  45
ENDBRANCH  43  44
ENDBRANCH  40  43
ENDBRANCH  39  40
ENDBRANCH  38  39
ENDBRANCH  33  38
ENDBRANCH   1  30
TORSDOF 13
