REMARK  15 active torsions:
REMARK  status: ('A' for Active; 'I' for Inactive)
REMARK       I    between atoms: N1_1  and  C1_5 
REMARK       I    between atoms: C1_5  and  N2_6 
REMARK       I    between atoms: C1_5  and  N3_10 
REMARK    1  A    between atoms: N3_10  and  C2_12 
REMARK    2  A    between atoms: C4_14  and  C5_15 
REMARK    3  A    between atoms: C5_15  and  O1_16 
REMARK    4  A    between atoms: C5_15  and  N4_18 
REMARK    5  A    between atoms: N4_18  and  C6_21 
REMARK    6  A    between atoms: C6_21  and  C7_22 
REMARK    7  A    between atoms: C6_21  and  C8_25 
REMARK    8  A    between atoms: C7_22  and  O2_23 
REMARK    9  A    between atoms: C8_25  and  O3_26 
REMARK   10  A    between atoms: C9_30  and  N6_31 
REMARK   11  A    between atoms: C13_37  and  C14_38 
REMARK   12  A    between atoms: C14_38  and  O4_39 
REMARK   13  A    between atoms: C14_38  and  O5_41 
REMARK   14  A    between atoms: C17_46  and  O6_47 
REMARK   15  A    between atoms: C18_49  and  O7_50 
ROOT
HETATM    1  C2  UNL     1      -0.343   2.877  -0.119  1.00  0.00     0.069 C 
HETATM    2  C3  UNL     1      -1.343   1.979   0.312  1.00  0.00     0.061 C 
HETATM    3  C4  UNL     1      -1.403   0.610   0.231  1.00  0.00     0.069 C 
HETATM    4  N5  UNL     1      -0.351  -0.224   0.137  1.00  0.00    -0.339 N 
ATOM      5  H5  UNL     1      -0.417  -1.090   0.672  1.00  0.00     0.167 HD
HETATM    6  C9  UNL     1       0.802  -0.052  -0.592  1.00  0.00     0.152 C 
HETATM    7  C17 UNL     1       1.317   1.191  -0.917  1.00  0.00     0.146 C 
HETATM    8  C18 UNL     1       0.910   2.462  -0.556  1.00  0.00     0.129 C 
ENDROOT
BRANCH   6   9
HETATM    9  N6  UNL     1       1.417  -1.203  -0.979  1.00  0.00    -0.265 N 
HETATM   10  C10 UNL     1       1.250  -2.243  -2.005  1.00  0.00     0.195 A 
HETATM   11  N7  UNL     1       2.173  -3.303  -2.104  1.00  0.00    -0.330 N 
HETATM   12  C11 UNL     1       3.246  -3.338  -1.205  1.00  0.00     0.163 A 
ATOM     13  H7  UNL     1       2.062  -4.027  -2.813  1.00  0.00     0.169 HD
HETATM   14  C12 UNL     1       4.349  -3.384  -0.289  1.00  0.00     0.132 A 
HETATM   15  N8  UNL     1       2.901  -2.367  -0.680  1.00  0.00    -0.373 NA
HETATM   16  C13 UNL     1       4.485  -2.340   0.714  1.00  0.00    -0.013 A 
HETATM   17  C15 UNL     1       3.510  -1.268   0.780  1.00  0.00     0.073 A 
HETATM   18  C16 UNL     1       2.547  -1.393  -0.159  1.00  0.00     0.190 A 
BRANCH  16  19
HETATM   19  C14 UNL     1       5.564  -2.350   1.682  1.00  0.00     0.285 C 
BRANCH  19  20
HETATM   20  O4  UNL     1       5.676  -3.620   2.268  1.00  0.00    -0.367 OA
ATOM     21  H4  UNL     1       6.383  -3.627   2.902  1.00  0.00     0.213 HD
ENDBRANCH  19  20
BRANCH  19  22
HETATM   22  O5  UNL     1       5.373  -1.380   2.642  1.00  0.00    -0.367 OA
ATOM     23  H5  UNL     1       6.080  -1.387   3.276  1.00  0.00     0.213 HD
ENDBRANCH  19  22
ENDBRANCH  16  19
ENDBRANCH   6   9
BRANCH   7  24
HETATM   24  O6  UNL     1       2.426   1.113  -1.746  1.00  0.00    -0.355 OA
ATOM     25  H6  UNL     1       2.779   1.966  -1.969  1.00  0.00     0.218 HD
ENDBRANCH   7  24
BRANCH   3  26
HETATM   26  C5  UNL     1      -2.796   0.075   0.258  1.00  0.00     0.370 C 
BRANCH  26  27
HETATM   27  O1  UNL     1      -3.428   0.655   1.365  1.00  0.00    -0.365 OA
ATOM     28  H1  UNL     1      -4.315   0.314   1.382  1.00  0.00     0.212 HD
ENDBRANCH  26  27
BRANCH  26  29
HETATM   29  N4  UNL     1      -2.879  -1.336   0.356  1.00  0.00    -0.035 N 
ATOM     30  H42 UNL     1      -2.205  -1.790  -0.261  1.00  0.00     0.281 HD
ATOM     31  H41 UNL     1      -2.524  -1.666   1.253  1.00  0.00     0.281 HD
BRANCH  29  32
HETATM   32  C6  UNL     1      -4.204  -1.811   0.116  1.00  0.00     0.236 C 
BRANCH  32  33
HETATM   33  C7  UNL     1      -5.270  -1.388   1.064  1.00  0.00     0.199 C 
BRANCH  33  34
HETATM   34  O2  UNL     1      -6.472  -2.017   0.620  1.00  0.00    -0.399 OA
ATOM     35  H2  UNL     1      -7.153  -1.747   1.225  1.00  0.00     0.209 HD
ENDBRANCH  33  34
ENDBRANCH  32  33
BRANCH  32  36
HETATM   36  C8  UNL     1      -4.143  -3.327   0.023  1.00  0.00     0.199 C 
BRANCH  36  37
HETATM   37  O3  UNL     1      -3.665  -3.877   1.189  1.00  0.00    -0.399 OA
ATOM     38  H3  UNL     1      -3.627  -4.824   1.131  1.00  0.00     0.209 HD
ENDBRANCH  36  37
ENDBRANCH  32  36
ENDBRANCH  29  32
ENDBRANCH  26  29
ENDBRANCH   3  26
BRANCH   8  39
HETATM   39  O7  UNL     1       1.816   3.473  -0.623  1.00  0.00    -0.356 OA
ATOM     40  H7  UNL     1       2.672   3.189  -0.922  1.00  0.00     0.218 HD
ENDBRANCH   8  39
BRANCH   1  41
HETATM   41  N3  UNL     1      -0.612   4.082  -0.085  1.00  0.00    -0.339 N 
HETATM   42  C1  UNL     1      -0.066   5.324  -0.363  1.00  0.00     0.480 C 
HETATM   43  N1  UNL     1      -1.091   6.370  -0.574  1.00  0.00    -0.033 N 
HETATM   44  N2  UNL     1       0.654   5.791   0.837  1.00  0.00    -0.033 N 
ATOM     45  H13 UNL     1      -1.686   6.549   0.235  1.00  0.00     0.278 HD
ATOM     46  H12 UNL     1      -0.721   7.318  -0.644  1.00  0.00     0.278 HD
ATOM     47  H11 UNL     1      -1.589   6.047  -1.404  1.00  0.00     0.278 HD
ATOM     48  H23 UNL     1       1.024   6.739   0.767  1.00  0.00     0.278 HD
ATOM     49  H22 UNL     1       0.059   5.970   1.646  1.00  0.00     0.278 HD
ATOM     50  H21 UNL     1       1.361   5.070   0.982  1.00  0.00     0.278 HD
ATOM     51  H3  UNL     1      -1.561   4.204   0.269  1.00  0.00     0.163 HD
ENDBRANCH   1  41
TORSDOF 15
