REMARK  12 active torsions:
REMARK  status: ('A' for Active; 'I' for Inactive)
REMARK       I    between atoms: C2_2  and  N1_4 
REMARK    1  A    between atoms: N1_4  and  C3_6 
REMARK    2  A    between atoms: C3_6  and  C4_7 
REMARK    3  A    between atoms: C3_6  and  C15_40 
REMARK    4  A    between atoms: C4_7  and  N2_8 
REMARK    5  A    between atoms: C5_9  and  N3_10 
REMARK    6  A    between atoms: C6_15  and  C7_16 
REMARK    7  A    between atoms: C7_16  and  C8_17 
REMARK    8  A    between atoms: C10_20  and  N5_21 
REMARK    9  A    between atoms: C13_29  and  N9_30 
REMARK       I    between atoms: N9_30  and  C14_31 
REMARK       I    between atoms: C14_31  and  N10_32 
REMARK       I    between atoms: C14_31  and  N11_36 
REMARK   10  A    between atoms: C15_40  and  C16_42 
REMARK   11  A    between atoms: C16_42  and  O3_43 
REMARK   12  A    between atoms: C16_42  and  O4_45 
ROOT
HETATM    1  C8  UNL     1      -4.433   0.863  -1.362  1.00  0.00     0.042 A 
HETATM    2  C9  UNL     1      -4.387  -0.143  -2.290  1.00  0.00     0.080 A 
HETATM    3  S1  UNL     1      -5.952  -0.804  -2.199  1.00  0.00    -0.063 SA
HETATM    4  C10 UNL     1      -6.585   0.221  -1.000  1.00  0.00     0.158 A 
HETATM    5  N6  UNL     1      -5.572   1.036  -0.708  1.00  0.00    -0.231 N 
HETATM    6  C11 UNL     1      -5.779   2.062   0.284  1.00  0.00     0.191 C 
HETATM    7  N7  UNL     1      -5.945   2.885   1.111  1.00  0.00    -0.171 NA
ENDROOT
BRANCH   1   8
HETATM    8  C7  UNL     1      -3.243   1.769  -1.119  1.00  0.00     0.118 C 
BRANCH   8   9
HETATM    9  C6  UNL     1      -1.993   1.042  -0.907  1.00  0.00     0.061 A 
HETATM   10  N4  UNL     1      -0.985   1.196  -1.823  1.00  0.00    -0.193 N 
HETATM   11  C5  UNL     1       0.201   0.633  -1.660  1.00  0.00     0.680 A 
ATOM     12  H4  UNL     1      -1.154   1.761  -2.655  1.00  0.00     0.184 HD
HETATM   13  N2  UNL     1       0.546  -0.145  -0.595  1.00  0.00    -0.152 N 
HETATM   14  C13 UNL     1      -0.411  -0.356   0.368  1.00  0.00     0.220 A 
HETATM   15  C12 UNL     1      -1.676   0.271   0.157  1.00  0.00     0.128 A 
HETATM   16  N8  UNL     1      -2.673   0.047   1.149  1.00  0.00    -0.095 NA
BRANCH  11  17
HETATM   17  N3  UNL     1       1.146   0.803  -2.564  1.00  0.00    -0.234 N 
ATOM     18  H32 UNL     1       2.060   0.369  -2.438  1.00  0.00     0.174 HD
ATOM     19  H31 UNL     1       0.888   1.385  -3.361  1.00  0.00     0.174 HD
ENDBRANCH  11  17
BRANCH  13  20
HETATM   20  C4  UNL     1       1.833  -0.740  -0.539  1.00  0.00     0.183 C 
BRANCH  20  21
HETATM   21  C3  UNL     1       3.009   0.046  -0.159  1.00  0.00     0.178 C 
BRANCH  21  22
HETATM   22  N1  UNL     1       4.164  -0.927  -0.235  1.00  0.00    -0.348 N 
HETATM   23  C2  UNL     1       5.180  -0.786  -1.183  1.00  0.00     0.214 C 
HETATM   24  C1  UNL     1       6.314  -1.729  -1.251  1.00  0.00     0.117 C 
HETATM   25  O1  UNL     1       5.128   0.180  -2.004  1.00  0.00    -0.274 OA
ATOM     26  H1  UNL     1       4.202  -1.706   0.423  1.00  0.00     0.163 HD
ENDBRANCH  21  22
BRANCH  21  27
HETATM   27  C15 UNL     1       3.191   0.696   1.108  1.00  0.00     0.205 C 
HETATM   28  O2  UNL     1       3.747   0.139   2.083  1.00  0.00    -0.290 OA
BRANCH  27  29
HETATM   29  C16 UNL     1       2.761   2.086   1.392  1.00  0.00     0.327 C 
BRANCH  29  30
HETATM   30  O3  UNL     1       3.151   2.506   2.695  1.00  0.00    -0.365 OA
ATOM     31  H3  UNL     1       2.875   3.397   2.877  1.00  0.00     0.213 HD
ENDBRANCH  29  30
BRANCH  29  32
HETATM   32  O4  UNL     1       1.451   2.386   1.258  1.00  0.00    -0.365 OA
ATOM     33  H4  UNL     1       1.175   3.277   1.440  1.00  0.00     0.213 HD
ENDBRANCH  29  32
ENDBRANCH  27  29
ENDBRANCH  21  27
ENDBRANCH  20  21
ENDBRANCH  13  20
BRANCH  14  34
HETATM   34  N9  UNL     1      -0.265  -1.089   1.308  1.00  0.00    -0.369 NA
HETATM   35  C14 UNL     1      -0.094  -1.902   2.343  1.00  0.00     0.556 C 
HETATM   36  N10 UNL     1       1.114  -1.723   3.192  1.00  0.00    -0.021 N 
HETATM   37  N11 UNL     1      -0.050  -3.355   2.018  1.00  0.00    -0.021 N 
ATOM     38 3H10 UNL     1       1.944  -1.760   2.600  1.00  0.00     0.280 HD
ATOM     39 2H10 UNL     1       1.150  -0.758   3.519  1.00  0.00     0.280 HD
ATOM     40 1H10 UNL     1       1.245  -2.348   3.987  1.00  0.00     0.280 HD
ATOM     41 3H11 UNL     1      -0.887  -3.622   1.499  1.00  0.00     0.280 HD
ATOM     42 2H11 UNL     1       0.665  -3.533   1.313  1.00  0.00     0.280 HD
ATOM     43 1H11 UNL     1       0.081  -3.980   2.813  1.00  0.00     0.280 HD
ENDBRANCH  14  34
ENDBRANCH   8   9
ENDBRANCH   1   8
BRANCH   4  44
HETATM   44  N5  UNL     1      -7.801   0.234  -0.478  1.00  0.00    -0.379 N 
ATOM     45  H52 UNL     1      -8.576  -0.390  -0.702  1.00  0.00     0.158 HD
ATOM     46  H51 UNL     1      -8.181   0.849   0.242  1.00  0.00     0.158 HD
ENDBRANCH   4  44
TORSDOF 12
