REMARK  2 active torsions:
REMARK  status: ('A' for Active; 'I' for Inactive)
REMARK    1  A    between atoms: N1_2  and  C2_4 
REMARK    2  A    between atoms: C2_4  and  C3_5 
ROOT
HETATM    1  C3  UNL     1       3.249  -0.019  -0.533  1.00  0.00     0.001 A 
HETATM    2  C4  UNL     1       2.872   1.303  -0.293  1.00  0.00     0.013 A 
HETATM    3  C5  UNL     1       1.557   1.609   0.060  1.00  0.00     0.016 A 
HETATM    4  C6  UNL     1       0.701   0.554   0.159  1.00  0.00     0.011 A 
HETATM    5  C7  UNL     1       1.109  -0.766  -0.089  1.00  0.00     0.120 A 
HETATM    6  C8  UNL     1       2.399  -1.078  -0.446  1.00  0.00     0.158 A 
HETATM    7  F1  UNL     1       2.726  -2.359  -0.660  1.00  0.00    -0.203 F 
HETATM    8  O1  UNL     1       0.086  -1.686   0.061  1.00  0.00    -0.332 OA
HETATM    9  C9  UNL     1      -1.216  -1.376  -0.396  1.00  0.00     0.086 C 
HETATM   10  C10 UNL     1      -1.994  -2.660  -0.009  1.00  0.00     0.051 C 
HETATM   11  C11 UNL     1      -1.136  -1.208  -1.868  1.00  0.00     0.051 C 
HETATM   12  C12 UNL     1      -1.724  -0.232   0.430  1.00  0.00    -0.027 C 
HETATM   13  C13 UNL     1      -0.670   0.749   0.652  1.00  0.00    -0.021 C 
HETATM   14  C14 UNL     1      -0.952   1.861   1.319  1.00  0.00    -0.014 C 
HETATM   15  C15 UNL     1      -2.370   2.006   1.816  1.00  0.00     0.029 C 
HETATM   16  C16 UNL     1      -3.259   1.667   0.693  1.00  0.00     0.017 C 
HETATM   17  C17 UNL     1      -3.076   0.257   0.160  1.00  0.00    -0.020 C 
HETATM   18  C18 UNL     1      -4.149  -0.586   0.888  1.00  0.00     0.019 C 
HETATM   19  C19 UNL     1      -3.565   0.351  -1.258  1.00  0.00     0.019 C 
ENDROOT
BRANCH   1  20
HETATM   20  C2  UNL     1       4.696  -0.202  -0.924  1.00  0.00     0.155 C 
BRANCH  20  21
HETATM   21  N1  UNL     1       5.353   0.048   0.391  1.00  0.00    -0.421 N 
HETATM   22  C1  UNL     1       6.750   0.348   0.345  1.00  0.00     0.140 C 
ATOM     23  H1  UNL     1       4.837   0.007   1.270  1.00  0.00     0.153 HD
ENDBRANCH  20  21
ENDBRANCH   1  20
TORSDOF 2
