REMARK  2 active torsions:
REMARK  status: ('A' for Active; 'I' for Inactive)
REMARK    1  A    between atoms: C5_6  and  C6_7 
REMARK       I    between atoms: C6_7  and  N1_9 
REMARK    2  A    between atoms: N1_9  and  C7_11 
ROOT
HETATM    1  C7  UNL     1       0.461  -0.607   0.106  1.00  0.00     0.084 C 
HETATM    2  C8  UNL     1      -0.105  -1.123   1.382  1.00  0.00     0.025 C 
HETATM    3  C9  UNL     1      -1.516  -0.666   1.648  1.00  0.00     0.003 C 
HETATM    4  C10 UNL     1      -2.498  -1.127   0.632  1.00  0.00     0.010 C 
HETATM    5  C11 UNL     1      -2.738  -0.160  -0.488  1.00  0.00    -0.038 C 
HETATM    6  C12 UNL     1      -3.837  -0.743  -1.351  1.00  0.00     0.012 C 
HETATM    7  C13 UNL     1      -4.777   0.374  -1.688  1.00  0.00     0.038 C 
HETATM    8  C14 UNL     1      -4.041   1.635  -1.303  1.00  0.00     0.171 C 
HETATM    9  F1  UNL     1      -4.880   2.677  -1.010  1.00  0.00    -0.249 F 
HETATM   10  C15 UNL     1      -3.279   1.155  -0.061  1.00  0.00     0.046 C 
HETATM   11  C16 UNL     1      -1.489  -0.043  -1.319  1.00  0.00     0.011 C 
HETATM   12  C17 UNL     1      -0.333   0.497  -0.525  1.00  0.00     0.026 C 
ENDROOT
BRANCH   1  13
HETATM   13  N1  UNL     1       1.851  -0.157   0.349  1.00  0.00    -0.351 N 
HETATM   14  C6  UNL     1       2.886  -0.797  -0.319  1.00  0.00     0.276 C 
HETATM   15  O2  UNL     1       2.566  -1.753  -1.118  1.00  0.00    -0.265 OA
ATOM     16  H1  UNL     1       2.044   0.609   0.995  1.00  0.00     0.163 HD
BRANCH  14  17
HETATM   17  C5  UNL     1       4.308  -0.506  -0.218  1.00  0.00     0.148 A 
HETATM   18  C2  UNL     1       5.002   0.419   0.515  1.00  0.00    -0.021 A 
HETATM   19  C1  UNL     1       4.428   1.417   1.447  1.00  0.00     0.051 C 
HETATM   20  C3  UNL     1       6.363   0.289   0.256  1.00  0.00     0.034 A 
HETATM   21  C4  UNL     1       6.440  -0.734  -0.645  1.00  0.00     0.143 A 
HETATM   22  O1  UNL     1       5.252  -1.174  -0.902  1.00  0.00    -0.317 OA
ENDBRANCH  14  17
ENDBRANCH   1  13
TORSDOF 2
