REMARK  12 active torsions:
REMARK  status: ('A' for Active; 'I' for Inactive)
REMARK       I    between atoms: N1_2  and  C2_4 
REMARK    1  A    between atoms: C2_4  and  C3_6 
REMARK    2  A    between atoms: C4_12  and  C5_13 
REMARK    3  A    between atoms: C5_13  and  N4_14 
REMARK    4  A    between atoms: C5_13  and  C6_18 
REMARK    5  A    between atoms: C6_18  and  N5_19 
REMARK    6  A    between atoms: N5_19  and  C7_20 
REMARK    7  A    between atoms: N5_19  and  C10_35 
REMARK    8  A    between atoms: C8_23  and  N7_24 
REMARK    9  A    between atoms: C9_29  and  N9_30 
REMARK   10  A    between atoms: C11_38  and  C12_39 
REMARK   11  A    between atoms: C13_47  and  N16_48 
REMARK   12  A    between atoms: C14_53  and  O3_54 
ROOT
HETATM    1  N5  UNL     1      -0.721   0.568  -0.717  1.00  0.00    -0.160 N 
ENDROOT
BRANCH   1   2
HETATM    2  C6  UNL     1       0.487   0.303  -1.442  1.00  0.00     0.189 C 
BRANCH   2   3
HETATM    3  C5  UNL     1       1.715   0.096  -0.605  1.00  0.00     0.256 C 
BRANCH   3   4
HETATM    4  C4  UNL     1       2.903  -0.188  -1.453  1.00  0.00     0.100 A 
HETATM    5  C3  UNL     1       4.149  -0.614  -1.158  1.00  0.00     0.150 A 
HETATM    6  N2  UNL     1       4.806  -0.668  -2.354  1.00  0.00    -0.234 N 
HETATM    7  O2  UNL     1       4.027  -0.303  -3.324  1.00  0.00    -0.156 OA
ATOM      8  H2  UNL     1       5.778  -0.956  -2.469  1.00  0.00     0.197 HD
HETATM    9  N3  UNL     1       2.876  -0.010  -2.801  1.00  0.00    -0.241 N 
ATOM     10  H3  UNL     1       2.063   0.310  -3.328  1.00  0.00     0.196 HD
BRANCH   5  11
HETATM   11  C2  UNL     1       4.669  -0.944   0.144  1.00  0.00     0.271 C 
HETATM   12  N1  UNL     1       6.017  -1.320   0.270  1.00  0.00    -0.360 N 
HETATM   13  C1  UNL     1       6.534  -1.648   1.580  1.00  0.00     0.149 C 
ATOM     14  H1  UNL     1       6.622  -1.361  -0.550  1.00  0.00     0.162 HD
HETATM   15  O1  UNL     1       3.956  -0.903   1.147  1.00  0.00    -0.266 OA
ENDBRANCH   5  11
ENDBRANCH   3   4
BRANCH   3  16
HETATM   16  N4  UNL     1       1.897   1.308   0.171  1.00  0.00    -0.068 N 
ATOM     17  H43 UNL     1       2.752   1.272   0.726  1.00  0.00     0.275 HD
ATOM     18  H42 UNL     1       2.129   2.102  -0.425  1.00  0.00     0.275 HD
ATOM     19  H41 UNL     1       1.082   1.503   0.753  1.00  0.00     0.275 HD
ENDBRANCH   3  16
ENDBRANCH   2   3
ENDBRANCH   1   2
BRANCH   1  20
HETATM   20  C7  UNL     1      -0.872   1.676   0.160  1.00  0.00     0.715 A 
HETATM   21  N6  UNL     1      -0.914   1.542   1.507  1.00  0.00    -0.021 N 
HETATM   22  C8  UNL     1      -1.054   2.581   2.344  1.00  0.00     0.705 A 
ATOM     23  H6  UNL     1      -0.835   0.606   1.904  1.00  0.00     0.203 HD
HETATM   24  N8  UNL     1      -1.158   3.816   1.832  1.00  0.00    -0.022 N 
HETATM   25  C9  UNL     1      -1.120   3.998   0.499  1.00  0.00     0.705 A 
ATOM     26  H8  UNL     1      -1.266   4.618   2.453  1.00  0.00     0.203 HD
HETATM   27  N10 UNL     1      -0.979   2.937  -0.318  1.00  0.00    -0.021 N 
ATOM     28  H10 UNL     1      -0.952   3.088  -1.326  1.00  0.00     0.203 HD
BRANCH  22  29
HETATM   29  N7  UNL     1      -1.096   2.429   3.634  1.00  0.00    -0.234 N 
ATOM     30  H72 UNL     1      -1.017   1.490   4.023  1.00  0.00     0.174 HD
ATOM     31  H71 UNL     1      -1.202   3.219   4.270  1.00  0.00     0.174 HD
ENDBRANCH  22  29
BRANCH  25  32
HETATM   32  N9  UNL     1      -1.220   5.181  -0.028  1.00  0.00    -0.234 N 
ATOM     33  H92 UNL     1      -1.327   5.985   0.591  1.00  0.00     0.174 HD
ATOM     34  H91 UNL     1      -1.191   5.319  -1.038  1.00  0.00     0.174 HD
ENDBRANCH  25  32
ENDBRANCH   1  20
BRANCH   1  35
HETATM   35  C10 UNL     1      -1.872  -0.299  -0.843  1.00  0.00     0.175 A 
HETATM   36  N11 UNL     1      -2.405  -0.908   0.234  1.00  0.00    -0.332 N 
HETATM   37  C11 UNL     1      -3.478  -1.709   0.115  1.00  0.00     0.125 A 
ATOM     38  H11 UNL     1      -1.988  -0.759   1.153  1.00  0.00     0.168 HD
HETATM   39  C13 UNL     1      -4.008  -1.881  -1.149  1.00  0.00     0.132 A 
HETATM   40  N17 UNL     1      -3.471  -1.268  -2.227  1.00  0.00    -0.319 N 
HETATM   41  C14 UNL     1      -2.394  -0.465  -2.103  1.00  0.00     0.187 A 
ATOM     42  H17 UNL     1      -3.886  -1.414  -3.147  1.00  0.00     0.169 HD
BRANCH  37  43
HETATM   43  C12 UNL     1      -4.079  -2.381   1.265  1.00  0.00     0.165 A 
HETATM   44  N12 UNL     1      -3.646  -2.281   2.534  1.00  0.00    -0.265 N 
HETATM   45  N13 UNL     1      -4.430  -3.020   3.316  1.00  0.00    -0.005 NA
ATOM     46  H12 UNL     1      -2.847  -1.729   2.847  1.00  0.00     0.186 HD
HETATM   47  N14 UNL     1      -5.363  -3.591   2.548  1.00  0.00    -0.225 N 
HETATM   48  N15 UNL     1      -5.135  -3.193   1.313  1.00  0.00    -0.270 N 
ATOM     49  H14 UNL     1      -6.108  -4.215   2.858  1.00  0.00     0.205 HD
ATOM     50  H15 UNL     1      -5.691  -3.469   0.504  1.00  0.00     0.190 HD
ENDBRANCH  37  43
BRANCH  39  51
HETATM   51  N16 UNL     1      -5.032  -2.644  -1.275  1.00  0.00    -0.383 N 
ATOM     52 2H16 UNL     1      -5.437  -3.107  -0.461  1.00  0.00     0.157 HD
ATOM     53 1H16 UNL     1      -5.423  -2.771  -2.208  1.00  0.00     0.157 HD
ENDBRANCH  39  51
BRANCH  41  54
HETATM   54  O3  UNL     1      -1.832   0.170  -3.197  1.00  0.00    -0.343 OA
ATOM     55  H3  UNL     1      -2.193   0.055  -4.068  1.00  0.00     0.219 HD
ENDBRANCH  41  54
ENDBRANCH   1  35
TORSDOF 12
