REMARK  16 active torsions:
REMARK  status: ('A' for Active; 'I' for Inactive)
REMARK       I    between atoms: C2_2  and  N1_4 
REMARK    1  A    between atoms: N1_4  and  C3_6 
REMARK    2  A    between atoms: C3_6  and  C4_7 
REMARK    3  A    between atoms: C3_6  and  C5_10 
REMARK    4  A    between atoms: C3_6  and  C10_30 
REMARK    5  A    between atoms: C4_7  and  O2_8 
REMARK    6  A    between atoms: C5_10  and  N2_11 
REMARK    7  A    between atoms: C7_17  and  N5_18 
REMARK    8  A    between atoms: C8_23  and  N7_24 
REMARK    9  A    between atoms: C10_30  and  O3_31 
REMARK   10  A    between atoms: C10_30  and  C11_33 
REMARK   11  A    between atoms: C12_36  and  C13_37 
REMARK   12  A    between atoms: C13_37  and  O4_39 
REMARK   13  A    between atoms: C13_37  and  C15_41 
REMARK   14  A    between atoms: C15_41  and  O5_42 
REMARK   15  A    between atoms: N10_44  and  C16_45 
REMARK   16  A    between atoms: N11_46  and  O6_48 
ROOT
HETATM    1  C3  UNL     1       1.081   0.356   0.836  1.00  0.00     0.104 C 
ENDROOT
BRANCH   1   2
HETATM    2  N1  UNL     1       0.654   0.527   2.206  1.00  0.00    -0.345 N 
HETATM    3  C2  UNL     1       1.313  -0.049   3.316  1.00  0.00     0.214 C 
HETATM    4  C1  UNL     1       0.760   0.220   4.711  1.00  0.00     0.117 C 
HETATM    5  O1  UNL     1       2.315  -0.764   3.293  1.00  0.00    -0.274 OA
ATOM      6  H1  UNL     1      -0.173   1.098   2.383  1.00  0.00     0.163 HD
ENDBRANCH   1   2
BRANCH   1   7
HETATM    7  C4  UNL     1       1.130  -1.078   0.494  1.00  0.00     0.200 C 
BRANCH   7   8
HETATM    8  O2  UNL     1       1.478  -1.361  -0.844  1.00  0.00    -0.398 OA
ATOM      9  H2  UNL     1       1.510  -2.285  -1.064  1.00  0.00     0.209 HD
ENDBRANCH   7   8
ENDBRANCH   1   7
BRANCH   1  10
HETATM   10  C5  UNL     1       2.398   1.118   0.777  1.00  0.00     0.188 C 
BRANCH  10  11
HETATM   11  N2  UNL     1       3.065   1.171  -0.467  1.00  0.00    -0.257 N 
HETATM   12  N3  UNL     1       2.726   2.052  -1.441  1.00  0.00    -0.238 N 
HETATM   13  N4  UNL     1       3.504   1.847  -2.473  1.00  0.00    -0.279 N 
ATOM     14  H3  UNL     1       1.990   2.755  -1.379  1.00  0.00     0.208 HD
HETATM   15  C6  UNL     1       4.346   0.853  -2.200  1.00  0.00     0.140 A 
ATOM     16  H4  UNL     1       3.470   2.368  -3.350  1.00  0.00     0.189 HD
HETATM   17  C7  UNL     1       5.363   0.260  -2.918  1.00  0.00     0.147 A 
HETATM   18  C9  UNL     1       4.072   0.419  -0.924  1.00  0.00     0.171 A 
HETATM   19  N6  UNL     1       6.079  -0.739  -2.368  1.00  0.00    -0.175 N 
HETATM   20  C8  UNL     1       5.821  -1.181  -1.110  1.00  0.00     0.679 A 
ATOM     21  H6  UNL     1       6.829  -1.172  -2.906  1.00  0.00     0.186 HD
HETATM   22  N8  UNL     1       4.830  -0.584  -0.444  1.00  0.00    -0.173 N 
ATOM     23  H8  UNL     1       4.632  -0.913   0.501  1.00  0.00     0.186 HD
BRANCH  17  24
HETATM   24  N5  UNL     1       5.580   0.725  -4.112  1.00  0.00    -0.383 N 
ATOM     25  H52 UNL     1       5.038   1.482  -4.529  1.00  0.00     0.157 HD
ATOM     26  H51 UNL     1       6.332   0.286  -4.643  1.00  0.00     0.157 HD
ENDBRANCH  17  24
BRANCH  20  27
HETATM   27  N7  UNL     1       6.534  -2.152  -0.610  1.00  0.00    -0.234 N 
ATOM     28  H72 UNL     1       7.291  -2.608  -1.119  1.00  0.00     0.174 HD
ATOM     29  H71 UNL     1       6.340  -2.484   0.335  1.00  0.00     0.174 HD
ENDBRANCH  20  27
ENDBRANCH  10  11
ENDBRANCH   1  10
BRANCH   1  30
HETATM   30  C10 UNL     1       0.089   1.037  -0.079  1.00  0.00     0.218 C 
BRANCH  30  31
HETATM   31  O3  UNL     1       0.055   2.419   0.179  1.00  0.00    -0.385 OA
ATOM     32  H3  UNL     1      -0.568   2.847  -0.396  1.00  0.00     0.210 HD
ENDBRANCH  30  31
BRANCH  30  33
HETATM   33  C11 UNL     1      -1.314   0.578   0.033  1.00  0.00     0.130 A 
HETATM   34  N9  UNL     1      -2.054  -0.269  -0.691  1.00  0.00    -0.328 N 
HETATM   35  C12 UNL     1      -3.347  -0.318  -0.239  1.00  0.00     0.142 A 
ATOM     36  H9  UNL     1      -1.701  -0.810  -1.480  1.00  0.00     0.168 HD
HETATM   37  N10 UNL     1      -3.388   0.531   0.796  1.00  0.00    -0.233 N 
HETATM   38  N12 UNL     1      -2.203   1.056   0.960  1.00  0.00    -0.278 N 
ATOM     39  H12 UNL     1      -1.969   1.735   1.685  1.00  0.00     0.189 HD
BRANCH  35  40
HETATM   40  C13 UNL     1      -4.447  -1.141  -0.806  1.00  0.00     0.135 C 
HETATM   41  C14 UNL     1      -5.566  -1.303   0.194  1.00  0.00     0.057 C 
BRANCH  40  42
HETATM   42  O4  UNL     1      -3.929  -2.383  -1.140  1.00  0.00    -0.380 OA
ATOM     43  H4  UNL     1      -4.632  -2.909  -1.502  1.00  0.00     0.211 HD
ENDBRANCH  40  42
BRANCH  40  44
HETATM   44  C15 UNL     1      -5.025  -0.461  -2.058  1.00  0.00     0.209 C 
BRANCH  44  45
HETATM   45  O5  UNL     1      -6.057  -1.232  -2.584  1.00  0.00    -0.397 OA
ATOM     46  H5  UNL     1      -6.414  -0.812  -3.358  1.00  0.00     0.209 HD
ENDBRANCH  44  45
ENDBRANCH  40  44
ENDBRANCH  35  40
BRANCH  37  47
HETATM   47  C16 UNL     1      -4.474   0.906   1.634  1.00  0.00     0.231 C 
HETATM   48  N11 UNL     1      -5.004   2.079   1.444  1.00  0.00    -0.263 N 
ATOM     49  H11 UNL     1      -5.784   2.379   2.028  1.00  0.00     0.195 HD
BRANCH  48  50
HETATM   50  O6  UNL     1      -4.526   2.919   0.466  1.00  0.00    -0.289 OA
ATOM     51  H6  UNL     1      -4.913   3.775   0.327  1.00  0.00     0.244 HD
ENDBRANCH  48  50
ENDBRANCH  37  47
ENDBRANCH  30  33
ENDBRANCH   1  30
TORSDOF 16
