REMARK  15 active torsions:
REMARK  status: ('A' for Active; 'I' for Inactive)
REMARK       I    between atoms: C2_2  and  N1_4 
REMARK    1  A    between atoms: N1_4  and  C3_6 
REMARK    2  A    between atoms: C3_6  and  C4_7 
REMARK    3  A    between atoms: C4_7  and  O2_8 
REMARK    4  A    between atoms: C4_7  and  N2_10 
REMARK    5  A    between atoms: N2_10  and  C5_12 
REMARK    6  A    between atoms: N7_26  and  C10_27 
REMARK    7  A    between atoms: C10_27  and  C11_28 
REMARK    8  A    between atoms: C11_28  and  C12_29 
REMARK    9  A    between atoms: C11_28  and  C15_43 
REMARK   10  A    between atoms: C12_29  and  S1_30 
REMARK   11  A    between atoms: S1_30  and  C13_31 
REMARK   12  A    between atoms: C14_35  and  N9_36 
REMARK   13  A    between atoms: N10_39  and  N11_40 
REMARK   14  A    between atoms: C15_43  and  N12_44 
REMARK   15  A    between atoms: C15_43  and  N13_48 
ROOT
HETATM    1  C5  UNL     1       2.439   0.082   0.090  1.00  0.00     0.149 A 
HETATM    2  N3  UNL     1       2.605  -0.582  -1.057  1.00  0.00    -0.175 N 
ATOM      3  H3  UNL     1       3.550  -0.699  -1.422  1.00  0.00     0.186 HD
HETATM    4  C6  UNL     1       1.573  -1.104  -1.753  1.00  0.00     0.679 A 
HETATM    5  N4  UNL     1       1.807  -1.730  -2.855  1.00  0.00    -0.234 N 
ATOM      6  H41 UNL     1       1.027  -2.124  -3.381  1.00  0.00     0.174 HD
ATOM      7  H42 UNL     1       2.748  -1.851  -3.229  1.00  0.00     0.174 HD
HETATM    8  N5  UNL     1       0.338  -0.945  -1.262  1.00  0.00    -0.174 N 
ATOM      9  H5  UNL     1      -0.441  -1.340  -1.789  1.00  0.00     0.186 HD
HETATM   10  C7  UNL     1       0.059  -0.292  -0.109  1.00  0.00     0.155 A 
HETATM   11  C8  UNL     1       1.155   0.239   0.585  1.00  0.00     0.123 A 
HETATM   12  N6  UNL     1       0.637   0.848   1.650  1.00  0.00    -0.346 N 
ATOM     13  H6  UNL     1       1.176   1.339   2.363  1.00  0.00     0.167 HD
HETATM   14  C9  UNL     1      -0.701   0.720   1.647  1.00  0.00     0.185 A 
HETATM   15  N7  UNL     1      -1.059   0.001   0.539  1.00  0.00    -0.326 N 
ENDROOT
BRANCH  15  16
HETATM   16  C10 UNL     1      -2.440  -0.394   0.246  1.00  0.00     0.140 C 
BRANCH  16  17
HETATM   17  C11 UNL     1      -2.954  -1.493   1.092  1.00  0.00     0.071 C 
BRANCH  17  18
HETATM   18  C12 UNL     1      -4.391  -1.849   0.770  1.00  0.00     0.092 C 
BRANCH  18  19
HETATM   19  S1  UNL     1      -5.625  -0.634   0.927  1.00  0.00    -0.091 SA
BRANCH  19  20
HETATM   20  C13 UNL     1      -5.798   0.482  -0.497  1.00  0.00     0.173 A 
HETATM   21  N8  UNL     1      -5.102   0.292  -1.616  1.00  0.00    -0.302 N 
HETATM   22  S2  UNL     1      -5.585   1.544  -2.613  1.00  0.00     0.026 SA
ATOM     23  H8  UNL     1      -4.429  -0.447  -1.818  1.00  0.00     0.176 HD
HETATM   24  C14 UNL     1      -6.681   2.282  -1.545  1.00  0.00     0.182 A 
HETATM   25  N10 UNL     1      -6.622   1.517  -0.454  1.00  0.00    -0.216 N 
BRANCH  24  26
HETATM   26  N9  UNL     1      -7.430   3.356  -1.718  1.00  0.00    -0.377 N 
ATOM     27  H92 UNL     1      -7.475   3.941  -2.552  1.00  0.00     0.158 HD
ATOM     28  H91 UNL     1      -8.088   3.799  -1.077  1.00  0.00     0.158 HD
ENDBRANCH  24  26
BRANCH  25  29
HETATM   29  N11 UNL     1      -7.423   1.819   0.705  1.00  0.00    -0.334 N 
ATOM     30 2H11 UNL     1      -7.378   1.234   1.539  1.00  0.00     0.177 HD
ATOM     31 1H11 UNL     1      -8.058   2.617   0.738  1.00  0.00     0.177 HD
ENDBRANCH  25  29
ENDBRANCH  19  20
ENDBRANCH  18  19
ENDBRANCH  17  18
BRANCH  17  32
HETATM   32  C15 UNL     1      -2.099  -2.731   1.001  1.00  0.00     0.384 C 
BRANCH  32  33
HETATM   33  N12 UNL     1      -2.047  -3.334  -0.305  1.00  0.00    -0.050 N 
ATOM     34 3H12 UNL     1      -2.990  -3.530  -0.641  1.00  0.00     0.276 HD
ATOM     35 2H12 UNL     1      -1.751  -2.648  -0.999  1.00  0.00     0.276 HD
ATOM     36 1H12 UNL     1      -1.468  -4.172  -0.367  1.00  0.00     0.276 HD
ENDBRANCH  32  33
BRANCH  32  37
HETATM   37  N13 UNL     1      -2.456  -3.698   2.033  1.00  0.00    -0.050 N 
ATOM     38 3H13 UNL     1      -2.417  -3.284   2.964  1.00  0.00     0.276 HD
ATOM     39 2H13 UNL     1      -3.450  -3.926   2.005  1.00  0.00     0.276 HD
ATOM     40 1H13 UNL     1      -1.877  -4.536   1.971  1.00  0.00     0.276 HD
ENDBRANCH  32  37
ENDBRANCH  17  32
ENDBRANCH  16  17
ENDBRANCH  15  16
BRANCH   1  41
HETATM   41  N2  UNL     1       3.376   0.585   0.774  1.00  0.00    -0.346 N 
ATOM     42  H2  UNL     1       3.076   1.059   1.626  1.00  0.00     0.163 HD
BRANCH  41  43
HETATM   43  C4  UNL     1       4.779   0.598   0.550  1.00  0.00     0.237 C 
BRANCH  43  44
HETATM   44  C3  UNL     1       5.153   1.607  -0.482  1.00  0.00     0.176 C 
BRANCH  44  45
HETATM   45  N1  UNL     1       6.561   1.771  -0.594  1.00  0.00    -0.357 N 
HETATM   46  C2  UNL     1       7.380   2.231   0.455  1.00  0.00     0.213 C 
HETATM   47  C1  UNL     1       8.863   2.354   0.206  1.00  0.00     0.117 C 
HETATM   48  O1  UNL     1       6.937   2.543   1.585  1.00  0.00    -0.274 OA
ATOM     49  H1  UNL     1       7.003   1.543  -1.485  1.00  0.00     0.162 HD
ENDBRANCH  44  45
ENDBRANCH  43  44
BRANCH  43  50
HETATM   50  O2  UNL     1       5.301  -0.670   0.268  1.00  0.00    -0.375 OA
ATOM     51  H2  UNL     1       5.063  -1.313   0.926  1.00  0.00     0.212 HD
ENDBRANCH  43  50
ENDBRANCH  41  43
ENDBRANCH   1  41
TORSDOF 15
