REMARK  6 active torsions:
REMARK  status: ('A' for Active; 'I' for Inactive)
REMARK    1  A    between atoms: C1_2  and  O2_3 
REMARK    2  A    between atoms: C1_2  and  C7_13 
REMARK    3  A    between atoms: O2_3  and  N1_4 
REMARK       I    between atoms: N1_4  and  C2_6 
REMARK    4  A    between atoms: C2_6  and  C3_8 
REMARK    5  A    between atoms: C10_16  and  C11_17 
REMARK    6  A    between atoms: N2_18  and  O5_20 
ROOT
HETATM    1  O1  UNL     1      -0.446  -2.041   0.606  1.00  0.00    -0.257 OA
HETATM    2  C1  UNL     1      -0.012  -0.966   0.117  1.00  0.00     0.315 C 
ENDROOT
BRANCH   2   3
HETATM    3  O2  UNL     1      -0.926  -0.119  -0.466  1.00  0.00    -0.192 OA
BRANCH   3   4
HETATM    4  N1  UNL     1      -2.277  -0.352  -0.556  1.00  0.00    -0.220 N 
HETATM    5  C2  UNL     1      -3.157   0.622  -0.018  1.00  0.00     0.299 C 
HETATM    6  O3  UNL     1      -2.703   1.664   0.523  1.00  0.00    -0.263 OA
ATOM      7  H1  UNL     1      -2.636  -1.199  -0.996  1.00  0.00     0.198 HD
BRANCH   5   8
HETATM    8  C3  UNL     1      -4.616   0.453  -0.072  1.00  0.00     0.144 A 
HETATM    9  C4  UNL     1      -5.293  -0.621  -0.616  1.00  0.00     0.045 A 
HETATM   10  C5  UNL     1      -6.662  -0.392  -0.464  1.00  0.00     0.027 A 
HETATM   11  C6  UNL     1      -6.733   0.829   0.174  1.00  0.00     0.143 A 
HETATM   12  O4  UNL     1      -5.516   1.271   0.376  1.00  0.00    -0.317 OA
ENDBRANCH   5   8
ENDBRANCH   3   4
ENDBRANCH   2   3
BRANCH   2  13
HETATM   13  C7  UNL     1       1.418  -0.647   0.175  1.00  0.00     0.041 A 
HETATM   14  C8  UNL     1       2.310  -1.509   0.761  1.00  0.00     0.018 A 
HETATM   15  C9  UNL     1       3.675  -1.227   0.832  1.00  0.00     0.014 A 
HETATM   16  C10 UNL     1       4.174  -0.059   0.308  1.00  0.00    -0.019 A 
HETATM   17  C12 UNL     1       3.273   0.802  -0.278  1.00  0.00     0.014 A 
HETATM   18  C13 UNL     1       1.922   0.525  -0.349  1.00  0.00     0.018 A 
BRANCH  16  19
HETATM   19  C11 UNL     1       5.615   0.278   0.364  1.00  0.00     0.125 C 
HETATM   20  N2  UNL     1       6.050   1.366  -0.127  1.00  0.00    -0.280 N 
ATOM     21  H2  UNL     1       5.405   2.022  -0.567  1.00  0.00     0.193 HD
BRANCH  20  22
HETATM   22  O5  UNL     1       7.387   1.656  -0.064  1.00  0.00    -0.290 OA
ATOM     23  H5  UNL     1       7.712   2.470  -0.431  1.00  0.00     0.244 HD
ENDBRANCH  20  22
ENDBRANCH  16  19
ENDBRANCH   2  13
TORSDOF 6
