REMARK  12 active torsions:
REMARK  status: ('A' for Active; 'I' for Inactive)
REMARK    1  A    between atoms: C3_3  and  O1_4 
REMARK    2  A    between atoms: C3_3  and  C6_8 
REMARK    3  A    between atoms: O1_4  and  C4_5 
REMARK    4  A    between atoms: C6_8  and  C8_10 
REMARK    5  A    between atoms: C6_8  and  C13_17 
REMARK    6  A    between atoms: C8_10  and  C9_11 
REMARK    7  A    between atoms: C9_11  and  C10_12 
REMARK    8  A    between atoms: C10_12  and  C11_13 
REMARK    9  A    between atoms: C15_19  and  O3_20 
REMARK   10  A    between atoms: C21_27  and  O4_28 
REMARK   11  A    between atoms: C21_27  and  C22_30 
REMARK   12  A    between atoms: C25_33  and  O5_34 
ROOT
HETATM    1  C1  UNL     1       4.790   0.445  -3.911  1.00  0.00     0.099 C 
HETATM    2  C2  UNL     1       4.007   0.043  -3.062  1.00  0.00    -0.154 C 
HETATM    3  C3  UNL     1       3.018  -0.441  -2.088  1.00  0.00     0.209 C 
ENDROOT
BRANCH   3   4
HETATM    4  O1  UNL     1       3.514  -1.772  -1.779  1.00  0.00    -0.304 OA
BRANCH   4   5
HETATM    5  C4  UNL     1       2.925  -2.926  -2.203  1.00  0.00     0.256 C 
HETATM    6  C5  UNL     1       3.441  -4.289  -1.874  1.00  0.00     0.126 C 
HETATM    7  O2  UNL     1       1.893  -2.882  -2.909  1.00  0.00    -0.266 OA
ENDBRANCH   4   5
ENDBRANCH   3   4
BRANCH   3   8
HETATM    8  C6  UNL     1       2.886   0.365  -0.843  1.00  0.00     0.017 C 
HETATM    9  C7  UNL     1       2.587   1.814  -1.203  1.00  0.00     0.024 C 
BRANCH   8  10
HETATM   10  C8  UNL     1       4.095   0.478  -0.018  1.00  0.00     0.017 C 
BRANCH  10  11
HETATM   11  C9  UNL     1       5.336   1.100  -0.560  1.00  0.00     0.007 C 
BRANCH  11  12
HETATM   12  C10 UNL     1       6.297   1.088   0.683  1.00  0.00     0.079 C 
BRANCH  12  13
HETATM   13  C11 UNL     1       7.609   1.691   0.295  1.00  0.00     0.240 C 
HETATM   14  C12 UNL     1       8.535   1.684   1.475  1.00  0.00     0.090 C 
HETATM   15  F1  UNL     1       7.366   2.998  -0.110  1.00  0.00    -0.207 F 
HETATM   16  F2  UNL     1       8.158   0.928  -0.705  1.00  0.00    -0.207 F 
ENDBRANCH  12  13
ENDBRANCH  11  12
ENDBRANCH  10  11
ENDBRANCH   8  10
BRANCH   8  17
HETATM   17  C13 UNL     1       1.757  -0.255  -0.053  1.00  0.00    -0.060 C 
HETATM   18  C14 UNL     1       2.161  -1.282   0.669  1.00  0.00     0.009 C 
HETATM   19  C15 UNL     1       1.318  -2.126   1.568  1.00  0.00     0.142 C 
HETATM   20  C16 UNL     1       0.259  -1.149   2.012  1.00  0.00     0.045 C 
HETATM   21  C17 UNL     1      -0.504  -0.851   0.704  1.00  0.00     0.030 C 
HETATM   22  C18 UNL     1      -1.878  -0.508   1.073  1.00  0.00    -0.067 C 
HETATM   23  C34 UNL     1       0.298   0.150  -0.123  1.00  0.00    -0.012 C 
HETATM   24  C19 UNL     1      -2.990  -1.360   0.489  1.00  0.00     0.038 C 
HETATM   25  C31 UNL     1      -2.286   0.916   1.078  1.00  0.00    -0.044 C 
HETATM   26  C20 UNL     1      -4.223  -1.228   1.413  1.00  0.00     0.047 C 
HETATM   27  C21 UNL     1      -5.295  -0.418   0.667  1.00  0.00     0.088 C 
HETATM   28  C24 UNL     1      -4.724   0.826   0.124  1.00  0.00     0.020 A 
HETATM   29  C25 UNL     1      -5.691   1.448  -0.631  1.00  0.00     0.078 A 
HETATM   30  C30 UNL     1      -3.412   1.358   0.232  1.00  0.00    -0.018 A 
HETATM   31  C27 UNL     1      -5.361   2.612  -1.302  1.00  0.00     0.037 A 
HETATM   32  C28 UNL     1      -4.103   3.154  -1.229  1.00  0.00     0.004 A 
HETATM   33  C29 UNL     1      -3.156   2.517  -0.464  1.00  0.00     0.013 A 
HETATM   34  C32 UNL     1      -1.117   1.826   1.202  1.00  0.00     0.041 C 
HETATM   35  C33 UNL     1       0.054   1.545   0.329  1.00  0.00     0.019 C 
HETATM   36  C35 UNL     1      -0.260  -0.050  -1.508  1.00  0.00     0.021 C 
BRANCH  19  37
HETATM   37  O3  UNL     1       2.004  -2.547   2.690  1.00  0.00    -0.392 OA
ATOM     38  H3  UNL     1       1.468  -3.084   3.262  1.00  0.00     0.210 HD
ENDBRANCH  19  37
BRANCH  27  39
HETATM   39  O4  UNL     1      -6.259  -0.079   1.607  1.00  0.00    -0.385 OA
ATOM     40  H4  UNL     1      -6.922   0.422   1.146  1.00  0.00     0.211 HD
ENDBRANCH  27  39
BRANCH  27  41
HETATM   41  C22 UNL     1      -5.811  -1.424  -0.339  1.00  0.00     0.038 C 
HETATM   42  C23 UNL     1      -6.401  -2.638   0.418  1.00  0.00     0.008 C 
ENDBRANCH  27  41
BRANCH  29  43
HETATM   43  O5  UNL     1      -6.982   0.954  -0.735  1.00  0.00    -0.355 OA
HETATM   44  C26 UNL     1      -7.964   1.611  -1.518  1.00  0.00     0.210 C 
ENDBRANCH  29  43
ENDBRANCH   8  17
ENDBRANCH   3   8
TORSDOF 12
