REMARK  10 active torsions:
REMARK  status: ('A' for Active; 'I' for Inactive)
REMARK    1  A    between atoms: C8_8  and  C9_9 
REMARK    2  A    between atoms: C10_12  and  C11_13 
REMARK    3  A    between atoms: C11_13  and  C12_14 
REMARK    4  A    between atoms: C12_14  and  C13_15 
REMARK    5  A    between atoms: C13_15  and  N2_16 
REMARK    6  A    between atoms: C17_22  and  O2_23 
REMARK    7  A    between atoms: C23_31  and  C25_33 
REMARK    8  A    between atoms: C25_33  and  C26_34 
REMARK    9  A    between atoms: C26_34  and  C27_35 
REMARK   10  A    between atoms: C28_36  and  O3_37 
ROOT
HETATM    1  N2  UNL     1       8.191  -3.292   1.105  1.00  0.00    -0.368 N 
ATOM      2  H2  UNL     1       7.994  -4.148   0.587  1.00  0.00     0.161 HD
HETATM    3  C14 UNL     1       9.384  -2.906   1.278  1.00  0.00     0.348 C 
HETATM    4  O1  UNL     1      10.522  -2.397   1.368  1.00  0.00    -0.284 OA
ENDROOT
BRANCH   1   5
HETATM    5  C13 UNL     1       7.109  -2.498   1.654  1.00  0.00     0.122 C 
BRANCH   5   6
HETATM    6  C12 UNL     1       7.256  -1.063   1.252  1.00  0.00     0.026 C 
BRANCH   6   7
HETATM    7  C11 UNL     1       7.199  -0.823  -0.230  1.00  0.00     0.058 C 
BRANCH   7   8
HETATM    8  C10 UNL     1       5.901  -1.225  -0.843  1.00  0.00     0.009 A 
HETATM    9  N1  UNL     1       4.860  -0.350  -0.887  1.00  0.00    -0.357 N 
HETATM   10  C9  UNL     1       3.670  -0.613  -1.426  1.00  0.00     0.066 A 
ATOM     11  H1  UNL     1       5.001   0.574  -0.478  1.00  0.00     0.166 HD
HETATM   12  C17 UNL     1       3.538  -1.901  -1.972  1.00  0.00     0.092 A 
HETATM   13  C16 UNL     1       4.556  -2.813  -1.951  1.00  0.00     0.041 A 
HETATM   14  C15 UNL     1       5.782  -2.483  -1.373  1.00  0.00     0.028 A 
BRANCH  10  15
HETATM   15  C8  UNL     1       2.565   0.324  -1.472  1.00  0.00     0.036 C 
HETATM   16  C7  UNL     1       2.176   1.083  -0.484  1.00  0.00    -0.065 C 
HETATM   17  C5  UNL     1       1.023   2.039  -0.604  1.00  0.00     0.006 C 
HETATM   18  C18 UNL     1       2.839   1.011   0.835  1.00  0.00     0.036 C 
HETATM   19  C4  UNL     1       0.458   2.246  -1.923  1.00  0.00     0.019 C 
HETATM   20  C6  UNL     1       1.680   3.398  -0.243  1.00  0.00     0.025 C 
HETATM   21  C21 UNL     1       0.131   1.722   0.508  1.00  0.00    -0.032 C 
HETATM   22  C3  UNL     1      -0.741   1.439  -2.301  1.00  0.00     0.007 C 
HETATM   23  C2  UNL     1      -1.941   1.663  -1.471  1.00  0.00    -0.004 C 
HETATM   24  C1  UNL     1      -2.215   3.035  -1.008  1.00  0.00     0.011 C 
HETATM   25  C23 UNL     1      -1.956   0.659  -0.322  1.00  0.00     0.014 C 
HETATM   26  C22 UNL     1      -1.059   1.192   0.709  1.00  0.00     0.106 C 
HETATM   27  C24 UNL     1      -1.527  -0.711  -0.810  1.00  0.00     0.023 C 
HETATM   28  F1  UNL     1      -1.401   1.149   2.022  1.00  0.00    -0.210 F 
HETATM   29  C20 UNL     1       0.750   2.048   1.853  1.00  0.00     0.038 C 
HETATM   30  C19 UNL     1       1.979   1.197   2.032  1.00  0.00     0.009 C 
BRANCH  25  31
HETATM   31  C25 UNL     1      -3.409   0.543   0.069  1.00  0.00     0.021 C 
BRANCH  31  32
HETATM   32  C26 UNL     1      -3.750  -0.397   1.159  1.00  0.00     0.045 C 
BRANCH  32  33
HETATM   33  C27 UNL     1      -5.256  -0.360   1.341  1.00  0.00     0.011 A 
HETATM   34  C28 UNL     1      -5.787   0.255   2.369  1.00  0.00     0.185 A 
HETATM   35  O4  UNL     1      -7.149   0.279   2.517  1.00  0.00    -0.326 OA
HETATM   36  C29 UNL     1      -8.065  -0.282   1.615  1.00  0.00     0.217 A 
HETATM   37  C30 UNL     1      -7.454  -1.017   0.493  1.00  0.00    -0.023 A 
HETATM   38  C31 UNL     1      -8.252  -1.696  -0.431  1.00  0.00     0.013 A 
HETATM   39  C35 UNL     1      -6.084  -1.029   0.356  1.00  0.00    -0.014 A 
HETATM   40  C32 UNL     1      -7.704  -2.385  -1.488  1.00  0.00     0.043 A 
HETATM   41  C33 UNL     1      -6.335  -2.403  -1.632  1.00  0.00     0.117 A 
HETATM   42  F2  UNL     1      -5.723  -3.065  -2.654  1.00  0.00    -0.206 F 
HETATM   43  C34 UNL     1      -5.564  -1.728  -0.710  1.00  0.00     0.055 A 
BRANCH  34  44
HETATM   44  O3  UNL     1      -4.912   0.863   3.275  1.00  0.00    -0.341 OA
ATOM     45  H3  UNL     1      -5.297   1.309   4.020  1.00  0.00     0.220 HD
ENDBRANCH  34  44
ENDBRANCH  32  33
ENDBRANCH  31  32
ENDBRANCH  25  31
ENDBRANCH  10  15
BRANCH  12  46
HETATM   46  O2  UNL     1       2.341  -2.249  -2.546  1.00  0.00    -0.358 OA
ATOM     47  H2  UNL     1       2.252  -3.120  -2.915  1.00  0.00     0.217 HD
ENDBRANCH  12  46
ENDBRANCH   7   8
ENDBRANCH   6   7
ENDBRANCH   5   6
ENDBRANCH   1   5
TORSDOF 10
