REMARK  10 active torsions:
REMARK  status: ('A' for Active; 'I' for Inactive)
REMARK    1  A    between atoms: C2_2  and  C4_4 
REMARK    2  A    between atoms: C4_4  and  N1_5 
REMARK    3  A    between atoms: C4_4  and  C13_21 
REMARK    4  A    between atoms: N1_5  and  C5_7 
REMARK    5  A    between atoms: C5_7  and  C6_8 
REMARK    6  A    between atoms: C6_8  and  N2_9 
REMARK    7  A    between atoms: N2_9  and  C7_11 
REMARK    8  A    between atoms: C7_11  and  C8_12 
REMARK    9  A    between atoms: C8_12  and  C9_17 
REMARK   10  A    between atoms: N3_13  and  O1_15 
ROOT
HETATM    1  N2  UNL     1      -1.278  -0.804   0.291  1.00  0.00    -0.396 N 
ATOM      2  H2  UNL     1      -0.965  -1.558   0.902  1.00  0.00     0.159 HD
ENDROOT
BRANCH   1   3
HETATM    3  C6  UNL     1      -0.328   0.133  -0.136  1.00  0.00     0.138 C 
BRANCH   3   4
HETATM    4  C5  UNL     1       1.104  -0.388   0.236  1.00  0.00     0.133 C 
BRANCH   4   5
HETATM    5  N1  UNL     1       2.106   0.510  -0.146  1.00  0.00    -0.415 N 
ATOM      6  H1  UNL     1       1.862   1.399  -0.582  1.00  0.00     0.153 HD
BRANCH   5   7
HETATM    7  C4  UNL     1       3.441   0.177   0.076  1.00  0.00     0.084 C 
BRANCH   7   8
HETATM    8  C2  UNL     1       4.076  -0.957  -0.633  1.00  0.00     0.000 C 
HETATM    9  C1  UNL     1       3.530  -2.325  -0.438  1.00  0.00     0.011 C 
HETATM   10  C3  UNL     1       4.264  -0.697  -2.120  1.00  0.00     0.011 C 
ENDBRANCH   7   8
BRANCH   7  11
HETATM   11  C13 UNL     1       4.389   1.383  -0.068  1.00  0.00     0.008 A 
HETATM   12  C14 UNL     1       5.794   1.196   0.513  1.00  0.00     0.007 A 
HETATM   13  C15 UNL     1       4.784   2.138   1.143  1.00  0.00     0.007 A 
ENDBRANCH   7  11
ENDBRANCH   5   7
ENDBRANCH   4   5
ENDBRANCH   3   4
ENDBRANCH   1   3
BRANCH   1  14
HETATM   14  C7  UNL     1      -2.612  -0.769  -0.065  1.00  0.00     0.111 C 
BRANCH  14  15
HETATM   15  C8  UNL     1      -3.535   0.254   0.411  1.00  0.00     0.054 C 
HETATM   16  N3  UNL     1      -3.293   1.213   1.099  1.00  0.00    -0.271 N 
ATOM     17  H3  UNL     1      -4.223   1.625   1.175  1.00  0.00     0.194 HD
BRANCH  16  18
HETATM   18  O1  UNL     1      -2.630   2.025   1.779  1.00  0.00    -0.290 OA
ATOM     19  H1  UNL     1      -2.439   2.781   2.321  1.00  0.00     0.244 HD
ENDBRANCH  16  18
BRANCH  15  20
HETATM   20  C9  UNL     1      -4.984   0.060  -0.016  1.00  0.00    -0.005 C 
HETATM   21  C10 UNL     1      -5.824   1.161   0.604  1.00  0.00     0.021 C 
HETATM   22  C11 UNL     1      -5.163   0.102  -1.493  1.00  0.00     0.021 C 
HETATM   23  C12 UNL     1      -5.500  -1.280   0.473  1.00  0.00     0.021 C 
ENDBRANCH  15  20
ENDBRANCH  14  15
ENDBRANCH   1  14
TORSDOF 10
