REMARK  10 active torsions:
REMARK  status: ('A' for Active; 'I' for Inactive)
REMARK    1  A    between atoms: N1_2  and  C2_5 
REMARK    2  A    between atoms: C2_5  and  C3_6 
REMARK    3  A    between atoms: C3_6  and  C4_7 
REMARK    4  A    between atoms: C4_7  and  C5_8 
REMARK    5  A    between atoms: C4_7  and  C11_18 
REMARK    6  A    between atoms: C5_8  and  O1_9 
REMARK    7  A    between atoms: C5_8  and  C6_11 
REMARK    8  A    between atoms: C6_11  and  C7_12 
REMARK    9  A    between atoms: C7_12  and  O2_13 
REMARK   10  A    between atoms: C7_12  and  C8_15 
ROOT
HETATM    1  C4  UNL     1      -0.686   0.302  -0.010  1.00  0.00     0.020 C 
ENDROOT
BRANCH   1   2
HETATM    2  C3  UNL     1      -1.103   1.709  -0.234  1.00  0.00     0.035 C 
BRANCH   2   3
HETATM    3  C2  UNL     1      -0.453   2.799   0.530  1.00  0.00     0.232 C 
BRANCH   3   4
HETATM    4  N1  UNL     1      -0.595   2.651   1.970  1.00  0.00    -0.079 N 
HETATM    5  C1  UNL     1      -1.975   2.845   2.316  1.00  0.00     0.266 C 
ATOM      6  H12 UNL     1       0.029   3.268   2.490  1.00  0.00     0.276 HD
ATOM      7  H11 UNL     1      -0.228   1.762   2.310  1.00  0.00     0.276 HD
ENDBRANCH   3   4
ENDBRANCH   2   3
ENDBRANCH   1   2
BRANCH   1   8
HETATM    8  C5  UNL     1       0.724  -0.033  -0.306  1.00  0.00     0.125 C 
BRANCH   8   9
HETATM    9  O1  UNL     1       1.039   0.255  -1.646  1.00  0.00    -0.395 OA
ATOM     10  H1  UNL     1       1.945   0.040  -1.836  1.00  0.00     0.210 HD
ENDBRANCH   8   9
BRANCH   8  11
HETATM   11  C6  UNL     1       1.786   0.411   0.626  1.00  0.00     0.064 C 
BRANCH  11  12
HETATM   12  C7  UNL     1       3.124  -0.107   0.045  1.00  0.00     0.124 C 
BRANCH  12  13
HETATM   13  O2  UNL     1       3.374   0.393  -1.206  1.00  0.00    -0.395 OA
ATOM     14  H2  UNL     1       4.195   0.075  -1.563  1.00  0.00     0.210 HD
ENDBRANCH  12  13
BRANCH  12  15
HETATM   15  C8  UNL     1       4.263   0.237   0.962  1.00  0.00     0.014 A 
HETATM   16  C9  UNL     1       5.617  -0.221   0.492  1.00  0.00     0.007 A 
HETATM   17  C10 UNL     1       4.984  -0.840   1.690  1.00  0.00     0.007 A 
ENDBRANCH  12  15
ENDBRANCH  11  12
ENDBRANCH   8  11
ENDBRANCH   1   8
BRANCH   1  18
HETATM   18  C11 UNL     1      -1.642  -0.613  -0.811  1.00  0.00    -0.008 C 
HETATM   19  C12 UNL     1      -1.332  -2.042  -0.676  1.00  0.00     0.005 C 
HETATM   20  C13 UNL     1      -2.335  -2.753  -1.632  1.00  0.00     0.000 C 
HETATM   21  C14 UNL     1      -3.646  -2.732  -0.926  1.00  0.00     0.000 C 
HETATM   22  C15 UNL     1      -4.035  -1.408  -0.373  1.00  0.00     0.000 C 
HETATM   23  C16 UNL     1      -3.060  -0.327  -0.395  1.00  0.00     0.005 C 
ENDBRANCH   1  18
TORSDOF 10
