REMARK  6 active torsions:
REMARK  status: ('A' for Active; 'I' for Inactive)
REMARK    1  A    between atoms: N2_5  and  C3_6 
REMARK    2  A    between atoms: C3_6  and  C4_7 
REMARK    3  A    between atoms: C4_7  and  N3_8 
REMARK    4  A    between atoms: N3_8  and  C5_11 
REMARK    5  A    between atoms: C5_11  and  C6_12 
REMARK    6  A    between atoms: C12_20  and  C13_21 
ROOT
HETATM    1  C3  UNL     1       0.369  -0.810   1.148  1.00  0.00     0.177 C 
ENDROOT
BRANCH   1   2
HETATM    2  N2  UNL     1       1.805  -0.788   0.917  1.00  0.00    -0.279 N 
HETATM    3  N1  UNL     1       2.756  -0.681   1.794  1.00  0.00    -0.301 N 
HETATM    4  C2  UNL     1       3.956  -0.698   1.245  1.00  0.00     0.032 A 
ATOM      5  H1  UNL     1       2.594  -0.593   2.797  1.00  0.00     0.187 HD
HETATM    6  C1  UNL     1       5.287  -0.600   1.858  1.00  0.00     0.070 C 
HETATM    7  C12 UNL     1       3.763  -0.829  -0.136  1.00  0.00     0.009 A 
HETATM    8  C11 UNL     1       2.411  -0.884  -0.316  1.00  0.00     0.126 A 
HETATM    9  S1  UNL     1       1.516  -1.061  -1.694  1.00  0.00    -0.058 SA
BRANCH   7  10
HETATM   10  C13 UNL     1       4.805  -0.934  -1.143  1.00  0.00     0.024 A 
HETATM   11  C14 UNL     1       4.439  -0.649  -2.593  1.00  0.00     0.010 A 
HETATM   12  C15 UNL     1       5.493   0.129  -1.843  1.00  0.00     0.010 A 
ENDBRANCH   7  10
ENDBRANCH   1   2
BRANCH   1  13
HETATM   13  C4  UNL     1      -0.211   0.586   1.093  1.00  0.00     0.254 C 
BRANCH  13  14
HETATM   14  N3  UNL     1      -1.621   0.654   1.280  1.00  0.00    -0.073 N 
ATOM     15  H32 UNL     1      -1.887   0.229   2.168  1.00  0.00     0.277 HD
ATOM     16  H31 UNL     1      -1.914   1.615   1.456  1.00  0.00     0.277 HD
BRANCH  14  17
HETATM   17  C5  UNL     1      -2.369   0.090   0.211  1.00  0.00     0.237 C 
BRANCH  17  18
HETATM   18  C6  UNL     1      -3.856   0.176   0.353  1.00  0.00     0.015 C 
HETATM   19  C7  UNL     1      -4.467  -0.494  -0.861  1.00  0.00     0.032 C 
HETATM   20  C8  UNL     1      -5.847   0.000  -1.163  1.00  0.00     0.168 C 
HETATM   21  O1  UNL     1      -5.943   1.382  -1.186  1.00  0.00    -0.391 OA
HETATM   22  C9  UNL     1      -4.710   2.000  -1.003  1.00  0.00     0.168 C 
HETATM   23  C10 UNL     1      -4.272   1.632   0.423  1.00  0.00     0.032 C 
ENDBRANCH  17  18
ENDBRANCH  14  17
ENDBRANCH  13  14
ENDBRANCH   1  13
TORSDOF 6
