REMARK  7 active torsions:
REMARK  status: ('A' for Active; 'I' for Inactive)
REMARK    1  A    between atoms: C6_6  and  C7_7 
REMARK    2  A    between atoms: C7_7  and  C8_8 
REMARK    3  A    between atoms: C8_8  and  C9_9 
REMARK    4  A    between atoms: C9_9  and  C10_10 
REMARK    5  A    between atoms: C10_10  and  C11_11 
REMARK       I    between atoms: C11_11  and  N1_13 
REMARK    6  A    between atoms: C13_20  and  C14_21 
REMARK    7  A    between atoms: C14_21  and  N4_22 
ROOT
HETATM    1  C11 UNL     1       1.506   1.919   0.926  1.00  0.00     0.223 C 
HETATM    2  O1  UNL     1       1.012   3.082   1.199  1.00  0.00    -0.273 OA
HETATM    3  N1  UNL     1       2.707   1.906   0.279  1.00  0.00    -0.306 N 
ATOM      4  H1  UNL     1       3.138   2.827   0.197  1.00  0.00     0.171 HD
HETATM    5  C12 UNL     1       3.395   0.973  -0.242  1.00  0.00     0.167 A 
HETATM    6  N2  UNL     1       3.228  -0.338  -0.364  1.00  0.00    -0.279 N 
ATOM      7  H2  UNL     1       2.392  -0.785   0.013  1.00  0.00     0.189 HD
HETATM    8  N3  UNL     1       4.113  -1.034  -0.952  1.00  0.00    -0.294 N 
ATOM      9  H3  UNL     1       3.983  -2.041  -1.045  1.00  0.00     0.187 HD
HETATM   10  C13 UNL     1       5.197  -0.469  -1.443  1.00  0.00     0.095 A 
HETATM   11  S1  UNL     1       4.938   1.169  -1.039  1.00  0.00    -0.036 SA
ENDROOT
BRANCH   1  12
HETATM   12  C10 UNL     1       0.670   0.778   1.371  1.00  0.00     0.103 C 
BRANCH  12  13
HETATM   13  C9  UNL     1      -0.555   1.259   2.133  1.00  0.00     0.009 C 
BRANCH  13  14
HETATM   14  C8  UNL     1      -1.395   0.115   2.604  1.00  0.00     0.001 C 
BRANCH  14  15
HETATM   15  C7  UNL     1      -1.883  -0.703   1.463  1.00  0.00     0.005 C 
BRANCH  15  16
HETATM   16  C6  UNL     1      -2.712   0.069   0.474  1.00  0.00    -0.011 C 
HETATM   17  C2  UNL     1      -3.130  -0.906  -0.625  1.00  0.00    -0.015 C 
HETATM   18  C1  UNL     1      -2.081  -0.828  -1.713  1.00  0.00     0.010 C 
HETATM   19  C3  UNL     1      -4.478  -0.445  -1.102  1.00  0.00     0.005 C 
HETATM   20  C4  UNL     1      -4.907   0.675  -0.178  1.00  0.00     0.001 C 
HETATM   21  C5  UNL     1      -3.999   0.569   1.038  1.00  0.00     0.005 C 
ENDBRANCH  15  16
ENDBRANCH  14  15
ENDBRANCH  13  14
ENDBRANCH  12  13
ENDBRANCH   1  12
BRANCH  10  22
HETATM   22  C14 UNL     1       6.355  -1.111  -2.169  1.00  0.00     0.295 C 
BRANCH  22  23
HETATM   23  N4  UNL     1       7.283  -0.063  -2.498  1.00  0.00    -0.073 N 
ATOM     24  H43 UNL     1       6.855   0.699  -3.023  1.00  0.00     0.274 HD
ATOM     25  H42 UNL     1       7.573   0.483  -1.687  1.00  0.00     0.274 HD
ATOM     26  H41 UNL     1       8.065  -0.497  -2.988  1.00  0.00     0.274 HD
ENDBRANCH  22  23
ENDBRANCH  10  22
TORSDOF 7
