REMARK  5 active torsions:
REMARK  status: ('A' for Active; 'I' for Inactive)
REMARK    1  A    between atoms: S1_2  and  C2_3 
REMARK    2  A    between atoms: C2_3  and  C3_4 
REMARK    3  A    between atoms: C3_4  and  C4_5 
REMARK    4  A    between atoms: C3_4  and  N1_12 
REMARK    5  A    between atoms: C4_5  and  C5_6 
REMARK       I    between atoms: N1_12  and  C10_14 
REMARK       I    between atoms: C10_14  and  N2_16 
ROOT
HETATM    1  C3  UNL     1       0.815   1.300   0.610  1.00  0.00     0.095 C 
ENDROOT
BRANCH   1   2
HETATM    2  C2  UNL     1       0.736   2.448   1.630  1.00  0.00     0.098 C 
BRANCH   2   3
HETATM    3  S1  UNL     1      -0.708   3.479   1.378  1.00  0.00    -0.172 SA
HETATM    4  C1  UNL     1      -0.581   4.370  -0.209  1.00  0.00     0.089 C 
ENDBRANCH   2   3
ENDBRANCH   1   2
BRANCH   1   5
HETATM    5  C4  UNL     1       2.056   0.548   0.953  1.00  0.00     0.030 C 
BRANCH   5   6
HETATM    6  C5  UNL     1       2.362  -0.633   0.098  1.00  0.00    -0.011 C 
HETATM    7  C6  UNL     1       2.550  -0.324  -1.349  1.00  0.00     0.015 C 
HETATM    8  C7  UNL     1       3.038  -1.552  -2.084  1.00  0.00     0.074 C 
HETATM    9  S2  UNL     1       2.710  -3.067  -1.107  1.00  0.00    -0.169 SA
HETATM   10  C8  UNL     1       3.547  -2.796   0.503  1.00  0.00     0.074 C 
HETATM   11  C9  UNL     1       3.616  -1.293   0.675  1.00  0.00     0.015 C 
ENDBRANCH   5   6
ENDBRANCH   1   5
BRANCH   1  12
HETATM   12  N1  UNL     1      -0.379   0.489   0.656  1.00  0.00    -0.338 N 
HETATM   13  C10 UNL     1      -1.295   0.356  -0.393  1.00  0.00     0.318 C 
HETATM   14  O1  UNL     1      -1.078   0.984  -1.464  1.00  0.00    -0.247 OA
HETATM   15  N2  UNL     1      -2.440  -0.441  -0.308  1.00  0.00    -0.330 N 
HETATM   16  C11 UNL     1      -2.811  -1.209   0.849  1.00  0.00     0.153 C 
HETATM   17  C14 UNL     1      -3.383  -0.557  -1.437  1.00  0.00     0.153 C 
HETATM   18  C12 UNL     1      -4.247  -0.760   1.173  1.00  0.00     0.187 C 
HETATM   19  O2  UNL     1      -5.103  -1.115   0.166  1.00  0.00    -0.388 OA
HETATM   20  C13 UNL     1      -4.538  -1.433  -1.038  1.00  0.00     0.187 C 
ATOM     21  H1  UNL     1      -0.568  -0.025   1.517  1.00  0.00     0.164 HD
ENDBRANCH   1  12
TORSDOF 5
