REMARK  6 active torsions:
REMARK  status: ('A' for Active; 'I' for Inactive)
REMARK    1  A    between atoms: C1_2  and  C2_3 
REMARK       I    between atoms: C1_2  and  N3_21 
REMARK    2  A    between atoms: C2_3  and  C3_4 
REMARK    3  A    between atoms: C3_4  and  C4_5 
REMARK    4  A    between atoms: C4_5  and  C5_6 
REMARK    5  A    between atoms: C6_9  and  C7_10 
REMARK    6  A    between atoms: C13_18  and  O2_19 
ROOT
HETATM    1  C5  UNL     1      -0.700   0.565  -0.667  1.00  0.00     0.062 A 
HETATM    2  N1  UNL     1      -1.525   0.367   0.384  1.00  0.00    -0.345 N 
ATOM      3  H1  UNL     1      -1.232   0.291   1.358  1.00  0.00     0.167 HD
HETATM    4  C6  UNL     1      -2.792   0.286  -0.054  1.00  0.00     0.087 A 
HETATM    5  N2  UNL     1      -2.749   0.437  -1.391  1.00  0.00    -0.325 N 
ATOM      6  H2  UNL     1      -3.562   0.422  -2.006  1.00  0.00     0.169 HD
HETATM    7  C13 UNL     1      -1.479   0.610  -1.799  1.00  0.00     0.164 A 
ENDROOT
BRANCH   1   8
HETATM    8  C4  UNL     1       0.788   0.717  -0.679  1.00  0.00     0.062 C 
BRANCH   8   9
HETATM    9  C3  UNL     1       1.363  -0.581  -1.177  1.00  0.00     0.015 C 
BRANCH   9  10
HETATM   10  C2  UNL     1       2.849  -0.584  -1.246  1.00  0.00     0.103 C 
BRANCH  10  11
HETATM   11  C1  UNL     1       3.436  -0.406   0.093  1.00  0.00     0.219 C 
HETATM   12  O1  UNL     1       2.709  -0.523   1.108  1.00  0.00    -0.273 OA
HETATM   13  N3  UNL     1       4.816  -0.107   0.197  1.00  0.00    -0.348 N 
HETATM   14  C14 UNL     1       5.615   0.017  -0.984  1.00  0.00     0.152 C 
HETATM   15  C17 UNL     1       5.398   0.069   1.512  1.00  0.00     0.152 C 
HETATM   16  C15 UNL     1       7.061   0.131  -0.558  1.00  0.00     0.187 C 
HETATM   17  O3  UNL     1       7.301  -0.870   0.375  1.00  0.00    -0.388 OA
HETATM   18  C16 UNL     1       6.757  -0.579   1.617  1.00  0.00     0.187 C 
ENDBRANCH  10  11
ENDBRANCH   9  10
ENDBRANCH   8   9
ENDBRANCH   1   8
BRANCH   7  19
HETATM   19  O2  UNL     1      -1.005   0.798  -3.089  1.00  0.00    -0.345 OA
ATOM     20  H2  UNL     1      -1.543   0.829  -3.871  1.00  0.00     0.219 HD
ENDBRANCH   7  19
BRANCH   4  21
HETATM   21  C7  UNL     1      -4.000   0.073   0.781  1.00  0.00     0.053 C 
HETATM   22  C8  UNL     1      -4.625  -1.229   0.360  1.00  0.00     0.012 C 
HETATM   23  C9  UNL     1      -6.038  -1.380   0.876  1.00  0.00     0.001 C 
HETATM   24  C10 UNL     1      -6.830  -0.211   0.280  1.00  0.00     0.000 C 
HETATM   25  C11 UNL     1      -6.310   1.030   1.000  1.00  0.00     0.001 C 
HETATM   26  C12 UNL     1      -4.906   1.257   0.564  1.00  0.00     0.012 C 
ENDBRANCH   4  21
TORSDOF 6
