REMARK  5 active torsions:
REMARK  status: ('A' for Active; 'I' for Inactive)
REMARK    1  A    between atoms: C2_2  and  C4_4 
REMARK    2  A    between atoms: C4_4  and  N1_5 
REMARK    3  A    between atoms: C10_15  and  C11_16 
REMARK    4  A    between atoms: C11_16  and  O1_17 
REMARK    5  A    between atoms: O1_17  and  C12_18 
ROOT
HETATM    1  N1  UNL     1      -2.480   0.583  -0.323  1.00  0.00    -0.351 N 
HETATM    2  C5  UNL     1      -2.850   1.729   0.477  1.00  0.00     0.132 C 
HETATM    3  C6  UNL     1      -1.633   2.621   0.756  1.00  0.00     0.079 C 
HETATM    4  C7  UNL     1      -0.906   2.021   1.888  1.00  0.00     0.035 A 
HETATM    5  N2  UNL     1      -0.538   2.688   3.004  1.00  0.00    -0.354 N 
ATOM      6  H2  UNL     1      -0.712   3.673   3.204  1.00  0.00     0.166 HD
HETATM    7  C8  UNL     1       0.099   1.815   3.801  1.00  0.00     0.180 A 
HETATM    8  N3  UNL     1       0.125   0.638   3.194  1.00  0.00    -0.353 N 
ATOM      9  H3  UNL     1       0.550  -0.206   3.578  1.00  0.00     0.166 HD
HETATM   10  C9  UNL     1      -0.489   0.715   1.998  1.00  0.00     0.048 A 
HETATM   11  C10 UNL     1      -0.587  -0.472   1.137  1.00  0.00     0.153 C 
HETATM   12  C18 UNL     1      -1.348  -0.243  -0.108  1.00  0.00     0.232 C 
HETATM   13  O2  UNL     1      -0.956  -0.863  -1.154  1.00  0.00    -0.272 OA
ENDROOT
BRANCH  11  14
HETATM   14  C11 UNL     1       0.808  -0.972   0.860  1.00  0.00     0.188 C 
BRANCH  14  15
HETATM   15  O1  UNL     1       1.606  -0.055   0.227  1.00  0.00    -0.385 OA
BRANCH  15  16
HETATM   16  C12 UNL     1       2.858  -0.637   0.031  1.00  0.00     0.121 C 
HETATM   17  C13 UNL     1       3.933   0.154   0.783  1.00  0.00     0.032 C 
HETATM   18  C14 UNL     1       4.969   0.657  -0.190  1.00  0.00     0.002 C 
HETATM   19  C15 UNL     1       5.621  -0.538  -0.826  1.00  0.00     0.000 C 
HETATM   20  C16 UNL     1       4.574  -1.308  -1.586  1.00  0.00     0.002 C 
HETATM   21  C17 UNL     1       3.199  -0.727  -1.446  1.00  0.00     0.032 C 
ENDBRANCH  15  16
ENDBRANCH  14  15
ENDBRANCH  11  14
BRANCH   1  22
HETATM   22  C4  UNL     1      -3.293   0.205  -1.444  1.00  0.00     0.129 C 
BRANCH  22  23
HETATM   23  C2  UNL     1      -4.383  -0.756  -1.133  1.00  0.00    -0.005 C 
HETATM   24  C1  UNL     1      -3.892  -2.074  -0.569  1.00  0.00     0.011 C 
HETATM   25  C3  UNL     1      -5.064  -1.104  -2.464  1.00  0.00     0.011 C 
ENDBRANCH  22  23
ENDBRANCH   1  22
TORSDOF 5
