REMARK  6 active torsions:
REMARK  status: ('A' for Active; 'I' for Inactive)
REMARK    1  A    between atoms: S1_2  and  C2_3 
REMARK    2  A    between atoms: C2_3  and  C3_4 
REMARK    3  A    between atoms: C6_7  and  N1_8 
REMARK       I    between atoms: N1_8  and  C7_10 
REMARK    4  A    between atoms: C7_10  and  C8_12 
REMARK    5  A    between atoms: C11_15  and  O2_16 
REMARK    6  A    between atoms: O2_16  and  C12_17 
ROOT
HETATM    1  N1  UNL     1       0.929  -0.187  -1.163  1.00  0.00    -0.356 N 
ATOM      2  H1  UNL     1       0.686  -0.194  -0.172  1.00  0.00     0.162 HD
HETATM    3  C7  UNL     1      -0.108  -0.059  -2.129  1.00  0.00     0.222 C 
HETATM    4  O1  UNL     1       0.223  -0.054  -3.339  1.00  0.00    -0.273 OA
ENDROOT
BRANCH   3   5
HETATM    5  C8  UNL     1      -1.533   0.066  -1.784  1.00  0.00     0.078 C 
HETATM    6  C9  UNL     1      -1.852   1.276  -0.931  1.00  0.00     0.016 C 
HETATM    7  C10 UNL     1      -3.373   1.286  -0.810  1.00  0.00     0.033 C 
HETATM    8  C11 UNL     1      -3.750   0.119   0.040  1.00  0.00     0.132 C 
HETATM    9  C14 UNL     1      -3.372  -1.185  -0.620  1.00  0.00     0.033 C 
HETATM   10  C15 UNL     1      -1.955  -1.216  -1.100  1.00  0.00     0.016 C 
BRANCH   8  11
HETATM   11  O2  UNL     1      -5.113   0.098   0.396  1.00  0.00    -0.316 OA
BRANCH  11  12
HETATM   12  C12 UNL     1      -5.585   0.153   1.699  1.00  0.00     0.255 C 
HETATM   13  C13 UNL     1      -7.041   0.125   1.997  1.00  0.00     0.126 C 
HETATM   14  O3  UNL     1      -4.711   0.227   2.607  1.00  0.00    -0.266 OA
ENDBRANCH  11  12
ENDBRANCH   8  11
ENDBRANCH   3   5
BRANCH   1  15
HETATM   15  C6  UNL     1       2.316  -0.307  -1.547  1.00  0.00     0.084 C 
HETATM   16  C5  UNL     1       3.007  -1.483  -0.936  1.00  0.00     0.025 C 
HETATM   17  C4  UNL     1       3.166  -1.079   0.502  1.00  0.00     0.007 C 
HETATM   18  C3  UNL     1       3.728   0.340   0.328  1.00  0.00    -0.003 C 
HETATM   19  C16 UNL     1       3.098   0.849  -0.953  1.00  0.00     0.030 C 
BRANCH  18  20
HETATM   20  C2  UNL     1       5.233   0.192   0.172  1.00  0.00     0.078 C 
BRANCH  20  21
HETATM   21  S1  UNL     1       5.874  -0.599   1.668  1.00  0.00    -0.173 SA
HETATM   22  C1  UNL     1       5.678   0.486   3.118  1.00  0.00     0.089 C 
ENDBRANCH  20  21
ENDBRANCH  18  20
ENDBRANCH   1  15
TORSDOF 6
