REMARK  5 active torsions:
REMARK  status: ('A' for Active; 'I' for Inactive)
REMARK    1  A    between atoms: C2_2  and  C4_4 
REMARK    2  A    between atoms: C4_4  and  C5_5 
REMARK    3  A    between atoms: C5_5  and  N1_6 
REMARK    4  A    between atoms: C12_15  and  C13_16 
REMARK       I    between atoms: C13_16  and  N2_18 
REMARK    5  A    between atoms: N2_18  and  C14_20 
ROOT
HETATM    1  N1  UNL     1      -0.913   0.340  -0.414  1.00  0.00    -0.253 N 
HETATM    2  O1  UNL     1      -1.842   1.185  -0.766  1.00  0.00    -0.239 OA
HETATM    3  C6  UNL     1      -1.831   2.395  -0.197  1.00  0.00     0.183 C 
HETATM    4  C7  UNL     1      -2.456   3.397  -1.226  1.00  0.00     0.081 C 
HETATM    5  C8  UNL     1      -2.776   2.535   1.011  1.00  0.00     0.081 C 
HETATM    6  O2  UNL     1      -0.634   2.918   0.148  1.00  0.00    -0.341 OA
HETATM    7  C9  UNL     1       0.433   2.138   0.355  1.00  0.00     0.089 C 
HETATM    8  C10 UNL     1       1.367   2.223  -0.827  1.00  0.00     0.048 C 
HETATM    9  C11 UNL     1       1.130   2.589   1.635  1.00  0.00     0.048 C 
HETATM   10  C12 UNL     1       0.005   0.654   0.581  1.00  0.00     0.239 C 
ENDROOT
BRANCH  10  11
HETATM   11  C13 UNL     1       1.197  -0.145   0.801  1.00  0.00     0.246 C 
HETATM   12  O3  UNL     1       1.506  -0.390   2.034  1.00  0.00    -0.271 OA
HETATM   13  N2  UNL     1       2.094  -0.705  -0.126  1.00  0.00    -0.355 N 
ATOM     14  H2  UNL     1       1.932  -0.555  -1.122  1.00  0.00     0.162 HD
BRANCH  13  15
HETATM   15  C14 UNL     1       3.259  -1.501   0.295  1.00  0.00     0.084 C 
HETATM   16  C15 UNL     1       3.422  -2.796  -0.463  1.00  0.00     0.025 C 
HETATM   17  C16 UNL     1       4.914  -2.528  -0.460  1.00  0.00     0.004 C 
HETATM   18  C17 UNL     1       4.570  -1.049  -0.273  1.00  0.00     0.025 C 
ENDBRANCH  13  15
ENDBRANCH  10  11
BRANCH   1  19
HETATM   19  C5  UNL     1      -0.871  -0.858  -1.142  1.00  0.00     0.091 C 
BRANCH  19  20
HETATM   20  C4  UNL     1      -1.147  -2.152  -0.472  1.00  0.00     0.050 C 
BRANCH  20  21
HETATM   21  C2  UNL     1      -2.493  -2.350   0.133  1.00  0.00    -0.018 C 
HETATM   22  C1  UNL     1      -3.640  -2.226  -0.842  1.00  0.00     0.010 C 
HETATM   23  C3  UNL     1      -2.694  -1.555   1.395  1.00  0.00     0.010 C 
ENDBRANCH  20  21
ENDBRANCH  19  20
ENDBRANCH   1  19
TORSDOF 5
