REMARK  8 active torsions:
REMARK  status: ('A' for Active; 'I' for Inactive)
REMARK    1  A    between atoms: C2_2  and  N1_5 
REMARK    2  A    between atoms: N1_5  and  C5_7 
REMARK    3  A    between atoms: C5_7  and  C6_8 
REMARK    4  A    between atoms: C6_8  and  O1_9 
REMARK    5  A    between atoms: C6_8  and  C7_11 
REMARK    6  A    between atoms: C7_11  and  N2_12 
REMARK    7  A    between atoms: C12_17  and  C13_18 
REMARK       I    between atoms: C13_18  and  N3_20 
REMARK    8  A    between atoms: N3_20  and  C14_22 
ROOT
HETATM    1  N2  UNL     1      -0.399  -0.466  -1.572  1.00  0.00    -0.276 NA
HETATM    2  C8  UNL     1       0.319  -1.106  -2.715  1.00  0.00     0.096 C 
HETATM    3  C9  UNL     1       0.870  -2.442  -2.358  1.00  0.00     0.015 C 
HETATM    4  C10 UNL     1      -0.010  -3.357  -1.591  1.00  0.00     0.007 C 
HETATM    5  C11 UNL     1      -0.846  -2.645  -0.548  1.00  0.00     0.057 C 
HETATM    6  C12 UNL     1      -1.407  -1.420  -1.240  1.00  0.00     0.056 C 
ENDROOT
BRANCH   1   7
HETATM    7  C7  UNL     1       0.677  -0.343  -0.584  1.00  0.00     0.161 C 
BRANCH   7   8
HETATM    8  C6  UNL     1       0.329   0.310   0.679  1.00  0.00     0.071 C 
BRANCH   8   9
HETATM    9  C5  UNL     1       1.186  -0.003   1.845  1.00  0.00     0.117 C 
BRANCH   9  10
HETATM   10  N1  UNL     1       2.347   0.641   2.174  1.00  0.00    -0.389 N 
ATOM     11  H1  UNL     1       2.275   1.203   3.022  1.00  0.00     0.159 HD
BRANCH  10  12
HETATM   12  C2  UNL     1       3.582   0.683   1.596  1.00  0.00     0.018 C 
HETATM   13  C1  UNL     1       3.654   1.366   0.267  1.00  0.00     0.037 C 
HETATM   14  C3  UNL     1       4.283  -0.674   1.466  1.00  0.00     0.037 C 
HETATM   15  C4  UNL     1       4.530   1.471   2.547  1.00  0.00     0.037 C 
ENDBRANCH  10  12
ENDBRANCH   9  10
ENDBRANCH   8   9
BRANCH   8  16
HETATM   16  O1  UNL     1      -0.056   1.632   0.669  1.00  0.00    -0.362 OA
ATOM     17  H1  UNL     1      -0.606   1.833  -0.079  1.00  0.00     0.217 HD
ENDBRANCH   8  16
ENDBRANCH   7   8
ENDBRANCH   1   7
BRANCH   6  18
HETATM   18  C13 UNL     1      -2.666  -0.921  -0.710  1.00  0.00     0.259 C 
HETATM   19  O2  UNL     1      -3.472  -1.747  -0.213  1.00  0.00    -0.267 OA
HETATM   20  N3  UNL     1      -3.026   0.443  -0.730  1.00  0.00    -0.352 N 
ATOM     21  H3  UNL     1      -2.378   1.121  -1.132  1.00  0.00     0.163 HD
BRANCH  20  22
HETATM   22  C14 UNL     1      -4.272   0.902  -0.204  1.00  0.00     0.084 C 
HETATM   23  C15 UNL     1      -4.965   1.899  -1.111  1.00  0.00     0.025 C 
HETATM   24  C16 UNL     1      -5.147   2.845   0.068  1.00  0.00     0.004 C 
HETATM   25  C17 UNL     1      -4.056   2.046   0.766  1.00  0.00     0.025 C 
ENDBRANCH  20  22
ENDBRANCH   6  18
TORSDOF 8
