REMARK  7 active torsions:
REMARK  status: ('A' for Active; 'I' for Inactive)
REMARK    1  A    between atoms: C5_5  and  N1_6 
REMARK       I    between atoms: N1_6  and  C6_8 
REMARK    2  A    between atoms: C6_8  and  C7_10 
REMARK    3  A    between atoms: C7_10  and  N2_11 
REMARK    4  A    between atoms: N2_11  and  C8_13 
REMARK    5  A    between atoms: C8_13  and  C9_14 
REMARK    6  A    between atoms: C9_14  and  C10_15 
REMARK    7  A    between atoms: C10_15  and  N3_16 
ROOT
HETATM    1  N1  UNL     1       0.602  -0.799   0.145  1.00  0.00    -0.352 N 
ATOM      2  H1  UNL     1       0.019  -0.218   0.747  1.00  0.00     0.163 HD
HETATM    3  C6  UNL     1      -0.040  -1.683  -0.741  1.00  0.00     0.257 C 
HETATM    4  O1  UNL     1       0.768  -2.388  -1.461  1.00  0.00    -0.267 OA
ENDROOT
BRANCH   1   5
HETATM    5  C5  UNL     1       2.040  -0.663   0.256  1.00  0.00     0.089 C 
HETATM    6  C4  UNL     1       2.407   0.746  -0.143  1.00  0.00     0.055 C 
HETATM    7  C2  UNL     1       3.834   1.089   0.112  1.00  0.00     0.021 C 
HETATM    8  C1  UNL     1       3.935   2.596   0.243  1.00  0.00     0.037 C 
HETATM    9  C3  UNL     1       4.670   0.730  -1.126  1.00  0.00     0.037 C 
HETATM   10  N4  UNL     1       4.447   0.506   1.228  1.00  0.00    -0.405 N 
HETATM   11  C15 UNL     1       3.856  -0.581   1.881  1.00  0.00     0.021 C 
ATOM     12  H4  UNL     1       5.334   0.878   1.568  1.00  0.00     0.154 HD
HETATM   13  C14 UNL     1       2.400  -0.815   1.701  1.00  0.00     0.055 C 
HETATM   14  C16 UNL     1       4.071  -0.375   3.392  1.00  0.00     0.037 C 
HETATM   15  C17 UNL     1       4.571  -1.908   1.590  1.00  0.00     0.037 C 
ENDBRANCH   1   5
BRANCH   3  16
HETATM   16  C7  UNL     1      -1.491  -1.871  -0.910  1.00  0.00     0.162 C 
BRANCH  16  17
HETATM   17  N2  UNL     1      -2.303  -1.040  -0.145  1.00  0.00    -0.374 N 
ATOM     18  H2  UNL     1      -2.811  -1.440   0.644  1.00  0.00     0.164 HD
BRANCH  17  19
HETATM   19  C8  UNL     1      -2.448   0.321  -0.417  1.00  0.00     0.062 C 
BRANCH  19  20
HETATM   20  C9  UNL     1      -3.186   0.668  -1.686  1.00  0.00     0.074 C 
BRANCH  20  21
HETATM   21  C10 UNL     1      -4.588   0.141  -1.724  1.00  0.00     0.277 C 
BRANCH  21  22
HETATM   22  N3  UNL     1      -5.420   0.621  -0.667  1.00  0.00     0.088 N 
HETATM   23  C11 UNL     1      -6.760   0.076  -0.774  1.00  0.00     0.274 C 
HETATM   24  C12 UNL     1      -7.268   1.357  -1.404  1.00  0.00     0.060 C 
HETATM   25  C13 UNL     1      -5.994   1.942  -0.824  1.00  0.00     0.274 C 
ENDBRANCH  21  22
ENDBRANCH  20  21
ENDBRANCH  19  20
ENDBRANCH  17  19
ENDBRANCH  16  17
ENDBRANCH   3  16
TORSDOF 7
