REMARK  18 active torsions:
REMARK  status: ('A' for Active; 'I' for Inactive)
REMARK    1  A    between atoms: C2_2  and  O1_3 
REMARK    2  A    between atoms: O1_3  and  C3_4 
REMARK    3  A    between atoms: C3_4  and  C4_6 
REMARK    4  A    between atoms: C4_6  and  N1_7 
REMARK    5  A    between atoms: C4_6  and  C15_33 
REMARK    6  A    between atoms: N1_7  and  C5_9 
REMARK    7  A    between atoms: C6_10  and  N2_11 
REMARK    8  A    between atoms: N2_11  and  C7_13 
REMARK    9  A    between atoms: C7_13  and  O3_15 
REMARK   10  A    between atoms: C9_17  and  O4_18 
REMARK   11  A    between atoms: C11_21  and  O5_23 
REMARK   12  A    between atoms: C13_25  and  C14_26 
REMARK   13  A    between atoms: C14_26  and  N3_27 
REMARK   14  A    between atoms: C14_26  and  O6_31 
REMARK   15  A    between atoms: C17_35  and  N4_36 
REMARK   16  A    between atoms: C18_40  and  N5_41 
REMARK   17  A    between atoms: C20_45  and  N7_46 
REMARK   18  A    between atoms: C21_49  and  O7_50 
ROOT
HETATM    1  C4  UNL     1       0.307  -1.461  -0.548  1.00  0.00     0.208 C 
ENDROOT
BRANCH   1   2
HETATM    2  C3  UNL     1       0.306  -2.512  -1.651  1.00  0.00     0.283 C 
HETATM    3  O2  UNL     1      -0.717  -2.628  -2.350  1.00  0.00    -0.263 OA
BRANCH   2   4
HETATM    4  O1  UNL     1       1.386  -3.323  -1.895  1.00  0.00    -0.320 OA
BRANCH   4   5
HETATM    5  C2  UNL     1       1.353  -4.299  -2.942  1.00  0.00     0.174 C 
HETATM    6  C1  UNL     1       0.239  -5.281  -2.728  1.00  0.00     0.034 C 
ENDBRANCH   4   5
ENDBRANCH   2   4
ENDBRANCH   1   2
BRANCH   1   7
HETATM    7  N1  UNL     1      -0.915  -0.817  -0.587  1.00  0.00    -0.400 N 
ATOM      8  H1  UNL     1      -1.535  -1.009  -1.373  1.00  0.00     0.154 HD
BRANCH   7   9
HETATM    9  C5  UNL     1      -1.351   0.088   0.396  1.00  0.00     0.113 C 
HETATM   10  C6  UNL     1      -2.301   1.107  -0.189  1.00  0.00     0.130 C 
HETATM   11  C9  UNL     1      -3.577   1.348   0.487  1.00  0.00     0.145 C 
HETATM   12  C10 UNL     1      -3.639   1.074   1.965  1.00  0.00     0.071 C 
HETATM   13  C11 UNL     1      -2.337   0.618   2.534  1.00  0.00     0.066 C 
HETATM   14  C12 UNL     1      -2.544   0.273   3.984  1.00  0.00     0.046 C 
HETATM   15  C13 UNL     1      -1.741  -0.513   1.708  1.00  0.00     0.100 C 
BRANCH  10  16
HETATM   16  N2  UNL     1      -2.567   0.736  -1.580  1.00  0.00    -0.388 N 
ATOM     17  H2  UNL     1      -2.317  -0.178  -1.959  1.00  0.00     0.156 HD
BRANCH  16  18
HETATM   18  C7  UNL     1      -3.197   1.738  -2.364  1.00  0.00     0.209 C 
HETATM   19  C8  UNL     1      -2.313   2.985  -2.482  1.00  0.00     0.062 C 
BRANCH  18  20
HETATM   20  O3  UNL     1      -3.240   1.223  -3.690  1.00  0.00    -0.378 OA
ATOM     21  H3  UNL     1      -3.662   1.893  -4.215  1.00  0.00     0.212 HD
ENDBRANCH  18  20
ENDBRANCH  16  18
ENDBRANCH  10  16
BRANCH  11  22
HETATM   22  O4  UNL     1      -4.708   0.779  -0.150  1.00  0.00    -0.393 OA
ATOM     23  H4  UNL     1      -5.536   0.935   0.289  1.00  0.00     0.210 HD
ENDBRANCH  11  22
BRANCH  13  24
HETATM   24  O5  UNL     1      -1.475   1.736   2.493  1.00  0.00    -0.390 OA
ATOM     25  H5  UNL     1      -0.646   1.446   2.855  1.00  0.00     0.210 HD
ENDBRANCH  13  24
BRANCH  15  26
HETATM   26  C14 UNL     1      -2.638  -1.670   1.693  1.00  0.00     0.325 C 
BRANCH  26  27
HETATM   27  N3  UNL     1      -2.914  -2.177   3.027  1.00  0.00    -0.052 N 
ATOM     28  H33 UNL     1      -2.050  -2.389   3.525  1.00  0.00     0.277 HD
ATOM     29  H32 UNL     1      -3.276  -1.440   3.632  1.00  0.00     0.277 HD
ATOM     30  H31 UNL     1      -3.539  -2.983   3.017  1.00  0.00     0.277 HD
ENDBRANCH  26  27
BRANCH  26  31
HETATM   31  O6  UNL     1      -2.294  -2.757   0.932  1.00  0.00    -0.369 OA
ATOM     32  H6  UNL     1      -2.876  -3.508   0.922  1.00  0.00     0.212 HD
ENDBRANCH  26  31
ENDBRANCH  15  26
ENDBRANCH   7   9
ENDBRANCH   1   7
BRANCH   1  33
HETATM   33  C15 UNL     1       1.580  -0.750  -0.716  1.00  0.00     0.222 C 
HETATM   34  C16 UNL     1       1.839  -0.026  -1.991  1.00  0.00     0.072 C 
HETATM   35  C17 UNL     1       3.076   0.821  -1.614  1.00  0.00     0.237 C 
HETATM   36  C18 UNL     1       3.379   0.403  -0.213  1.00  0.00     0.338 C 
HETATM   37  N9  UNL     1       1.999   0.174   0.303  1.00  0.00    -0.044 N 
ATOM     38  H92 UNL     1       1.416   0.998   0.449  1.00  0.00     0.280 HD
ATOM     39  H91 UNL     1       1.911  -0.133   1.272  1.00  0.00     0.280 HD
BRANCH  35  40
HETATM   40  N4  UNL     1       4.169   0.412  -2.485  1.00  0.00    -0.071 N 
ATOM     41  H43 UNL     1       4.349  -0.591  -2.452  1.00  0.00     0.274 HD
ATOM     42  H42 UNL     1       3.932   0.473  -3.475  1.00  0.00     0.274 HD
ATOM     43  H41 UNL     1       4.985   0.971  -2.236  1.00  0.00     0.274 HD
ENDBRANCH  35  40
BRANCH  36  44
HETATM   44  N5  UNL     1       4.134   1.289   0.593  1.00  0.00    -0.252 N 
HETATM   45  C19 UNL     1       4.937   2.205   0.085  1.00  0.00     0.204 A 
HETATM   46  N6  UNL     1       5.682   3.050   0.858  1.00  0.00    -0.334 N 
HETATM   47  C20 UNL     1       5.612   2.969   2.197  1.00  0.00     0.153 A 
ATOM     48  H6  UNL     1       6.290   3.741   0.419  1.00  0.00     0.168 HD
HETATM   49  C21 UNL     1       4.770   2.012   2.725  1.00  0.00     0.200 A 
HETATM   50  N8  UNL     1       4.053   1.198   1.928  1.00  0.00    -0.272 N 
ATOM     51  H8  UNL     1       3.438   0.500   2.347  1.00  0.00     0.189 HD
BRANCH  47  52
HETATM   52  N7  UNL     1       6.302   3.749   2.961  1.00  0.00    -0.382 N 
ATOM     53  H72 UNL     1       6.924   4.456   2.571  1.00  0.00     0.157 HD
ATOM     54  H71 UNL     1       6.249   3.687   3.978  1.00  0.00     0.157 HD
ENDBRANCH  47  52
BRANCH  49  55
HETATM   55  O7  UNL     1       4.701   1.934   4.113  1.00  0.00    -0.342 OA
ATOM     56  H7  UNL     1       4.121   1.275   4.477  1.00  0.00     0.219 HD
ENDBRANCH  49  55
ENDBRANCH  36  44
ENDBRANCH   1  33
TORSDOF 18
