REMARK  19 active torsions:
REMARK  status: ('A' for Active; 'I' for Inactive)
REMARK    1  A    between atoms: O1_1  and  C1_3 
REMARK    2  A    between atoms: C1_3  and  N1_4 
REMARK    3  A    between atoms: N1_4  and  C2_6 
REMARK    4  A    between atoms: C3_7  and  C4_8 
REMARK    5  A    between atoms: C4_8  and  O2_9 
REMARK    6  A    between atoms: C6_12  and  C7_13 
REMARK    7  A    between atoms: C7_13  and  O3_14 
REMARK    8  A    between atoms: O3_14  and  C8_15 
REMARK    9  A    between atoms: C9_18  and  O6_19 
REMARK   10  A    between atoms: C9_18  and  C10_21 
REMARK   11  A    between atoms: C10_21  and  O7_22 
REMARK   12  A    between atoms: O7_22  and  C11_23 
REMARK   13  A    between atoms: C13_26  and  O9_27 
REMARK   14  A    between atoms: C14_29  and  O10_30 
REMARK   15  A    between atoms: C15_32  and  O11_33 
REMARK   16  A    between atoms: C17_36  and  O12_37 
REMARK   17  A    between atoms: C18_39  and  O13_40 
REMARK   18  A    between atoms: C19_42  and  O14_43 
REMARK   19  A    between atoms: C20_45  and  O15_46 
ROOT
HETATM    1  C8  UNL     1       0.211  -1.618  -0.380  1.00  0.00     0.330 C 
HETATM    2  O4  UNL     1      -0.114  -0.828   0.756  1.00  0.00    -0.202 OA
HETATM    3  O5  UNL     1      -1.036   0.075   0.416  1.00  0.00    -0.196 OA
HETATM    4  C9  UNL     1      -2.190  -0.548  -0.047  1.00  0.00     0.219 C 
HETATM    5  C16 UNL     1      -2.087  -2.010   0.336  1.00  0.00     0.110 C 
HETATM    6  C17 UNL     1      -0.950  -2.613  -0.460  1.00  0.00     0.181 C 
ENDROOT
BRANCH   1   7
HETATM    7  O3  UNL     1       1.393  -2.200  -0.131  1.00  0.00    -0.326 OA
BRANCH   7   8
HETATM    8  C7  UNL     1       2.491  -2.010  -0.867  1.00  0.00     0.143 C 
BRANCH   8   9
HETATM    9  C6  UNL     1       3.183  -0.724  -0.949  1.00  0.00    -0.024 C 
HETATM   10  C5  UNL     1       3.708  -0.166   0.367  1.00  0.00     0.083 C 
HETATM   11  C4  UNL     1       4.780   0.845   0.002  1.00  0.00     0.109 C 
HETATM   12  C20 UNL     1       4.203   1.892  -0.885  1.00  0.00     0.188 C 
HETATM   13  C19 UNL     1       3.793   1.268  -2.205  1.00  0.00     0.183 C 
HETATM   14  C18 UNL     1       2.600   0.338  -1.805  1.00  0.00     0.180 C 
BRANCH  11  15
HETATM   15  C3  UNL     1       5.313   1.462   1.247  1.00  0.00     0.030 C 
HETATM   16  C2  UNL     1       6.340   0.982   1.915  1.00  0.00     0.084 C 
BRANCH  16  17
HETATM   17  N1  UNL     1       7.033  -0.171   1.504  1.00  0.00    -0.378 N 
ATOM     18  H1  UNL     1       6.533  -1.060   1.475  1.00  0.00     0.161 HD
BRANCH  17  19
HETATM   19  C1  UNL     1       8.440  -0.144   1.118  1.00  0.00     0.286 C 
BRANCH  19  20
HETATM   20  O1  UNL     1       9.221   0.300   2.169  1.00  0.00    -0.382 OA
ATOM     21  H1  UNL     1      10.137   0.318   1.918  1.00  0.00     0.211 HD
ENDBRANCH  19  20
ENDBRANCH  17  19
ENDBRANCH  16  17
ENDBRANCH  11  15
BRANCH  11  22
HETATM   22  O2  UNL     1       5.840   0.211  -0.638  1.00  0.00    -0.383 OA
ATOM     23  H2  UNL     1       5.500  -0.183  -1.433  1.00  0.00     0.211 HD
ENDBRANCH  11  22
BRANCH  12  24
HETATM   24  O15 UNL     1       5.064   2.973  -1.082  1.00  0.00    -0.390 OA
ATOM     25  H15 UNL     1       4.696   3.641  -1.648  1.00  0.00     0.210 HD
ENDBRANCH  12  24
BRANCH  13  26
HETATM   26  O14 UNL     1       4.785   0.569  -2.835  1.00  0.00    -0.390 OA
ATOM     27  H14 UNL     1       5.509   1.134  -3.078  1.00  0.00     0.210 HD
ENDBRANCH  13  26
BRANCH  14  28
HETATM   28  O13 UNL     1       1.755   1.234  -1.136  1.00  0.00    -0.388 OA
ATOM     29  H13 UNL     1       1.382   1.914  -1.684  1.00  0.00     0.210 HD
ENDBRANCH  14  28
ENDBRANCH   8   9
ENDBRANCH   7   8
ENDBRANCH   1   7
BRANCH   6  30
HETATM   30  O12 UNL     1      -0.587  -3.867  -0.002  1.00  0.00    -0.390 OA
ATOM     31  H12 UNL     1      -1.307  -4.484  -0.052  1.00  0.00     0.210 HD
ENDBRANCH   6  30
BRANCH   4  32
HETATM   32  O6  UNL     1      -2.302  -0.473  -1.436  1.00  0.00    -0.362 OA
ATOM     33  H6  UNL     1      -3.090  -0.899  -1.752  1.00  0.00     0.213 HD
ENDBRANCH   4  32
BRANCH   4  34
HETATM   34  C10 UNL     1      -3.431   0.084   0.555  1.00  0.00     0.242 C 
BRANCH  34  35
HETATM   35  O7  UNL     1      -4.588  -0.538   0.093  1.00  0.00    -0.353 OA
BRANCH  35  36
HETATM   36  C11 UNL     1      -5.732   0.034   0.638  1.00  0.00     0.291 C 
HETATM   37  O8  UNL     1      -6.420  -0.989   1.297  1.00  0.00    -0.356 OA
HETATM   38  C12 UNL     1      -7.367  -0.444   2.164  1.00  0.00     0.205 C 
HETATM   39  C13 UNL     1      -8.312   0.489   1.443  1.00  0.00     0.173 C 
HETATM   40  C14 UNL     1      -8.073   0.507  -0.041  1.00  0.00     0.182 C 
HETATM   41  C15 UNL     1      -6.632   0.623  -0.420  1.00  0.00     0.204 C 
BRANCH  39  42
HETATM   42  O9  UNL     1      -8.260   1.757   2.015  1.00  0.00    -0.391 OA
ATOM     43  H9  UNL     1      -8.854   2.344   1.562  1.00  0.00     0.210 HD
ENDBRANCH  39  42
BRANCH  40  44
HETATM   44  O10 UNL     1      -8.793   1.587  -0.562  1.00  0.00    -0.390 OA
ATOM     45  H10 UNL     1      -8.642   1.598  -1.500  1.00  0.00     0.210 HD
ENDBRANCH  40  44
BRANCH  41  46
HETATM   46  O11 UNL     1      -6.328   1.971  -0.648  1.00  0.00    -0.388 OA
ATOM     47  H11 UNL     1      -6.895   2.342  -1.314  1.00  0.00     0.210 HD
ENDBRANCH  41  46
ENDBRANCH  35  36
ENDBRANCH  34  35
ENDBRANCH   4  34
TORSDOF 19
