REMARK  17 active torsions:
REMARK  status: ('A' for Active; 'I' for Inactive)
REMARK    1  A    between atoms: C3_3  and  N1_4 
REMARK    2  A    between atoms: N1_4  and  O1_5 
REMARK    3  A    between atoms: C5_8  and  O2_9 
REMARK    4  A    between atoms: O2_9  and  C6_10 
REMARK    5  A    between atoms: C8_12  and  N2_13 
REMARK    6  A    between atoms: C9_17  and  O3_18 
REMARK    7  A    between atoms: O3_18  and  C10_19 
REMARK    8  A    between atoms: C11_20  and  O4_21 
REMARK    9  A    between atoms: C12_23  and  N3_24 
REMARK   10  A    between atoms: C13_28  and  O5_29 
REMARK   11  A    between atoms: O5_29  and  C14_30 
REMARK   12  A    between atoms: C14_30  and  C15_31 
REMARK   13  A    between atoms: C16_34  and  N5_35 
REMARK   14  A    between atoms: C17_44  and  O7_45 
REMARK   15  A    between atoms: C18_47  and  O8_48 
REMARK   16  A    between atoms: C19_50  and  O9_51 
REMARK   17  A    between atoms: C20_53  and  O10_54 
ROOT
HETATM    1  C10 UNL     1       1.619  -0.679   0.789  1.00  0.00     0.184 C 
HETATM    2  C11 UNL     1       2.318   0.407   0.037  1.00  0.00     0.182 C 
HETATM    3  C12 UNL     1       3.460  -0.128  -0.803  1.00  0.00     0.246 C 
HETATM    4  C13 UNL     1       4.480  -0.724   0.114  1.00  0.00     0.186 C 
HETATM    5  C17 UNL     1       4.021  -0.975   1.513  1.00  0.00     0.180 C 
HETATM    6  C18 UNL     1       2.593  -1.436   1.660  1.00  0.00     0.181 C 
ENDROOT
BRANCH   1   7
HETATM    7  O3  UNL     1       0.562  -0.288   1.570  1.00  0.00    -0.370 OA
BRANCH   7   8
HETATM    8  C9  UNL     1      -0.635  -0.864   1.269  1.00  0.00     0.183 C 
HETATM    9  C8  UNL     1      -1.419  -1.457   2.385  1.00  0.00     0.217 C 
HETATM   10  C7  UNL     1      -2.890  -1.279   1.966  1.00  0.00     0.070 C 
HETATM   11  C6  UNL     1      -2.815  -0.648   0.607  1.00  0.00     0.155 C 
HETATM   12  C19 UNL     1      -1.583   0.242   0.793  1.00  0.00     0.178 C 
BRANCH   9  13
HETATM   13  N2  UNL     1      -1.183  -0.883   3.677  1.00  0.00    -0.072 N 
ATOM     14  H23 UNL     1      -1.469   0.095   3.713  1.00  0.00     0.274 HD
ATOM     15  H22 UNL     1      -1.823  -1.257   4.378  1.00  0.00     0.274 HD
ATOM     16  H21 UNL     1      -0.209  -1.001   3.955  1.00  0.00     0.274 HD
ENDBRANCH   9  13
BRANCH  11  17
HETATM   17  O2  UNL     1      -3.913  -0.037   0.158  1.00  0.00    -0.375 OA
BRANCH  17  18
HETATM   18  C5  UNL     1      -4.452  -0.439  -1.030  1.00  0.00     0.152 C 
HETATM   19  C4  UNL     1      -5.875  -0.928  -0.711  1.00  0.00     0.058 C 
HETATM   20  C3  UNL     1      -6.671   0.335  -0.471  1.00  0.00     0.115 C 
HETATM   21  C2  UNL     1      -5.962   1.436  -1.207  1.00  0.00     0.034 C 
HETATM   22  C1  UNL     1      -5.583   2.555  -0.267  1.00  0.00     0.014 C 
HETATM   23  C20 UNL     1      -4.774   0.788  -1.853  1.00  0.00     0.152 C 
BRANCH  20  24
HETATM   24  N1  UNL     1      -8.022   0.145  -0.942  1.00  0.00    -0.098 NA
BRANCH  24  25
HETATM   25  O1  UNL     1      -8.788   1.228  -0.798  1.00  0.00    -0.296 OA
ATOM     26  H1  UNL     1      -9.677   1.103  -1.108  1.00  0.00     0.238 HD
ENDBRANCH  24  25
ENDBRANCH  20  24
BRANCH  23  27
HETATM   27  O10 UNL     1      -5.013   0.482  -3.186  1.00  0.00    -0.393 OA
ATOM     28  H10 UNL     1      -4.260   0.071  -3.595  1.00  0.00     0.210 HD
ENDBRANCH  23  27
ENDBRANCH  17  18
ENDBRANCH  11  17
BRANCH  12  29
HETATM   29  O9  UNL     1      -1.752   1.093   1.887  1.00  0.00    -0.390 OA
ATOM     30  H9  UNL     1      -0.988   1.645   2.002  1.00  0.00     0.210 HD
ENDBRANCH  12  29
ENDBRANCH   7   8
ENDBRANCH   1   7
BRANCH   2  31
HETATM   31  O4  UNL     1       2.849   1.416   0.829  1.00  0.00    -0.391 OA
ATOM     32  H4  UNL     1       3.293   2.106   0.351  1.00  0.00     0.210 HD
ENDBRANCH   2  31
BRANCH   6  33
HETATM   33  O8  UNL     1       2.271  -1.234   3.029  1.00  0.00    -0.390 OA
ATOM     34  H8  UNL     1       2.884  -1.710   3.577  1.00  0.00     0.210 HD
ENDBRANCH   6  33
BRANCH   3  35
HETATM   35  N3  UNL     1       2.995  -1.047  -1.814  1.00  0.00    -0.070 N 
ATOM     36  H33 UNL     1       2.448  -1.804  -1.405  1.00  0.00     0.274 HD
ATOM     37  H32 UNL     1       2.272  -0.625  -2.396  1.00  0.00     0.274 HD
ATOM     38  H31 UNL     1       3.764  -1.407  -2.379  1.00  0.00     0.274 HD
ENDBRANCH   3  35
BRANCH   5  39
HETATM   39  O7  UNL     1       4.794  -1.964   2.147  1.00  0.00    -0.390 OA
ATOM     40  H7  UNL     1       4.502  -2.124   3.037  1.00  0.00     0.210 HD
ENDBRANCH   5  39
BRANCH   4  41
HETATM   41  O5  UNL     1       5.170  -1.783  -0.445  1.00  0.00    -0.373 OA
BRANCH  41  42
HETATM   42  C14 UNL     1       6.492  -1.622  -0.635  1.00  0.00     0.254 C 
BRANCH  42  43
HETATM   43  C15 UNL     1       6.762  -0.477  -1.536  1.00  0.00     0.171 A 
HETATM   44  N4  UNL     1       7.449   0.569  -1.153  1.00  0.00    -0.326 N 
HETATM   45  C16 UNL     1       7.741   1.702  -1.979  1.00  0.00     0.404 A 
ATOM     46  H4  UNL     1       7.802   0.578  -0.196  1.00  0.00     0.165 HD
HETATM   47  N6  UNL     1       7.214   1.615  -3.301  1.00  0.00    -0.270 N 
HETATM   48  N7  UNL     1       6.551   0.627  -3.698  1.00  0.00    -0.201 N 
ATOM     49  H6  UNL     1       7.382   2.385  -3.948  1.00  0.00     0.186 HD
HETATM   50  O6  UNL     1       6.310  -0.425  -2.849  1.00  0.00    -0.207 OA
ATOM     51  H7  UNL     1       6.191   0.605  -4.652  1.00  0.00     0.216 HD
BRANCH  45  52
HETATM   52  N5  UNL     1       7.237   2.937  -1.372  1.00  0.00    -0.039 N 
ATOM     53  H53 UNL     1       6.242   2.873  -1.159  1.00  0.00     0.279 HD
ATOM     54  H52 UNL     1       7.590   3.062  -0.423  1.00  0.00     0.279 HD
ATOM     55  H51 UNL     1       7.445   3.744  -1.960  1.00  0.00     0.279 HD
ENDBRANCH  45  52
ENDBRANCH  42  43
ENDBRANCH  41  42
ENDBRANCH   4  41
TORSDOF 17
