REMARK  17 active torsions:
REMARK  status: ('A' for Active; 'I' for Inactive)
REMARK    1  A    between atoms: C2_2  and  O1_3 
REMARK    2  A    between atoms: C3_5  and  O2_6 
REMARK    3  A    between atoms: C4_8  and  S1_9 
REMARK    4  A    between atoms: S1_9  and  C5_10 
REMARK    5  A    between atoms: C7_12  and  N1_13 
REMARK    6  A    between atoms: C8_18  and  N3_19 
REMARK    7  A    between atoms: C9_24  and  O3_25 
REMARK    8  A    between atoms: C11_29  and  O4_30 
REMARK    9  A    between atoms: C12_32  and  N6_33 
REMARK   10  A    between atoms: N6_33  and  C13_36 
REMARK   11  A    between atoms: C13_36  and  O5_37 
REMARK   12  A    between atoms: C13_36  and  C14_39 
REMARK   13  A    between atoms: C14_39  and  O6_40 
REMARK   14  A    between atoms: C14_39  and  C15_42 
REMARK   15  A    between atoms: C15_42  and  O7_43 
REMARK   16  A    between atoms: C15_42  and  C16_45 
REMARK   17  A    between atoms: C16_45  and  N7_46 
ROOT
HETATM    1  C1  UNL     1      -0.388  -0.119   2.310  1.00  0.00     0.051 C 
HETATM    2  C2  UNL     1      -0.554  -0.535   0.836  1.00  0.00     0.112 C 
HETATM    3  C3  UNL     1      -1.987  -0.748   0.515  1.00  0.00     0.172 C 
HETATM    4  C4  UNL     1      -2.604   0.026  -0.561  1.00  0.00     0.137 C 
HETATM    5  C9  UNL     1      -1.758   0.805  -1.499  1.00  0.00     0.189 C 
HETATM    6  C10 UNL     1      -2.008   0.374  -2.911  1.00  0.00     0.102 C 
HETATM    7  N5  UNL     1      -2.197   0.015  -4.000  1.00  0.00    -0.194 NA
HETATM    8  C11 UNL     1      -0.303   0.797  -1.313  1.00  0.00     0.202 C 
HETATM    9  C12 UNL     1       0.246   0.350  -0.017  1.00  0.00     0.257 C 
ENDROOT
BRANCH   5  10
HETATM   10  O3  UNL     1      -2.186   2.164  -1.529  1.00  0.00    -0.372 OA
ATOM     11  H3  UNL     1      -1.644   2.663  -2.129  1.00  0.00     0.212 HD
ENDBRANCH   5  10
BRANCH   4  12
HETATM   12  S1  UNL     1      -3.934   1.136   0.006  1.00  0.00    -0.100 SA
BRANCH  12  13
HETATM   13  C5  UNL     1      -5.399   0.284   0.530  1.00  0.00     0.090 A 
HETATM   14  C6  UNL     1      -5.673  -0.124   1.809  1.00  0.00     0.086 A 
HETATM   15  C7  UNL     1      -6.849  -0.762   2.110  1.00  0.00     0.117 A 
HETATM   16  N2  UNL     1      -7.781  -1.012   1.152  1.00  0.00    -0.177 N 
HETATM   17  C8  UNL     1      -7.478  -0.602  -0.080  1.00  0.00     0.678 A 
ATOM     18  H2  UNL     1      -8.660  -1.485   1.363  1.00  0.00     0.185 HD
HETATM   19  N4  UNL     1      -6.349   0.023  -0.421  1.00  0.00    -0.186 N 
ATOM     20  H4  UNL     1      -6.194   0.306  -1.389  1.00  0.00     0.185 HD
BRANCH  15  21
HETATM   21  N1  UNL     1      -7.105  -1.144   3.316  1.00  0.00    -0.385 N 
ATOM     22  H12 UNL     1      -6.406  -0.956   4.035  1.00  0.00     0.157 HD
ATOM     23  H11 UNL     1      -7.980  -1.619   3.540  1.00  0.00     0.157 HD
ENDBRANCH  15  21
BRANCH  17  24
HETATM   24  N3  UNL     1      -8.353  -0.827  -1.023  1.00  0.00    -0.234 N 
ATOM     25  H32 UNL     1      -9.216  -1.305  -0.762  1.00  0.00     0.174 HD
ATOM     26  H31 UNL     1      -8.121  -0.513  -1.965  1.00  0.00     0.174 HD
ENDBRANCH  17  24
ENDBRANCH  12  13
ENDBRANCH   4  12
BRANCH   8  27
HETATM   27  O4  UNL     1       0.162   2.122  -1.536  1.00  0.00    -0.389 OA
ATOM     28  H4  UNL     1       1.104   2.117  -1.416  1.00  0.00     0.210 HD
ENDBRANCH   8  27
BRANCH   3  29
HETATM   29  O2  UNL     1      -2.257  -2.116   0.344  1.00  0.00    -0.391 OA
ATOM     30  H2  UNL     1      -3.174  -2.252   0.138  1.00  0.00     0.210 HD
ENDBRANCH   3  29
BRANCH   9  31
HETATM   31  N6  UNL     1       1.599  -0.137  -0.305  1.00  0.00    -0.037 N 
ATOM     32  H62 UNL     1       1.804  -0.977   0.236  1.00  0.00     0.281 HD
ATOM     33  H61 UNL     1       1.651  -0.526  -1.246  1.00  0.00     0.281 HD
BRANCH  31  34
HETATM   34  C13 UNL     1       2.625   0.866  -0.106  1.00  0.00     0.350 C 
BRANCH  34  35
HETATM   35  O5  UNL     1       3.139   0.793   1.161  1.00  0.00    -0.368 OA
ATOM     36  H5  UNL     1       3.812   1.451   1.292  1.00  0.00     0.212 HD
ENDBRANCH  34  35
BRANCH  34  37
HETATM   37  C14 UNL     1       3.728   0.521  -1.129  1.00  0.00     0.204 C 
BRANCH  37  38
HETATM   38  O6  UNL     1       3.035   0.552  -2.410  1.00  0.00    -0.389 OA
ATOM     39  H6  UNL     1       3.714   0.340  -3.040  1.00  0.00     0.210 HD
ENDBRANCH  37  38
BRANCH  37  40
HETATM   40  C15 UNL     1       4.716   1.653  -1.145  1.00  0.00     0.171 C 
BRANCH  40  41
HETATM   41  O7  UNL     1       5.504   1.546  -2.344  1.00  0.00    -0.391 OA
ATOM     42  H7  UNL     1       6.129   2.262  -2.354  1.00  0.00     0.210 HD
ENDBRANCH  40  41
BRANCH  40  43
HETATM   43  C16 UNL     1       5.675   1.562   0.011  1.00  0.00     0.184 C 
BRANCH  43  44
HETATM   44  N7  UNL     1       6.487   0.372   0.025  1.00  0.00    -0.284 N 
HETATM   45  C17 UNL     1       6.248  -0.834   0.607  1.00  0.00     0.154 A 
HETATM   46  C18 UNL     1       7.353  -1.596   0.316  1.00  0.00     0.146 A 
HETATM   47  C19 UNL     1       7.608  -2.965   0.704  1.00  0.00     0.120 C 
HETATM   48  N9  UNL     1       8.208  -0.850  -0.417  1.00  0.00    -0.275 N 
HETATM   49  N8  UNL     1       7.835  -4.083   1.004  1.00  0.00    -0.190 NA
HETATM   50  N10 UNL     1       7.668   0.321  -0.579  1.00  0.00    -0.240 N 
ATOM     51  H9  UNL     1       9.113  -1.151  -0.778  1.00  0.00     0.189 HD
ATOM     52  H10 UNL     1       8.091   1.091  -1.097  1.00  0.00     0.208 HD
ENDBRANCH  43  44
ENDBRANCH  40  43
ENDBRANCH  37  40
ENDBRANCH  34  37
ENDBRANCH  31  34
ENDBRANCH   9  31
BRANCH   2  53
HETATM   53  O1  UNL     1       0.077  -1.808   0.827  1.00  0.00    -0.385 OA
ATOM     54  H1  UNL     1      -0.025  -2.065  -0.082  1.00  0.00     0.210 HD
ENDBRANCH   2  53
TORSDOF 17
