REMARK  9 active torsions:
REMARK  status: ('A' for Active; 'I' for Inactive)
REMARK       I    between atoms: C1_2  and  N2_4 
REMARK    1  A    between atoms: N2_4  and  C2_6 
REMARK    2  A    between atoms: C2_6  and  C3_7 
REMARK    3  A    between atoms: C3_7  and  C4_8 
REMARK    4  A    between atoms: C3_7  and  C6_13 
REMARK    5  A    between atoms: C4_8  and  N3_9 
REMARK    6  A    between atoms: N3_9  and  C5_11 
REMARK    7  A    between atoms: C6_13  and  N4_14 
REMARK    8  A    between atoms: N4_14  and  C7_17 
REMARK    9  A    between atoms: C7_17  and  C8_19 
ROOT
HETATM    1  C3  UNL     1      -0.114   0.599  -0.411  1.00  0.00     0.047 C 
ENDROOT
BRANCH   1   2
HETATM    2  C2  UNL     1       1.299   0.529  -0.858  1.00  0.00     0.132 C 
BRANCH   2   3
HETATM    3  N2  UNL     1       2.177  -0.144   0.059  1.00  0.00    -0.345 N 
HETATM    4  C1  UNL     1       3.542  -0.287  -0.213  1.00  0.00     0.328 C 
HETATM    5  N1  UNL     1       4.462  -0.927   0.626  1.00  0.00    -0.040 NA
HETATM    6  O1  UNL     1       3.984   0.200  -1.307  1.00  0.00    -0.251 OA
ATOM      7  H2  UNL     1       1.798  -0.525   0.926  1.00  0.00     0.163 HD
ENDBRANCH   2   3
ENDBRANCH   1   2
BRANCH   1   8
HETATM    8  C4  UNL     1      -0.267   1.324   0.896  1.00  0.00     0.130 C 
BRANCH   8   9
HETATM    9  N3  UNL     1       0.216   2.676   0.757  1.00  0.00    -0.368 N 
ATOM     10  H3  UNL     1       0.583   2.964  -0.150  1.00  0.00     0.161 HD
BRANCH   9  11
HETATM   11  C5  UNL     1       0.210   3.623   1.801  1.00  0.00     0.348 C 
HETATM   12  O2  UNL     1      -0.227   3.326   2.926  1.00  0.00    -0.284 OA
ENDBRANCH   9  11
ENDBRANCH   8   9
ENDBRANCH   1   8
BRANCH   1  13
HETATM   13  C6  UNL     1      -0.868  -0.718  -0.465  1.00  0.00     0.243 C 
BRANCH  13  14
HETATM   14  N4  UNL     1      -2.218  -0.571  -0.009  1.00  0.00    -0.038 N 
ATOM     15  H42 UNL     1      -2.246  -0.105   0.898  1.00  0.00     0.280 HD
ATOM     16  H41 UNL     1      -2.717   0.121  -0.568  1.00  0.00     0.280 HD
BRANCH  14  17
HETATM   17  C7  UNL     1      -2.933  -1.804   0.031  1.00  0.00     0.431 C 
HETATM   18  F1  UNL     1      -2.307  -2.720   0.881  1.00  0.00    -0.213 F 
BRANCH  17  19
HETATM   19  C8  UNL     1      -3.164  -2.480  -1.287  1.00  0.00     0.414 C 
HETATM   20  F2  UNL     1      -3.881  -1.628  -2.116  1.00  0.00    -0.209 F 
HETATM   21  F3  UNL     1      -2.090  -3.056  -1.871  1.00  0.00    -0.209 F 
ENDBRANCH  17  19
ENDBRANCH  14  17
ENDBRANCH  13  14
ENDBRANCH   1  13
TORSDOF 9
