REMARK  8 active torsions:
REMARK  status: ('A' for Active; 'I' for Inactive)
REMARK    1  A    between atoms: C1_2  and  N1_3 
REMARK    2  A    between atoms: N1_3  and  C2_5 
REMARK    3  A    between atoms: C2_5  and  C3_7 
REMARK       I    between atoms: C3_7  and  N2_9 
REMARK    4  A    between atoms: N2_9  and  C4_11 
REMARK    5  A    between atoms: C4_11  and  C5_12 
REMARK    6  A    between atoms: C5_12  and  N3_13 
REMARK       I    between atoms: N3_13  and  C6_15 
REMARK       I    between atoms: C6_15  and  N4_17 
REMARK    7  A    between atoms: N4_17  and  C7_19 
REMARK    8  A    between atoms: C7_19  and  C8_20 
ROOT
HETATM    1  C4  UNL     1      -0.436   0.182   0.740  1.00  0.00     0.142 C 
ENDROOT
BRANCH   1   2
HETATM    2  N2  UNL     1      -1.722  -0.429   0.994  1.00  0.00    -0.356 N 
HETATM    3  C3  UNL     1      -2.888  -0.035   0.313  1.00  0.00     0.271 C 
HETATM    4  O2  UNL     1      -2.841   0.876  -0.546  1.00  0.00    -0.268 OA
ATOM      5  H2  UNL     1      -1.786  -1.171   1.691  1.00  0.00     0.162 HD
BRANCH   3   6
HETATM    6  C2  UNL     1      -4.167  -0.717   0.631  1.00  0.00     0.364 C 
HETATM    7  F1  UNL     1      -4.066  -2.086   0.424  1.00  0.00    -0.216 F 
BRANCH   6   8
HETATM    8  N1  UNL     1      -5.271  -0.226  -0.128  1.00  0.00    -0.330 N 
ATOM      9  H1  UNL     1      -5.274  -0.296  -1.146  1.00  0.00     0.165 HD
BRANCH   8  10
HETATM   10  C1  UNL     1      -6.365   0.362   0.561  1.00  0.00     0.351 C 
HETATM   11  O1  UNL     1      -6.382   0.458   1.832  1.00  0.00    -0.284 OA
ENDBRANCH   8  10
ENDBRANCH   6   8
ENDBRANCH   3   6
ENDBRANCH   1   2
BRANCH   1  12
HETATM   12  C5  UNL     1       0.054   0.018  -0.671  1.00  0.00     0.144 C 
BRANCH  12  13
HETATM   13  N3  UNL     1       1.334   0.628  -0.913  1.00  0.00    -0.342 N 
HETATM   14  C6  UNL     1       2.512   0.244  -0.227  1.00  0.00     0.316 C 
HETATM   15  O3  UNL     1       2.507  -0.676   0.648  1.00  0.00    -0.247 OA
HETATM   16  N4  UNL     1       3.750   0.906  -0.520  1.00  0.00    -0.338 N 
ATOM     17  H4  UNL     1       3.740   1.645  -1.223  1.00  0.00     0.164 HD
ATOM     18  H3  UNL     1       1.396   1.370  -1.610  1.00  0.00     0.164 HD
BRANCH  16  19
HETATM   19  C7  UNL     1       4.997   0.598   0.108  1.00  0.00     0.195 C 
BRANCH  19  20
HETATM   20  C8  UNL     1       5.453  -0.830  -0.111  1.00  0.00     0.370 C 
HETATM   21  F2  UNL     1       6.671  -0.948   0.562  1.00  0.00    -0.213 F 
HETATM   22  F3  UNL     1       5.610  -1.101  -1.435  1.00  0.00    -0.213 F 
ENDBRANCH  19  20
ENDBRANCH  16  19
ENDBRANCH  12  13
ENDBRANCH   1  12
TORSDOF 8
