REMARK  8 active torsions:
REMARK  status: ('A' for Active; 'I' for Inactive)
REMARK    1  A    between atoms: C10_10  and  O1_11 
REMARK    2  A    between atoms: O1_11  and  C11_12 
REMARK    3  A    between atoms: C11_12  and  C12_14 
REMARK    4  A    between atoms: C16_18  and  O3_19 
REMARK    5  A    between atoms: O3_19  and  C17_20 
REMARK    6  A    between atoms: C17_20  and  C18_22 
REMARK    7  A    between atoms: C20_24  and  S1_25 
REMARK    8  A    between atoms: C22_32  and  O9_33 
ROOT
HETATM    1  C1  UNL     1       2.010   3.676   0.916  1.00  0.00     0.017 C 
HETATM    2  C2  UNL     1       1.091   2.743   0.701  1.00  0.00    -0.055 C 
HETATM    3  C3  UNL     1      -0.235   3.187   0.253  1.00  0.00     0.012 C 
HETATM    4  C4  UNL     1      -0.214   4.702  -0.031  1.00  0.00     0.015 C 
HETATM    5  C5  UNL     1      -1.342   3.036   1.279  1.00  0.00     0.009 C 
HETATM    6  C6  UNL     1      -2.729   3.181   0.703  1.00  0.00     0.011 C 
HETATM    7  C7  UNL     1      -3.588   1.960   0.766  1.00  0.00     0.027 A 
HETATM    8  C8  UNL     1      -2.996   0.716   0.354  1.00  0.00    -0.067 A 
HETATM    9  C9  UNL     1      -2.177  -0.163   0.857  1.00  0.00     0.009 C 
HETATM   10  C10 UNL     1      -1.695  -1.423   0.178  1.00  0.00     0.155 C 
HETATM   11  C14 UNL     1      -0.141  -1.437   0.274  1.00  0.00     0.039 C 
HETATM   12  C15 UNL     1       0.275  -0.198  -0.407  1.00  0.00     0.038 C 
HETATM   13  C16 UNL     1       1.596   0.405  -0.182  1.00  0.00     0.165 C 
HETATM   14  C22 UNL     1       1.543   1.355   0.957  1.00  0.00     0.176 C 
HETATM   15  C23 UNL     1      -3.939   1.385  -0.593  1.00  0.00    -0.017 A 
HETATM   16  C24 UNL     1      -5.322   0.790  -0.771  1.00  0.00     0.020 C 
HETATM   17  C25 UNL     1      -3.338   1.914  -1.846  1.00  0.00     0.020 C 
ENDROOT
BRANCH  13  18
HETATM   18  O3  UNL     1       2.647  -0.541  -0.068  1.00  0.00    -0.309 OA
BRANCH  18  19
HETATM   19  C17 UNL     1       3.734  -0.635  -0.894  1.00  0.00     0.297 C 
HETATM   20  O4  UNL     1       3.797   0.195  -1.836  1.00  0.00    -0.259 OA
BRANCH  19  21
HETATM   21  C18 UNL     1       4.787  -1.655  -0.700  1.00  0.00     0.088 A 
HETATM   22  C19 UNL     1       6.151  -1.507  -0.843  1.00  0.00     0.074 A 
HETATM   23  C20 UNL     1       6.747  -2.720  -0.561  1.00  0.00     0.194 A 
HETATM   24  O8  UNL     1       5.801  -3.549  -0.265  1.00  0.00    -0.283 OA
HETATM   25  C21 UNL     1       4.614  -2.978  -0.330  1.00  0.00     0.162 A 
HETATM   26 CL1  UNL     1       3.105  -3.759  -0.005  1.00  0.00    -0.055 Cl
BRANCH  23  27
HETATM   27  S1  UNL     1       8.480  -3.022  -0.611  1.00  0.00     0.161 S 
HETATM   28  O5  UNL     1       8.782  -4.143  -1.555  1.00  0.00    -0.590 OA
HETATM   29  O6  UNL     1       9.222  -1.784  -1.014  1.00  0.00    -0.590 OA
HETATM   30  O7  UNL     1       8.984  -3.514   0.918  1.00  0.00    -0.590 OA
ENDBRANCH  23  27
ENDBRANCH  19  21
ENDBRANCH  18  19
ENDBRANCH  13  18
BRANCH  14  31
HETATM   31  O9  UNL     1       0.946   0.909   2.111  1.00  0.00    -0.389 OA
ATOM     32  H9  UNL     1       1.236   0.019   2.275  1.00  0.00     0.210 HD
ENDBRANCH  14  31
BRANCH  10  33
HETATM   33  O1  UNL     1      -2.262  -2.586   0.617  1.00  0.00    -0.312 OA
BRANCH  33  34
HETATM   34  C11 UNL     1      -2.964  -3.508  -0.117  1.00  0.00     0.259 C 
HETATM   35  O2  UNL     1      -3.108  -3.263  -1.341  1.00  0.00    -0.265 OA
BRANCH  34  36
HETATM   36  C12 UNL     1      -3.500  -4.715   0.557  1.00  0.00     0.106 C 
HETATM   37  C13 UNL     1      -4.952  -4.423   0.908  1.00  0.00     0.015 C 
ENDBRANCH  34  36
ENDBRANCH  33  34
ENDBRANCH  10  33
TORSDOF 8
