REMARK  6 active torsions:
REMARK  status: ('A' for Active; 'I' for Inactive)
REMARK    1  A    between atoms: N2_17  and  C12_18 
REMARK    2  A    between atoms: C12_18  and  C13_19 
REMARK    3  A    between atoms: C16_22  and  S1_23 
REMARK    4  A    between atoms: S1_23  and  C17_26 
REMARK    5  A    between atoms: C17_26  and  C18_27 
REMARK    6  A    between atoms: C18_27  and  O6_28 
ROOT
HETATM    1  C1  UNL     1      -5.116   4.310   0.010  1.00  0.00     0.038 C 
HETATM    2  C2  UNL     1      -4.985   3.007   0.219  1.00  0.00    -0.001 C 
HETATM    3  N1  UNL     1      -5.606   2.123  -0.704  1.00  0.00    -0.393 N 
ATOM      4  H1  UNL     1      -6.497   2.416  -1.105  1.00  0.00     0.159 HD
HETATM    5  C3  UNL     1      -5.081   0.842  -1.123  1.00  0.00     0.121 C 
HETATM    6  C4  UNL     1      -5.658  -0.309  -0.327  1.00  0.00     0.046 C 
HETATM    7  C5  UNL     1      -4.728  -1.493  -0.539  1.00  0.00     0.169 C 
HETATM    8  O1  UNL     1      -4.955  -2.401   0.459  1.00  0.00    -0.389 OA
HETATM    9  C6  UNL     1      -4.305  -3.602   0.320  1.00  0.00     0.193 C 
HETATM   10  C7  UNL     1      -3.191  -3.571  -0.699  1.00  0.00     0.193 C 
HETATM   11  O2  UNL     1      -2.572  -4.829  -0.657  1.00  0.00    -0.387 OA
HETATM   12  C8  UNL     1      -1.224  -4.677  -0.926  1.00  0.00     0.193 C 
HETATM   13  C9  UNL     1      -0.356  -4.865   0.289  1.00  0.00     0.193 C 
HETATM   14  O3  UNL     1       0.653  -3.933   0.373  1.00  0.00    -0.387 OA
HETATM   15  C10 UNL     1       0.563  -3.114   1.499  1.00  0.00     0.198 C 
HETATM   16  C11 UNL     1       0.185  -1.727   1.071  1.00  0.00     0.299 C 
HETATM   17  N2  UNL     1       1.336  -0.824   0.991  1.00  0.00     0.094 N 
HETATM   18  C21 UNL     1       0.813   0.488   0.722  1.00  0.00     0.273 C 
HETATM   19  C22 UNL     1       0.319   0.687  -0.687  1.00  0.00     0.030 C 
HETATM   20  C23 UNL     1      -0.045   2.105  -0.988  1.00  0.00     0.002 C 
HETATM   21  C24 UNL     1      -0.628   2.883   0.138  1.00  0.00     0.000 C 
HETATM   22  C25 UNL     1      -2.135   3.032   0.047  1.00  0.00     0.001 C 
HETATM   23  C26 UNL     1      -2.785   2.186   1.097  1.00  0.00     0.010 C 
HETATM   24  C27 UNL     1      -4.207   2.567   1.401  1.00  0.00     0.030 C 
HETATM   25  C28 UNL     1      -4.183   3.631   2.476  1.00  0.00     0.016 C 
ENDROOT
BRANCH  17  26
HETATM   26  C12 UNL     1       2.260  -1.336   0.032  1.00  0.00     0.311 C 
BRANCH  26  27
HETATM   27  C13 UNL     1       3.487  -0.525  -0.145  1.00  0.00    -0.030 A 
HETATM   28  C14 UNL     1       4.183  -0.578  -1.333  1.00  0.00     0.010 A 
HETATM   29  C15 UNL     1       5.348   0.171  -1.519  1.00  0.00     0.024 A 
HETATM   30  C16 UNL     1       5.834   0.986  -0.514  1.00  0.00     0.059 A 
HETATM   31  C19 UNL     1       5.141   1.037   0.665  1.00  0.00     0.024 A 
HETATM   32  C20 UNL     1       3.985   0.288   0.839  1.00  0.00     0.010 A 
BRANCH  30  33
HETATM   33  S1  UNL     1       7.290   1.885  -0.818  1.00  0.00     0.177 S 
HETATM   34  O4  UNL     1       7.369   2.249  -2.271  1.00  0.00    -0.223 OA
HETATM   35  O5  UNL     1       7.233   3.163  -0.006  1.00  0.00    -0.223 OA
BRANCH  33  36
HETATM   36  C17 UNL     1       8.738   1.023  -0.334  1.00  0.00     0.171 C 
BRANCH  36  37
HETATM   37  C18 UNL     1       8.875  -0.302  -1.083  1.00  0.00     0.179 C 
BRANCH  37  38
HETATM   38  O6  UNL     1      10.032  -0.972  -0.682  1.00  0.00    -0.400 OA
ATOM     39  H6  UNL     1      10.117  -1.796  -1.148  1.00  0.00     0.209 HD
ENDBRANCH  37  38
ENDBRANCH  36  37
ENDBRANCH  33  36
ENDBRANCH  30  33
ENDBRANCH  26  27
ENDBRANCH  17  26
TORSDOF 6
