REMARK  12 active torsions:
REMARK  status: ('A' for Active; 'I' for Inactive)
REMARK    1  A    between atoms: C1_2  and  C2_3 
REMARK       I    between atoms: C1_2  and  N1_14 
REMARK    2  A    between atoms: C2_3  and  O2_4 
REMARK    3  A    between atoms: O2_4  and  C3_5 
REMARK    4  A    between atoms: C3_5  and  C4_7 
REMARK    5  A    between atoms: C4_7  and  C5_8 
REMARK    6  A    between atoms: C5_8  and  C6_9 
REMARK    7  A    between atoms: N1_14  and  C10_16 
REMARK    8  A    between atoms: C14_20  and  C15_21 
REMARK    9  A    between atoms: C15_21  and  O6_23 
REMARK   10  A    between atoms: O6_23  and  C16_24 
REMARK   11  A    between atoms: C19_27  and  N2_28 
REMARK   12  A    between atoms: C21_32  and  N3_33 
ROOT
HETATM    1  C10 UNL     1      -0.304  -1.095   0.236  1.00  0.00     0.035 A 
HETATM    2  C11 UNL     1      -0.318  -2.386   0.673  1.00  0.00     0.029 A 
HETATM    3  C12 UNL     1      -1.559  -2.998   0.887  1.00  0.00     0.003 A 
HETATM    4  C13 UNL     1      -2.719  -2.320   0.663  1.00  0.00     0.018 A 
HETATM    5  C14 UNL     1      -2.735  -1.003   0.216  1.00  0.00     0.042 A 
HETATM    6  C22 UNL     1      -1.523  -0.411   0.010  1.00  0.00     0.047 A 
ENDROOT
BRANCH   1   7
HETATM    7  N1  UNL     1       0.868  -0.345   0.003  1.00  0.00    -0.325 N 
HETATM    8  C1  UNL     1       2.117  -0.659   0.551  1.00  0.00     0.246 C 
HETATM    9  O1  UNL     1       2.345  -1.611   1.302  1.00  0.00    -0.271 OA
ATOM     10  H1  UNL     1       0.801   0.475  -0.601  1.00  0.00     0.169 HD
BRANCH   8  11
HETATM   11  C2  UNL     1       3.276   0.256   0.185  1.00  0.00     0.281 C 
BRANCH  11  12
HETATM   12  O2  UNL     1       4.439  -0.212   0.830  1.00  0.00    -0.312 OA
BRANCH  12  13
HETATM   13  C3  UNL     1       5.661   0.451   0.666  1.00  0.00     0.259 C 
HETATM   14  O3  UNL     1       5.648   1.461  -0.076  1.00  0.00    -0.265 OA
BRANCH  13  15
HETATM   15  C4  UNL     1       6.890  -0.032   1.340  1.00  0.00     0.117 C 
BRANCH  15  16
HETATM   16  C5  UNL     1       8.052   0.809   0.926  1.00  0.00     0.075 C 
BRANCH  16  17
HETATM   17  C6  UNL     1       8.266   0.675  -0.561  1.00  0.00     0.053 A 
HETATM   18  C7  UNL     1       9.244   1.373  -1.249  1.00  0.00     0.034 A 
HETATM   19  C8  UNL     1       9.139   0.998  -2.565  1.00  0.00     0.027 A 
HETATM   20  C9  UNL     1       8.102   0.094  -2.595  1.00  0.00     0.142 A 
HETATM   21  O4  UNL     1       7.613  -0.071  -1.398  1.00  0.00    -0.327 OA
ENDBRANCH  16  17
ENDBRANCH  15  16
ENDBRANCH  13  15
ENDBRANCH  12  13
ENDBRANCH  11  12
ENDBRANCH   8  11
ENDBRANCH   1   7
BRANCH   5  22
HETATM   22  C15 UNL     1      -3.989  -0.303  -0.014  1.00  0.00     0.298 C 
HETATM   23  O5  UNL     1      -3.938   0.889  -0.418  1.00  0.00    -0.259 OA
BRANCH  22  24
HETATM   24  O6  UNL     1      -5.226  -0.900   0.193  1.00  0.00    -0.272 OA
BRANCH  24  25
HETATM   25  C16 UNL     1      -6.381  -0.172  -0.047  1.00  0.00     0.112 A 
HETATM   26  C17 UNL     1      -6.977   0.569   0.967  1.00  0.00     0.042 A 
HETATM   27  C18 UNL     1      -8.123   1.300   0.758  1.00  0.00     0.039 A 
HETATM   28  C19 UNL     1      -8.734   1.329  -0.477  1.00  0.00     0.105 A 
HETATM   29  C20 UNL     1      -8.157   0.600  -1.494  1.00  0.00     0.075 A 
HETATM   30  C21 UNL     1      -7.003  -0.134  -1.277  1.00  0.00     0.139 A 
BRANCH  28  31
HETATM   31  N2  UNL     1      -9.916   2.076  -0.713  1.00  0.00    -0.116 N 
HETATM   32  O7  UNL     1     -10.438   2.076  -1.839  1.00  0.00    -0.532 OA
HETATM   33  O8  UNL     1     -10.463   2.786   0.304  1.00  0.00    -0.532 OA
ENDBRANCH  28  31
BRANCH  30  34
HETATM   34  N3  UNL     1      -6.442  -0.871  -2.355  1.00  0.00    -0.113 N 
HETATM   35  O9  UNL     1      -6.611  -0.517  -3.548  1.00  0.00    -0.532 OA
HETATM   36  O10 UNL     1      -5.691  -2.000  -2.158  1.00  0.00    -0.532 OA
ENDBRANCH  30  34
ENDBRANCH  24  25
ENDBRANCH  22  24
ENDBRANCH   5  22
TORSDOF 12
