REMARK  11 active torsions:
REMARK  status: ('A' for Active; 'I' for Inactive)
REMARK    1  A    between atoms: O1_2  and  N1_3 
REMARK    2  A    between atoms: C2_5  and  C3_6 
REMARK    3  A    between atoms: C3_6  and  C4_7 
REMARK    4  A    between atoms: C3_6  and  C13_20 
REMARK       I    between atoms: C4_7  and  N2_9 
REMARK    5  A    between atoms: N2_9  and  C5_11 
REMARK    6  A    between atoms: C13_20  and  O5_22 
REMARK    7  A    between atoms: O5_22  and  C14_23 
REMARK    8  A    between atoms: C14_23  and  O6_24 
REMARK    9  A    between atoms: O6_24  and  C15_25 
REMARK   10  A    between atoms: C15_25  and  C16_27 
REMARK   11  A    between atoms: C21_32  and  N3_33 
ROOT
HETATM    1  C3  UNL     1       0.855  -0.045   0.152  1.00  0.00     0.218 C 
ENDROOT
BRANCH   1   2
HETATM    2  C2  UNL     1       1.162  -0.550   1.510  1.00  0.00     0.111 C 
HETATM    3  N1  UNL     1       1.826   0.139   2.365  1.00  0.00    -0.281 N 
ATOM      4  H1  UNL     1       2.166   1.071   2.126  1.00  0.00     0.193 HD
BRANCH   3   5
HETATM    5  O1  UNL     1       2.071  -0.392   3.598  1.00  0.00    -0.286 OA
HETATM    6  C1  UNL     1       2.960  -1.511   3.652  1.00  0.00     0.237 C 
ENDBRANCH   3   5
ENDBRANCH   1   2
BRANCH   1   7
HETATM    7  C4  UNL     1       1.983   0.847  -0.337  1.00  0.00     0.241 C 
HETATM    8  O2  UNL     1       1.652   2.017  -0.599  1.00  0.00    -0.272 OA
HETATM    9  N2  UNL     1       3.256   0.266  -0.439  1.00  0.00    -0.324 N 
ATOM     10  H2  UNL     1       3.318  -0.717  -0.174  1.00  0.00     0.169 HD
BRANCH   9  11
HETATM   11  C5  UNL     1       4.461   0.865  -0.861  1.00  0.00     0.069 A 
HETATM   12  C6  UNL     1       4.561   2.162  -1.250  1.00  0.00     0.032 A 
HETATM   13  C7  UNL     1       5.778   2.714  -1.662  1.00  0.00     0.003 A 
HETATM   14  C8  UNL     1       6.899   1.926  -1.672  1.00  0.00     0.014 A 
HETATM   15  C9  UNL     1       6.804   0.610  -1.279  1.00  0.00     0.002 A 
HETATM   16  C10 UNL     1       7.725  -0.406  -1.182  1.00  0.00     0.039 A 
HETATM   17  C12 UNL     1       5.602   0.088  -0.879  1.00  0.00     0.112 A 
HETATM   18  C11 UNL     1       7.029  -1.516  -0.722  1.00  0.00     0.143 A 
HETATM   19  O3  UNL     1       5.792  -1.156  -0.565  1.00  0.00    -0.320 OA
ENDBRANCH   9  11
ENDBRANCH   1   7
BRANCH   1  20
HETATM   20  C13 UNL     1      -0.436   0.674   0.138  1.00  0.00     0.279 C 
HETATM   21  O4  UNL     1      -1.114   0.794   1.193  1.00  0.00    -0.264 OA
BRANCH  20  22
HETATM   22  O5  UNL     1      -0.930   1.231  -1.018  1.00  0.00    -0.294 OA
BRANCH  22  23
HETATM   23  C14 UNL     1      -2.163   1.926  -1.062  1.00  0.00     0.358 C 
BRANCH  23  24
HETATM   24  O6  UNL     1      -3.246   1.071  -0.665  1.00  0.00    -0.291 OA
BRANCH  24  25
HETATM   25  C15 UNL     1      -3.555  -0.080  -1.327  1.00  0.00     0.297 C 
HETATM   26  O7  UNL     1      -2.814  -0.354  -2.333  1.00  0.00    -0.259 OA
BRANCH  25  27
HETATM   27  C16 UNL     1      -4.628  -1.008  -1.003  1.00  0.00     0.066 A 
HETATM   28  C17 UNL     1      -4.796  -2.147  -1.799  1.00  0.00     0.020 A 
HETATM   29  C18 UNL     1      -5.785  -3.067  -1.554  1.00  0.00     0.001 A 
HETATM   30  C19 UNL     1      -6.647  -2.879  -0.498  1.00  0.00     0.002 A 
HETATM   31  C20 UNL     1      -6.526  -1.782   0.312  1.00  0.00     0.031 A 
HETATM   32  C21 UNL     1      -5.508  -0.853   0.045  1.00  0.00     0.056 A 
BRANCH  32  33
HETATM   33  N3  UNL     1      -5.376   0.291   0.882  1.00  0.00    -0.316 N 
HETATM   34  C22 UNL     1      -4.641   0.323   2.001  1.00  0.00     0.115 A 
HETATM   35  C23 UNL     1      -4.781   1.592   2.546  1.00  0.00     0.106 A 
HETATM   36  N4  UNL     1      -5.600   2.297   1.739  1.00  0.00    -0.360 N 
HETATM   37  C24 UNL     1      -5.946   1.478   0.734  1.00  0.00     0.188 A 
ATOM     38  H4  UNL     1      -5.898   3.264   1.868  1.00  0.00     0.166 HD
ENDBRANCH  32  33
ENDBRANCH  25  27
ENDBRANCH  24  25
ENDBRANCH  23  24
ENDBRANCH  22  23
ENDBRANCH  20  22
ENDBRANCH   1  20
TORSDOF 11
