REMARK  2 active torsions:
REMARK  status: ('A' for Active; 'I' for Inactive)
REMARK    1  A    between atoms: C2_2  and  C3_3 
REMARK    2  A    between atoms: C8_11  and  O3_12 
ROOT
HETATM    1  C3  UNL     1       0.827   0.698   0.440  1.00  0.00     0.177 C 
HETATM    2  O1  UNL     1       0.281   0.257   1.658  1.00  0.00    -0.348 OA
HETATM    3  C4  UNL     1      -1.116   0.264   1.529  1.00  0.00     0.285 C 
HETATM    4  C5  UNL     1      -1.565  -0.926   0.663  1.00  0.00     0.094 C 
HETATM    5  C6  UNL     1      -1.184  -0.349  -0.661  1.00  0.00     0.085 A 
HETATM    6  C7  UNL     1      -1.921   0.374  -1.591  1.00  0.00     0.152 A 
HETATM    7  N1  UNL     1      -1.952   0.969  -0.400  1.00  0.00    -0.178 NA
HETATM    8  O2  UNL     1      -1.391   1.330   0.646  1.00  0.00    -0.270 OA
HETATM    9  C8  UNL     1       0.320  -0.204  -0.633  1.00  0.00     0.177 C 
ENDROOT
BRANCH   1  10
HETATM   10  C2  UNL     1       2.310   0.600   0.474  1.00  0.00    -0.003 C 
HETATM   11  C1  UNL     1       2.912  -0.549   0.699  1.00  0.00     0.009 C 
ENDBRANCH   1  10
BRANCH   9  12
HETATM   12  O3  UNL     1       0.808   0.085  -1.892  1.00  0.00    -0.391 OA
ATOM     13  H3  UNL     1       0.485  -0.490  -2.576  1.00  0.00     0.210 HD
ENDBRANCH   9  12
TORSDOF 2
