REMARK  1 active torsions:
REMARK  status: ('A' for Active; 'I' for Inactive)
REMARK    1  A    between atoms: C3_4  and  C4_5 
ROOT
HETATM    1  C1  UNL     1      -3.296   0.267  -0.016  1.00  0.00     0.258 C 
HETATM    2  C2  UNL     1      -2.391   1.337  -0.497  1.00  0.00     0.196 C 
HETATM    3  O1  UNL     1      -1.121   0.932  -0.830  1.00  0.00    -0.380 OA
HETATM    4  C3  UNL     1      -0.608   0.213   0.215  1.00  0.00     0.178 C 
HETATM    5  C8  UNL     1      -1.333  -1.082   0.298  1.00  0.00     0.266 C 
HETATM    6  N1  UNL     1      -2.688  -0.753   0.770  1.00  0.00    -0.071 N 
ATOM      7  H11 UNL     1      -3.276  -1.585   0.815  1.00  0.00     0.277 HD
ATOM      8  H12 UNL     1      -2.685  -0.505   1.759  1.00  0.00     0.277 HD
ENDROOT
BRANCH   4   9
HETATM    9  C4  UNL     1       0.882   0.097   0.128  1.00  0.00     0.175 C 
HETATM   10  C5  UNL     1       1.514  -0.549   1.308  1.00  0.00     0.202 C 
HETATM   11  O2  UNL     1       2.851  -0.154   1.357  1.00  0.00    -0.386 OA
HETATM   12  C6  UNL     1       3.323   0.218   0.117  1.00  0.00     0.193 C 
HETATM   13  C7  UNL     1       2.701  -0.513  -1.023  1.00  0.00     0.194 C 
HETATM   14  O3  UNL     1       1.327  -0.526  -1.014  1.00  0.00    -0.379 OA
ENDBRANCH   4   9
TORSDOF 1
