REMARK  4 active torsions:
REMARK  status: ('A' for Active; 'I' for Inactive)
REMARK    1  A    between atoms: N1_1  and  C1_5 
REMARK    2  A    between atoms: C1_5  and  C2_6 
REMARK    3  A    between atoms: C1_5  and  C7_12 
REMARK    4  A    between atoms: C2_6  and  C3_7 
ROOT
HETATM    1  C1  UNL     1      -0.069  -0.869  -0.528  1.00  0.00     0.188 C 
ENDROOT
BRANCH   1   2
HETATM    2  N1  UNL     1       0.950  -1.931  -0.278  1.00  0.00    -0.075 N 
ATOM      3  H13 UNL     1       1.322  -1.934   0.672  1.00  0.00     0.274 HD
ATOM      4  H12 UNL     1       0.567  -2.876  -0.254  1.00  0.00     0.274 HD
ATOM      5  H11 UNL     1       1.656  -1.787  -1.000  1.00  0.00     0.274 HD
ENDBRANCH   1   2
BRANCH   1   6
HETATM    6  C2  UNL     1      -1.082  -1.076   0.509  1.00  0.00     0.040 C 
BRANCH   6   7
HETATM    7  C3  UNL     1      -2.271  -0.297   0.650  1.00  0.00     0.013 C 
HETATM    8  C4  UNL     1      -3.239  -0.284  -0.541  1.00  0.00     0.033 C 
HETATM    9  C5  UNL     1      -4.306   0.556   0.137  1.00  0.00     0.168 C 
HETATM   10  O1  UNL     1      -3.692   1.417   1.001  1.00  0.00    -0.391 OA
HETATM   11  C6  UNL     1      -2.305   1.132   0.982  1.00  0.00     0.172 C 
ENDBRANCH   6   7
ENDBRANCH   1   6
BRANCH   1  12
HETATM   12  C7  UNL     1       0.741   0.405  -0.458  1.00  0.00     0.016 C 
HETATM   13  C8  UNL     1       1.812   0.355  -1.524  1.00  0.00     0.007 C 
HETATM   14  C9  UNL     1       3.094  -0.273  -1.143  1.00  0.00     0.000 C 
HETATM   15  C10 UNL     1       3.547   0.015   0.252  1.00  0.00     0.000 C 
HETATM   16  C11 UNL     1       2.722   1.199   0.772  1.00  0.00     0.000 C 
HETATM   17  C12 UNL     1       1.268   0.728   0.896  1.00  0.00     0.007 C 
ENDBRANCH   1  12
TORSDOF 4
