REMARK  16 active torsions:
REMARK  status: ('A' for Active; 'I' for Inactive)
REMARK    1  A    between atoms: C14_15  and  O2_16 
REMARK    2  A    between atoms: O2_16  and  C15_17 
REMARK    3  A    between atoms: C15_17  and  C24_29 
REMARK    4  A    between atoms: C16_18  and  O3_19 
REMARK    5  A    between atoms: C16_18  and  C17_21 
REMARK    6  A    between atoms: C17_21  and  C18_22 
REMARK    7  A    between atoms: C18_22  and  C19_23 
REMARK    8  A    between atoms: C21_25  and  C22_26 
REMARK    9  A    between atoms: C25_30  and  O5_31 
REMARK   10  A    between atoms: C27_34  and  O6_35 
REMARK   11  A    between atoms: C30_39  and  C31_40 
REMARK   12  A    between atoms: C31_40  and  O7_41 
REMARK   13  A    between atoms: C31_40  and  C34_45 
REMARK   14  A    between atoms: O7_41  and  C32_42 
REMARK   15  A    between atoms: C34_45  and  C36_47 
REMARK   16  A    between atoms: C36_47  and  C37_48 
ROOT
HETATM    1  C15 UNL     1      -0.218   0.671   0.998  1.00  0.00     0.112 C 
HETATM    2  C16 UNL     1      -0.531   1.838   0.464  1.00  0.00     0.077 C 
ENDROOT
BRANCH   1   3
HETATM    3  O2  UNL     1       0.903   0.010   0.696  1.00  0.00    -0.337 OA
BRANCH   3   4
HETATM    4  C14 UNL     1       2.167  -0.236   1.038  1.00  0.00     0.166 C 
HETATM    5  C2  UNL     1       3.097   0.910   1.003  1.00  0.00    -0.059 C 
HETATM    6  C1  UNL     1       3.369   1.753   1.963  1.00  0.00     0.017 C 
HETATM    7  C3  UNL     1       3.847   1.136  -0.298  1.00  0.00     0.036 C 
HETATM    8  C4  UNL     1       4.833  -0.030  -0.361  1.00  0.00     0.011 C 
HETATM    9  C5  UNL     1       4.312  -1.208   0.442  1.00  0.00     0.012 C 
HETATM   10  C6  UNL     1       5.116  -2.406   0.127  1.00  0.00     0.018 C 
HETATM   11  C12 UNL     1       2.814  -1.359   0.201  1.00  0.00    -0.008 C 
HETATM   12  C7  UNL     1       6.269  -2.153  -0.820  1.00  0.00     0.023 C 
HETATM   13  C8  UNL     1       5.748  -2.936   1.428  1.00  0.00     0.023 C 
HETATM   14  C9  UNL     1       4.328  -3.541  -0.407  1.00  0.00     0.135 C 
HETATM   15  O1  UNL     1       4.824  -4.251  -1.247  1.00  0.00    -0.297 OA
HETATM   16  C10 UNL     1       2.945  -3.849   0.048  1.00  0.00     0.080 C 
HETATM   17  C11 UNL     1       2.400  -2.666   0.812  1.00  0.00     0.020 C 
HETATM   18  C13 UNL     1       2.476  -1.335  -1.233  1.00  0.00     0.018 C 
ENDBRANCH   3   4
ENDBRANCH   1   3
BRANCH   1  19
HETATM   19  C24 UNL     1      -1.252   0.180   1.958  1.00  0.00     0.043 A 
HETATM   20  C25 UNL     1      -0.840   0.251   3.262  1.00  0.00     0.082 A 
HETATM   21  C26 UNL     1      -1.740  -0.064   4.266  1.00  0.00     0.074 A 
HETATM   22  C27 UNL     1      -2.998  -0.427   3.916  1.00  0.00     0.074 A 
HETATM   23  C28 UNL     1      -3.451  -0.506   2.575  1.00  0.00    -0.019 A 
HETATM   24  C29 UNL     1      -4.841  -0.785   2.332  1.00  0.00     0.052 C 
HETATM   25  C30 UNL     1      -2.546  -0.199   1.560  1.00  0.00    -0.004 A 
BRANCH  20  26
HETATM   26  O5  UNL     1       0.447   0.630   3.634  1.00  0.00    -0.360 OA
ATOM     27  H5  UNL     1       0.733   0.679   4.539  1.00  0.00     0.217 HD
ENDBRANCH  20  26
BRANCH  22  28
HETATM   28  O6  UNL     1      -3.965  -0.759   4.893  1.00  0.00    -0.360 OA
ATOM     29  H6  UNL     1      -4.847  -1.013   4.648  1.00  0.00     0.217 HD
ENDBRANCH  22  28
BRANCH  25  30
HETATM   30  C31 UNL     1      -2.819  -0.303   0.161  1.00  0.00     0.170 C 
BRANCH  30  31
HETATM   31  O7  UNL     1      -2.340  -1.725  -0.023  1.00  0.00    -0.311 OA
BRANCH  31  32
HETATM   32  C32 UNL     1      -1.463  -2.132  -0.932  1.00  0.00     0.255 C 
HETATM   33  C33 UNL     1      -1.077  -3.586  -0.965  1.00  0.00     0.126 C 
HETATM   34  O8  UNL     1      -0.945  -1.377  -1.755  1.00  0.00    -0.266 OA
ENDBRANCH  31  32
ENDBRANCH  30  31
BRANCH  30  35
HETATM   35  C34 UNL     1      -4.135  -0.496  -0.482  1.00  0.00     0.016 C 
HETATM   36  C35 UNL     1      -3.777  -0.264  -2.034  1.00  0.00     0.013 C 
BRANCH  35  37
HETATM   37  C36 UNL     1      -4.570  -1.947  -0.613  1.00  0.00     0.011 C 
BRANCH  37  38
HETATM   38  C37 UNL     1      -5.948  -2.175  -1.124  1.00  0.00    -0.022 C 
HETATM   39  C38 UNL     1      -6.128  -3.714  -1.132  1.00  0.00     0.009 C 
HETATM   40  C39 UNL     1      -6.331  -1.718  -2.468  1.00  0.00     0.009 C 
ENDBRANCH  37  38
ENDBRANCH  35  37
ENDBRANCH  30  35
ENDBRANCH  25  30
ENDBRANCH   1  19
BRANCH   2  41
HETATM   41  O3  UNL     1      -1.762   2.484   0.871  1.00  0.00    -0.362 OA
ATOM     42  H3  UNL     1      -1.987   3.323   0.487  1.00  0.00     0.217 HD
ENDBRANCH   2  41
BRANCH   2  43
HETATM   43  C17 UNL     1       0.169   2.662  -0.536  1.00  0.00     0.071 C 
BRANCH  43  44
HETATM   44  C18 UNL     1       0.506   4.003   0.029  1.00  0.00     0.040 C 
BRANCH  44  45
HETATM   45  C19 UNL     1       1.104   4.874  -1.042  1.00  0.00    -0.080 C 
HETATM   46  C20 UNL     1       2.334   4.402  -1.677  1.00  0.00     0.043 C 
HETATM   47  C21 UNL     1       0.449   5.977  -1.297  1.00  0.00     0.052 C 
BRANCH  47  48
HETATM   48  C22 UNL     1       0.774   6.998  -2.257  1.00  0.00     0.145 C 
HETATM   49  C23 UNL     1      -0.144   8.203  -2.389  1.00  0.00     0.096 C 
HETATM   50  O4  UNL     1       1.757   6.989  -3.009  1.00  0.00    -0.294 OA
ENDBRANCH  47  48
ENDBRANCH  44  45
ENDBRANCH  43  44
ENDBRANCH   2  43
TORSDOF 16
