REMARK  16 active torsions:
REMARK  status: ('A' for Active; 'I' for Inactive)
REMARK    1  A    between atoms: C2_2  and  C3_3 
REMARK    2  A    between atoms: C3_3  and  C4_4 
REMARK    3  A    between atoms: C5_5  and  C7_7 
REMARK    4  A    between atoms: C7_7  and  C8_8 
REMARK    5  A    between atoms: C10_10  and  O1_11 
REMARK    6  A    between atoms: C15_19  and  C16_20 
REMARK    7  A    between atoms: C16_20  and  O4_21 
REMARK    8  A    between atoms: C16_20  and  C17_23 
REMARK    9  A    between atoms: C17_23  and  C18_24 
REMARK   10  A    between atoms: C18_24  and  C19_25 
REMARK   11  A    between atoms: C24_32  and  O7_34 
REMARK   12  A    between atoms: O7_34  and  C26_35 
REMARK   13  A    between atoms: C26_35  and  O8_36 
REMARK   14  A    between atoms: C26_35  and  C27_38 
REMARK   15  A    between atoms: C28_39  and  O9_40 
REMARK   16  A    between atoms: C34_47  and  C36_49 
ROOT
HETATM    1  C8  UNL     1      -1.616  -1.940   0.083  1.00  0.00     0.033 C 
HETATM    2  C9  UNL     1      -0.938  -2.973  -0.867  1.00  0.00     0.045 C 
HETATM    3  C10 UNL     1       0.176  -2.247  -1.563  1.00  0.00     0.187 C 
HETATM    4  C11 UNL     1       0.140  -0.843  -0.961  1.00  0.00     0.258 C 
HETATM    5  O2  UNL     1       0.784  -0.948   0.271  1.00  0.00    -0.191 OA
HETATM    6  O3  UNL     1       2.006  -0.627   0.027  1.00  0.00    -0.189 OA
HETATM    7  C12 UNL     1       2.071   0.099  -1.133  1.00  0.00     0.262 C 
HETATM    8  C13 UNL     1       2.549   1.515  -0.823  1.00  0.00     0.081 C 
HETATM    9  C14 UNL     1       4.023   1.341  -0.625  1.00  0.00     0.021 C 
HETATM   10  C15 UNL     1       4.416   0.124  -1.408  1.00  0.00     0.090 C 
HETATM   11  C23 UNL     1       3.143  -0.391  -2.012  1.00  0.00     0.198 C 
HETATM   12  O5  UNL     1       3.135  -1.062  -3.026  1.00  0.00    -0.291 OA
HETATM   13  O6  UNL     1       0.782   0.073  -1.691  1.00  0.00    -0.302 OA
HETATM   14  C24 UNL     1      -1.381  -0.689  -0.736  1.00  0.00     0.132 C 
HETATM   15  C25 UNL     1      -2.026  -0.884  -2.078  1.00  0.00     0.053 C 
ENDROOT
BRANCH   3  16
HETATM   16  O1  UNL     1       0.033  -2.272  -2.919  1.00  0.00    -0.390 OA
ATOM     17  H1  UNL     1       0.738  -1.812  -3.360  1.00  0.00     0.210 HD
ENDBRANCH   3  16
BRANCH  14  18
HETATM   18  O7  UNL     1      -1.713   0.532  -0.309  1.00  0.00    -0.313 OA
BRANCH  18  19
HETATM   19  C26 UNL     1      -2.466   1.400   0.175  1.00  0.00     0.193 C 
BRANCH  19  20
HETATM   20  O8  UNL     1      -3.605   0.696   0.489  1.00  0.00    -0.340 OA
ATOM     21  H8  UNL     1      -4.179   1.357   0.858  1.00  0.00     0.220 HD
ENDBRANCH  19  20
BRANCH  19  22
HETATM   22  C27 UNL     1      -2.745   2.757   0.544  1.00  0.00     0.065 A 
HETATM   23  C28 UNL     1      -1.642   3.615   0.286  1.00  0.00     0.082 A 
HETATM   24  C29 UNL     1      -1.639   4.862   0.818  1.00  0.00     0.044 A 
HETATM   25  C30 UNL     1      -2.669   5.323   1.596  1.00  0.00    -0.059 A 
HETATM   26  C31 UNL     1      -2.648   6.695   2.160  1.00  0.00     0.048 C 
HETATM   27  C32 UNL     1      -3.703   4.486   1.810  1.00  0.00     0.019 A 
HETATM   28  C33 UNL     1      -3.833   3.138   1.297  1.00  0.00    -0.016 A 
HETATM   29  C34 UNL     1      -5.143   2.567   1.419  1.00  0.00    -0.073 C 
HETATM   30  C35 UNL     1      -5.728   2.641   2.847  1.00  0.00     0.044 C 
BRANCH  23  31
HETATM   31  O9  UNL     1      -0.601   3.198  -0.500  1.00  0.00    -0.360 OA
ATOM     32  H9  UNL     1       0.136   3.772  -0.672  1.00  0.00     0.217 HD
ENDBRANCH  23  31
BRANCH  29  33
HETATM   33  C36 UNL     1      -6.004   1.821   0.500  1.00  0.00     0.030 C 
HETATM   34  C37 UNL     1      -6.343   2.541  -0.808  1.00  0.00     0.010 C 
ENDBRANCH  29  33
ENDBRANCH  19  22
ENDBRANCH  18  19
ENDBRANCH  14  18
BRANCH   1  35
HETATM   35  C7  UNL     1      -3.070  -2.269   0.165  1.00  0.00     0.042 C 
BRANCH  35  36
HETATM   36  C5  UNL     1      -3.391  -3.665   0.562  1.00  0.00    -0.076 C 
HETATM   37  C4  UNL     1      -4.103  -4.440  -0.309  1.00  0.00     0.053 C 
HETATM   38  C6  UNL     1      -2.949  -4.241   1.817  1.00  0.00     0.044 C 
BRANCH  37  39
HETATM   39  C3  UNL     1      -4.448  -5.819  -0.064  1.00  0.00    -0.156 C 
BRANCH  39  40
HETATM   40  C2  UNL     1      -4.741  -6.973   0.133  1.00  0.00     0.080 C 
HETATM   41  C1  UNL     1      -4.355  -7.679   1.426  1.00  0.00     0.017 C 
ENDBRANCH  39  40
ENDBRANCH  37  39
ENDBRANCH  35  36
ENDBRANCH   1  35
BRANCH  10  42
HETATM   42  C16 UNL     1       5.044  -0.937  -0.567  1.00  0.00     0.130 C 
BRANCH  42  43
HETATM   43  O4  UNL     1       5.377  -2.041  -1.363  1.00  0.00    -0.395 OA
ATOM     44  H4  UNL     1       5.777  -2.716  -0.828  1.00  0.00     0.210 HD
ENDBRANCH  42  43
BRANCH  42  45
HETATM   45  C17 UNL     1       6.305  -0.522   0.151  1.00  0.00     0.036 C 
BRANCH  45  46
HETATM   46  C18 UNL     1       7.389  -0.092  -0.804  1.00  0.00     0.030 C 
BRANCH  46  47
HETATM   47  C19 UNL     1       8.585   0.300   0.014  1.00  0.00    -0.025 C 
HETATM   48  C20 UNL     1       9.075   1.527  -0.096  1.00  0.00    -0.091 C 
HETATM   49  C21 UNL     1       8.460   2.517  -1.020  1.00  0.00     0.042 C 
HETATM   50  C22 UNL     1      10.261   1.881   0.724  1.00  0.00     0.042 C 
ENDBRANCH  46  47
ENDBRANCH  45  46
ENDBRANCH  42  45
ENDBRANCH  10  42
TORSDOF 16
