REMARK  5 active torsions:
REMARK  status: ('A' for Active; 'I' for Inactive)
REMARK    1  A    between atoms: C2_2  and  O1_5 
REMARK    2  A    between atoms: O1_5  and  C5_6 
REMARK       I    between atoms: C5_6  and  N1_8 
REMARK    3  A    between atoms: C12_15  and  C13_16 
REMARK    4  A    between atoms: C13_16  and  N2_17 
REMARK       I    between atoms: N2_17  and  C14_18 
REMARK    5  A    between atoms: C14_18  and  C15_20 
ROOT
HETATM    1  C5  UNL     1      -1.541   0.088  -0.412  1.00  0.00     0.364 C 
HETATM    2  O2  UNL     1      -1.822   0.548  -1.555  1.00  0.00    -0.238 OA
HETATM    3  N1  UNL     1      -0.348  -0.653  -0.271  1.00  0.00    -0.317 N 
HETATM    4  C6  UNL     1      -0.079  -1.199   1.063  1.00  0.00     0.133 C 
HETATM    5  C7  UNL     1       0.704  -2.489   0.952  1.00  0.00     0.004 C 
HETATM    6  C8  UNL     1       0.065  -3.506   0.049  1.00  0.00     0.007 C 
HETATM    7  C9  UNL     1       0.613  -3.263  -1.339  1.00  0.00     0.007 C 
HETATM    8  C10 UNL     1       1.475  -2.001  -1.194  1.00  0.00     0.015 C 
HETATM    9  C11 UNL     1       1.990  -2.191   0.203  1.00  0.00     0.013 C 
HETATM   10  C12 UNL     1       0.538  -0.844  -1.371  1.00  0.00     0.145 C 
ENDROOT
BRANCH  10  11
HETATM   11  C13 UNL     1       1.242   0.447  -1.778  1.00  0.00     0.184 C 
BRANCH  11  12
HETATM   12  N2  UNL     1       2.019   1.081  -0.839  1.00  0.00    -0.382 NA
HETATM   13  C14 UNL     1       2.785   1.706   0.088  1.00  0.00     0.346 C 
HETATM   14  O3  UNL     1       2.377   2.124   1.220  1.00  0.00    -0.252 OA
BRANCH  13  15
HETATM   15  C15 UNL     1       4.257   1.991  -0.113  1.00  0.00     0.268 C 
HETATM   16  C16 UNL     1       4.789   2.543   1.178  1.00  0.00     0.082 C 
HETATM   17  F1  UNL     1       4.451   2.952  -1.090  1.00  0.00    -0.214 F 
HETATM   18 CL1  UNL     1       5.147   0.489  -0.463  1.00  0.00    -0.072 Cl
ENDBRANCH  13  15
ENDBRANCH  11  12
ENDBRANCH  10  11
BRANCH   1  19
HETATM   19  O1  UNL     1      -2.423   0.348   0.601  1.00  0.00    -0.294 OA
BRANCH  19  20
HETATM   20  C2  UNL     1      -3.584   1.104   0.341  1.00  0.00     0.061 C 
HETATM   21  C1  UNL     1      -4.434   0.407  -0.700  1.00  0.00     0.046 C 
HETATM   22  C3  UNL     1      -3.104   2.435  -0.252  1.00  0.00     0.046 C 
HETATM   23  C4  UNL     1      -4.377   1.364   1.606  1.00  0.00     0.046 C 
ENDBRANCH  19  20
ENDBRANCH   1  19
TORSDOF 5
