REMARK  7 active torsions:
REMARK  status: ('A' for Active; 'I' for Inactive)
REMARK    1  A    between atoms: S1_2  and  C2_3 
REMARK    2  A    between atoms: C2_3  and  C3_4 
REMARK    3  A    between atoms: C3_4  and  N1_5 
REMARK       I    between atoms: N1_5  and  C4_7 
REMARK    4  A    between atoms: C4_7  and  C5_9 
REMARK    5  A    between atoms: C5_9  and  C6_10 
REMARK    6  A    between atoms: C6_10  and  N2_11 
REMARK    7  A    between atoms: N2_11  and  C7_13 
ROOT
HETATM    1  C5  UNL     1       0.394  -0.010  -1.123  1.00  0.00     0.072 C 
HETATM    2  C14 UNL     1      -0.084  -1.412  -1.200  1.00  0.00     0.025 C 
HETATM    3  C15 UNL     1       0.935  -2.017  -2.185  1.00  0.00     0.002 C 
HETATM    4  C16 UNL     1       0.868  -0.961  -3.264  1.00  0.00     0.002 C 
HETATM    5  C17 UNL     1       1.059   0.303  -2.466  1.00  0.00     0.025 C 
ENDROOT
BRANCH   1   6
HETATM    6  C4  UNL     1       1.499   0.061  -0.103  1.00  0.00     0.231 C 
HETATM    7  N1  UNL     1       2.243   1.240   0.087  1.00  0.00    -0.359 N 
ATOM      8  H1  UNL     1       2.024   2.064  -0.473  1.00  0.00     0.162 HD
HETATM    9  O1  UNL     1       1.738  -0.955   0.569  1.00  0.00    -0.272 OA
BRANCH   7  10
HETATM   10  C3  UNL     1       3.305   1.309   1.054  1.00  0.00     0.132 C 
BRANCH  10  11
HETATM   11  C2  UNL     1       4.429   0.348   0.777  1.00  0.00     0.093 C 
BRANCH  11  12
HETATM   12  S1  UNL     1       5.728   0.507   2.050  1.00  0.00    -0.172 SA
HETATM   13  C1  UNL     1       7.059  -0.659   1.670  1.00  0.00     0.089 C 
ENDBRANCH  11  12
ENDBRANCH  10  11
ENDBRANCH   7  10
ENDBRANCH   1   6
BRANCH   1  14
HETATM   14  C6  UNL     1      -0.649   1.035  -0.878  1.00  0.00     0.075 C 
BRANCH  14  15
HETATM   15  N2  UNL     1      -1.323   1.030   0.337  1.00  0.00    -0.396 N 
ATOM     16  H2  UNL     1      -1.148   1.796   0.987  1.00  0.00     0.159 HD
BRANCH  15  17
HETATM   17  C7  UNL     1      -2.224   0.039   0.718  1.00  0.00     0.085 C 
HETATM   18  C8  UNL     1      -2.930   0.562   1.988  1.00  0.00     0.030 C 
HETATM   19  C9  UNL     1      -4.306   0.991   1.563  1.00  0.00    -0.012 C 
HETATM   20  C10 UNL     1      -5.169  -0.252   1.543  1.00  0.00     0.005 C 
HETATM   21  C13 UNL     1      -4.116   1.168   0.052  1.00  0.00     0.011 C 
HETATM   22  C11 UNL     1      -4.356  -1.120   0.577  1.00  0.00     0.007 C 
HETATM   23  C12 UNL     1      -3.415  -0.185  -0.153  1.00  0.00     0.009 C 
ENDBRANCH  15  17
ENDBRANCH  14  15
ENDBRANCH   1  14
TORSDOF 7
