REMARK  7 active torsions:
REMARK  status: ('A' for Active; 'I' for Inactive)
REMARK    1  A    between atoms: S1_2  and  C2_3 
REMARK    2  A    between atoms: C2_3  and  C3_4 
REMARK    3  A    between atoms: C3_4  and  C4_5 
REMARK    4  A    between atoms: C4_5  and  C5_6 
REMARK       I    between atoms: C5_6  and  N1_8 
REMARK    5  A    between atoms: N1_8  and  C6_10 
REMARK    6  A    between atoms: C10_14  and  C11_15 
REMARK    7  A    between atoms: C11_15  and  N2_16 
ROOT
HETATM    1  C6  UNL     1      -0.770  -1.413  -1.432  1.00  0.00     0.084 C 
HETATM    2  C7  UNL     1      -0.670  -2.213  -2.686  1.00  0.00     0.025 C 
HETATM    3  C8  UNL     1       0.773  -2.394  -3.145  1.00  0.00     0.002 C 
HETATM    4  C9  UNL     1       1.648  -2.353  -1.932  1.00  0.00     0.006 C 
HETATM    5  C10 UNL     1       1.637  -0.968  -1.372  1.00  0.00     0.005 C 
HETATM    6  C16 UNL     1       0.285  -0.300  -1.481  1.00  0.00     0.031 C 
ENDROOT
BRANCH   1   7
HETATM    7  N1  UNL     1      -2.092  -0.888  -1.293  1.00  0.00    -0.356 N 
HETATM    8  C5  UNL     1      -2.924  -1.112  -0.137  1.00  0.00     0.217 C 
HETATM    9  O1  UNL     1      -2.400  -1.816   0.761  1.00  0.00    -0.274 OA
ATOM     10  H1  UNL     1      -2.468  -0.323  -2.054  1.00  0.00     0.162 HD
BRANCH   8  11
HETATM   11  C4  UNL     1      -4.271  -0.548  -0.052  1.00  0.00     0.103 C 
BRANCH  11  12
HETATM   12  C3  UNL     1      -5.016  -0.807   1.207  1.00  0.00     0.019 C 
BRANCH  12  13
HETATM   13  C2  UNL     1      -4.405  -0.279   2.458  1.00  0.00     0.074 C 
BRANCH  13  14
HETATM   14  S1  UNL     1      -4.201   1.528   2.413  1.00  0.00    -0.173 SA
HETATM   15  C1  UNL     1      -3.454   2.079   3.970  1.00  0.00     0.089 C 
ENDBRANCH  13  14
ENDBRANCH  12  13
ENDBRANCH  11  12
ENDBRANCH   8  11
ENDBRANCH   1   7
BRANCH   5  16
HETATM   16  C11 UNL     1       2.179  -0.904   0.039  1.00  0.00     0.125 C 
BRANCH  16  17
HETATM   17  N2  UNL     1       2.155   0.433   0.546  1.00  0.00    -0.380 N 
HETATM   18  C12 UNL     1       3.100   1.284   0.425  1.00  0.00     0.072 C 
HETATM   19  C13 UNL     1       4.423   1.144  -0.238  1.00  0.00     0.077 C 
HETATM   20  N3  UNL     1       3.055   2.610   0.938  1.00  0.00    -0.380 N 
HETATM   21  C14 UNL     1       5.279   2.057   0.651  1.00  0.00     0.027 C 
HETATM   22  C15 UNL     1       4.355   3.242   0.804  1.00  0.00     0.121 C 
ATOM     23  H3  UNL     1       2.229   3.052   1.341  1.00  0.00     0.160 HD
ATOM     24  H2  UNL     1       1.316   0.731   1.044  1.00  0.00     0.160 HD
ENDBRANCH  16  17
ENDBRANCH   5  16
TORSDOF 7
