REMARK  9 active torsions:
REMARK  status: ('A' for Active; 'I' for Inactive)
REMARK    1  A    between atoms: C2_2  and  C3_3 
REMARK    2  A    between atoms: C3_3  and  C4_4 
REMARK    3  A    between atoms: C3_3  and  C6_6 
REMARK    4  A    between atoms: C6_6  and  C7_7 
REMARK    5  A    between atoms: C6_6  and  N2_12 
REMARK    6  A    between atoms: C7_7  and  N1_8 
REMARK    7  A    between atoms: N2_12  and  C8_14 
REMARK    8  A    between atoms: C8_14  and  C9_15 
REMARK    9  A    between atoms: C9_15  and  C10_16 
ROOT
HETATM    1  N2  UNL     1      -1.015  -1.589  -0.006  1.00  0.00    -0.415 N 
ATOM      2  H2  UNL     1      -0.494  -1.877   0.822  1.00  0.00     0.153 HD
ENDROOT
BRANCH   1   3
HETATM    3  C6  UNL     1      -2.379  -1.243   0.097  1.00  0.00     0.105 C 
BRANCH   3   4
HETATM    4  C3  UNL     1      -2.726   0.186  -0.222  1.00  0.00     0.009 C 
BRANCH   4   5
HETATM    5  C2  UNL     1      -4.155   0.456   0.222  1.00  0.00     0.002 C 
HETATM    6  C1  UNL     1      -4.535   1.881  -0.183  1.00  0.00     0.005 C 
ENDBRANCH   4   5
BRANCH   4   7
HETATM    7  C4  UNL     1      -1.776   1.163   0.426  1.00  0.00     0.002 C 
HETATM    8  C5  UNL     1      -1.796   1.090   1.934  1.00  0.00     0.005 C 
ENDBRANCH   4   7
ENDBRANCH   3   4
BRANCH   3   9
HETATM    9  C7  UNL     1      -3.328  -2.209  -0.598  1.00  0.00     0.254 C 
BRANCH   9  10
HETATM   10  N1  UNL     1      -3.347  -2.103  -2.017  1.00  0.00    -0.077 N 
ATOM     11  H13 UNL     1      -3.549  -1.144  -2.298  1.00  0.00     0.274 HD
ATOM     12  H12 UNL     1      -2.404  -2.201  -2.392  1.00  0.00     0.274 HD
ATOM     13  H11 UNL     1      -3.983  -2.750  -2.483  1.00  0.00     0.274 HD
ENDBRANCH   9  10
ENDBRANCH   3   9
ENDBRANCH   1   3
BRANCH   1  14
HETATM   14  C8  UNL     1      -0.377  -1.534  -1.263  1.00  0.00     0.119 C 
BRANCH  14  15
HETATM   15  C9  UNL     1       1.119  -1.877  -1.166  1.00  0.00     0.060 C 
BRANCH  15  16
HETATM   16  C10 UNL     1       1.857  -0.966  -0.293  1.00  0.00    -0.026 A 
HETATM   17  C11 UNL     1       2.228   0.310  -0.626  1.00  0.00    -0.027 A 
HETATM   18  C12 UNL     1       2.900   0.812   0.469  1.00  0.00     0.018 A 
HETATM   19  C19 UNL     1       2.093   1.222  -1.792  1.00  0.00     0.041 C 
HETATM   20  N3  UNL     1       2.921  -0.141   1.411  1.00  0.00    -0.357 N 
HETATM   21  C16 UNL     1       3.415   2.194   0.375  1.00  0.00     0.058 C 
HETATM   22  C13 UNL     1       3.562   0.058   2.715  1.00  0.00     0.156 C 
HETATM   23  C14 UNL     1       2.295  -1.241   0.983  1.00  0.00     0.014 A 
HETATM   24  C15 UNL     1       2.143  -2.486   1.790  1.00  0.00     0.069 C 
HETATM   25  C17 UNL     1       3.975   2.555  -0.962  1.00  0.00     0.006 C 
HETATM   26  C18 UNL     1       3.483   1.732  -2.104  1.00  0.00     0.005 C 
ENDBRANCH  15  16
ENDBRANCH  14  15
ENDBRANCH   1  14
TORSDOF 9
