REMARK  7 active torsions:
REMARK  status: ('A' for Active; 'I' for Inactive)
REMARK    1  A    between atoms: N1_2  and  C2_5 
REMARK    2  A    between atoms: C2_5  and  C3_6 
REMARK    3  A    between atoms: C3_6  and  C4_7 
REMARK    4  A    between atoms: C4_7  and  C5_8 
REMARK    5  A    between atoms: C5_8  and  C6_9 
REMARK    6  A    between atoms: C12_15  and  C13_16 
REMARK    7  A    between atoms: C13_16  and  N2_17 
ROOT
HETATM    1  C5  UNL     1      -1.477  -0.765  -0.410  1.00  0.00     0.064 C 
HETATM    2  C10 UNL     1      -0.719  -1.022  -1.712  1.00  0.00     0.039 C 
HETATM    3  C11 UNL     1       0.661  -0.397  -1.666  1.00  0.00     0.011 C 
HETATM    4  C12 UNL     1       1.335  -1.128  -0.499  1.00  0.00     0.027 C 
HETATM    5  C18 UNL     1       0.579  -0.742   0.715  1.00  0.00     0.175 C 
HETATM    6  O1  UNL     1      -0.653  -0.248   0.580  1.00  0.00    -0.379 OA
ENDROOT
BRANCH   1   7
HETATM    7  C4  UNL     1      -2.406   0.356  -0.715  1.00  0.00     0.040 C 
BRANCH   7   8
HETATM    8  C3  UNL     1      -3.272   0.872   0.383  1.00  0.00     0.030 C 
BRANCH   8   9
HETATM    9  C2  UNL     1      -4.072   2.040  -0.252  1.00  0.00     0.231 C 
BRANCH   9  10
HETATM   10  N1  UNL     1      -4.953   2.610   0.750  1.00  0.00    -0.079 N 
HETATM   11  C1  UNL     1      -4.125   3.262   1.743  1.00  0.00     0.266 C 
ATOM     12  H12 UNL     1      -5.591   1.924   1.154  1.00  0.00     0.276 HD
ATOM     13  H11 UNL     1      -5.658   3.231   0.352  1.00  0.00     0.276 HD
ENDBRANCH   9  10
ENDBRANCH   8   9
ENDBRANCH   7   8
ENDBRANCH   1   7
BRANCH   1  14
HETATM   14  C6  UNL     1      -1.936  -2.059   0.049  1.00  0.00     0.020 C 
HETATM   15  C7  UNL     1      -2.614  -2.356   1.312  1.00  0.00     0.007 C 
HETATM   16  C8  UNL     1      -3.132  -3.639   0.606  1.00  0.00     0.001 C 
HETATM   17  C9  UNL     1      -3.052  -2.771  -0.667  1.00  0.00     0.007 C 
ENDBRANCH   1  14
BRANCH   4  18
HETATM   18  C13 UNL     1       2.784  -0.795  -0.467  1.00  0.00     0.127 C 
BRANCH  18  19
HETATM   19  N2  UNL     1       3.083   0.589  -0.301  1.00  0.00    -0.380 N 
HETATM   20  C14 UNL     1       4.325   0.922  -0.123  1.00  0.00     0.072 C 
HETATM   21  C15 UNL     1       5.520   0.016  -0.068  1.00  0.00     0.077 C 
HETATM   22  N3  UNL     1       4.861   2.229   0.063  1.00  0.00    -0.380 N 
HETATM   23  C16 UNL     1       6.665   0.860  -0.589  1.00  0.00     0.027 C 
HETATM   24  C17 UNL     1       6.262   2.280  -0.305  1.00  0.00     0.121 C 
ATOM     25  H3  UNL     1       4.328   3.026   0.410  1.00  0.00     0.160 HD
ATOM     26  H2  UNL     1       2.346   1.294  -0.321  1.00  0.00     0.160 HD
ENDBRANCH  18  19
ENDBRANCH   4  18
TORSDOF 7
