REMARK  7 active torsions:
REMARK  status: ('A' for Active; 'I' for Inactive)
REMARK    1  A    between atoms: S1_2  and  C2_3 
REMARK    2  A    between atoms: C2_3  and  C3_4 
REMARK    3  A    between atoms: C3_4  and  C4_5 
REMARK    4  A    between atoms: C4_5  and  N1_6 
REMARK    5  A    between atoms: C4_5  and  C12_15 
REMARK    6  A    between atoms: N1_6  and  C5_8 
REMARK       I    between atoms: C12_15  and  N2_17 
REMARK    7  A    between atoms: N2_17  and  C13_19 
ROOT
HETATM    1  C4  UNL     1      -0.080   1.113   0.293  1.00  0.00     0.074 C 
ENDROOT
BRANCH   1   2
HETATM    2  C3  UNL     1      -0.522   2.434   0.634  1.00  0.00     0.073 C 
BRANCH   2   3
HETATM    3  C2  UNL     1      -1.185   3.233  -0.471  1.00  0.00     0.079 C 
BRANCH   3   4
HETATM    4  S1  UNL     1      -1.597   4.873   0.183  1.00  0.00    -0.173 SA
HETATM    5  C1  UNL     1      -0.152   5.890   0.473  1.00  0.00     0.089 C 
ENDBRANCH   3   4
ENDBRANCH   2   3
ENDBRANCH   1   2
BRANCH   1   6
HETATM    6  N1  UNL     1      -0.893   0.108  -0.261  1.00  0.00    -0.384 N 
ATOM      7  H1  UNL     1      -0.710  -0.126  -1.237  1.00  0.00     0.160 HD
BRANCH   6   8
HETATM    8  C5  UNL     1      -1.890  -0.590   0.338  1.00  0.00     0.086 C 
HETATM    9  C6  UNL     1      -3.243  -0.073   0.649  1.00  0.00     0.030 C 
HETATM   10  C7  UNL     1      -4.207  -0.953  -0.160  1.00  0.00    -0.012 C 
HETATM   11  C8  UNL     1      -4.328  -2.258   0.537  1.00  0.00     0.005 C 
HETATM   12  C11 UNL     1      -3.288  -1.359  -1.325  1.00  0.00     0.011 C 
HETATM   13  C9  UNL     1      -2.888  -2.796   0.491  1.00  0.00     0.007 C 
HETATM   14  C10 UNL     1      -2.169  -1.892  -0.449  1.00  0.00     0.009 C 
ENDBRANCH   6   8
ENDBRANCH   1   6
BRANCH   1  15
HETATM   15  C12 UNL     1       1.251   0.849  -0.327  1.00  0.00     0.264 C 
HETATM   16  O1  UNL     1       1.762   1.585  -1.172  1.00  0.00    -0.266 OA
HETATM   17  N2  UNL     1       1.938  -0.357   0.077  1.00  0.00    -0.351 N 
ATOM     18  H2  UNL     1       1.496  -0.932   0.795  1.00  0.00     0.163 HD
BRANCH  17  19
HETATM   19  C13 UNL     1       3.165  -0.799  -0.441  1.00  0.00     0.084 C 
HETATM   20  C14 UNL     1       4.300  -0.645   0.599  1.00  0.00     0.025 C 
HETATM   21  C15 UNL     1       5.399  -1.378  -0.182  1.00  0.00     0.002 C 
HETATM   22  C16 UNL     1       4.683  -2.647  -0.571  1.00  0.00     0.002 C 
HETATM   23  C17 UNL     1       3.221  -2.293  -0.670  1.00  0.00     0.025 C 
ENDBRANCH  17  19
ENDBRANCH   1  15
TORSDOF 7
