REMARK  3 active torsions:
REMARK  status: ('A' for Active; 'I' for Inactive)
REMARK    1  A    between atoms: C1_2  and  C2_4 
REMARK    2  A    between atoms: C2_4  and  N1_5 
REMARK    3  A    between atoms: N1_5  and  C3_7 
ROOT
HETATM    1  C3  UNL     1       0.436   0.179   0.166  1.00  0.00     0.030 C 
HETATM    2  C4  UNL     1      -0.022  -0.607   1.336  1.00  0.00     0.035 C 
HETATM    3  C5  UNL     1      -1.537  -0.747   1.238  1.00  0.00    -0.012 C 
HETATM    4  C6  UNL     1      -2.244   0.579   1.291  1.00  0.00     0.009 C 
HETATM    5  C7  UNL     1      -1.746   1.423   0.133  1.00  0.00    -0.012 C 
HETATM    6  C8  UNL     1      -2.051   0.799  -1.197  1.00  0.00     0.009 C 
HETATM    7  C9  UNL     1      -1.477  -0.606  -1.237  1.00  0.00    -0.012 C 
HETATM    8  C10 UNL     1      -1.964  -1.412  -0.066  1.00  0.00     0.009 C 
HETATM    9  C11 UNL     1       0.029  -0.543  -1.121  1.00  0.00     0.035 C 
HETATM   10  C12 UNL     1      -0.266   1.543   0.266  1.00  0.00     0.035 C 
ENDROOT
BRANCH   1  11
HETATM   11  N1  UNL     1       1.824   0.482   0.057  1.00  0.00    -0.388 N 
ATOM     12  H1  UNL     1       2.156   1.447   0.051  1.00  0.00     0.159 HD
BRANCH  11  13
HETATM   13  C2  UNL     1       2.718  -0.595  -0.042  1.00  0.00     0.126 C 
BRANCH  13  14
HETATM   14  C1  UNL     1       4.104  -0.060  -0.382  1.00  0.00     0.391 C 
HETATM   15  F1  UNL     1       4.597   0.811   0.561  1.00  0.00    -0.209 F 
HETATM   16  F2  UNL     1       4.993  -1.097  -0.597  1.00  0.00    -0.209 F 
ENDBRANCH  13  14
ENDBRANCH  11  13
ENDBRANCH   1  11
TORSDOF 3
