REMARK  9 active torsions:
REMARK  status: ('A' for Active; 'I' for Inactive)
REMARK    1  A    between atoms: N1_1  and  C1_4 
REMARK    2  A    between atoms: C1_4  and  C2_6 
REMARK    3  A    between atoms: C5_10  and  N3_11 
REMARK    4  A    between atoms: N3_11  and  C6_13 
REMARK    5  A    between atoms: C7_16  and  C8_17 
REMARK    6  A    between atoms: C9_20  and  N6_21 
REMARK    7  A    between atoms: N6_21  and  C10_23 
REMARK    8  A    between atoms: C16_31  and  C17_32 
REMARK    9  A    between atoms: C21_38  and  O1_39 
ROOT
HETATM    1  C6  UNL     1       1.721  -1.742  -1.236  1.00  0.00     0.138 A 
HETATM    2  N4  UNL     1       0.668  -1.694  -0.409  1.00  0.00    -0.325 N 
ATOM      3  H4  UNL     1       0.341  -0.777  -0.105  1.00  0.00     0.169 HD
HETATM    4  C7  UNL     1       0.002  -2.798   0.055  1.00  0.00     0.135 A 
HETATM    5  N8  UNL     1       0.474  -3.951  -0.376  1.00  0.00    -0.348 N 
ATOM      6  H8  UNL     1       0.004  -4.796  -0.052  1.00  0.00     0.167 HD
HETATM    7  C20 UNL     1       1.506  -4.110  -1.194  1.00  0.00     0.130 A 
HETATM    8  C21 UNL     1       2.169  -3.015  -1.654  1.00  0.00     0.125 A 
ENDROOT
BRANCH   4   9
HETATM    9  C8  UNL     1      -1.130  -2.625   0.959  1.00  0.00     0.101 A 
HETATM   10  N5  UNL     1      -1.476  -1.356   1.307  1.00  0.00    -0.188 N 
HETATM   11  C9  UNL     1      -2.483  -1.086   2.144  1.00  0.00     0.678 A 
ATOM     12  H5  UNL     1      -0.945  -0.579   0.913  1.00  0.00     0.184 HD
HETATM   13  N7  UNL     1      -3.165  -2.129   2.646  1.00  0.00    -0.201 N 
HETATM   14  C15 UNL     1      -2.868  -3.403   2.337  1.00  0.00     0.116 A 
ATOM     15  H7  UNL     1      -3.938  -1.947   3.286  1.00  0.00     0.183 HD
HETATM   16  C16 UNL     1      -1.817  -3.695   1.463  1.00  0.00    -0.007 A 
BRANCH  11  17
HETATM   17  N6  UNL     1      -2.810   0.126   2.470  1.00  0.00    -0.221 N 
ATOM     18  H6  UNL     1      -3.592   0.239   3.115  1.00  0.00     0.178 HD
BRANCH  17  19
HETATM   19  C10 UNL     1      -2.173   1.316   2.007  1.00  0.00     0.099 C 
HETATM   20  C11 UNL     1      -2.979   2.079   0.992  1.00  0.00     0.026 C 
HETATM   21  C12 UNL     1      -4.002   2.836   1.774  1.00  0.00     0.002 C 
HETATM   22  C13 UNL     1      -3.381   3.068   3.153  1.00  0.00     0.002 C 
HETATM   23  C14 UNL     1      -2.089   2.287   3.164  1.00  0.00     0.026 C 
ENDBRANCH  17  19
ENDBRANCH  11  17
BRANCH  16  24
HETATM   24  C17 UNL     1      -1.471  -5.056   1.067  1.00  0.00     0.022 A 
HETATM   25  C18 UNL     1      -2.038  -6.223   1.877  1.00  0.00     0.010 A 
HETATM   26  C19 UNL     1      -0.583  -5.938   1.941  1.00  0.00     0.010 A 
ENDBRANCH  16  24
ENDBRANCH   4   9
BRANCH   1  27
HETATM   27  N3  UNL     1       2.337  -0.781  -1.657  1.00  0.00    -0.369 N 
ATOM     28  H3  UNL     1       3.056  -1.199  -2.248  1.00  0.00     0.161 HD
BRANCH  27  29
HETATM   29  C5  UNL     1       2.577   0.555  -1.759  1.00  0.00     0.083 C 
HETATM   30  C4  UNL     1       2.789   1.054  -3.195  1.00  0.00     0.029 C 
HETATM   31  C3  UNL     1       3.468   2.396  -3.062  1.00  0.00     0.053 C 
HETATM   32  C2  UNL     1       2.510   3.377  -2.468  1.00  0.00     0.158 C 
HETATM   33  F1  UNL     1       1.742   3.952  -3.487  1.00  0.00    -0.235 F 
HETATM   34  C23 UNL     1       1.678   2.888  -1.344  1.00  0.00     0.053 C 
HETATM   35  C22 UNL     1       1.493   1.422  -1.199  1.00  0.00     0.029 C 
BRANCH  32  36
HETATM   36  C1  UNL     1       3.352   4.503  -1.918  1.00  0.00     0.127 C 
HETATM   37  N2  UNL     1       4.260   4.281  -0.839  1.00  0.00    -0.084 NA
BRANCH  36  38
HETATM   38  N1  UNL     1       3.281   5.693  -2.400  1.00  0.00    -0.388 N 
ATOM     39  H12 UNL     1       3.850   6.454  -2.028  1.00  0.00     0.157 HD
ATOM     40  H11 UNL     1       2.632   5.852  -3.171  1.00  0.00     0.157 HD
ENDBRANCH  36  38
ENDBRANCH  32  36
ENDBRANCH  27  29
ENDBRANCH   1  27
BRANCH   8  41
HETATM   41  O1  UNL     1       3.270  -3.115  -2.523  1.00  0.00    -0.356 OA
ATOM     42  H1  UNL     1       3.571  -3.971  -2.804  1.00  0.00     0.218 HD
ENDBRANCH   8  41
TORSDOF 9
