REMARK  9 active torsions:
REMARK  status: ('A' for Active; 'I' for Inactive)
REMARK    1  A    between atoms: N1_2  and  C2_4 
REMARK    2  A    between atoms: C3_7  and  N3_8 
REMARK    3  A    between atoms: C6_13  and  N5_14 
REMARK    4  A    between atoms: N5_14  and  C7_16 
REMARK    5  A    between atoms: C9_18  and  C10_19 
REMARK    6  A    between atoms: C10_19  and  C11_20 
REMARK    7  A    between atoms: C16_25  and  O1_26 
REMARK    8  A    between atoms: C17_28  and  O2_29 
REMARK    9  A    between atoms: C18_31  and  C19_32 
ROOT
HETATM    1  C7  UNL     1       0.450   0.390   0.847  1.00  0.00     0.050 A 
HETATM    2  C8  UNL     1      -0.584  -0.235   0.184  1.00  0.00     0.040 A 
HETATM    3  C9  UNL     1      -1.739   0.454  -0.201  1.00  0.00    -0.022 A 
HETATM    4  C17 UNL     1      -1.786   1.789   0.116  1.00  0.00     0.079 A 
HETATM    5  C18 UNL     1      -0.739   2.424   0.788  1.00  0.00    -0.014 A 
HETATM    6  C23 UNL     1       0.380   1.736   1.157  1.00  0.00     0.040 A 
ENDROOT
BRANCH   1   7
HETATM    7  N5  UNL     1       1.602  -0.334   1.221  1.00  0.00    -0.191 N 
ATOM      8  H5  UNL     1       1.613  -0.768   2.144  1.00  0.00     0.184 HD
BRANCH   7   9
HETATM    9  C6  UNL     1       2.630  -0.481   0.482  1.00  0.00     0.711 A 
HETATM   10  N4  UNL     1       3.672  -1.196   0.951  1.00  0.00    -0.021 N 
HETATM   11  C3  UNL     1       4.790  -1.394   0.229  1.00  0.00     0.708 A 
ATOM     12  H4  UNL     1       3.611  -1.601   1.885  1.00  0.00     0.203 HD
HETATM   13  N2  UNL     1       4.884  -0.871  -0.993  1.00  0.00    -0.021 N 
HETATM   14  C2  UNL     1       3.852  -0.151  -1.484  1.00  0.00     0.706 A 
ATOM     15  H2  UNL     1       5.726  -1.013  -1.551  1.00  0.00     0.203 HD
HETATM   16  N6  UNL     1       2.743   0.041  -0.758  1.00  0.00    -0.021 N 
ATOM     17  H6  UNL     1       1.975   0.588  -1.146  1.00  0.00     0.203 HD
BRANCH  11  18
HETATM   18  N3  UNL     1       5.867  -2.153   0.762  1.00  0.00    -0.225 N 
HETATM   19  C4  UNL     1       7.073  -2.351  -0.017  1.00  0.00     0.168 C 
HETATM   20  C5  UNL     1       5.769  -2.740   2.096  1.00  0.00     0.168 C 
ENDBRANCH  11  18
BRANCH  14  21
HETATM   21  N1  UNL     1       3.920   0.360  -2.659  1.00  0.00    -0.229 N 
HETATM   22  C1  UNL     1       5.073   0.206  -3.518  1.00  0.00     0.165 C 
ATOM     23  H1  UNL     1       3.125   0.899  -3.003  1.00  0.00     0.177 HD
ENDBRANCH  14  21
ENDBRANCH   7   9
ENDBRANCH   1   7
BRANCH   3  24
HETATM   24  C10 UNL     1      -2.861  -0.209  -0.899  1.00  0.00     0.048 C 
BRANCH  24  25
HETATM   25  C11 UNL     1      -4.035  -0.562  -0.028  1.00  0.00     0.019 C 
HETATM   26  C12 UNL     1      -3.619  -1.508   1.043  1.00  0.00     0.007 C 
HETATM   27  C13 UNL     1      -3.814  -2.953   0.598  1.00  0.00     0.001 C 
HETATM   28  C14 UNL     1      -5.286  -3.200   0.518  1.00  0.00     0.002 C 
HETATM   29  C15 UNL     1      -5.987  -2.124  -0.235  1.00  0.00     0.032 C 
HETATM   30  C16 UNL     1      -5.117  -1.130  -0.921  1.00  0.00     0.122 C 
BRANCH  30  31
HETATM   31  O1  UNL     1      -4.529  -1.601  -2.083  1.00  0.00    -0.395 OA
ATOM     32  H1  UNL     1      -5.208  -1.958  -2.644  1.00  0.00     0.210 HD
ENDBRANCH  30  31
ENDBRANCH  24  25
ENDBRANCH   3  24
BRANCH   5  33
HETATM   33  C19 UNL     1      -0.925   3.881   1.067  1.00  0.00    -0.014 A 
HETATM   34  C20 UNL     1      -2.111   4.217   1.910  1.00  0.00     0.020 C 
HETATM   35  C21 UNL     1      -0.789   4.752  -0.189  1.00  0.00     0.015 A 
HETATM   36  C22 UNL     1       0.215   4.811   0.917  1.00  0.00     0.015 A 
ENDBRANCH   5  33
BRANCH   4  37
HETATM   37  O2  UNL     1      -2.884   2.552  -0.230  1.00  0.00    -0.360 OA
ATOM     38  H2  UNL     1      -2.917   3.476  -0.011  1.00  0.00     0.217 HD
ENDBRANCH   4  37
TORSDOF 9
