REMARK  5 active torsions:
REMARK  status: ('A' for Active; 'I' for Inactive)
REMARK    1  A    between atoms: C6_7  and  O1_8 
REMARK    2  A    between atoms: O1_8  and  C7_9 
REMARK    3  A    between atoms: C7_9  and  C8_10 
REMARK    4  A    between atoms: C10_17  and  C11_18 
REMARK    5  A    between atoms: N5_23  and  C14_25 
ROOT
HETATM    1  C8  UNL     1      -0.485   2.056  -1.017  1.00  0.00     0.065 A 
HETATM    2  N2  UNL     1      -1.389   2.730  -1.697  1.00  0.00    -0.300 N 
ATOM      3  H2  UNL     1      -2.382   2.755  -1.464  1.00  0.00     0.186 HD
HETATM    4  N3  UNL     1      -0.839   3.381  -2.737  1.00  0.00    -0.275 N 
ATOM      5  H3  UNL     1      -1.341   3.967  -3.404  1.00  0.00     0.189 HD
HETATM    6  C9  UNL     1       0.465   3.135  -2.751  1.00  0.00     0.216 A 
HETATM    7  F1  UNL     1       1.440   3.574  -3.615  1.00  0.00    -0.184 F 
HETATM    8  C10 UNL     1       0.729   2.301  -1.681  1.00  0.00     0.059 A 
ENDROOT
BRANCH   8   9
HETATM    9  C11 UNL     1       2.012   1.722  -1.288  1.00  0.00    -0.002 A 
HETATM   10  C12 UNL     1       2.583   0.694  -2.011  1.00  0.00     0.102 A 
HETATM   11  N4  UNL     1       3.747   0.123  -1.679  1.00  0.00    -0.350 N 
HETATM   12  C13 UNL     1       4.487   0.507  -0.584  1.00  0.00     0.126 A 
ATOM     13  H4  UNL     1       4.102  -0.632  -2.265  1.00  0.00     0.166 HD
HETATM   14  N5  UNL     1       5.575  -0.059  -0.356  1.00  0.00    -0.368 N 
HETATM   15  C18 UNL     1       3.932   1.528   0.146  1.00  0.00     0.090 A 
ATOM     16  H5  UNL     1       5.770  -0.769  -1.062  1.00  0.00     0.161 HD
HETATM   17  N7  UNL     1       4.625   1.994   1.296  1.00  0.00    -0.098 NA
HETATM   18  C19 UNL     1       2.714   2.142  -0.183  1.00  0.00     0.044 A 
BRANCH  14  19
HETATM   19  C14 UNL     1       6.597  -0.002   0.581  1.00  0.00     0.110 C 
HETATM   20  C15 UNL     1       7.832  -0.667  -0.060  1.00  0.00     0.054 C 
HETATM   21  C16 UNL     1       7.965  -1.990   0.615  1.00  0.00     0.234 C 
HETATM   22  N6  UNL     1       7.459  -1.766   1.932  1.00  0.00    -0.073 N 
HETATM   23  C17 UNL     1       6.418  -0.790   1.852  1.00  0.00     0.257 C 
ATOM     24  H62 UNL     1       7.156  -2.627   2.388  1.00  0.00     0.277 HD
ATOM     25  H61 UNL     1       8.190  -1.508   2.595  1.00  0.00     0.277 HD
ENDBRANCH  14  19
ENDBRANCH   8   9
BRANCH   1  26
HETATM   26  C7  UNL     1      -0.555   1.230   0.201  1.00  0.00     0.227 C 
BRANCH  26  27
HETATM   27  O1  UNL     1      -1.730   1.013   0.787  1.00  0.00    -0.380 OA
BRANCH  27  28
HETATM   28  C6  UNL     1      -2.740   0.339   0.208  1.00  0.00     0.126 C 
HETATM   29  C5  UNL     1      -2.859  -0.955   1.068  1.00  0.00     0.072 C 
HETATM   30  C2  UNL     1      -3.879  -1.898   0.558  1.00  0.00     0.155 C 
HETATM   31  N1  UNL     1      -5.159  -1.237   0.535  1.00  0.00     0.102 N 
HETATM   32  C3  UNL     1      -3.450  -2.516  -0.725  1.00  0.00     0.049 C 
HETATM   33  C4  UNL     1      -3.992  -3.023   1.590  1.00  0.00     0.049 C 
HETATM   34  C1  UNL     1      -5.559  -0.981   1.917  1.00  0.00     0.311 C 
HETATM   35  C21 UNL     1      -5.170   0.012  -0.174  1.00  0.00     0.155 C 
HETATM   36  C20 UNL     1      -4.100   0.958   0.254  1.00  0.00     0.072 C 
HETATM   37  C22 UNL     1      -6.513   0.689   0.145  1.00  0.00     0.049 C 
HETATM   38  C23 UNL     1      -5.167  -0.180  -1.688  1.00  0.00     0.049 C 
ENDBRANCH  27  28
ENDBRANCH  26  27
ENDBRANCH   1  26
TORSDOF 5
