REMARK  4 active torsions:
REMARK  status: ('A' for Active; 'I' for Inactive)
REMARK    1  A    between atoms: N1_2  and  C3_4 
REMARK    2  A    between atoms: C5_8  and  C6_9 
REMARK    3  A    between atoms: C6_9  and  N2_10 
REMARK    4  A    between atoms: N2_10  and  C7_13 
ROOT
HETATM    1  C3  UNL     1      -1.514  -0.463   0.655  1.00  0.00     0.328 C 
HETATM    2  C4  UNL     1      -1.422   0.758   1.455  1.00  0.00     0.294 C 
HETATM    3  O1  UNL     1      -2.191   1.253   2.315  1.00  0.00    -0.263 OA
HETATM    4  O2  UNL     1      -0.220   1.365   1.082  1.00  0.00    -0.306 OA
HETATM    5  C5  UNL     1       0.274   0.795  -0.113  1.00  0.00     0.105 C 
HETATM    6  C10 UNL     1       0.771   1.895  -0.991  1.00  0.00     0.089 C 
HETATM    7  C11 UNL     1      -0.203   3.016  -0.878  1.00  0.00     0.008 C 
HETATM    8  C12 UNL     1       0.093   4.278  -0.715  1.00  0.00     0.202 C 
HETATM    9  F1  UNL     1      -0.890   5.199  -0.627  1.00  0.00    -0.218 F 
HETATM   10  S1  UNL     1      -1.917   2.515  -0.987  1.00  0.00    -0.132 SA
HETATM   11  C13 UNL     1      -1.805   0.755  -1.517  1.00  0.00     0.089 C 
HETATM   12  C14 UNL     1      -0.866  -0.013  -0.637  1.00  0.00     0.076 C 
ENDROOT
BRANCH   5  13
HETATM   13  C6  UNL     1       1.470  -0.082   0.258  1.00  0.00     0.272 C 
BRANCH  13  14
HETATM   14  N2  UNL     1       2.035  -0.707  -0.912  1.00  0.00    -0.068 N 
ATOM     15  H22 UNL     1       1.344  -1.248  -1.431  1.00  0.00     0.277 HD
ATOM     16  H21 UNL     1       2.265  -0.028  -1.638  1.00  0.00     0.277 HD
BRANCH  14  17
HETATM   17  C7  UNL     1       3.170  -1.500  -0.533  1.00  0.00     0.186 A 
HETATM   18  C8  UNL     1       4.388  -0.901   0.071  1.00  0.00     0.035 A 
HETATM   19  C9  UNL     1       3.436  -1.665   0.939  1.00  0.00     0.035 A 
ENDBRANCH  14  17
ENDBRANCH  13  14
ENDBRANCH   5  13
BRANCH   1  20
HETATM   20  N1  UNL     1      -2.859  -0.932   0.479  1.00  0.00     0.094 N 
HETATM   21  C1  UNL     1      -2.855  -2.133  -0.336  1.00  0.00     0.310 C 
HETATM   22  C2  UNL     1      -3.360  -1.316   1.785  1.00  0.00     0.310 C 
ENDBRANCH   1  20
TORSDOF 4
