REMARK  3 active torsions:
REMARK  status: ('A' for Active; 'I' for Inactive)
REMARK       I    between atoms: N2_8  and  C7_9 
REMARK    1  A    between atoms: C7_9  and  C8_11 
REMARK    2  A    between atoms: C8_11  and  N3_12 
REMARK       I    between atoms: N3_12  and  C9_14 
REMARK    3  A    between atoms: C9_14  and  C10_16 
ROOT
HETATM    1  N1  UNL     1       2.454  -1.961   2.734  1.00  0.00    -0.195 NA
HETATM    2  C1  UNL     1       2.358  -1.082   1.976  1.00  0.00     0.084 C 
HETATM    3  C2  UNL     1       2.231   0.018   1.026  1.00  0.00     0.194 C 
HETATM    4  C3  UNL     1       3.548   0.455   0.491  1.00  0.00     0.040 C 
HETATM    5  C4  UNL     1       3.972  -0.257  -0.757  1.00  0.00     0.004 C 
HETATM    6  C5  UNL     1       3.001  -1.362  -1.142  1.00  0.00     0.020 C 
HETATM    7  C6  UNL     1       1.646  -0.706  -1.315  1.00  0.00     0.127 C 
HETATM    8  N2  UNL     1       1.233  -0.240   0.004  1.00  0.00    -0.334 N 
HETATM    9  C7  UNL     1      -0.133  -0.051   0.251  1.00  0.00     0.238 C 
HETATM   10  O1  UNL     1      -0.475   0.359   1.412  1.00  0.00    -0.272 OA
ENDROOT
BRANCH   9  11
HETATM   11  C8  UNL     1      -1.128  -0.317  -0.790  1.00  0.00     0.225 C 
BRANCH  11  12
HETATM   12  N3  UNL     1      -2.495  -0.071  -0.394  1.00  0.00    -0.348 N 
HETATM   13  C9  UNL     1      -2.993   1.169   0.021  1.00  0.00     0.261 C 
HETATM   14  O2  UNL     1      -2.257   2.165   0.071  1.00  0.00    -0.267 OA
ATOM     15  H3  UNL     1      -3.144  -0.858  -0.419  1.00  0.00     0.163 HD
BRANCH  13  16
HETATM   16  C10 UNL     1      -4.390   1.293   0.397  1.00  0.00     0.107 A 
HETATM   17  C11 UNL     1      -5.380   0.335   0.418  1.00  0.00     0.133 A 
HETATM   18  N4  UNL     1      -6.560   0.710   0.800  1.00  0.00    -0.304 N 
HETATM   19  N5  UNL     1      -6.776   1.943   1.142  1.00  0.00    -0.269 N 
ATOM     20  H4  UNL     1      -7.322   0.033   0.832  1.00  0.00     0.186 HD
HETATM   21  S1  UNL     1      -5.273   2.672   0.940  1.00  0.00     0.008 SA
ATOM     22  H5  UNL     1      -7.648   2.368   1.458  1.00  0.00     0.195 HD
ENDBRANCH  13  16
ENDBRANCH  11  12
ENDBRANCH   9  11
TORSDOF 3
