REMARK  3 active torsions:
REMARK  status: ('A' for Active; 'I' for Inactive)
REMARK    1  A    between atoms: C3_8  and  C4_9 
REMARK       I    between atoms: C4_9  and  N3_11 
REMARK    2  A    between atoms: N3_11  and  N4_13 
REMARK    3  A    between atoms: C8_17  and  C9_18 
ROOT
HETATM    1  C4  UNL     1       1.406   0.921   0.441  1.00  0.00     0.276 C 
HETATM    2  O1  UNL     1       1.057   1.917   1.184  1.00  0.00    -0.266 OA
HETATM    3  N3  UNL     1       0.382   0.053   0.079  1.00  0.00    -0.284 N 
ATOM      4  H3  UNL     1       0.599  -0.745  -0.519  1.00  0.00     0.184 HD
ENDROOT
BRANCH   1   5
HETATM    5  C3  UNL     1       2.818   0.861   0.093  1.00  0.00     0.115 A 
HETATM    6  C2  UNL     1       3.602  -0.052  -0.549  1.00  0.00     0.046 A 
HETATM    7  C1  UNL     1       3.101  -1.374  -1.108  1.00  0.00     0.071 C 
HETATM    8  N1  UNL     1       4.879   0.232  -0.651  1.00  0.00    -0.298 N 
HETATM    9  N2  UNL     1       5.351   1.318  -0.165  1.00  0.00    -0.269 N 
ATOM     10  H1  UNL     1       5.504  -0.421  -1.124  1.00  0.00     0.187 HD
HETATM   11  S1  UNL     1       4.018   2.069   0.502  1.00  0.00     0.009 SA
ATOM     12  H2  UNL     1       6.316   1.647  -0.181  1.00  0.00     0.195 HD
ENDBRANCH   1   5
BRANCH   3  13
HETATM   13  N4  UNL     1      -0.917   0.236   0.502  1.00  0.00    -0.223 NA
HETATM   14  C5  UNL     1      -1.443   1.556   0.502  1.00  0.00     0.114 C 
HETATM   15  C6  UNL     1      -2.935   1.465   0.210  1.00  0.00     0.018 C 
HETATM   16  C7  UNL     1      -3.205  -0.008   0.358  1.00  0.00     0.023 C 
HETATM   17  C8  UNL     1      -1.892  -0.600  -0.160  1.00  0.00     0.089 C 
BRANCH  17  18
HETATM   18  C9  UNL     1      -1.757  -2.057   0.152  1.00  0.00     0.106 C 
HETATM   19 BR1  UNL     1      -3.128  -3.037  -0.805  1.00  0.00    -0.095 Br
ENDBRANCH  17  18
ENDBRANCH   3  13
TORSDOF 3
