REMARK  7 active torsions:
REMARK  status: ('A' for Active; 'I' for Inactive)
REMARK    1  A    between atoms: C2_2  and  C4_4 
REMARK    2  A    between atoms: C4_4  and  N1_5 
REMARK    3  A    between atoms: C4_4  and  C6_9 
REMARK    4  A    between atoms: N1_5  and  C5_7 
REMARK       I    between atoms: C6_9  and  N2_11 
REMARK    5  A    between atoms: N2_11  and  C7_13 
REMARK    6  A    between atoms: C11_17  and  C12_18 
REMARK       I    between atoms: C12_18  and  N3_20 
REMARK    7  A    between atoms: N3_20  and  C13_22 
ROOT
HETATM    1  C7  UNL     1       0.311   0.501  -0.250  1.00  0.00     0.097 C 
HETATM    2  C8  UNL     1       0.514   1.166  -1.603  1.00  0.00     0.026 C 
HETATM    3  C9  UNL     1       1.317   0.234  -2.445  1.00  0.00     0.003 C 
HETATM    4  C10 UNL     1       1.397  -1.055  -1.649  1.00  0.00     0.016 C 
HETATM    5  C11 UNL     1       1.392  -0.528  -0.231  1.00  0.00     0.100 C 
ENDROOT
BRANCH   1   6
HETATM    6  N2  UNL     1      -1.006  -0.029  -0.101  1.00  0.00    -0.354 N 
HETATM    7  C6  UNL     1      -1.867   0.339   0.941  1.00  0.00     0.241 C 
HETATM    8  O2  UNL     1      -1.413   1.185   1.768  1.00  0.00    -0.271 OA
ATOM      9  H2  UNL     1      -1.336  -0.709  -0.786  1.00  0.00     0.162 HD
BRANCH   7  10
HETATM   10  C4  UNL     1      -3.219  -0.147   1.172  1.00  0.00     0.179 C 
BRANCH  10  11
HETATM   11  C2  UNL     1      -4.204   0.074   0.078  1.00  0.00     0.009 C 
HETATM   12  C1  UNL     1      -4.446   1.552  -0.202  1.00  0.00     0.012 C 
HETATM   13  C3  UNL     1      -4.011  -0.735  -1.150  1.00  0.00     0.012 C 
ENDBRANCH  10  11
BRANCH  10  14
HETATM   14  N1  UNL     1      -3.755   0.479   2.358  1.00  0.00    -0.355 N 
ATOM     15  H1  UNL     1      -3.886   1.490   2.398  1.00  0.00     0.162 HD
BRANCH  14  16
HETATM   16  C5  UNL     1      -4.096  -0.339   3.468  1.00  0.00     0.349 C 
HETATM   17  O1  UNL     1      -3.928  -1.562   3.396  1.00  0.00    -0.284 OA
ENDBRANCH  14  16
ENDBRANCH  10  14
ENDBRANCH   7  10
ENDBRANCH   1   6
BRANCH   5  18
HETATM   18  C12 UNL     1       2.692   0.208  -0.046  1.00  0.00     0.224 C 
HETATM   19  O3  UNL     1       2.737   1.458   0.060  1.00  0.00    -0.273 OA
HETATM   20  N3  UNL     1       3.926  -0.499   0.014  1.00  0.00    -0.356 N 
ATOM     21  H3  UNL     1       3.922  -1.516  -0.070  1.00  0.00     0.162 HD
BRANCH  20  22
HETATM   22  C13 UNL     1       5.171   0.183   0.189  1.00  0.00     0.084 A 
HETATM   23  C14 UNL     1       6.462  -0.396  -0.186  1.00  0.00     0.027 A 
HETATM   24  C15 UNL     1       6.078  -0.435   1.271  1.00  0.00     0.027 A 
ENDBRANCH  20  22
ENDBRANCH   5  18
TORSDOF 7
