REMARK  7 active torsions:
REMARK  status: ('A' for Active; 'I' for Inactive)
REMARK    1  A    between atoms: N2_4  and  N3_6 
REMARK    2  A    between atoms: C1_8  and  N4_9 
REMARK    3  A    between atoms: C5_17  and  C6_18 
REMARK       I    between atoms: C6_18  and  N6_20 
REMARK    4  A    between atoms: N6_20  and  C7_22 
REMARK    5  A    between atoms: C7_22  and  C8_23 
REMARK    6  A    between atoms: C7_22  and  C12_27 
REMARK    7  A    between atoms: C8_23  and  C9_24 
ROOT
HETATM    1  N4  UNL     1       1.668   0.422   1.133  1.00  0.00    -0.356 N 
ATOM      2  H4  UNL     1       0.665   0.379   1.313  1.00  0.00     0.166 HD
HETATM    3  C2  UNL     1       2.191  -0.481   0.402  1.00  0.00     0.029 C 
HETATM    4  C3  UNL     1       3.642  -0.550   0.053  1.00  0.00     0.082 C 
HETATM    5  C4  UNL     1       3.744  -1.854  -0.751  1.00  0.00     0.239 C 
HETATM    6  N5  UNL     1       2.434  -1.845  -1.416  1.00  0.00    -0.057 N 
ATOM      7  H51 UNL     1       2.223  -2.661  -1.991  1.00  0.00     0.278 HD
ATOM      8  H52 UNL     1       2.329  -1.176  -2.179  1.00  0.00     0.278 HD
HETATM    9  C5  UNL     1       1.554  -1.636  -0.258  1.00  0.00     0.322 C 
ENDROOT
BRANCH   9  10
HETATM   10  C6  UNL     1       0.178  -1.357  -0.670  1.00  0.00     0.255 C 
HETATM   11  O1  UNL     1      -0.115  -1.324  -1.906  1.00  0.00    -0.271 OA
HETATM   12  N6  UNL     1      -0.856  -1.121   0.255  1.00  0.00    -0.346 N 
ATOM     13  H6  UNL     1      -0.625  -1.145   1.248  1.00  0.00     0.163 HD
BRANCH  12  14
HETATM   14  C7  UNL     1      -2.228  -0.846  -0.119  1.00  0.00     0.174 C 
BRANCH  14  15
HETATM   15  C8  UNL     1      -2.771   0.420   0.502  1.00  0.00     0.039 C 
BRANCH  15  16
HETATM   16  C9  UNL     1      -1.941   1.580   0.055  1.00  0.00    -0.012 A 
HETATM   17  C10 UNL     1      -1.916   1.798  -1.446  1.00  0.00     0.005 A 
HETATM   18  C11 UNL     1      -2.549   2.787  -0.551  1.00  0.00     0.005 A 
ENDBRANCH  15  16
ENDBRANCH  14  15
BRANCH  14  19
HETATM   19  C12 UNL     1      -3.098  -2.018   0.232  1.00  0.00     0.254 C 
HETATM   20  N7  UNL     1      -4.478  -1.933  -0.060  1.00  0.00    -0.060 NA
HETATM   21  O2  UNL     1      -2.660  -3.064   0.769  1.00  0.00    -0.275 OA
ENDBRANCH  14  19
ENDBRANCH  12  14
ENDBRANCH   9  10
BRANCH   1  22
HETATM   22  C1  UNL     1       2.411   1.485   1.710  1.00  0.00     0.199 C 
HETATM   23  N3  UNL     1       3.269   2.183   1.074  1.00  0.00    -0.282 N 
ATOM     24  H3  UNL     1       3.460   1.995   0.090  1.00  0.00     0.189 HD
BRANCH  23  25
HETATM   25  N2  UNL     1       3.942   3.204   1.739  1.00  0.00    -0.248 N 
HETATM   26  N1  UNL     1       4.605   4.033   1.068  1.00  0.00    -0.331 N 
ATOM     27  H12 UNL     1       4.640   3.945   0.052  1.00  0.00     0.178 HD
ATOM     28  H11 UNL     1       5.098   4.781   1.555  1.00  0.00     0.178 HD
ATOM     29  H2  UNL     1       3.897   3.278   2.755  1.00  0.00     0.207 HD
ENDBRANCH  23  25
ENDBRANCH   1  22
TORSDOF 7
