REMARK  6 active torsions:
REMARK  status: ('A' for Active; 'I' for Inactive)
REMARK    1  A    between atoms: N1_2  and  C2_5 
REMARK    2  A    between atoms: C2_5  and  C3_6 
REMARK    3  A    between atoms: C3_6  and  C4_7 
REMARK    4  A    between atoms: C4_7  and  C5_8 
REMARK    5  A    between atoms: C5_8  and  N2_9 
REMARK    6  A    between atoms: C13_18  and  N3_19 
ROOT
HETATM    1  N2  UNL     1       1.085  -1.106   0.511  1.00  0.00    -0.323 N 
HETATM    2  C6  UNL     1       0.918  -2.447   0.551  1.00  0.00     0.163 A 
HETATM    3  O1  UNL     1       1.574  -3.566   0.704  1.00  0.00    -0.297 OA
HETATM    4  C7  UNL     1       0.776  -4.593   0.633  1.00  0.00     0.052 A 
HETATM    5  C8  UNL     1       1.086  -6.043   0.751  1.00  0.00     0.077 C 
HETATM    6  C9  UNL     1      -0.518  -4.113   0.415  1.00  0.00     0.050 A 
HETATM    7  C10 UNL     1      -0.427  -2.744   0.363  1.00  0.00     0.047 A 
HETATM    8  C11 UNL     1      -1.085  -1.542   0.206  1.00  0.00     0.079 A 
HETATM    9  C12 UNL     1      -0.101  -0.563   0.307  1.00  0.00     0.092 A 
HETATM   10  C13 UNL     1      -0.505   0.767   0.186  1.00  0.00     0.068 A 
HETATM   11  C14 UNL     1      -1.847   1.046  -0.026  1.00  0.00     0.020 A 
HETATM   12  C15 UNL     1      -2.301   2.344  -0.153  1.00  0.00     0.023 A 
HETATM   13  C16 UNL     1      -3.651   2.632  -0.365  1.00  0.00    -0.055 A 
HETATM   14  C17 UNL     1      -4.065   4.048  -0.491  1.00  0.00     0.049 C 
HETATM   15  C18 UNL     1      -4.559   1.612  -0.452  1.00  0.00    -0.054 A 
HETATM   16  C19 UNL     1      -6.012   1.868  -0.678  1.00  0.00     0.049 C 
HETATM   17  C20 UNL     1      -4.096   0.310  -0.324  1.00  0.00     0.038 A 
HETATM   18  C21 UNL     1      -2.770  -0.003  -0.114  1.00  0.00     0.047 A 
HETATM   19  N4  UNL     1      -2.371  -1.303   0.005  1.00  0.00    -0.348 N 
HETATM   20  C22 UNL     1      -3.411  -2.270  -0.104  1.00  0.00     0.156 C 
ENDROOT
BRANCH   1  21
HETATM   21  C5  UNL     1       2.349  -0.434   0.676  1.00  0.00     0.131 C 
BRANCH  21  22
HETATM   22  C4  UNL     1       3.091  -0.257  -0.626  1.00  0.00     0.022 C 
BRANCH  22  23
HETATM   23  C3  UNL     1       4.409   0.451  -0.462  1.00  0.00     0.029 C 
BRANCH  23  24
HETATM   24  C2  UNL     1       4.217   1.821   0.089  1.00  0.00     0.231 C 
BRANCH  24  25
HETATM   25  N1  UNL     1       5.491   2.523   0.242  1.00  0.00    -0.079 N 
HETATM   26  C1  UNL     1       6.097   2.832  -1.022  1.00  0.00     0.266 C 
ATOM     27  H12 UNL     1       6.131   1.999   0.839  1.00  0.00     0.276 HD
ATOM     28  H11 UNL     1       5.384   3.361   0.814  1.00  0.00     0.276 HD
ENDBRANCH  24  25
ENDBRANCH  23  24
ENDBRANCH  22  23
ENDBRANCH  21  22
ENDBRANCH   1  21
BRANCH  10  29
HETATM   29  N3  UNL     1       0.357   1.687   0.276  1.00  0.00    -0.396 N 
ATOM     30  H32 UNL     1       1.344   1.482   0.432  1.00  0.00     0.156 HD
ATOM     31  H31 UNL     1       0.062   2.659   0.188  1.00  0.00     0.156 HD
ENDBRANCH  10  29
TORSDOF 6
