REMARK  6 active torsions:
REMARK  status: ('A' for Active; 'I' for Inactive)
REMARK    1  A    between atoms: O1_2  and  C2_3 
REMARK    2  A    between atoms: C4_5  and  C5_6 
REMARK    3  A    between atoms: C5_6  and  C6_8 
REMARK    4  A    between atoms: C12_14  and  O3_15 
REMARK    5  A    between atoms: O3_15  and  C13_16 
REMARK    6  A    between atoms: C22_26  and  O5_27 
ROOT
HETATM    1  C2  UNL     1      -0.435   4.296  -0.586  1.00  0.00     0.102 A 
HETATM    2  C3  UNL     1      -1.438   3.369  -0.611  1.00  0.00     0.057 A 
HETATM    3  C4  UNL     1      -1.132   1.999  -0.415  1.00  0.00     0.046 A 
HETATM    4  C12 UNL     1       0.171   1.612  -0.200  1.00  0.00     0.086 A 
HETATM    5  C21 UNL     1       1.193   2.569  -0.176  1.00  0.00     0.077 A 
HETATM    6  C22 UNL     1       0.867   3.907  -0.371  1.00  0.00     0.101 A 
ENDROOT
BRANCH   4   7
HETATM    7  O3  UNL     1       0.510   0.296   0.001  1.00  0.00    -0.337 OA
BRANCH   7   8
HETATM    8  C13 UNL     1       1.715  -0.295   0.279  1.00  0.00     0.202 C 
HETATM    9  C14 UNL     1       2.265  -1.090  -0.885  1.00  0.00     0.156 C 
HETATM   10  O4  UNL     1       2.256  -0.672  -2.014  1.00  0.00    -0.295 OA
HETATM   11  C15 UNL     1       2.832  -2.428  -0.605  1.00  0.00     0.081 C 
HETATM   12  C16 UNL     1       3.634  -2.494   0.654  1.00  0.00     0.012 C 
HETATM   13  C17 UNL     1       3.112  -1.624   1.758  1.00  0.00    -0.012 C 
HETATM   14  C18 UNL     1       3.194  -2.302   3.111  1.00  0.00     0.010 C 
HETATM   15  C19 UNL     1       1.664  -1.290   1.424  1.00  0.00     0.022 C 
HETATM   16  C20 UNL     1       1.036  -0.713   2.657  1.00  0.00     0.013 C 
ENDBRANCH   7   8
ENDBRANCH   4   7
BRANCH   3  17
HETATM   17  C5  UNL     1      -2.200   1.033  -0.470  1.00  0.00     0.166 C 
HETATM   18  O2  UNL     1      -3.390   1.526  -0.584  1.00  0.00    -0.292 OA
BRANCH  17  19
HETATM   19  C6  UNL     1      -2.141  -0.422  -0.424  1.00  0.00     0.061 C 
HETATM   20  C7  UNL     1      -3.558  -1.014  -0.282  1.00  0.00     0.012 C 
HETATM   21  C8  UNL     1      -3.731  -2.304  -1.002  1.00  0.00     0.001 C 
HETATM   22  C9  UNL     1      -2.511  -3.159  -1.106  1.00  0.00     0.000 C 
HETATM   23  C10 UNL     1      -1.305  -2.393  -1.603  1.00  0.00     0.001 C 
HETATM   24  C11 UNL     1      -1.697  -0.947  -1.800  1.00  0.00     0.012 C 
ENDBRANCH  17  19
ENDBRANCH   3  17
BRANCH   6  25
HETATM   25  O5  UNL     1       1.872   4.862  -0.349  1.00  0.00    -0.358 OA
ATOM     26  H5  UNL     1       2.771   4.593  -0.201  1.00  0.00     0.217 HD
ENDBRANCH   6  25
BRANCH   1  27
HETATM   27  O1  UNL     1      -0.707   5.627  -0.773  1.00  0.00    -0.353 OA
HETATM   28  C1  UNL     1      -1.969   6.181  -1.001  1.00  0.00     0.210 C 
ENDBRANCH   1  27
TORSDOF 6
