REMARK  5 active torsions:
REMARK  status: ('A' for Active; 'I' for Inactive)
REMARK    1  A    between atoms: C2_2  and  C3_3 
REMARK    2  A    between atoms: N1_5  and  N2_7 
REMARK    3  A    between atoms: N2_7  and  C4_9 
REMARK    4  A    between atoms: C5_13  and  N6_14 
REMARK    5  A    between atoms: N6_14  and  N7_16 
ROOT
HETATM    1  C4  UNL     1      -0.494   0.731  -0.205  1.00  0.00     0.250 C 
HETATM    2  N3  UNL     1      -0.677   2.100   0.304  1.00  0.00    -0.100 NA
HETATM    3  N4  UNL     1      -2.022   2.313  -0.099  1.00  0.00    -0.036 NA
HETATM    4  N5  UNL     1      -2.665   1.205   0.514  1.00  0.00    -0.099 NA
HETATM    5  C5  UNL     1      -1.753   0.082   0.308  1.00  0.00     0.256 C 
ENDROOT
BRANCH   1   6
HETATM    6  N2  UNL     1       0.702   0.136   0.350  1.00  0.00    -0.311 N 
ATOM      7  H2  UNL     1       0.629  -0.717   0.904  1.00  0.00     0.182 HD
BRANCH   6   8
HETATM    8  N1  UNL     1       1.938   0.707   0.140  1.00  0.00    -0.305 N 
HETATM    9  C2  UNL     1       3.010   0.005   0.063  1.00  0.00     0.059 C 
HETATM   10  C1  UNL     1       2.879  -1.476   0.210  1.00  0.00     0.073 C 
ATOM     11  H1  UNL     1       2.003   1.720   0.043  1.00  0.00     0.186 HD
BRANCH   9  12
HETATM   12  C3  UNL     1       4.310   0.617  -0.160  1.00  0.00     0.284 C 
HETATM   13  O1  UNL     1       5.318  -0.128  -0.225  1.00  0.00    -0.300 OA
ENDBRANCH   9  12
ENDBRANCH   6   8
ENDBRANCH   1   6
BRANCH   5  14
HETATM   14  N6  UNL     1      -2.294  -0.881  -0.621  1.00  0.00    -0.252 N 
ATOM     15  H6  UNL     1      -1.831  -1.061  -1.512  1.00  0.00     0.188 HD
BRANCH  14  16
HETATM   16  N7  UNL     1      -3.460  -1.560  -0.278  1.00  0.00    -0.042 N 
HETATM   17  O2  UNL     1      -3.693  -1.819   0.930  1.00  0.00    -0.517 OA
HETATM   18  O3  UNL     1      -4.375  -1.964  -1.203  1.00  0.00    -0.517 OA
ENDBRANCH  14  16
ENDBRANCH   5  14
TORSDOF 5
