REMARK  7 active torsions:
REMARK  status: ('A' for Active; 'I' for Inactive)
REMARK    1  A    between atoms: O1_2  and  C2_3 
REMARK    2  A    between atoms: C2_3  and  C3_5 
REMARK    3  A    between atoms: C3_5  and  C4_7 
REMARK    4  A    between atoms: C4_7  and  N1_8 
REMARK       I    between atoms: N1_8  and  C5_10 
REMARK       I    between atoms: C5_10  and  N2_12 
REMARK    5  A    between atoms: N2_12  and  S1_14 
REMARK    6  A    between atoms: S1_14  and  N3_15 
REMARK    7  A    between atoms: N3_15  and  N4_16 
ROOT
HETATM    1  N1  UNL     1       0.234   0.534  -1.659  1.00  0.00    -0.335 N 
ATOM      2  H1  UNL     1       0.534   1.378  -2.147  1.00  0.00     0.164 HD
HETATM    3  C5  UNL     1       1.230  -0.307  -1.097  1.00  0.00     0.327 C 
HETATM    4  O4  UNL     1       0.908  -1.358  -0.492  1.00  0.00    -0.246 OA
HETATM    5  N2  UNL     1       2.608   0.019  -1.206  1.00  0.00    -0.267 N 
ATOM      6  H2  UNL     1       2.871   0.874  -1.697  1.00  0.00     0.180 HD
ENDROOT
BRANCH   1   7
HETATM    7  C4  UNL     1      -1.175   0.260  -1.578  1.00  0.00     0.214 C 
BRANCH   7   8
HETATM    8  C3  UNL     1      -1.702   0.198  -0.198  1.00  0.00     0.241 C 
HETATM    9  O3  UNL     1      -0.960   0.389   0.782  1.00  0.00    -0.285 OA
BRANCH   8  10
HETATM   10  C2  UNL     1      -3.105  -0.092   0.010  1.00  0.00     0.330 C 
HETATM   11  O2  UNL     1      -3.916  -0.299  -0.930  1.00  0.00    -0.256 OA
BRANCH  10  12
HETATM   12  O1  UNL     1      -3.576  -0.144   1.311  1.00  0.00    -0.320 OA
HETATM   13  C1  UNL     1      -4.953  -0.426   1.593  1.00  0.00     0.213 C 
ENDBRANCH  10  12
ENDBRANCH   8  10
ENDBRANCH   7   8
ENDBRANCH   1   7
BRANCH   5  14
HETATM   14  S1  UNL     1       3.873  -0.984  -0.534  1.00  0.00     0.081 SA
BRANCH  14  15
HETATM   15  N3  UNL     1       4.777  -0.072   0.681  1.00  0.00    -0.051 NA
BRANCH  15  16
HETATM   16  N4  UNL     1       5.448  -0.915   1.544  1.00  0.00    -0.336 N 
ATOM     17  H42 UNL     1       5.416  -1.932   1.476  1.00  0.00     0.173 HD
ATOM     18  H41 UNL     1       5.970  -0.389   2.245  1.00  0.00     0.173 HD
ENDBRANCH  15  16
ENDBRANCH  14  15
ENDBRANCH   5  14
TORSDOF 7
