REMARK  5 active torsions:
REMARK  status: ('A' for Active; 'I' for Inactive)
REMARK    1  A    between atoms: C1_2  and  C2_4 
REMARK    2  A    between atoms: C2_4  and  N2_5 
REMARK    3  A    between atoms: N2_5  and  N3_6 
REMARK    4  A    between atoms: N2_5  and  C3_9 
REMARK    5  A    between atoms: C4_10  and  N4_11 
ROOT
HETATM    1  C3  UNL     1      -1.090   0.005  -0.012  1.00  0.00     0.153 A 
HETATM    2  C4  UNL     1      -1.736  -0.632   0.994  1.00  0.00     0.226 A 
HETATM    3  N5  UNL     1      -3.075  -0.373   0.777  1.00  0.00    -0.236 N 
ATOM      4  H5  UNL     1      -3.839  -0.711   1.361  1.00  0.00     0.197 HD
HETATM    5  O4  UNL     1      -3.215   0.361  -0.276  1.00  0.00    -0.218 OA
HETATM    6  C5  UNL     1      -2.059   0.632  -0.808  1.00  0.00     0.212 A 
HETATM    7  N6  UNL     1      -1.816   1.400  -1.957  1.00  0.00    -0.070 NA
ENDROOT
BRANCH   1   8
HETATM    8  N2  UNL     1       0.267   0.085  -0.312  1.00  0.00    -0.283 N 
BRANCH   8   9
HETATM    9  C2  UNL     1       1.134   1.113   0.198  1.00  0.00     0.248 C 
BRANCH   9  10
HETATM   10  C1  UNL     1       2.434   0.576   0.643  1.00  0.00     0.250 C 
HETATM   11  N1  UNL     1       2.735  -0.801   0.524  1.00  0.00    -0.061 NA
HETATM   12  O1  UNL     1       3.313   1.326   1.138  1.00  0.00    -0.275 OA
ENDBRANCH   9  10
ENDBRANCH   8   9
BRANCH   8  13
HETATM   13  N3  UNL     1       0.816  -0.854  -1.206  1.00  0.00    -0.342 N 
ATOM     14  H32 UNL     1       1.810  -0.795  -1.426  1.00  0.00     0.177 HD
ATOM     15  H31 UNL     1       0.201  -1.583  -1.568  1.00  0.00     0.177 HD
ENDBRANCH   8  13
ENDBRANCH   1   8
BRANCH   2  16
HETATM   16  N4  UNL     1      -1.263  -1.414   2.063  1.00  0.00    -0.093 N 
HETATM   17  O2  UNL     1      -1.989  -2.307   2.527  1.00  0.00    -0.530 OA
HETATM   18  O3  UNL     1      -0.036  -1.208   2.590  1.00  0.00    -0.530 OA
ENDBRANCH   2  16
TORSDOF 5
