REMARK  13 active torsions:
REMARK  status: ('A' for Active; 'I' for Inactive)
REMARK    1  A    between atoms: C3_4  and  N2_5 
REMARK    2  A    between atoms: N2_5  and  C4_6 
REMARK    3  A    between atoms: N2_5  and  C5_9 
REMARK    4  A    between atoms: C4_6  and  S1_7 
REMARK    5  A    between atoms: C5_9  and  O1_10 
REMARK    6  A    between atoms: C5_9  and  C6_12 
REMARK    7  A    between atoms: C6_12  and  C7_14 
REMARK    8  A    between atoms: C7_14  and  N3_15 
REMARK    9  A    between atoms: C7_14  and  C8_19 
REMARK   10  A    between atoms: C8_19  and  C9_20 
REMARK   11  A    between atoms: C12_23  and  O3_24 
REMARK   12  A    between atoms: N7_37  and  O4_39 
REMARK   13  A    between atoms: N8_43  and  N9_45 
ROOT
HETATM    1  C1  UNL     1      -4.729   1.816  -2.027  1.00  0.00     0.157 C 
HETATM    2  N1  UNL     1      -3.638   1.311  -1.195  1.00  0.00    -0.344 N 
HETATM    3  C2  UNL     1      -2.388   1.791  -1.384  1.00  0.00     0.124 A 
HETATM    4  C3  UNL     1      -1.287   1.375  -0.636  1.00  0.00     0.081 A 
HETATM    5  C15 UNL     1      -1.534   0.446   0.308  1.00  0.00     0.081 A 
HETATM    6  N4  UNL     1      -0.577  -0.053   1.114  1.00  0.00    -0.331 N 
ATOM      7  H4  UNL     1       0.371   0.300   0.985  1.00  0.00     0.168 HD
HETATM    8  C16 UNL     1      -0.763  -0.966   2.063  1.00  0.00     0.190 A 
HETATM    9  C17 UNL     1       0.276  -1.491   2.926  1.00  0.00     0.137 C 
HETATM   10  N5  UNL     1       1.087  -1.913   3.632  1.00  0.00    -0.188 NA
HETATM   11  N6  UNL     1      -2.026  -1.440   2.240  1.00  0.00    -0.318 N 
ATOM     12  H6  UNL     1      -2.207  -2.141   2.958  1.00  0.00     0.169 HD
HETATM   13  C18 UNL     1      -3.036  -0.992   1.476  1.00  0.00     0.143 A 
HETATM   14  N7  UNL     1      -4.226  -1.461   1.668  1.00  0.00    -0.252 N 
ATOM     15  H7  UNL     1      -5.001  -1.128   1.094  1.00  0.00     0.196 HD
HETATM   16  C19 UNL     1      -2.823  -0.058   0.512  1.00  0.00     0.084 A 
HETATM   17  C20 UNL     1      -3.897   0.397  -0.270  1.00  0.00     0.138 A 
HETATM   18  N8  UNL     1      -5.014  -0.132   0.007  1.00  0.00    -0.291 N 
ATOM     19  H8  UNL     1      -4.989  -0.818   0.761  1.00  0.00     0.188 HD
ENDROOT
BRANCH   4  20
HETATM   20  N2  UNL     1      -0.033   1.940  -0.902  1.00  0.00    -0.311 N 
BRANCH  20  21
HETATM   21  C4  UNL     1       0.055   3.381  -0.582  1.00  0.00     0.218 C 
BRANCH  21  22
HETATM   22  S1  UNL     1       0.665   3.834   0.991  1.00  0.00    -0.065 SA
HETATM   23  S2  UNL     1      -0.664   3.440   2.579  1.00  0.00    -0.011 SA
ENDBRANCH  21  22
ENDBRANCH  20  21
BRANCH  20  24
HETATM   24  C5  UNL     1       1.087   1.372  -1.491  1.00  0.00     0.193 C 
BRANCH  24  25
HETATM   25  O1  UNL     1       2.123   2.161  -1.563  1.00  0.00    -0.343 OA
ATOM     26  H1  UNL     1       2.890   1.772  -1.966  1.00  0.00     0.219 HD
ENDBRANCH  24  25
BRANCH  24  27
HETATM   27  C6  UNL     1       1.337   0.078  -2.048  1.00  0.00     0.230 C 
HETATM   28  O2  UNL     1       0.388  -0.776  -2.028  1.00  0.00    -0.286 OA
BRANCH  27  29
HETATM   29  C7  UNL     1       2.585  -0.371  -2.652  1.00  0.00     0.265 C 
BRANCH  29  30
HETATM   30  N3  UNL     1       2.500  -1.737  -3.127  1.00  0.00    -0.068 N 
ATOM     31  H33 UNL     1       2.201  -2.369  -2.384  1.00  0.00     0.275 HD
ATOM     32  H32 UNL     1       1.715  -1.857  -3.767  1.00  0.00     0.275 HD
ATOM     33  H31 UNL     1       3.373  -2.051  -3.550  1.00  0.00     0.275 HD
ENDBRANCH  29  30
BRANCH  29  34
HETATM   34  C8  UNL     1       3.854  -0.195  -1.947  1.00  0.00     0.079 C 
BRANCH  34  35
HETATM   35  C9  UNL     1       4.091  -0.808  -0.662  1.00  0.00    -0.056 A 
HETATM   36  C10 UNL     1       3.861  -0.189   0.532  1.00  0.00     0.010 A 
HETATM   37  C11 UNL     1       4.118  -0.775   1.757  1.00  0.00     0.037 A 
HETATM   38  C12 UNL     1       4.632  -2.045   1.789  1.00  0.00     0.065 A 
HETATM   39  C13 UNL     1       4.888  -2.731   0.610  1.00  0.00     0.037 A 
HETATM   40  C14 UNL     1       4.610  -2.093  -0.598  1.00  0.00     0.010 A 
BRANCH  38  41
HETATM   41  O3  UNL     1       4.895  -2.646   3.005  1.00  0.00    -0.361 OA
ATOM     42  H3  UNL     1       5.251  -3.526   3.027  1.00  0.00     0.217 HD
ENDBRANCH  38  41
ENDBRANCH  34  35
ENDBRANCH  29  34
ENDBRANCH  27  29
ENDBRANCH  24  27
ENDBRANCH  20  24
ENDBRANCH   4  20
BRANCH  14  43
HETATM   43  O4  UNL     1      -4.452  -2.399   2.634  1.00  0.00    -0.288 OA
ATOM     44  H4  UNL     1      -5.326  -2.743   2.775  1.00  0.00     0.244 HD
ENDBRANCH  14  43
BRANCH  18  45
HETATM   45  N9  UNL     1      -6.242   0.071  -0.543  1.00  0.00    -0.344 N 
ATOM     46  H92 UNL     1      -6.245   0.760  -1.295  1.00  0.00     0.176 HD
ATOM     47  H91 UNL     1      -7.142  -0.355  -0.320  1.00  0.00     0.176 HD
ENDBRANCH  18  45
TORSDOF 13
