REMARK  12 active torsions:
REMARK  status: ('A' for Active; 'I' for Inactive)
REMARK    1  A    between atoms: O1_2  and  C2_3 
REMARK    2  A    between atoms: C2_3  and  C3_5 
REMARK    3  A    between atoms: C4_6  and  O3_7 
REMARK    4  A    between atoms: C8_15  and  C9_16 
REMARK    5  A    between atoms: C9_16  and  S1_17 
REMARK    6  A    between atoms: S1_17  and  C10_18 
REMARK    7  A    between atoms: N5_25  and  C11_26 
REMARK    8  A    between atoms: C11_26  and  C12_27 
REMARK    9  A    between atoms: C12_27  and  O5_30 
REMARK   10  A    between atoms: O5_30  and  C14_31 
REMARK   11  A    between atoms: C16_33  and  N7_34 
REMARK       I    between atoms: N7_34  and  C17_36 
REMARK   12  A    between atoms: C18_43  and  N11_44 
ROOT
HETATM    1  C12 UNL     1       1.336  -0.139   0.628  1.00  0.00     0.256 C 
HETATM    2  C13 UNL     1       0.954   0.436   1.879  1.00  0.00     0.093 C 
HETATM    3  N6  UNL     1       0.615   0.893   2.905  1.00  0.00    -0.194 NA
ENDROOT
BRANCH   1   4
HETATM    4  C11 UNL     1       0.589   0.426  -0.573  1.00  0.00     0.200 C 
BRANCH   4   5
HETATM    5  N5  UNL     1       0.581   1.864  -0.685  1.00  0.00    -0.251 N 
HETATM    6  C10 UNL     1      -0.610   2.492  -0.274  1.00  0.00     0.178 A 
HETATM    7  N2  UNL     1      -0.275   3.836  -0.418  1.00  0.00    -0.263 N 
HETATM    8  N3  UNL     1       0.951   3.938  -0.862  1.00  0.00    -0.226 N 
ATOM      9  H2  UNL     1      -0.892   4.621  -0.209  1.00  0.00     0.190 HD
HETATM   10  N4  UNL     1       1.458   2.740  -1.018  1.00  0.00    -0.224 N 
ATOM     11  H3  UNL     1       1.437   4.814  -1.056  1.00  0.00     0.210 HD
ATOM     12  H4  UNL     1       2.400   2.536  -1.351  1.00  0.00     0.210 HD
BRANCH   6  13
HETATM   13  S1  UNL     1      -2.067   1.856   0.128  1.00  0.00    -0.086 SA
BRANCH  13  14
HETATM   14  C9  UNL     1      -3.177   1.266   1.185  1.00  0.00     0.128 C 
BRANCH  14  15
HETATM   15  C8  UNL     1      -3.744  -0.068   0.699  1.00  0.00     0.039 A 
HETATM   16  C3  UNL     1      -5.046  -0.012   0.163  1.00  0.00     0.087 A 
HETATM   17  C4  UNL     1      -5.528  -1.225  -0.302  1.00  0.00     0.104 A 
HETATM   18  C5  UNL     1      -4.736  -2.383  -0.212  1.00  0.00     0.042 A 
HETATM   19  C6  UNL     1      -5.286  -3.639  -0.777  1.00  0.00     0.071 C 
HETATM   20  N1  UNL     1      -3.526  -2.414   0.302  1.00  0.00    -0.324 N 
HETATM   21  C7  UNL     1      -3.045  -1.220   0.763  1.00  0.00     0.254 A 
ATOM     22  H1  UNL     1      -2.981  -3.274   0.354  1.00  0.00     0.169 HD
HETATM   23  O4  UNL     1      -1.899  -1.283   1.269  1.00  0.00    -0.268 OA
BRANCH  16  24
HETATM   24  C2  UNL     1      -5.783   1.211   0.161  1.00  0.00     0.296 C 
HETATM   25  O2  UNL     1      -5.421   2.342   0.551  1.00  0.00    -0.259 OA
BRANCH  24  26
HETATM   26  O1  UNL     1      -7.128   1.263  -0.327  1.00  0.00    -0.322 OA
HETATM   27  C1  UNL     1      -7.830   2.476  -0.287  1.00  0.00     0.213 C 
ENDBRANCH  24  26
ENDBRANCH  16  24
BRANCH  17  28
HETATM   28  O3  UNL     1      -6.768  -1.335  -0.863  1.00  0.00    -0.358 OA
ATOM     29  H3  UNL     1      -7.098  -2.167  -1.182  1.00  0.00     0.217 HD
ENDBRANCH  17  28
ENDBRANCH  14  15
ENDBRANCH  13  14
ENDBRANCH   6  13
ENDBRANCH   4   5
ENDBRANCH   1   4
BRANCH   1  30
HETATM   30  O5  UNL     1       2.566  -0.594   0.449  1.00  0.00    -0.313 OA
BRANCH  30  31
HETATM   31  C14 UNL     1       3.859  -0.245   0.316  1.00  0.00     0.162 A 
HETATM   32  C15 UNL     1       4.764  -1.231  -0.011  1.00  0.00     0.105 A 
HETATM   33  C16 UNL     1       6.113  -0.915  -0.188  1.00  0.00     0.127 A 
HETATM   34  N10 UNL     1       6.511   0.355  -0.029  1.00  0.00    -0.177 N 
HETATM   35  C18 UNL     1       5.583   1.286   0.296  1.00  0.00     0.679 A 
ATOM     36  H10 UNL     1       7.490   0.614  -0.150  1.00  0.00     0.185 HD
HETATM   37  N12 UNL     1       4.287   1.013   0.466  1.00  0.00    -0.171 N 
ATOM     38  H12 UNL     1       3.631   1.756   0.708  1.00  0.00     0.186 HD
BRANCH  33  39
HETATM   39  N7  UNL     1       6.930  -1.821  -0.588  1.00  0.00    -0.316 N 
HETATM   40  C17 UNL     1       8.275  -1.664  -0.817  1.00  0.00     0.187 C 
HETATM   41  N8  UNL     1       8.922  -1.010  -1.657  1.00  0.00    -0.373 N 
HETATM   42  N9  UNL     1       9.155  -2.453   0.077  1.00  0.00    -0.064 NA
ATOM     43  H82 UNL     1       8.316  -0.467  -2.272  1.00  0.00     0.158 HD
ATOM     44  H81 UNL     1       9.921  -0.893  -1.827  1.00  0.00     0.158 HD
ATOM     45  H7  UNL     1       6.542  -2.750  -0.752  1.00  0.00     0.170 HD
ENDBRANCH  33  39
BRANCH  35  46
HETATM   46  N11 UNL     1       6.000   2.531   0.449  1.00  0.00    -0.234 N 
ATOM     47 2H11 UNL     1       6.990   2.740   0.319  1.00  0.00     0.174 HD
ATOM     48 1H11 UNL     1       5.301   3.232   0.694  1.00  0.00     0.174 HD
ENDBRANCH  35  46
ENDBRANCH  30  31
ENDBRANCH   1  30
TORSDOF 12
