REMARK  4 active torsions:
REMARK  status: ('A' for Active; 'I' for Inactive)
REMARK    1  A    between atoms: C5_6  and  O1_7 
REMARK    2  A    between atoms: C5_6  and  C6_9 
REMARK    3  A    between atoms: C6_9  and  N2_10 
REMARK    4  A    between atoms: N2_10  and  C7_12 
ROOT
HETATM    1  C1  UNL     1      -5.516  -0.269  -1.022  1.00  0.00     0.041 C 
HETATM    2  C2  UNL     1      -4.738  -1.075  -0.023  1.00  0.00     0.135 C 
HETATM    3  C3  UNL     1      -3.392  -1.499  -0.527  1.00  0.00     0.154 C 
HETATM    4  N1  UNL     1      -2.381  -0.514  -0.464  1.00  0.00    -0.381 N 
HETATM    5  C4  UNL     1      -1.098  -1.070  -0.433  1.00  0.00     0.098 C 
HETATM    6  C5  UNL     1       0.015  -0.293   0.101  1.00  0.00     0.105 C 
HETATM    7  C12 UNL     1      -0.292   1.198   0.313  1.00  0.00     0.047 C 
HETATM    8  C13 UNL     1      -1.577   1.178   1.148  1.00  0.00     0.030 C 
HETATM    9  C14 UNL     1      -2.655   0.694   0.164  1.00  0.00     0.107 C 
HETATM   10  C15 UNL     1      -3.959   0.800   0.901  1.00  0.00     0.193 C 
HETATM   11  O2  UNL     1      -4.543  -0.416   1.185  1.00  0.00    -0.383 OA
ENDROOT
BRANCH   6  12
HETATM   12  O1  UNL     1       0.437  -0.731   1.379  1.00  0.00    -0.383 OA
ATOM     13  H1  UNL     1       1.162  -0.225   1.727  1.00  0.00     0.211 HD
ENDBRANCH   6  12
BRANCH   6  14
HETATM   14  C6  UNL     1       1.290  -0.299  -0.747  1.00  0.00     0.157 C 
BRANCH  14  15
HETATM   15  N2  UNL     1       2.191   0.603  -0.096  1.00  0.00    -0.414 N 
ATOM     16  H2  UNL     1       1.922   1.143   0.727  1.00  0.00     0.153 HD
BRANCH  15  17
HETATM   17  C7  UNL     1       3.485   0.695  -0.674  1.00  0.00     0.076 C 
HETATM   18  C8  UNL     1       4.349   1.479   0.318  1.00  0.00     0.024 C 
HETATM   19  C9  UNL     1       5.228   0.399   0.939  1.00  0.00     0.002 C 
HETATM   20  C10 UNL     1       5.547  -0.434  -0.302  1.00  0.00     0.002 C 
HETATM   21  C11 UNL     1       4.152  -0.652  -0.851  1.00  0.00     0.024 C 
ENDBRANCH  15  17
ENDBRANCH  14  15
ENDBRANCH   6  14
TORSDOF 4
