REMARK  7 active torsions:
REMARK  status: ('A' for Active; 'I' for Inactive)
REMARK    1  A    between atoms: C2_2  and  N1_3 
REMARK    2  A    between atoms: N1_3  and  C3_5 
REMARK    3  A    between atoms: C4_8  and  S1_9 
REMARK    4  A    between atoms: S1_9  and  C5_10 
REMARK    5  A    between atoms: C5_10  and  C6_11 
REMARK    6  A    between atoms: C7_12  and  C8_13 
REMARK    7  A    between atoms: C12_19  and  N4_20 
ROOT
HETATM    1  C3  UNL     1      -2.946  -0.738   0.912  1.00  0.00     0.694 A 
HETATM    2  N2  UNL     1      -2.086  -1.711   1.206  1.00  0.00    -0.169 N 
ATOM      3  H2  UNL     1      -2.218  -2.280   2.042  1.00  0.00     0.186 HD
HETATM    4  C4  UNL     1      -1.050  -1.935   0.396  1.00  0.00     0.175 A 
HETATM    5  N3  UNL     1      -0.900  -1.158  -0.717  1.00  0.00    -0.169 N 
ATOM      6  H3  UNL     1      -0.112  -1.320  -1.345  1.00  0.00     0.186 HD
HETATM    7  C12 UNL     1      -1.774  -0.190  -0.990  1.00  0.00     0.694 A 
HETATM    8  N5  UNL     1      -2.811   0.033  -0.178  1.00  0.00    -0.022 N 
ATOM      9  H5  UNL     1      -3.484   0.772  -0.382  1.00  0.00     0.203 HD
ENDROOT
BRANCH   4  10
HETATM   10  S1  UNL     1       0.174  -3.196   0.659  1.00  0.00    -0.081 SA
BRANCH  10  11
HETATM   11  C5  UNL     1       1.558  -2.574   1.664  1.00  0.00     0.176 C 
BRANCH  11  12
HETATM   12  C6  UNL     1       2.248  -1.548   0.883  1.00  0.00    -0.095 C 
HETATM   13  C7  UNL     1       2.804  -0.687   0.249  1.00  0.00    -0.097 C 
BRANCH  13  14
HETATM   14  C8  UNL     1       3.462   0.378  -0.511  1.00  0.00     0.013 C 
HETATM   15  C9  UNL     1       3.794  -0.149  -1.890  1.00  0.00     0.028 C 
HETATM   16  C10 UNL     1       2.478   1.530  -0.584  1.00  0.00     0.028 C 
HETATM   17  C11 UNL     1       4.695   0.882   0.206  1.00  0.00     0.028 C 
ENDBRANCH  13  14
ENDBRANCH  11  12
ENDBRANCH  10  11
ENDBRANCH   4  10
BRANCH   1  18
HETATM   18  N1  UNL     1      -3.938  -0.549   1.721  1.00  0.00    -0.226 N 
ATOM     19  H1  UNL     1      -4.007  -1.155   2.539  1.00  0.00     0.177 HD
BRANCH  18  20
HETATM   20  C2  UNL     1      -4.949   0.456   1.545  1.00  0.00     0.133 C 
HETATM   21  C1  UNL     1      -4.448   1.826   1.974  1.00  0.00     0.027 C 
ENDBRANCH  18  20
ENDBRANCH   1  18
BRANCH   7  22
HETATM   22  N4  UNL     1      -1.628   0.532  -2.032  1.00  0.00    -0.230 N 
HETATM   23  C13 UNL     1      -0.518   0.304  -2.917  1.00  0.00     0.165 C 
ATOM     24  H4  UNL     1      -2.300   1.272  -2.237  1.00  0.00     0.177 HD
ENDBRANCH   7  22
TORSDOF 7
