REMARK  3 active torsions:
REMARK  status: ('A' for Active; 'I' for Inactive)
REMARK    1  A    between atoms: C4_10  and  C5_11 
REMARK    2  A    between atoms: N3_12  and  C6_14 
REMARK    3  A    between atoms: C6_14  and  C7_15 
ROOT
HETATM    1  O1  UNL     1       2.588   1.692   1.344  1.00  0.00    -0.272 OA
HETATM    2  C1  UNL     1       3.010   0.942   0.445  1.00  0.00     0.234 C 
HETATM    3  N1  UNL     1       4.318   1.120  -0.067  1.00  0.00    -0.303 N 
ATOM      4  H1  UNL     1       4.779   2.028  -0.016  1.00  0.00     0.171 HD
HETATM    5  C2  UNL     1       4.971   0.006  -0.652  1.00  0.00     0.174 C 
HETATM    6  S1  UNL     1       6.494   0.087  -1.278  1.00  0.00    -0.041 SA
HETATM    7  N2  UNL     1       4.270  -1.228  -0.689  1.00  0.00    -0.366 N 
ATOM      8  H2  UNL     1       4.774  -2.112  -0.622  1.00  0.00     0.161 HD
HETATM    9  C3  UNL     1       2.843  -1.212  -0.822  1.00  0.00     0.141 C 
HETATM   10  C4  UNL     1       2.142  -0.127  -0.077  1.00  0.00     0.134 C 
ENDROOT
BRANCH  10  11
HETATM   11  C5  UNL     1       1.358  -0.660   1.087  1.00  0.00     0.071 C 
HETATM   12  N3  UNL     1       0.106  -0.469   1.128  1.00  0.00    -0.401 N 
ATOM     13  H3  UNL     1      -0.426  -0.831   1.920  1.00  0.00     0.158 HD
BRANCH  12  14
HETATM   14  C6  UNL     1      -0.577   0.235   0.101  1.00  0.00     0.123 C 
BRANCH  14  15
HETATM   15  C7  UNL     1      -2.067   0.383   0.408  1.00  0.00     0.005 C 
HETATM   16  C8  UNL     1      -2.618  -1.006   0.526  1.00  0.00     0.016 C 
HETATM   17  C9  UNL     1      -4.086  -1.116   0.614  1.00  0.00     0.074 C 
HETATM   18  S2  UNL     1      -5.026   0.294   0.084  1.00  0.00    -0.169 SA
HETATM   19  C10 UNL     1      -3.983   1.732  -0.250  1.00  0.00     0.074 C 
HETATM   20  C11 UNL     1      -2.655   1.152  -0.751  1.00  0.00     0.016 C 
ENDBRANCH  14  15
ENDBRANCH  12  14
ENDBRANCH  10  11
TORSDOF 3
