REMARK  4 active torsions:
REMARK  status: ('A' for Active; 'I' for Inactive)
REMARK    1  A    between atoms: C2_2  and  N1_3 
REMARK    2  A    between atoms: N1_3  and  C4_5 
REMARK    3  A    between atoms: N2_13  and  N3_15 
REMARK    4  A    between atoms: N3_15  and  C12_17 
ROOT
HETATM    1  C4  UNL     1       1.210  -0.025   0.232  1.00  0.00     0.263 C 
HETATM    2  C5  UNL     1       1.672  -0.285   1.672  1.00  0.00     0.082 C 
HETATM    3  C6  UNL     1       0.693   1.357   0.075  1.00  0.00     0.081 C 
HETATM    4  C7  UNL     1      -0.744   1.597   0.241  1.00  0.00    -0.036 C 
HETATM    5  C8  UNL     1      -1.180   2.584  -0.857  1.00  0.00     0.015 C 
HETATM    6  C9  UNL     1      -1.008   2.333   1.566  1.00  0.00     0.015 C 
HETATM    7  C10 UNL     1      -1.666   0.447   0.183  1.00  0.00     0.094 C 
HETATM    8  C11 UNL     1      -1.052  -0.888   0.168  1.00  0.00     0.136 C 
HETATM    9  N2  UNL     1      -1.760  -1.922   0.380  1.00  0.00    -0.281 N 
ATOM     10  H2  UNL     1      -1.330  -2.847   0.369  1.00  0.00     0.189 HD
HETATM   11  O1  UNL     1       0.291  -1.042  -0.074  1.00  0.00    -0.296 OA
ENDROOT
BRANCH   9  12
HETATM   12  N3  UNL     1      -3.124  -1.790   0.627  1.00  0.00    -0.277 N 
ATOM     13  H3  UNL     1      -3.444  -1.611   1.579  1.00  0.00     0.189 HD
BRANCH  12  14
HETATM   14  C12 UNL     1      -4.076  -1.899  -0.414  1.00  0.00     0.199 C 
HETATM   15  N4  UNL     1      -5.466  -1.760  -0.141  1.00  0.00    -0.068 NA
HETATM   16  S1  UNL     1      -3.631  -2.184  -1.956  1.00  0.00    -0.043 SA
ENDBRANCH  12  14
ENDBRANCH   9  12
BRANCH   1  17
HETATM   17  N1  UNL     1       2.325  -0.259  -0.678  1.00  0.00     0.119 N 
HETATM   18  C3  UNL     1       3.370   0.698  -0.566  1.00  0.00     0.314 C 
BRANCH  17  19
HETATM   19  C2  UNL     1       2.727  -1.622  -0.593  1.00  0.00     0.271 C 
HETATM   20  C1  UNL     1       3.554  -2.066  -1.782  1.00  0.00     0.037 C 
ENDBRANCH  17  19
ENDBRANCH   1  17
TORSDOF 4
