REMARK  0 active torsions:
REMARK  status: ('A' for Active; 'I' for Inactive)
ROOT
HETATM    1  O1  UNL     1       3.296   0.678  -1.770  1.00  0.00    -0.285 OA
HETATM    2  C1  UNL     1       2.517   0.179  -1.012  1.00  0.00     0.189 C 
HETATM    3  C2  UNL     1       2.838  -0.132   0.441  1.00  0.00     0.091 C 
HETATM    4  C3  UNL     1       1.645  -0.370   1.255  1.00  0.00     0.013 C 
HETATM    5  C4  UNL     1       0.184  -0.440   1.182  1.00  0.00     0.062 C 
HETATM    6  C5  UNL     1      -0.376  -0.142  -0.220  1.00  0.00     0.165 C 
HETATM    7  O2  UNL     1      -1.459  -0.900  -0.537  1.00  0.00    -0.359 OA
HETATM    8  C6  UNL     1      -2.580  -0.416   0.064  1.00  0.00     0.181 C 
HETATM    9  C7  UNL     1      -2.802   1.022  -0.436  1.00  0.00     0.104 C 
HETATM   10  S1  UNL     1      -1.052   1.567  -0.268  1.00  0.00    -0.118 SA
HETATM   11  S2  UNL     1       0.857  -0.264  -1.509  1.00  0.00    -0.043 SA
ENDROOT
TORSDOF 0
