REMARK  7 active torsions:
REMARK  status: ('A' for Active; 'I' for Inactive)
REMARK    1  A    between atoms: C3_3  and  C4_4 
REMARK    2  A    between atoms: C4_4  and  N1_5 
REMARK    3  A    between atoms: N1_5  and  C5_6 
REMARK    4  A    between atoms: C5_6  and  C6_7 
REMARK    5  A    between atoms: C6_7  and  N2_9 
REMARK    6  A    between atoms: N2_9  and  C8_11 
REMARK    7  A    between atoms: C8_11  and  N3_13 
ROOT
HETATM    1  C1  UNL     1      -0.967   2.798  -4.246  1.00  0.00     0.112 C 
HETATM    2  C2  UNL     1      -0.973   1.671  -3.312  1.00  0.00    -0.109 C 
HETATM    3  C3  UNL     1      -0.997   0.723  -2.537  1.00  0.00    -0.079 C 
ENDROOT
BRANCH   3   4
HETATM    4  C4  UNL     1      -1.047  -0.403  -1.633  1.00  0.00     0.336 C 
BRANCH   4   5
HETATM    5  N1  UNL     1      -0.254  -0.160  -0.426  1.00  0.00    -0.032 N 
HETATM    6  C10 UNL     1      -0.294  -1.250   0.483  1.00  0.00     0.272 C 
HETATM    7  C11 UNL     1      -1.710  -1.754   0.650  1.00  0.00     0.265 C 
HETATM    8  N4  UNL     1      -2.485  -0.739   1.284  1.00  0.00    -0.071 N 
HETATM    9  C12 UNL     1      -2.165  -0.774   2.722  1.00  0.00     0.272 C 
HETATM   10  C13 UNL     1      -3.907  -1.092   1.231  1.00  0.00     0.272 C 
HETATM   11  C14 UNL     1      -2.324   0.571   0.737  1.00  0.00     0.265 C 
HETATM   12  C15 UNL     1      -0.998   0.930   0.230  1.00  0.00     0.272 C 
BRANCH   5  13
HETATM   13  C5  UNL     1       1.049   0.380  -0.700  1.00  0.00     0.227 C 
BRANCH  13  14
HETATM   14  C6  UNL     1       2.179  -0.523  -0.713  1.00  0.00     0.026 C 
HETATM   15  C7  UNL     1       2.273  -1.772  -1.532  1.00  0.00     0.069 C 
BRANCH  14  16
HETATM   16  N2  UNL     1       3.199  -0.278  -0.016  1.00  0.00    -0.366 N 
ATOM     17  H2  UNL     1       3.968  -0.946  -0.058  1.00  0.00     0.161 HD
BRANCH  16  18
HETATM   18  C8  UNL     1       3.364   0.863   0.830  1.00  0.00     0.277 C 
HETATM   19  C9  UNL     1       2.678   0.633   2.149  1.00  0.00     0.063 C 
BRANCH  18  20
HETATM   20  N3  UNL     1       4.784   1.063   1.149  1.00  0.00    -0.059 N 
ATOM     21  H33 UNL     1       5.204   0.226   1.554  1.00  0.00     0.276 HD
ATOM     22  H32 UNL     1       5.357   1.128   0.308  1.00  0.00     0.276 HD
ATOM     23  H31 UNL     1       4.902   1.877   1.752  1.00  0.00     0.276 HD
ENDBRANCH  18  20
ENDBRANCH  16  18
ENDBRANCH  14  16
ENDBRANCH  13  14
ENDBRANCH   5  13
ENDBRANCH   4   5
ENDBRANCH   3   4
TORSDOF 7
