REMARK  6 active torsions:
REMARK  status: ('A' for Active; 'I' for Inactive)
REMARK    1  A    between atoms: N1_2  and  C3_4 
REMARK    2  A    between atoms: C3_4  and  N2_6 
REMARK       I    between atoms: C4_8  and  N4_10 
REMARK    3  A    between atoms: N4_10  and  C5_12 
REMARK    4  A    between atoms: C5_12  and  C6_13 
REMARK    5  A    between atoms: C7_14  and  C8_15 
REMARK    6  A    between atoms: C8_15  and  N5_16 
ROOT
HETATM    1  N2  UNL     1       3.519  -0.830   0.570  1.00  0.00    -0.307 N 
ATOM      2  H2  UNL     1       4.315  -1.364   0.919  1.00  0.00     0.171 HD
HETATM    3  C4  UNL     1       2.502  -1.533   0.478  1.00  0.00     0.191 C 
HETATM    4  N3  UNL     1       2.695  -2.939   0.889  1.00  0.00    -0.063 NA
HETATM    5  N4  UNL     1       1.191  -1.212   0.032  1.00  0.00    -0.354 N 
ATOM      6  H4  UNL     1       1.014  -1.191  -0.972  1.00  0.00     0.163 HD
ENDROOT
BRANCH   5   7
HETATM    7  C5  UNL     1       0.099  -0.914   0.925  1.00  0.00     0.216 C 
BRANCH   7   8
HETATM    8  C6  UNL     1      -1.190  -0.782   0.220  1.00  0.00    -0.085 C 
HETATM    9  C7  UNL     1      -2.260  -0.706  -0.349  1.00  0.00    -0.077 C 
BRANCH   9  10
HETATM   10  C8  UNL     1      -3.569  -0.654  -1.050  1.00  0.00     0.329 C 
BRANCH  10  11
HETATM   11  N5  UNL     1      -4.393   0.335  -0.437  1.00  0.00    -0.069 N 
HETATM   12  C9  UNL     1      -4.320   1.647  -1.038  1.00  0.00     0.272 C 
HETATM   13  C10 UNL     1      -4.220   0.468   0.998  1.00  0.00     0.272 C 
HETATM   14  C11 UNL     1      -5.782  -0.131  -0.608  1.00  0.00     0.272 C 
ENDBRANCH  10  11
ENDBRANCH   9  10
ENDBRANCH   7   8
ENDBRANCH   5   7
BRANCH   1  15
HETATM   15  C3  UNL     1       3.858   0.491   0.323  1.00  0.00     0.175 C 
HETATM   16  S1  UNL     1       2.707   1.646   0.353  1.00  0.00    -0.041 SA
BRANCH  15  17
HETATM   17  N1  UNL     1       5.231   0.869   0.033  1.00  0.00    -0.367 N 
HETATM   18  C1  UNL     1       6.296  -0.095  -0.016  1.00  0.00     0.151 C 
HETATM   19  C2  UNL     1       5.506   2.258  -0.208  1.00  0.00     0.151 C 
ENDBRANCH  15  17
ENDBRANCH   1  15
TORSDOF 6
