REMARK  7 active torsions:
REMARK  status: ('A' for Active; 'I' for Inactive)
REMARK    1  A    between atoms: N1_3  and  C3_4 
REMARK    2  A    between atoms: N1_3  and  C14_18 
REMARK    3  A    between atoms: C3_4  and  C4_5 
REMARK    4  A    between atoms: C5_6  and  N2_7 
REMARK       I    between atoms: N2_7  and  C6_9 
REMARK    5  A    between atoms: C6_9  and  C7_11 
REMARK    6  A    between atoms: C8_12  and  C9_13 
REMARK    7  A    between atoms: C10_14  and  C11_15 
ROOT
HETATM    1  C1  UNL     1      -7.500  -1.501   0.938  1.00  0.00     0.116 C 
HETATM    2  C2  UNL     1      -6.383  -1.074   0.695  1.00  0.00    -0.101 C 
HETATM    3  N1  UNL     1      -5.100  -0.583   0.406  1.00  0.00    -0.239 NA
ENDROOT
BRANCH   3   4
HETATM    4  C3  UNL     1      -4.297  -1.635  -0.133  1.00  0.00     0.200 C 
BRANCH   4   5
HETATM    5  C4  UNL     1      -2.906  -1.222  -0.134  1.00  0.00    -0.068 C 
HETATM    6  C5  UNL     1      -1.735  -0.890  -0.150  1.00  0.00     0.015 C 
BRANCH   6   7
HETATM    7  N2  UNL     1      -0.381  -0.531  -0.174  1.00  0.00    -0.275 N 
HETATM    8  C6  UNL     1       0.655  -1.465  -0.409  1.00  0.00     0.308 C 
HETATM    9  O1  UNL     1       0.339  -2.659  -0.602  1.00  0.00    -0.257 OA
ATOM     10  H2  UNL     1      -0.132   0.445  -0.015  1.00  0.00     0.180 HD
BRANCH   8  11
HETATM   11  C7  UNL     1       2.008  -1.011  -0.416  1.00  0.00     0.009 C 
HETATM   12  C8  UNL     1       3.166  -0.644  -0.418  1.00  0.00    -0.005 C 
BRANCH  12  13
HETATM   13  C9  UNL     1       4.520  -0.238  -0.430  1.00  0.00    -0.014 C 
HETATM   14  C10 UNL     1       5.690   0.091  -0.445  1.00  0.00    -0.088 C 
BRANCH  14  15
HETATM   15  C11 UNL     1       7.107   0.469  -0.478  1.00  0.00     0.058 C 
HETATM   16  C12 UNL     1       7.867  -0.509   0.379  1.00  0.00     0.023 C 
HETATM   17  C13 UNL     1       7.226   1.839   0.155  1.00  0.00     0.023 C 
ENDBRANCH  14  15
ENDBRANCH  12  13
ENDBRANCH   8  11
ENDBRANCH   6   7
ENDBRANCH   4   5
ENDBRANCH   3   4
BRANCH   3  18
HETATM   18  C14 UNL     1      -5.221   0.553  -0.487  1.00  0.00     0.072 A 
HETATM   19  C15 UNL     1      -5.783   1.812   0.204  1.00  0.00     0.022 A 
HETATM   20  C16 UNL     1      -4.393   1.765  -0.285  1.00  0.00     0.022 A 
ENDBRANCH   3  18
TORSDOF 7
