REMARK  8 active torsions:
REMARK  status: ('A' for Active; 'I' for Inactive)
REMARK    1  A    between atoms: C2_2  and  C4_4 
REMARK    2  A    between atoms: C5_5  and  C6_6 
REMARK    3  A    between atoms: C7_7  and  C8_8 
REMARK    4  A    between atoms: C9_9  and  C10_10 
REMARK    5  A    between atoms: C11_11  and  C12_12 
REMARK    6  A    between atoms: C13_13  and  C14_14 
REMARK    7  A    between atoms: C14_14  and  N4_22 
REMARK    8  A    between atoms: N1_15  and  N2_17 
ROOT
HETATM    1  C12 UNL     1      -3.323   0.208  -0.003  1.00  0.00    -0.070 C 
HETATM    2  C13 UNL     1      -4.520   0.208   0.144  1.00  0.00    -0.024 C 
ENDROOT
BRANCH   1   3
HETATM    3  C11 UNL     1      -1.876   0.196  -0.159  1.00  0.00     0.073 C 
HETATM    4  C10 UNL     1      -1.171  -0.730   0.415  1.00  0.00     0.074 C 
BRANCH   4   5
HETATM    5  C9  UNL     1       0.260  -0.721   0.247  1.00  0.00    -0.064 C 
HETATM    6  C8  UNL     1       1.460  -0.722   0.125  1.00  0.00    -0.009 C 
BRANCH   6   7
HETATM    7  C7  UNL     1       2.868  -0.723   0.007  1.00  0.00    -0.001 C 
HETATM    8  C6  UNL     1       4.080  -0.718  -0.074  1.00  0.00    -0.001 C 
BRANCH   8   9
HETATM    9  C5  UNL     1       5.498  -0.728  -0.152  1.00  0.00    -0.014 C 
HETATM   10  C4  UNL     1       6.703  -0.754  -0.217  1.00  0.00    -0.088 C 
BRANCH  10  11
HETATM   11  C2  UNL     1       8.164  -0.804  -0.292  1.00  0.00     0.058 C 
HETATM   12  C1  UNL     1       8.798  -0.849   1.090  1.00  0.00     0.023 C 
HETATM   13  C3  UNL     1       8.630   0.428  -1.008  1.00  0.00     0.023 C 
ENDBRANCH  10  11
ENDBRANCH   8   9
ENDBRANCH   6   7
ENDBRANCH   4   5
ENDBRANCH   1   3
BRANCH   2  14
HETATM   14  C14 UNL     1      -5.940   0.194   0.338  1.00  0.00     0.175 C 
HETATM   15  N1  UNL     1      -6.463  -0.620   1.177  1.00  0.00    -0.264 N 
ATOM     16  H1  UNL     1      -7.473  -0.633   1.315  1.00  0.00     0.190 HD
BRANCH  15  17
HETATM   17  N2  UNL     1      -5.651  -1.484   1.897  1.00  0.00    -0.247 N 
HETATM   18  N3  UNL     1      -4.858  -1.082   2.819  1.00  0.00    -0.331 N 
ATOM     19  H32 UNL     1      -4.835  -0.082   3.020  1.00  0.00     0.178 HD
ATOM     20  H31 UNL     1      -4.261  -1.717   3.348  1.00  0.00     0.178 HD
ATOM     21  H2  UNL     1      -5.687  -2.481   1.683  1.00  0.00     0.207 HD
ENDBRANCH  15  17
BRANCH  14  22
HETATM   22  N4  UNL     1      -6.819   1.059  -0.374  1.00  0.00    -0.368 N 
HETATM   23  C15 UNL     1      -7.989   0.540  -1.044  1.00  0.00     0.151 C 
HETATM   24  C16 UNL     1      -6.527   2.494  -0.424  1.00  0.00     0.151 C 
ENDBRANCH  14  22
ENDBRANCH   2  14
TORSDOF 8
