REMARK  10 active torsions:
REMARK  status: ('A' for Active; 'I' for Inactive)
REMARK    1  A    between atoms: N1_1  and  C1_5 
REMARK    2  A    between atoms: C1_5  and  C2_6 
REMARK    3  A    between atoms: C2_6  and  N2_7 
REMARK    4  A    between atoms: C2_6  and  C20_39 
REMARK       I    between atoms: N2_7  and  C3_9 
REMARK    5  A    between atoms: C3_9  and  C4_11 
REMARK    6  A    between atoms: C7_14  and  N3_15 
REMARK       I    between atoms: N3_15  and  C8_17 
REMARK    7  A    between atoms: C8_17  and  C9_19 
REMARK    8  A    between atoms: C13_24  and  N4_25 
REMARK       I    between atoms: N4_25  and  C14_27 
REMARK       I    between atoms: C14_27  and  N5_29 
REMARK    9  A    between atoms: N5_29  and  C15_31 
REMARK   10  A    between atoms: C15_31  and  C16_32 
ROOT
HETATM    1  C4  UNL     1       2.308   0.595  -0.766  1.00  0.00     0.034 A 
HETATM    2  C5  UNL     1       2.350   1.865  -1.281  1.00  0.00     0.019 A 
HETATM    3  C6  UNL     1       1.283   2.759  -1.135  1.00  0.00     0.033 A 
HETATM    4  C7  UNL     1       0.136   2.405  -0.466  1.00  0.00     0.062 A 
HETATM    5  C13 UNL     1       0.061   1.099   0.079  1.00  0.00     0.064 A 
HETATM    6  C19 UNL     1       1.129   0.263  -0.090  1.00  0.00     0.049 A 
ENDROOT
BRANCH   1   7
HETATM    7  C3  UNL     1       3.421  -0.325  -0.925  1.00  0.00     0.252 C 
HETATM    8  N2  UNL     1       3.439  -1.634  -0.417  1.00  0.00    -0.342 N 
ATOM      9  H2  UNL     1       2.623  -1.967   0.097  1.00  0.00     0.163 HD
HETATM   10  O1  UNL     1       4.430   0.076  -1.556  1.00  0.00    -0.268 OA
BRANCH   8  11
HETATM   11  C2  UNL     1       4.563  -2.535  -0.588  1.00  0.00     0.199 C 
BRANCH  11  12
HETATM   12  C1  UNL     1       5.169  -2.931   0.739  1.00  0.00     0.264 C 
BRANCH  12  13
HETATM   13  N1  UNL     1       5.616  -1.739   1.388  1.00  0.00    -0.077 N 
ATOM     14  H13 UNL     1       6.252  -1.189   0.811  1.00  0.00     0.274 HD
ATOM     15  H12 UNL     1       4.880  -1.040   1.482  1.00  0.00     0.274 HD
ATOM     16  H11 UNL     1       6.025  -2.006   2.283  1.00  0.00     0.274 HD
ENDBRANCH  12  13
ENDBRANCH  11  12
BRANCH  11  17
HETATM   17  C20 UNL     1       4.192  -3.758  -1.325  1.00  0.00     0.255 C 
HETATM   18  N7  UNL     1       5.207  -4.726  -1.560  1.00  0.00    -0.060 NA
HETATM   19  O6  UNL     1       3.041  -4.010  -1.764  1.00  0.00    -0.275 OA
ENDBRANCH  11  17
ENDBRANCH   8  11
ENDBRANCH   1   7
BRANCH   5  20
HETATM   20  N4  UNL     1      -1.093   0.774   0.823  1.00  0.00    -0.307 N 
HETATM   21  C14 UNL     1      -1.448  -0.535   1.270  1.00  0.00     0.320 C 
HETATM   22  O4  UNL     1      -0.790  -1.569   1.054  1.00  0.00    -0.247 OA
HETATM   23  N5  UNL     1      -2.678  -0.619   2.030  1.00  0.00    -0.340 N 
ATOM     24  H5  UNL     1      -3.225   0.220   2.221  1.00  0.00     0.164 HD
ATOM     25  H4  UNL     1      -1.726   1.537   1.061  1.00  0.00     0.170 HD
BRANCH  23  26
HETATM   26  C15 UNL     1      -3.115  -1.892   2.508  1.00  0.00     0.159 C 
BRANCH  26  27
HETATM   27  C16 UNL     1      -3.402  -2.814   1.378  1.00  0.00     0.174 C 
HETATM   28  C17 UNL     1      -4.669  -2.390   0.615  1.00  0.00     0.083 C 
HETATM   29  C18 UNL     1      -5.123  -3.710   0.117  1.00  0.00     0.089 C 
HETATM   30  N6  UNL     1      -4.630  -4.633   0.854  1.00  0.00    -0.281 N 
HETATM   31  O5  UNL     1      -3.850  -4.101   1.854  1.00  0.00    -0.274 OA
ATOM     32  H6  UNL     1      -4.794  -5.631   0.718  1.00  0.00     0.193 HD
ENDBRANCH  26  27
ENDBRANCH  23  26
ENDBRANCH   5  20
BRANCH   4  33
HETATM   33  N3  UNL     1      -0.964   3.286  -0.383  1.00  0.00    -0.319 N 
HETATM   34  C8  UNL     1      -1.030   4.653  -0.678  1.00  0.00     0.280 C 
HETATM   35  O2  UNL     1      -0.062   5.327  -1.078  1.00  0.00    -0.265 OA
ATOM     36  H3  UNL     1      -1.836   2.866  -0.062  1.00  0.00     0.169 HD
BRANCH  34  37
HETATM   37  C9  UNL     1      -2.353   5.313  -0.494  1.00  0.00     0.142 A 
HETATM   38  C10 UNL     1      -2.585   6.654  -0.743  1.00  0.00     0.045 A 
HETATM   39  C11 UNL     1      -3.911   6.901  -0.463  1.00  0.00     0.027 A 
HETATM   40  C12 UNL     1      -4.427   5.676  -0.050  1.00  0.00     0.143 A 
HETATM   41  O3  UNL     1      -3.469   4.799  -0.092  1.00  0.00    -0.317 OA
ENDBRANCH  34  37
ENDBRANCH   4  33
TORSDOF 10
