REMARK  10 active torsions:
REMARK  status: ('A' for Active; 'I' for Inactive)
REMARK    1  A    between atoms: C2_2  and  C3_3 
REMARK    2  A    between atoms: C3_3  and  C4_4 
REMARK    3  A    between atoms: C7_11  and  O2_12 
REMARK    4  A    between atoms: O2_12  and  C8_13 
REMARK    5  A    between atoms: C8_13  and  C9_14 
REMARK    6  A    between atoms: C9_14  and  O3_15 
REMARK    7  A    between atoms: C9_14  and  C10_17 
REMARK    8  A    between atoms: C10_17  and  N3_18 
REMARK       I    between atoms: N3_18  and  C11_19 
REMARK       I    between atoms: C11_19  and  N4_21 
REMARK    9  A    between atoms: N4_21  and  C12_23 
REMARK   10  A    between atoms: C17_29  and  N6_30 
REMARK       I    between atoms: N6_30  and  C18_31 
ROOT
HETATM    1  C9  UNL     1       0.329  -2.746  -0.046  1.00  0.00     0.172 C 
ENDROOT
BRANCH   1   2
HETATM    2  C8  UNL     1      -0.524  -3.245   1.058  1.00  0.00     0.210 C 
BRANCH   2   3
HETATM    3  O2  UNL     1      -1.588  -2.288   1.170  1.00  0.00    -0.345 OA
BRANCH   3   4
HETATM    4  C7  UNL     1      -2.584  -2.187   0.204  1.00  0.00     0.112 A 
HETATM    5  C6  UNL     1      -2.847  -2.916  -0.862  1.00  0.00     0.146 A 
HETATM    6  N2  UNL     1      -3.944  -2.397  -1.452  1.00  0.00    -0.307 N 
HETATM    7  N1  UNL     1      -4.353  -1.389  -0.798  1.00  0.00    -0.289 N 
ATOM      8  H2  UNL     1      -4.380  -2.761  -2.299  1.00  0.00     0.186 HD
HETATM    9  C5  UNL     1      -5.384  -0.417  -0.970  1.00  0.00     0.186 C 
HETATM   10  C19 UNL     1      -3.535  -1.154   0.320  1.00  0.00     0.087 A 
HETATM   11  C2  UNL     1      -5.931   0.028   0.377  1.00  0.00     0.081 C 
HETATM   12  C1  UNL     1      -7.151  -0.812   0.703  1.00  0.00     0.048 C 
HETATM   13  O6  UNL     1      -5.105   0.286   1.377  1.00  0.00    -0.372 OA
HETATM   14  C20 UNL     1      -3.763  -0.087   1.266  1.00  0.00     0.230 C 
BRANCH  11  15
HETATM   15  C3  UNL     1      -6.547   1.452   0.002  1.00  0.00     0.108 C 
BRANCH  15  16
HETATM   16  C4  UNL     1      -7.410   1.247  -1.182  1.00  0.00     0.234 C 
HETATM   17  O1  UNL     1      -8.632   1.340  -1.050  1.00  0.00    -0.307 OA
ENDBRANCH  15  16
ENDBRANCH  11  15
ENDBRANCH   3   4
ENDBRANCH   2   3
ENDBRANCH   1   2
BRANCH   1  18
HETATM   18  O3  UNL     1       1.456  -3.492  -0.332  1.00  0.00    -0.391 OA
ATOM     19  H3  UNL     1       2.003  -3.172  -1.040  1.00  0.00     0.210 HD
ENDBRANCH   1  18
BRANCH   1  20
HETATM   20  C10 UNL     1       0.470  -1.286  -0.092  1.00  0.00     0.257 C 
BRANCH  20  21
HETATM   21  N3  UNL     1       1.568  -0.622   0.533  1.00  0.00    -0.394 NA
HETATM   22  C11 UNL     1       2.601  -0.017   1.177  1.00  0.00     0.393 C 
HETATM   23  O4  UNL     1       2.875  -0.046   2.325  1.00  0.00    -0.230 OA
HETATM   24  N4  UNL     1       3.409   0.748   0.199  1.00  0.00    -0.294 N 
ATOM     25  H4  UNL     1       3.192   0.470  -0.758  1.00  0.00     0.172 HD
BRANCH  24  26
HETATM   26  C12 UNL     1       4.354   1.712   0.226  1.00  0.00     0.078 A 
HETATM   27  C13 UNL     1       3.973   3.024   0.636  1.00  0.00     0.035 A 
HETATM   28  C14 UNL     1       4.728   4.064   0.248  1.00  0.00     0.029 A 
HETATM   29  C15 UNL     1       5.864   3.891  -0.542  1.00  0.00     0.049 A 
HETATM   30  N5  UNL     1       6.547   5.046  -0.960  1.00  0.00    -0.102 NA
HETATM   31  C16 UNL     1       6.250   2.618  -0.934  1.00  0.00     0.073 A 
HETATM   32  C17 UNL     1       5.503   1.562  -0.550  1.00  0.00     0.141 A 
BRANCH  32  33
HETATM   33  N6  UNL     1       6.161   0.283  -0.453  1.00  0.00    -0.352 NA
HETATM   34  C18 UNL     1       6.625  -0.862  -0.517  1.00  0.00     0.406 C 
HETATM   35  N7  UNL     1       7.843  -0.975   0.515  1.00  0.00    -0.025 NA
HETATM   36  O5  UNL     1       6.612  -1.977  -1.021  1.00  0.00    -0.234 OA
ENDBRANCH  32  33
ENDBRANCH  24  26
ENDBRANCH  20  21
ENDBRANCH   1  20
TORSDOF 10
