REMARK  8 active torsions:
REMARK  status: ('A' for Active; 'I' for Inactive)
REMARK    1  A    between atoms: O1_2  and  C2_3 
REMARK    2  A    between atoms: C2_3  and  C3_4 
REMARK    3  A    between atoms: C3_4  and  O2_5 
REMARK    4  A    between atoms: C3_4  and  C4_7 
REMARK    5  A    between atoms: C4_7  and  N1_8 
REMARK    6  A    between atoms: C8_12  and  C9_13 
REMARK       I    between atoms: C9_13  and  N2_15 
REMARK    7  A    between atoms: N3_18  and  C12_19 
REMARK    8  A    between atoms: C12_19  and  C13_20 
ROOT
HETATM    1  C9  UNL     1       0.669  -0.313  -0.325  1.00  0.00     0.258 C 
HETATM    2  O3  UNL     1       0.849  -1.395   0.285  1.00  0.00    -0.271 OA
HETATM    3  N2  UNL     1      -0.650   0.029  -0.720  1.00  0.00    -0.310 N 
HETATM    4  C10 UNL     1      -0.947   1.410  -1.136  1.00  0.00     0.176 C 
HETATM    5  C11 UNL     1      -2.393   1.750  -0.848  1.00  0.00     0.084 C 
HETATM    6  N3  UNL     1      -2.903   1.313   0.360  1.00  0.00    -0.363 N 
HETATM    7  C15 UNL     1      -3.652   0.131   0.444  1.00  0.00     0.105 C 
HETATM    8  C16 UNL     1      -2.934  -1.036  -0.185  1.00  0.00     0.018 A 
HETATM    9  C17 UNL     1      -1.643  -1.005  -0.656  1.00  0.00     0.051 A 
HETATM   10  C18 UNL     1      -1.088  -2.175  -1.209  1.00  0.00     0.055 A 
HETATM   11  C19 UNL     1      -1.849  -3.301  -1.258  1.00  0.00     0.047 A 
HETATM   12 CL1  UNL     1      -1.182  -4.759  -1.933  1.00  0.00    -0.083 Cl
HETATM   13  C20 UNL     1      -3.137  -3.307  -0.782  1.00  0.00    -0.003 A 
HETATM   14  C21 UNL     1      -3.924  -4.454  -0.831  1.00  0.00     0.014 A 
HETATM   15  C22 UNL     1      -5.216  -4.449  -0.352  1.00  0.00     0.001 A 
HETATM   16  C23 UNL     1      -5.756  -3.303   0.188  1.00  0.00     0.001 A 
HETATM   17  C24 UNL     1      -4.998  -2.145   0.251  1.00  0.00     0.013 A 
HETATM   18  C25 UNL     1      -3.724  -2.173  -0.228  1.00  0.00    -0.010 A 
ENDROOT
BRANCH   1  19
HETATM   19  C8  UNL     1       1.757   0.613  -0.649  1.00  0.00     0.314 C 
HETATM   20  N1  UNL     1       3.056   0.243  -0.117  1.00  0.00     0.104 N 
HETATM   21  C5  UNL     1       3.473  -0.935  -0.843  1.00  0.00     0.273 C 
HETATM   22  C6  UNL     1       2.992  -0.748  -2.255  1.00  0.00     0.033 C 
HETATM   23  C7  UNL     1       2.037   0.428  -2.149  1.00  0.00     0.047 C 
BRANCH  20  24
HETATM   24  C4  UNL     1       3.092   0.101   1.287  1.00  0.00     0.307 C 
BRANCH  24  25
HETATM   25  C3  UNL     1       4.415   0.411   1.925  1.00  0.00     0.170 C 
BRANCH  25  26
HETATM   26  C2  UNL     1       4.757   1.847   2.078  1.00  0.00     0.200 C 
BRANCH  26  27
HETATM   27  O1  UNL     1       5.173   2.558   1.006  1.00  0.00    -0.393 OA
HETATM   28  C1  UNL     1       6.351   2.202   0.417  1.00  0.00     0.201 C 
ENDBRANCH  26  27
ENDBRANCH  25  26
BRANCH  25  29
HETATM   29  O2  UNL     1       5.384  -0.415   1.427  1.00  0.00    -0.392 OA
ATOM     30  H2  UNL     1       5.165  -1.334   1.329  1.00  0.00     0.210 HD
ENDBRANCH  25  29
ENDBRANCH  24  25
ENDBRANCH  20  24
ENDBRANCH   1  19
BRANCH   6  31
HETATM   31  C12 UNL     1      -3.225   2.383   1.253  1.00  0.00     0.174 C 
BRANCH  31  32
HETATM   32  C13 UNL     1      -4.356   3.228   0.845  1.00  0.00     0.007 A 
HETATM   33  C14 UNL     1      -4.750   4.502   0.515  1.00  0.00     0.066 A 
HETATM   34  S1  UNL     1      -6.096   3.326   0.451  1.00  0.00    -0.103 SA
ENDBRANCH  31  32
ENDBRANCH   6  31
TORSDOF 8
