REMARK  11 active torsions:
REMARK  status: ('A' for Active; 'I' for Inactive)
REMARK    1  A    between atoms: C2_2  and  C3_3 
REMARK    2  A    between atoms: C3_3  and  N1_5 
REMARK    3  A    between atoms: C3_3  and  C11_17 
REMARK       I    between atoms: N1_5  and  C5_7 
REMARK       I    between atoms: C5_7  and  N2_9 
REMARK    4  A    between atoms: N2_9  and  C6_11 
REMARK    5  A    between atoms: C6_11  and  C7_12 
REMARK    6  A    between atoms: C13_21  and  C14_22 
REMARK       I    between atoms: C14_22  and  N4_24 
REMARK    7  A    between atoms: N4_24  and  N5_26 
REMARK       I    between atoms: N5_26  and  C15_28 
REMARK       I    between atoms: C15_28  and  N6_30 
REMARK    8  A    between atoms: N6_30  and  C16_32 
REMARK    9  A    between atoms: C16_32  and  C17_33 
REMARK   10  A    between atoms: C16_32  and  C18_36 
REMARK   11  A    between atoms: C17_33  and  O5_34 
ROOT
HETATM    1  C11 UNL     1       1.092  -0.471   0.513  1.00  0.00    -0.013 A 
HETATM    2  C12 UNL     1       1.662  -1.454  -0.241  1.00  0.00     0.098 A 
HETATM    3  N3  UNL     1       0.669  -2.087  -0.934  1.00  0.00    -0.361 N 
ATOM      4  H3  UNL     1       0.820  -2.865  -1.576  1.00  0.00     0.165 HD
HETATM    5  C13 UNL     1      -0.504  -1.565  -0.666  1.00  0.00     0.102 A 
HETATM    6  C20 UNL     1      -0.276  -0.541   0.242  1.00  0.00     0.046 A 
ENDROOT
BRANCH   5   7
HETATM    7  C14 UNL     1      -1.845  -1.951  -1.135  1.00  0.00     0.286 C 
HETATM    8  O3  UNL     1      -1.979  -3.029  -1.722  1.00  0.00    -0.264 OA
HETATM    9  N4  UNL     1      -2.958  -1.108  -0.920  1.00  0.00    -0.261 N 
ATOM     10  H4  UNL     1      -2.774  -0.224  -0.446  1.00  0.00     0.190 HD
BRANCH   9  11
HETATM   11  N5  UNL     1      -4.260  -1.350  -1.280  1.00  0.00    -0.249 N 
HETATM   12  C15 UNL     1      -5.282  -0.436  -0.837  1.00  0.00     0.335 C 
HETATM   13  O4  UNL     1      -4.868   0.570  -0.148  1.00  0.00    -0.246 OA
HETATM   14  N6  UNL     1      -6.627  -0.580  -1.103  1.00  0.00    -0.329 N 
ATOM     15  H6  UNL     1      -6.844  -1.423  -1.635  1.00  0.00     0.165 HD
ATOM     16  H5  UNL     1      -4.500  -2.161  -1.850  1.00  0.00     0.192 HD
BRANCH  14  17
HETATM   17  C16 UNL     1      -7.762   0.188  -0.797  1.00  0.00     0.170 C 
BRANCH  17  18
HETATM   18  C17 UNL     1      -7.458   1.398   0.098  1.00  0.00     0.196 C 
BRANCH  18  19
HETATM   19  O5  UNL     1      -6.672   2.337  -0.557  1.00  0.00    -0.398 OA
ATOM     20  H5  UNL     1      -6.484   3.086  -0.003  1.00  0.00     0.209 HD
ENDBRANCH  18  19
ENDBRANCH  17  18
BRANCH  17  21
HETATM   21  C18 UNL     1      -8.873  -0.546  -0.188  1.00  0.00     0.118 A 
HETATM   22  C19 UNL     1      -9.572  -1.710  -0.391  1.00  0.00     0.151 A 
HETATM   23  N7  UNL     1     -10.347  -1.461   0.675  1.00  0.00    -0.270 N 
HETATM   24  O6  UNL     1      -9.685  -0.368   0.858  1.00  0.00    -0.239 OA
ATOM     25  H7  UNL     1     -11.123  -1.932   1.140  1.00  0.00     0.194 HD
ENDBRANCH  17  21
ENDBRANCH  14  17
ENDBRANCH   9  11
ENDBRANCH   5   7
BRANCH   1  26
HETATM   26  C3  UNL     1       1.672   0.495   1.487  1.00  0.00     0.059 C 
HETATM   27  C4  UNL     1       1.965  -0.343   2.738  1.00  0.00     0.044 C 
BRANCH  26  28
HETATM   28  C2  UNL     1       0.533   1.489   1.832  1.00  0.00     0.031 C 
HETATM   29  C1  UNL     1       0.238   2.304   0.629  1.00  0.00     0.008 C 
ENDBRANCH  26  28
BRANCH  26  30
HETATM   30  N1  UNL     1       2.776   1.267   1.061  1.00  0.00    -0.330 N 
HETATM   31  C5  UNL     1       4.122   0.880   0.833  1.00  0.00     0.317 C 
HETATM   32  O1  UNL     1       4.490  -0.295   1.030  1.00  0.00    -0.247 OA
HETATM   33  N2  UNL     1       5.108   1.789   0.381  1.00  0.00    -0.341 N 
ATOM     34  H2  UNL     1       4.820   2.758   0.242  1.00  0.00     0.164 HD
ATOM     35  H1  UNL     1       2.575   2.253   0.892  1.00  0.00     0.165 HD
BRANCH  33  36
HETATM   36  C6  UNL     1       6.462   1.470   0.104  1.00  0.00     0.156 C 
BRANCH  36  37
HETATM   37  C7  UNL     1       6.752   0.553  -1.032  1.00  0.00     0.139 C 
HETATM   38  C8  UNL     1       8.271   0.358  -1.043  1.00  0.00     0.035 C 
HETATM   39  C9  UNL     1       8.398  -1.141  -1.163  1.00  0.00     0.029 C 
HETATM   40  C10 UNL     1       7.065  -1.514  -1.780  1.00  0.00     0.168 C 
HETATM   41  O2  UNL     1       6.216  -0.695  -1.016  1.00  0.00    -0.384 OA
ENDBRANCH  36  37
ENDBRANCH  33  36
ENDBRANCH  26  30
ENDBRANCH   1  26
TORSDOF 11
