REMARK  6 active torsions:
REMARK  status: ('A' for Active; 'I' for Inactive)
REMARK    1  A    between atoms: C4_5  and  C5_6 
REMARK    2  A    between atoms: N2_8  and  C7_9 
REMARK    3  A    between atoms: C7_9  and  C8_10 
REMARK    4  A    between atoms: C12_16  and  C13_17 
REMARK    5  A    between atoms: C13_17  and  C14_18 
REMARK       I    between atoms: C14_18  and  N3_20 
REMARK    6  A    between atoms: N3_20  and  C15_22 
ROOT
HETATM    1  N1  UNL     1       5.262   3.042   0.655  1.00  0.00    -0.191 NA
HETATM    2  C1  UNL     1       4.838   1.984   0.467  1.00  0.00     0.099 C 
HETATM    3  C2  UNL     1       4.298   0.656   0.206  1.00  0.00     0.046 A 
HETATM    4  C3  UNL     1       2.989   0.496  -0.208  1.00  0.00     0.033 A 
HETATM    5  C4  UNL     1       2.400  -0.710  -0.475  1.00  0.00    -0.015 A 
HETATM    6  C19 UNL     1       3.196  -1.835  -0.312  1.00  0.00    -0.017 A 
HETATM    7  C20 UNL     1       2.776  -3.121  -0.540  1.00  0.00     0.013 A 
HETATM    8  C21 UNL     1       3.591  -4.243  -0.376  1.00  0.00     0.001 A 
HETATM    9  C22 UNL     1       4.881  -4.074   0.033  1.00  0.00     0.001 A 
HETATM   10  C23 UNL     1       5.358  -2.805   0.278  1.00  0.00     0.012 A 
HETATM   11  C24 UNL     1       4.525  -1.697   0.107  1.00  0.00    -0.024 A 
HETATM   12  C25 UNL     1       5.077  -0.465   0.365  1.00  0.00     0.035 A 
ENDROOT
BRANCH   5  13
HETATM   13  C5  UNL     1       1.007  -0.898  -0.897  1.00  0.00     0.194 C 
HETATM   14  C6  UNL     1       0.247   0.300  -1.292  1.00  0.00     0.311 C 
HETATM   15  N2  UNL     1      -0.665   0.865  -0.371  1.00  0.00     0.110 N 
HETATM   16  C12 UNL     1      -0.624   0.443   0.976  1.00  0.00     0.330 C 
HETATM   17  C18 UNL     1      -0.042  -0.879   1.240  1.00  0.00     0.293 C 
HETATM   18  O2  UNL     1       0.048  -1.292   2.408  1.00  0.00    -0.263 OA
HETATM   19  O3  UNL     1       0.383  -1.613   0.186  1.00  0.00    -0.308 OA
BRANCH  15  20
HETATM   20  C7  UNL     1      -0.548   2.347  -0.335  1.00  0.00     0.320 C 
BRANCH  20  21
HETATM   21  C8  UNL     1      -0.496   2.896  -1.733  1.00  0.00     0.012 A 
HETATM   22  C9  UNL     1       0.503   3.631  -2.311  1.00  0.00     0.018 A 
HETATM   23  C10 UNL     1       0.334   4.012  -3.582  1.00  0.00     0.032 A 
HETATM   24  C11 UNL     1      -0.828   3.635  -4.204  1.00  0.00     0.075 A 
HETATM   25 CL1  UNL     1      -1.329   3.986  -5.866  1.00  0.00    -0.076 Cl
HETATM   26  S1  UNL     1      -1.641   2.761  -2.983  1.00  0.00    -0.081 SA
ENDBRANCH  20  21
ENDBRANCH  15  20
BRANCH  16  27
HETATM   27  C13 UNL     1      -1.967   0.511   1.702  1.00  0.00     0.149 C 
BRANCH  27  28
HETATM   28  C14 UNL     1      -3.011  -0.323   1.129  1.00  0.00     0.220 C 
HETATM   29  O1  UNL     1      -2.824  -1.103   0.174  1.00  0.00    -0.274 OA
HETATM   30  N3  UNL     1      -4.326  -0.272   1.661  1.00  0.00    -0.356 N 
ATOM     31  H3  UNL     1      -4.506   0.358   2.443  1.00  0.00     0.162 HD
BRANCH  30  32
HETATM   32  C15 UNL     1      -5.426  -1.066   1.153  1.00  0.00     0.084 A 
HETATM   33  C16 UNL     1      -6.819  -0.456   1.220  1.00  0.00     0.027 A 
HETATM   34  C17 UNL     1      -6.438  -1.559   2.185  1.00  0.00     0.027 A 
ENDBRANCH  30  32
ENDBRANCH  27  28
ENDBRANCH  16  27
ENDBRANCH   5  13
TORSDOF 6
