REMARK  17 active torsions:
REMARK  status: ('A' for Active; 'I' for Inactive)
REMARK    1  A    between atoms: N1_5  and  C5_7 
REMARK    2  A    between atoms: C5_7  and  C6_8 
REMARK    3  A    between atoms: C6_8  and  C7_9 
REMARK    4  A    between atoms: C7_9  and  C8_10 
REMARK    5  A    between atoms: C8_10  and  N2_11 
REMARK    6  A    between atoms: N3_16  and  C13_17 
REMARK    7  A    between atoms: C13_17  and  C14_18 
REMARK    8  A    between atoms: C13_17  and  C18_26 
REMARK    9  A    between atoms: C14_18  and  C15_19 
REMARK   10  A    between atoms: C15_19  and  C16_20 
REMARK   11  A    between atoms: C16_20  and  N4_21 
REMARK       I    between atoms: C18_26  and  N7_28 
REMARK   12  A    between atoms: N7_28  and  C19_30 
REMARK   13  A    between atoms: C19_30  and  C20_31 
REMARK   14  A    between atoms: C19_30  and  C21_33 
REMARK   15  A    between atoms: C21_33  and  C22_34 
REMARK   16  A    between atoms: C22_34  and  C23_35 
REMARK   17  A    between atoms: C23_35  and  N8_36 
ROOT
HETATM    1  C13 UNL     1       0.827   0.709   0.600  1.00  0.00     0.177 C 
ENDROOT
BRANCH   1   2
HETATM    2  N3  UNL     1       0.158   0.406  -0.612  1.00  0.00    -0.357 N 
HETATM    3  C4  UNL     1      -1.287   0.177  -0.637  1.00  0.00     0.076 C 
HETATM    4  C3  UNL     1      -1.779   0.215  -2.034  1.00  0.00     0.082 C 
HETATM    5  N1  UNL     1      -2.029  -0.049   0.384  1.00  0.00    -0.380 N 
HETATM    6  C2  UNL     1      -0.608   0.930  -2.725  1.00  0.00     0.006 C 
HETATM    7  C1  UNL     1      -0.755   2.379  -2.352  1.00  0.00     0.012 C 
HETATM    8  C25 UNL     1       0.541   0.238  -1.988  1.00  0.00     0.129 C 
ATOM      9  H1  UNL     1      -1.605  -0.055   1.312  1.00  0.00     0.160 HD
BRANCH   5  10
HETATM   10  C5  UNL     1      -3.451  -0.296   0.260  1.00  0.00     0.121 C 
BRANCH  10  11
HETATM   11  C6  UNL     1      -3.730  -1.743   0.574  1.00  0.00     0.021 C 
BRANCH  11  12
HETATM   12  C7  UNL     1      -5.194  -2.034   0.437  1.00  0.00     0.032 C 
BRANCH  12  13
HETATM   13  C8  UNL     1      -5.975  -1.190   1.380  1.00  0.00     0.272 C 
BRANCH  13  14
HETATM   14  N2  UNL     1      -7.401  -1.434   1.327  1.00  0.00     0.088 N 
HETATM   15  C9  UNL     1      -8.037  -1.033   0.126  1.00  0.00     0.272 C 
HETATM   16  C10 UNL     1      -9.021  -2.125  -0.268  1.00  0.00     0.032 C 
HETATM   17  C11 UNL     1      -8.435  -3.348   0.394  1.00  0.00     0.032 C 
HETATM   18  C12 UNL     1      -7.750  -2.793   1.621  1.00  0.00     0.272 C 
ENDBRANCH  13  14
ENDBRANCH  12  13
ENDBRANCH  11  12
ENDBRANCH  10  11
ENDBRANCH   5  10
ENDBRANCH   1   2
BRANCH   1  19
HETATM   19  C14 UNL     1       1.390   2.073   0.781  1.00  0.00     0.037 C 
BRANCH  19  20
HETATM   20  C15 UNL     1       2.442   2.514  -0.165  1.00  0.00     0.022 C 
BRANCH  20  21
HETATM   21  C16 UNL     1       2.942   3.924   0.151  1.00  0.00     0.122 C 
BRANCH  21  22
HETATM   22  N4  UNL     1       1.895   4.902   0.089  1.00  0.00    -0.367 N 
HETATM   23  C17 UNL     1       1.923   5.941   0.873  1.00  0.00     0.196 C 
HETATM   24  N5  UNL     1       0.891   6.897   0.805  1.00  0.00    -0.067 NA
HETATM   25  N6  UNL     1       2.977   6.119   1.794  1.00  0.00    -0.067 NA
ATOM     26  H4  UNL     1       1.126   4.783  -0.571  1.00  0.00     0.161 HD
ENDBRANCH  21  22
ENDBRANCH  20  21
ENDBRANCH  19  20
ENDBRANCH   1  19
BRANCH   1  27
HETATM   27  C18 UNL     1       1.907  -0.254   0.983  1.00  0.00     0.241 C 
HETATM   28  O1  UNL     1       2.555   0.053   2.016  1.00  0.00    -0.271 OA
HETATM   29  N7  UNL     1       2.237  -1.431   0.299  1.00  0.00    -0.348 N 
ATOM     30  H7  UNL     1       1.718  -1.686  -0.541  1.00  0.00     0.163 HD
BRANCH  29  31
HETATM   31  C19 UNL     1       3.303  -2.290   0.766  1.00  0.00     0.146 C 
BRANCH  31  32
HETATM   32  C20 UNL     1       2.800  -3.667   1.025  1.00  0.00     0.256 C 
HETATM   33  O2  UNL     1       1.604  -3.891   0.822  1.00  0.00    -0.305 OA
ENDBRANCH  31  32
BRANCH  31  34
HETATM   34  C21 UNL     1       4.398  -2.376  -0.252  1.00  0.00     0.034 C 
BRANCH  34  35
HETATM   35  C22 UNL     1       4.970  -0.992  -0.505  1.00  0.00     0.022 C 
BRANCH  35  36
HETATM   36  C23 UNL     1       6.072  -1.167  -1.544  1.00  0.00     0.122 C 
BRANCH  36  37
HETATM   37  N8  UNL     1       7.095  -2.058  -1.062  1.00  0.00    -0.367 N 
HETATM   38  C24 UNL     1       8.011  -1.698  -0.203  1.00  0.00     0.196 C 
HETATM   39  N9  UNL     1       8.016  -0.375   0.292  1.00  0.00    -0.067 NA
HETATM   40  N10 UNL     1       8.967  -2.673   0.195  1.00  0.00    -0.067 NA
ATOM     41  H8  UNL     1       7.105  -3.017  -1.408  1.00  0.00     0.161 HD
ENDBRANCH  36  37
ENDBRANCH  35  36
ENDBRANCH  34  35
ENDBRANCH  31  34
ENDBRANCH  29  31
ENDBRANCH   1  27
TORSDOF 17
