REMARK  15 active torsions:
REMARK  status: ('A' for Active; 'I' for Inactive)
REMARK    1  A    between atoms: C2_2  and  C3_3 
REMARK    2  A    between atoms: C3_3  and  C4_4 
REMARK    3  A    between atoms: C6_8  and  C7_9 
REMARK    4  A    between atoms: C7_9  and  C8_10 
REMARK    5  A    between atoms: C12_20  and  C13_21 
REMARK       I    between atoms: C13_21  and  N4_23 
REMARK    6  A    between atoms: N4_23  and  C14_25 
REMARK    7  A    between atoms: C14_25  and  C15_26 
REMARK    8  A    between atoms: C15_26  and  C16_27 
REMARK    9  A    between atoms: C16_27  and  N5_28 
REMARK   10  A    between atoms: N6_31  and  C19_32 
REMARK   11  A    between atoms: C19_32  and  C20_33 
REMARK   12  A    between atoms: C20_33  and  C21_34 
REMARK   13  A    between atoms: C21_34  and  C22_35 
REMARK   14  A    between atoms: C22_35  and  N7_36 
REMARK   15  A    between atoms: N7_36  and  C23_38 
ROOT
HETATM    1  C13 UNL     1      -3.177   0.126  -0.051  1.00  0.00     0.254 C 
HETATM    2  O3  UNL     1      -3.240  -0.331  -1.188  1.00  0.00    -0.268 OA
HETATM    3  N4  UNL     1      -1.836   0.159   0.496  1.00  0.00    -0.357 N 
ATOM      4  H4  UNL     1      -1.696   0.547   1.429  1.00  0.00     0.162 HD
ENDROOT
BRANCH   1   5
HETATM    5  C12 UNL     1      -4.284   0.628   0.771  1.00  0.00     0.062 A 
HETATM    6  C4  UNL     1      -4.403   0.375   2.129  1.00  0.00     0.025 A 
HETATM    7  N1  UNL     1      -5.427   1.169   2.549  1.00  0.00    -0.368 N 
HETATM    8  C5  UNL     1      -5.923   1.863   1.546  1.00  0.00     0.096 A 
ATOM      9  H1  UNL     1      -5.764   1.219   3.510  1.00  0.00     0.165 HD
HETATM   10  C6  UNL     1      -5.198   1.534   0.343  1.00  0.00    -0.021 A 
BRANCH   6  11
HETATM   11  C3  UNL     1      -3.718  -0.603   2.997  1.00  0.00     0.057 C 
BRANCH  11  12
HETATM   12  C2  UNL     1      -4.460  -1.927   2.903  1.00  0.00     0.002 C 
HETATM   13  C1  UNL     1      -4.517  -2.511   1.536  1.00  0.00     0.005 C 
ENDBRANCH  11  12
ENDBRANCH   6  11
BRANCH  10  14
HETATM   14  C7  UNL     1      -5.616   2.123  -0.943  1.00  0.00     0.086 C 
BRANCH  14  15
HETATM   15  C8  UNL     1      -6.694   1.417  -1.643  1.00  0.00     0.030 A 
HETATM   16  C9  UNL     1      -7.998   1.729  -1.178  1.00  0.00     0.105 A 
HETATM   17  N2  UNL     1      -9.096   1.133  -1.646  1.00  0.00    -0.318 N 
HETATM   18  C10 UNL     1      -9.004   0.195  -2.594  1.00  0.00     0.326 A 
ATOM     19  H2  UNL     1     -10.011   1.395  -1.278  1.00  0.00     0.170 HD
HETATM   20  O1  UNL     1     -10.013  -0.404  -3.074  1.00  0.00    -0.247 OA
HETATM   21  N3  UNL     1      -7.801  -0.136  -3.067  1.00  0.00    -0.275 N 
HETATM   22  C11 UNL     1      -6.649   0.467  -2.600  1.00  0.00     0.257 A 
ATOM     23  H3  UNL     1      -7.730  -0.851  -3.791  1.00  0.00     0.173 HD
HETATM   24  O2  UNL     1      -5.557   0.124  -3.088  1.00  0.00    -0.267 OA
ENDBRANCH  14  15
ENDBRANCH  10  14
ENDBRANCH   1   5
BRANCH   3  25
HETATM   25  C14 UNL     1      -0.695  -0.334  -0.225  1.00  0.00     0.124 C 
BRANCH  25  26
HETATM   26  C15 UNL     1       0.542  -0.208   0.620  1.00  0.00     0.050 C 
BRANCH  26  27
HETATM   27  C16 UNL     1       1.760  -0.741  -0.048  1.00  0.00     0.274 C 
BRANCH  27  28
HETATM   28  N5  UNL     1       2.164  -0.120  -1.261  1.00  0.00     0.098 N 
HETATM   29  C17 UNL     1       2.684   1.204  -1.103  1.00  0.00     0.292 C 
HETATM   30  C18 UNL     1       4.194   1.272  -1.200  1.00  0.00     0.156 C 
HETATM   31  N6  UNL     1       4.726   0.102  -0.525  1.00  0.00    -0.349 N 
HETATM   32  C24 UNL     1       4.251  -1.157  -1.010  1.00  0.00     0.248 C 
HETATM   33  O5  UNL     1       4.783  -2.236  -0.686  1.00  0.00    -0.271 OA
HETATM   34  C25 UNL     1       3.072  -1.036  -1.932  1.00  0.00     0.374 C 
BRANCH  31  35
HETATM   35  C19 UNL     1       5.660   0.157   0.578  1.00  0.00     0.126 C 
BRANCH  35  36
HETATM   36  C20 UNL     1       7.077   0.077   0.053  1.00  0.00     0.021 C 
BRANCH  36  37
HETATM   37  C21 UNL     1       8.076   0.129   1.176  1.00  0.00     0.021 C 
BRANCH  37  38
HETATM   38  C22 UNL     1       9.479   0.017   0.620  1.00  0.00     0.122 C 
BRANCH  38  39
HETATM   39  N7  UNL     1       9.679  -1.237  -0.078  1.00  0.00    -0.368 N 
ATOM     40  H7  UNL     1       8.903  -1.898  -0.124  1.00  0.00     0.161 HD
BRANCH  39  41
HETATM   41  C23 UNL     1      10.899  -1.586  -0.697  1.00  0.00     0.348 C 
HETATM   42  O4  UNL     1      11.870  -0.807  -0.660  1.00  0.00    -0.284 OA
ENDBRANCH  39  41
ENDBRANCH  38  39
ENDBRANCH  37  38
ENDBRANCH  36  37
ENDBRANCH  35  36
ENDBRANCH  31  35
ENDBRANCH  27  28
ENDBRANCH  26  27
ENDBRANCH  25  26
ENDBRANCH   3  25
TORSDOF 15
