REMARK  1 active torsions:
REMARK  status: ('A' for Active; 'I' for Inactive)
REMARK    1  A    between atoms: C14_18  and  O1_19 
ROOT
HETATM    1  C1  UNL     1      -2.521   2.349  -1.130  1.00  0.00     0.046 C 
HETATM    2  C2  UNL     1      -1.976   1.237  -0.304  1.00  0.00     0.126 C 
HETATM    3  C3  UNL     1      -0.506   1.341  -0.051  1.00  0.00     0.046 C 
HETATM    4  C4  UNL     1       0.191   0.180  -0.725  1.00  0.00     0.023 C 
HETATM    5  C5  UNL     1      -0.397  -1.089  -0.094  1.00  0.00     0.092 C 
HETATM    6  S1  UNL     1       0.606  -0.784   1.342  1.00  0.00    -0.151 SA
HETATM    7  C6  UNL     1       1.513  -0.137  -0.065  1.00  0.00     0.013 C 
HETATM    8  C7  UNL     1       2.286  -1.121  -0.875  1.00  0.00     0.021 C 
HETATM    9  C8  UNL     1       3.772  -1.074  -0.642  1.00  0.00     0.002 C 
HETATM   10  C9  UNL     1       4.043  -0.602   0.759  1.00  0.00     0.000 C 
HETATM   11  C10 UNL     1       3.566   0.806   0.980  1.00  0.00     0.002 C 
HETATM   12  C11 UNL     1       2.334   1.093   0.182  1.00  0.00     0.021 C 
HETATM   13  C12 UNL     1      -1.866  -0.991   0.026  1.00  0.00     0.161 C 
HETATM   14  C13 UNL     1      -2.464  -2.370  -0.253  1.00  0.00     0.050 C 
HETATM   15  N1  UNL     1      -2.334  -0.022  -0.979  1.00  0.00    -0.054 N 
ATOM     16  H11 UNL     1      -1.962  -0.143  -1.921  1.00  0.00     0.279 HD
ATOM     17  H12 UNL     1      -3.309  -0.112  -1.264  1.00  0.00     0.279 HD
HETATM   18  C14 UNL     1      -2.383  -0.426   1.299  1.00  0.00     0.157 C 
HETATM   19  C15 UNL     1      -2.674   1.053   1.014  1.00  0.00     0.072 C 
ENDROOT
BRANCH  18  20
HETATM   20  O1  UNL     1      -3.629  -1.022   1.558  1.00  0.00    -0.393 OA
ATOM     21  H1  UNL     1      -3.960  -0.661   2.372  1.00  0.00     0.210 HD
ENDBRANCH  18  20
TORSDOF 1
