REMARK  1 active torsions:
REMARK  status: ('A' for Active; 'I' for Inactive)
REMARK    1  A    between atoms: C3_5  and  O1_7 
ROOT
HETATM    1  C1  UNL     1       0.623   1.820  -1.908  1.00  0.00     0.039 C 
HETATM    2  C2  UNL     1       0.846   1.090  -0.841  1.00  0.00     0.012 C 
HETATM    3  N1  UNL     1       1.857   1.533   0.082  1.00  0.00    -0.339 N 
ATOM      4  H1  UNL     1       2.055   2.528   0.184  1.00  0.00     0.164 HD
HETATM    5  C3  UNL     1       2.593   0.561   0.866  1.00  0.00     0.243 C 
HETATM    6  C4  UNL     1       4.063   0.742   0.441  1.00  0.00     0.106 C 
HETATM    7  O2  UNL     1       2.268  -0.717   0.692  1.00  0.00    -0.326 OA
HETATM    8  C5  UNL     1       1.237  -1.170  -0.012  1.00  0.00     0.076 C 
HETATM    9  C6  UNL     1       1.744  -1.950  -1.226  1.00  0.00     0.047 C 
HETATM   10  C7  UNL     1       0.467  -2.159   0.836  1.00  0.00     0.039 C 
HETATM   11  C8  UNL     1      -0.849  -1.520   1.156  1.00  0.00     0.009 C 
HETATM   12  C9  UNL     1      -0.651  -0.067   0.777  1.00  0.00     0.011 C 
HETATM   13  C10 UNL     1      -2.018   0.516   0.560  1.00  0.00    -0.043 C 
HETATM   14  C11 UNL     1      -2.017   2.011   0.409  1.00  0.00     0.015 C 
HETATM   15  C12 UNL     1      -2.801   0.220   1.852  1.00  0.00     0.015 C 
HETATM   16  C13 UNL     1      -2.777  -0.157  -0.538  1.00  0.00     0.009 C 
HETATM   17  C14 UNL     1      -1.975  -0.357  -1.769  1.00  0.00     0.002 C 
HETATM   18  C15 UNL     1      -0.555  -0.734  -1.597  1.00  0.00     0.019 C 
HETATM   19  C16 UNL     1       0.189  -0.164  -0.449  1.00  0.00     0.036 C 
ENDROOT
BRANCH   5  20
HETATM   20  O1  UNL     1       2.590   0.924   2.231  1.00  0.00    -0.349 OA
ATOM     21  H1  UNL     1       3.072   0.287   2.745  1.00  0.00     0.215 HD
ENDBRANCH   5  20
TORSDOF 1
