REMARK  1 active torsions:
REMARK  status: ('A' for Active; 'I' for Inactive)
REMARK    1  A    between atoms: C8_8  and  O1_9 
ROOT
HETATM    1  C1  UNL     1       2.279  -1.347  -1.301  1.00  0.00     0.022 C 
HETATM    2  C2  UNL     1       2.139  -0.140  -0.391  1.00  0.00    -0.002 C 
HETATM    3  C3  UNL     1       1.822   1.108  -1.144  1.00  0.00     0.016 C 
HETATM    4  C4  UNL     1       0.396   1.329  -1.449  1.00  0.00     0.009 C 
HETATM    5  C5  UNL     1      -0.571   0.453  -0.739  1.00  0.00     0.020 C 
HETATM    6  C6  UNL     1      -0.102   0.251   0.677  1.00  0.00    -0.000 C 
HETATM    7  C7  UNL     1      -1.107  -0.516   1.493  1.00  0.00     0.038 C 
HETATM    8  C8  UNL     1      -2.268  -1.008   0.696  1.00  0.00     0.131 C 
HETATM    9  C9  UNL     1      -2.899   0.027  -0.173  1.00  0.00     0.030 C 
HETATM   10  C10 UNL     1      -3.857  -0.538  -1.178  1.00  0.00     0.023 C 
HETATM   11  C11 UNL     1      -3.447   1.170   0.615  1.00  0.00     0.182 C 
HETATM   12  O2  UNL     1      -2.206   1.825   0.467  1.00  0.00    -0.384 OA
HETATM   13  C12 UNL     1      -1.951   1.072  -0.675  1.00  0.00     0.138 C 
HETATM   14  C13 UNL     1       1.218  -0.430   0.745  1.00  0.00     0.004 C 
HETATM   15  C14 UNL     1       1.912  -0.063   2.022  1.00  0.00     0.011 C 
HETATM   16  C15 UNL     1       3.317   0.328   1.696  1.00  0.00     0.053 C 
HETATM   17  C16 UNL     1       3.461   0.043   0.258  1.00  0.00    -0.012 C 
HETATM   18  N1  UNL     1       4.563  -0.042  -0.370  1.00  0.00    -0.405 N 
ATOM     19  H11 UNL     1       5.472   0.084   0.076  1.00  0.00     0.155 HD
ATOM     20  H12 UNL     1       4.663  -0.239  -1.366  1.00  0.00     0.155 HD
ENDROOT
BRANCH   8  21
HETATM   21  O1  UNL     1      -1.917  -2.169   0.003  1.00  0.00    -0.395 OA
ATOM     22  H1  UNL     1      -2.656  -2.482  -0.505  1.00  0.00     0.210 HD
ENDBRANCH   8  21
TORSDOF 1
