REMARK  2 active torsions:
REMARK  status: ('A' for Active; 'I' for Inactive)
REMARK    1  A    between atoms: O1_1  and  C1_3 
REMARK    2  A    between atoms: C1_3  and  C2_4 
ROOT
HETATM    1  C1  UNL     1       0.731  -0.262  -0.553  1.00  0.00     0.065 C 
HETATM    2  C5  UNL     1       0.181  -0.854   0.725  1.00  0.00     0.043 C 
HETATM    3  C6  UNL     1      -0.702   0.215   1.301  1.00  0.00    -0.011 C 
HETATM    4  C7  UNL     1      -2.147  -0.297   1.195  1.00  0.00     0.005 C 
HETATM    5  C8  UNL     1      -2.569  -0.517  -0.201  1.00  0.00     0.001 C 
HETATM    6  C9  UNL     1      -1.585  -0.285  -1.281  1.00  0.00     0.007 C 
HETATM    7  C10 UNL     1      -0.445   0.604  -0.972  1.00  0.00     0.021 C 
HETATM    8  C11 UNL     1      -0.685   1.386   0.304  1.00  0.00     0.012 C 
ENDROOT
BRANCH   1   9
HETATM    9  O1  UNL     1       0.960  -1.288  -1.499  1.00  0.00    -0.389 OA
ATOM     10  H1  UNL     1       0.165  -1.778  -1.673  1.00  0.00     0.210 HD
ENDBRANCH   1   9
BRANCH   1  11
HETATM   11  C2  UNL     1       1.959   0.495  -0.284  1.00  0.00     0.020 A 
HETATM   12  C3  UNL     1       3.166  -0.109   0.324  1.00  0.00     0.008 A 
HETATM   13  C4  UNL     1       2.337   0.816   1.149  1.00  0.00     0.008 A 
ENDBRANCH   1  11
TORSDOF 2
