REMARK  1 active torsions:
REMARK  status: ('A' for Active; 'I' for Inactive)
REMARK    1  A    between atoms: C4_4  and  N1_5 
ROOT
HETATM    1  C1  UNL     1      -3.412   0.042  -0.415  1.00  0.00     0.000 C 
HETATM    2  C2  UNL     1      -2.506   1.174  -0.846  1.00  0.00     0.002 C 
HETATM    3  C3  UNL     1      -1.163   1.110  -0.096  1.00  0.00     0.036 C 
HETATM    4  C4  UNL     1      -0.674  -0.291  -0.264  1.00  0.00     0.223 C 
HETATM    5  C10 UNL     1      -1.499  -1.126   0.705  1.00  0.00     0.036 C 
HETATM    6  C11 UNL     1      -2.902  -0.585   0.844  1.00  0.00     0.002 C 
ENDROOT
BRANCH   4   7
HETATM    7  N1  UNL     1       0.726  -0.503  -0.114  1.00  0.00     0.093 N 
HETATM    8  C5  UNL     1       1.275  -0.338   1.181  1.00  0.00     0.273 C 
HETATM    9  C6  UNL     1       2.761  -0.437   1.220  1.00  0.00     0.030 C 
HETATM   10  C7  UNL     1       3.489   0.223   0.112  1.00  0.00     0.003 C 
HETATM   11  C8  UNL     1       2.893  -0.115  -1.240  1.00  0.00     0.030 C 
HETATM   12  C9  UNL     1       1.425   0.190  -1.163  1.00  0.00     0.273 C 
ENDBRANCH   4   7
TORSDOF 1
