REMARK  2 active torsions:
REMARK  status: ('A' for Active; 'I' for Inactive)
REMARK    1  A    between atoms: O1_1  and  C1_3 
REMARK    2  A    between atoms: C1_3  and  C2_4 
ROOT
HETATM    1  C1  UNL     1       0.471   0.203   0.010  1.00  0.00     0.062 C 
HETATM    2  C8  UNL     1       1.013   0.617   1.366  1.00  0.00     0.038 C 
HETATM    3  C9  UNL     1       2.392   0.093   1.626  1.00  0.00     0.003 C 
HETATM    4  C10 UNL     1       3.291   0.111   0.433  1.00  0.00     0.000 C 
HETATM    5  C11 UNL     1       2.666  -0.494  -0.793  1.00  0.00     0.003 C 
HETATM    6  C12 UNL     1       1.307  -1.019  -0.406  1.00  0.00     0.038 C 
ENDROOT
BRANCH   1   7
HETATM    7  O1  UNL     1       0.792   1.197  -0.876  1.00  0.00    -0.389 OA
ATOM      8  H1  UNL     1       1.701   1.470  -0.918  1.00  0.00     0.210 HD
ENDBRANCH   1   7
BRANCH   1   9
HETATM    9  C2  UNL     1      -0.927  -0.217   0.074  1.00  0.00     0.028 C 
HETATM   10  C3  UNL     1      -2.000   0.751   0.444  1.00  0.00    -0.007 C 
HETATM   11  C4  UNL     1      -3.195  -0.181   0.603  1.00  0.00     0.005 C 
HETATM   12  C7  UNL     1      -2.133   1.067  -1.042  1.00  0.00     0.010 C 
HETATM   13  C5  UNL     1      -2.971  -1.066  -0.641  1.00  0.00     0.005 C 
HETATM   14  C6  UNL     1      -1.711  -0.377  -1.184  1.00  0.00    -0.007 C 
ENDBRANCH   1   9
TORSDOF 2
