REMARK  2 active torsions:
REMARK  status: ('A' for Active; 'I' for Inactive)
REMARK    1  A    between atoms: C2_2  and  C3_3 
REMARK    2  A    between atoms: C11_11  and  N1_12 
ROOT
HETATM    1  C3  UNL     1       1.015  -0.780  -0.183  1.00  0.00     0.047 C 
HETATM    2  C4  UNL     1      -0.118  -1.381   0.634  1.00  0.00    -0.004 C 
HETATM    3  C5  UNL     1      -1.268  -1.659  -0.303  1.00  0.00     0.010 C 
HETATM    4  C6  UNL     1      -1.706  -0.362  -0.970  1.00  0.00    -0.011 C 
HETATM    5  C7  UNL     1      -2.223   0.529   0.138  1.00  0.00     0.009 C 
HETATM    6  C8  UNL     1      -1.108   0.802   1.110  1.00  0.00    -0.011 C 
HETATM    7  C9  UNL     1      -0.591  -0.468   1.714  1.00  0.00     0.010 C 
HETATM    8  C10 UNL     1       0.035   1.471   0.369  1.00  0.00     0.044 C 
HETATM    9  C11 UNL     1       0.586   0.552  -0.668  1.00  0.00     0.131 C 
HETATM   10  C12 UNL     1      -0.572   0.315  -1.663  1.00  0.00     0.044 C 
ENDROOT
BRANCH   9  11
HETATM   11  N1  UNL     1       1.583   1.272  -1.444  1.00  0.00    -0.070 N 
ATOM     12  H13 UNL     1       2.451   1.352  -0.915  1.00  0.00     0.275 HD
ATOM     13  H12 UNL     1       1.903   0.699  -2.225  1.00  0.00     0.275 HD
ATOM     14  H11 UNL     1       1.288   2.189  -1.778  1.00  0.00     0.275 HD
ENDBRANCH   9  11
BRANCH   1  15
HETATM   15  C2  UNL     1       2.293  -0.855   0.542  1.00  0.00    -0.029 C 
HETATM   16  C1  UNL     1       3.130   0.075   0.859  1.00  0.00     0.007 C 
ENDBRANCH   1  15
TORSDOF 2
