REMARK  5 active torsions:
REMARK  status: ('A' for Active; 'I' for Inactive)
REMARK    1  A    between atoms: C2_2  and  C4_4 
REMARK    2  A    between atoms: C4_4  and  C7_18 
REMARK       I    between atoms: N1_5  and  C5_7 
REMARK       I    between atoms: C5_7  and  N2_9 
REMARK    3  A    between atoms: N2_9  and  N3_11 
REMARK       I    between atoms: N3_11  and  C6_13 
REMARK    4  A    between atoms: C7_18  and  N6_19 
REMARK    5  A    between atoms: C7_18  and  C8_23 
REMARK       I    between atoms: C8_23  and  N7_25 
ROOT
HETATM    1  C4  UNL     1      -0.409  -1.026   0.218  1.00  0.00     0.034 C 
HETATM    2  N1  UNL     1       0.141   0.048   0.034  1.00  0.00    -0.312 N 
ATOM      3  H1  UNL     1      -0.585   0.764   0.051  1.00  0.00     0.170 HD
HETATM    4  C5  UNL     1       1.317   0.679  -0.183  1.00  0.00     0.339 C 
HETATM    5  O1  UNL     1       1.978   0.703  -1.280  1.00  0.00    -0.245 OA
HETATM    6  N2  UNL     1       1.944   1.417   0.878  1.00  0.00    -0.249 N 
ATOM      7  H2  UNL     1       1.478   1.444   1.785  1.00  0.00     0.192 HD
ENDROOT
BRANCH   1   8
HETATM    8  C2  UNL     1       0.239  -2.338   0.276  1.00  0.00     0.026 C 
HETATM    9  C1  UNL     1      -0.206  -3.300  -0.805  1.00  0.00     0.016 C 
HETATM   10  C3  UNL     1       1.746  -2.305   0.334  1.00  0.00     0.016 C 
ENDBRANCH   1   8
BRANCH   1  11
HETATM   11  C7  UNL     1      -1.912  -1.001   0.399  1.00  0.00     0.320 C 
BRANCH  11  12
HETATM   12  N6  UNL     1      -2.531  -1.881  -0.555  1.00  0.00    -0.061 N 
ATOM     13  H63 UNL     1      -2.256  -1.663  -1.513  1.00  0.00     0.275 HD
ATOM     14  H62 UNL     1      -2.154  -2.827  -0.505  1.00  0.00     0.275 HD
ATOM     15  H61 UNL     1      -3.544  -1.864  -0.433  1.00  0.00     0.275 HD
ENDBRANCH  11  12
BRANCH  11  16
HETATM   16  C8  UNL     1      -2.437   0.369   0.344  1.00  0.00     0.260 C 
HETATM   17  O2  UNL     1      -1.976   1.221   1.143  1.00  0.00    -0.270 OA
HETATM   18  N7  UNL     1      -3.439   0.755  -0.577  1.00  0.00    -0.301 N 
HETATM   19  C9  UNL     1      -4.040   1.886  -0.550  1.00  0.00     0.203 C 
ATOM     20  H7  UNL     1      -3.699   0.092  -1.307  1.00  0.00     0.171 HD
HETATM   21  N8  UNL     1      -3.719   2.843   0.440  1.00  0.00    -0.066 NA
HETATM   22  N9  UNL     1      -5.030   2.184  -1.514  1.00  0.00    -0.066 NA
ENDBRANCH  11  16
ENDBRANCH   1  11
BRANCH   6  23
HETATM   23  N3  UNL     1       3.154   2.099   0.741  1.00  0.00    -0.270 N 
HETATM   24  C6  UNL     1       4.388   1.428   0.548  1.00  0.00     0.200 C 
HETATM   25  N4  UNL     1       4.672   0.329   1.144  1.00  0.00    -0.372 N 
HETATM   26  N5  UNL     1       5.342   1.997  -0.339  1.00  0.00    -0.062 NA
ATOM     27  H42 UNL     1       3.987  -0.079   1.780  1.00  0.00     0.158 HD
ATOM     28  H41 UNL     1       5.560  -0.154   1.005  1.00  0.00     0.158 HD
ATOM     29  H3  UNL     1       3.150   3.118   0.781  1.00  0.00     0.189 HD
ENDBRANCH   6  23
TORSDOF 5
