REMARK  6 active torsions:
REMARK  status: ('A' for Active; 'I' for Inactive)
REMARK    1  A    between atoms: N1_2  and  N2_3 
REMARK       I    between atoms: N2_3  and  C2_5 
REMARK       I    between atoms: N4_7  and  C3_9 
REMARK       I    between atoms: C3_9  and  N5_11 
REMARK    2  A    between atoms: N5_11  and  C4_13 
REMARK    3  A    between atoms: C4_13  and  C5_14 
REMARK       I    between atoms: C5_14  and  N6_16 
REMARK    4  A    between atoms: N6_16  and  N7_18 
REMARK    5  A    between atoms: N7_18  and  C6_20 
REMARK    6  A    between atoms: C6_20  and  N8_22 
ROOT
HETATM    1  N2  UNL     1      -5.156  -0.569   0.449  1.00  0.00    -0.278 N 
ATOM      2  H2  UNL     1      -5.430  -0.524   1.430  1.00  0.00     0.185 HD
HETATM    3  C2  UNL     1      -3.922  -0.041  -0.002  1.00  0.00     0.208 C 
HETATM    4  N3  UNL     1      -3.962   1.052  -0.904  1.00  0.00    -0.062 NA
HETATM    5  N4  UNL     1      -2.827  -0.572   0.431  1.00  0.00    -0.282 N 
ATOM      6  H4  UNL     1      -2.827  -1.355   1.084  1.00  0.00     0.173 HD
HETATM    7  C3  UNL     1      -1.623   0.001  -0.058  1.00  0.00     0.323 C 
HETATM    8  O1  UNL     1      -0.885  -0.722  -0.756  1.00  0.00    -0.247 OA
HETATM    9  N5  UNL     1      -1.326   1.351   0.270  1.00  0.00    -0.334 N 
ATOM     10  H5  UNL     1      -1.979   1.882   0.847  1.00  0.00     0.164 HD
ENDROOT
BRANCH   9  11
HETATM   11  C4  UNL     1      -0.123   1.981  -0.196  1.00  0.00     0.228 C 
BRANCH  11  12
HETATM   12  C5  UNL     1       1.120   1.310   0.277  1.00  0.00     0.253 C 
HETATM   13  O2  UNL     1       1.119   0.295   1.025  1.00  0.00    -0.270 OA
HETATM   14  N6  UNL     1       2.371   1.831  -0.128  1.00  0.00    -0.266 N 
ATOM     15  H6  UNL     1       2.392   2.654  -0.731  1.00  0.00     0.190 HD
BRANCH  14  16
HETATM   16  N7  UNL     1       3.570   1.257   0.270  1.00  0.00    -0.274 N 
ATOM     17  H7  UNL     1       4.183   1.778   0.897  1.00  0.00     0.189 HD
BRANCH  16  18
HETATM   18  C6  UNL     1       3.968  -0.026  -0.167  1.00  0.00     0.188 C 
HETATM   19  S1  UNL     1       3.000  -0.858  -1.172  1.00  0.00    -0.039 SA
BRANCH  18  20
HETATM   20  N8  UNL     1       5.194  -0.581   0.261  1.00  0.00    -0.366 N 
HETATM   21  C7  UNL     1       5.569  -1.898  -0.202  1.00  0.00     0.151 C 
HETATM   22  C8  UNL     1       6.046   0.193   1.148  1.00  0.00     0.151 C 
ENDBRANCH  18  20
ENDBRANCH  16  18
ENDBRANCH  14  16
ENDBRANCH  11  12
ENDBRANCH   9  11
BRANCH   1  23
HETATM   23  N1  UNL     1      -5.981  -1.156  -0.517  1.00  0.00    -0.144 NA
HETATM   24  C1  UNL     1      -6.440  -2.469  -0.154  1.00  0.00     0.159 C 
ENDBRANCH   1  23
TORSDOF 6
