REMARK  6 active torsions:
REMARK  status: ('A' for Active; 'I' for Inactive)
REMARK    1  A    between atoms: S1_2  and  C1_4 
REMARK    2  A    between atoms: S1_2  and  N2_18 
REMARK    3  A    between atoms: C1_4  and  C2_5 
REMARK    4  A    between atoms: N1_12  and  C9_13 
REMARK    5  A    between atoms: C9_13  and  C10_14 
REMARK    6  A    between atoms: N2_18  and  C13_20 
ROOT
HETATM    1  C2  UNL     1      -0.757  -0.854  -0.021  1.00  0.00     0.001 C 
HETATM    2  C3  UNL     1      -0.059   0.007   0.967  1.00  0.00     0.012 C 
HETATM    3  C4  UNL     1      -0.888   0.529   2.086  1.00  0.00     0.007 C 
HETATM    4  C5  UNL     1      -2.204  -0.190   2.244  1.00  0.00     0.014 C 
HETATM    5  C6  UNL     1      -2.049  -1.665   2.003  1.00  0.00     0.007 C 
HETATM    6  C7  UNL     1      -1.290  -2.059   0.805  1.00  0.00     0.012 C 
HETATM    7  C8  UNL     1      -3.190   0.425   1.275  1.00  0.00     0.277 C 
HETATM    8  N1  UNL     1      -2.413   0.930   0.164  1.00  0.00     0.092 N 
HETATM    9  C12 UNL     1      -1.982  -0.201  -0.623  1.00  0.00     0.283 C 
ENDROOT
BRANCH   1  10
HETATM   10  C1  UNL     1       0.136  -1.498  -1.013  1.00  0.00     0.174 C 
BRANCH  10  11
HETATM   11  S1  UNL     1       1.118  -0.554  -2.061  1.00  0.00     0.227 S 
HETATM   12  O1  UNL     1       0.181   0.311  -2.922  1.00  0.00    -0.206 OA
HETATM   13  O2  UNL     1       1.675  -1.534  -3.125  1.00  0.00    -0.206 OA
BRANCH  11  14
HETATM   14  N2  UNL     1       2.302   0.442  -1.466  1.00  0.00    -0.315 N 
ATOM     15  H2  UNL     1       2.231   1.446  -1.631  1.00  0.00     0.172 HD
BRANCH  14  16
HETATM   16  C13 UNL     1       3.400  -0.050  -0.742  1.00  0.00     0.097 C 
HETATM   17  C14 UNL     1       3.645   0.556   0.620  1.00  0.00     0.052 C 
HETATM   18  C15 UNL     1       5.131   0.500   0.916  1.00  0.00     0.169 C 
HETATM   19  O4  UNL     1       5.612  -0.757   0.562  1.00  0.00    -0.391 OA
HETATM   20  C16 UNL     1       5.691  -0.863  -0.822  1.00  0.00     0.169 C 
HETATM   21  C17 UNL     1       4.708   0.019  -1.554  1.00  0.00     0.052 C 
ENDBRANCH  14  16
ENDBRANCH  11  14
ENDBRANCH  10  11
ENDBRANCH   1  10
BRANCH   8  22
HETATM   22  C9  UNL     1      -3.161   1.902  -0.550  1.00  0.00     0.306 C 
BRANCH  22  23
HETATM   23  C10 UNL     1      -4.354   1.391  -1.297  1.00  0.00     0.173 A 
HETATM   24  C11 UNL     1      -5.741   1.738  -0.972  1.00  0.00     0.201 A 
HETATM   25  O3  UNL     1      -5.051   2.399  -1.981  1.00  0.00    -0.379 OA
ENDBRANCH  22  23
ENDBRANCH   8  22
TORSDOF 6
