REMARK  5 active torsions:
REMARK  status: ('A' for Active; 'I' for Inactive)
REMARK    1  A    between atoms: C2_2  and  C3_3 
REMARK       I    between atoms: C3_3  and  N1_5 
REMARK       I    between atoms: N1_5  and  C4_7 
REMARK    2  A    between atoms: C4_7  and  C5_9 
REMARK    3  A    between atoms: C5_9  and  N2_10 
REMARK    4  A    between atoms: N3_16  and  C11_17 
REMARK    5  A    between atoms: C11_17  and  C12_18 
ROOT
HETATM    1  N2  UNL     1       2.592  -1.753  -0.485  1.00  0.00     0.100 N 
HETATM    2  C6  UNL     1       1.604  -2.791  -0.848  1.00  0.00     0.276 C 
HETATM    3  C7  UNL     1       0.526  -1.856  -1.416  1.00  0.00     0.072 C 
HETATM    4  C8  UNL     1       0.410  -0.885  -0.234  1.00  0.00     0.115 C 
HETATM    5  C9  UNL     1       1.762  -0.931   0.412  1.00  0.00     0.312 C 
HETATM    6  C10 UNL     1      -0.664  -1.419   0.650  1.00  0.00     0.312 C 
HETATM    7  N3  UNL     1      -1.773  -0.478   0.880  1.00  0.00     0.093 N 
HETATM    8  C18 UNL     1      -1.186   0.751   1.235  1.00  0.00     0.298 C 
HETATM    9  C19 UNL     1      -0.247   1.285   0.159  1.00  0.00     0.199 C 
HETATM   10  O3  UNL     1       0.166   0.357  -0.748  1.00  0.00    -0.375 OA
ENDROOT
BRANCH   1  11
HETATM   11  C5  UNL     1       3.582  -2.346   0.405  1.00  0.00     0.375 C 
BRANCH  11  12
HETATM   12  C4  UNL     1       4.713  -1.433   0.569  1.00  0.00     0.252 C 
HETATM   13  N1  UNL     1       4.837  -0.191  -0.109  1.00  0.00    -0.296 N 
HETATM   14  C3  UNL     1       6.009   0.629   0.103  1.00  0.00     0.223 C 
ATOM     15  H1  UNL     1       4.102   0.121  -0.743  1.00  0.00     0.171 HD
HETATM   16  O1  UNL     1       6.893   0.257   0.908  1.00  0.00    -0.273 OA
HETATM   17  O2  UNL     1       5.667  -1.737   1.354  1.00  0.00    -0.271 OA
BRANCH  14  18
HETATM   18  C2  UNL     1       6.174   1.903  -0.626  1.00  0.00     0.099 C 
HETATM   19  C1  UNL     1       7.516   2.501  -0.253  1.00  0.00     0.014 C 
ENDBRANCH  14  18
ENDBRANCH  11  12
ENDBRANCH   1  11
BRANCH   7  20
HETATM   20  C11 UNL     1      -2.736  -0.592  -0.128  1.00  0.00     0.277 C 
BRANCH  20  21
HETATM   21  C12 UNL     1      -4.071   0.038   0.027  1.00  0.00     0.014 C 
HETATM   22  C13 UNL     1      -4.045   1.490   0.165  1.00  0.00     0.006 C 
HETATM   23  C14 UNL     1      -5.265   2.174  -0.480  1.00  0.00     0.000 C 
HETATM   24  C15 UNL     1      -6.437   1.317  -0.073  1.00  0.00     0.000 C 
HETATM   25  C16 UNL     1      -6.381   0.085  -0.957  1.00  0.00     0.000 C 
HETATM   26  C17 UNL     1      -5.010  -0.507  -1.019  1.00  0.00     0.006 C 
ENDBRANCH  20  21
ENDBRANCH   7  20
TORSDOF 5
