REMARK  6 active torsions:
REMARK  status: ('A' for Active; 'I' for Inactive)
REMARK    1  A    between atoms: C1_2  and  C2_3 
REMARK       I    between atoms: C1_2  and  N2_18 
REMARK    2  A    between atoms: C2_3  and  O2_4 
REMARK    3  A    between atoms: O2_4  and  C3_5 
REMARK    4  A    between atoms: C3_5  and  C4_7 
REMARK       I    between atoms: N1_11  and  C8_12 
REMARK    5  A    between atoms: C8_12  and  C9_14 
REMARK    6  A    between atoms: N2_18  and  C13_20 
ROOT
HETATM    1  C3  UNL     1      -0.372  -0.721  -0.241  1.00  0.00     0.265 C 
HETATM    2  O3  UNL     1       0.111   0.215  -0.919  1.00  0.00    -0.265 OA
ENDROOT
BRANCH   1   3
HETATM    3  O2  UNL     1       0.454  -1.752   0.152  1.00  0.00    -0.312 OA
BRANCH   3   4
HETATM    4  C2  UNL     1       1.828  -1.863  -0.137  1.00  0.00     0.281 C 
BRANCH   4   5
HETATM    5  C1  UNL     1       2.633  -0.751   0.416  1.00  0.00     0.242 C 
HETATM    6  O1  UNL     1       2.144   0.198   1.098  1.00  0.00    -0.271 OA
HETATM    7  N2  UNL     1       4.052  -0.681   0.208  1.00  0.00    -0.354 N 
ATOM      8  H2  UNL     1       4.495  -1.422  -0.335  1.00  0.00     0.162 HD
BRANCH   7   9
HETATM    9  C13 UNL     1       4.880   0.369   0.719  1.00  0.00     0.093 C 
HETATM   10  C14 UNL     1       5.564   1.165  -0.329  1.00  0.00     0.026 C 
HETATM   11  C15 UNL     1       6.968   0.773  -0.621  1.00  0.00     0.012 C 
HETATM   12  C16 UNL     1       7.186  -0.704  -0.752  1.00  0.00     0.074 C 
HETATM   13  S1  UNL     1       6.859  -1.434   0.898  1.00  0.00    -0.167 SA
HETATM   14  C17 UNL     1       5.809  -0.205   1.763  1.00  0.00     0.099 C 
ENDBRANCH   7   9
ENDBRANCH   4   5
ENDBRANCH   3   4
ENDBRANCH   1   3
BRANCH   1  15
HETATM   15  C4  UNL     1      -1.790  -0.701   0.117  1.00  0.00     0.103 C 
HETATM   16  C5  UNL     1      -2.506  -1.932  -0.448  1.00  0.00     0.018 C 
HETATM   17  C6  UNL     1      -3.780  -2.041   0.361  1.00  0.00     0.021 C 
HETATM   18  C7  UNL     1      -4.641  -0.869   0.076  1.00  0.00     0.126 C 
HETATM   19  N1  UNL     1      -3.949   0.352  -0.274  1.00  0.00    -0.351 N 
HETATM   20  C8  UNL     1      -4.733   1.502  -0.498  1.00  0.00     0.224 C 
HETATM   21  C12 UNL     1      -2.516   0.483  -0.414  1.00  0.00     0.140 C 
HETATM   22  O4  UNL     1      -4.197   2.584  -0.801  1.00  0.00    -0.273 OA
BRANCH  20  23
HETATM   23  C9  UNL     1      -6.200   1.434  -0.374  1.00  0.00     0.078 A 
HETATM   24  C10 UNL     1      -7.020   2.352  -1.254  1.00  0.00     0.015 A 
HETATM   25  C11 UNL     1      -6.944   2.600   0.194  1.00  0.00     0.015 A 
ENDBRANCH  20  23
ENDBRANCH   1  15
TORSDOF 6
