REMARK  2 active torsions:
REMARK  status: ('A' for Active; 'I' for Inactive)
REMARK    1  A    between atoms: N1_2  and  C3_4 
REMARK    2  A    between atoms: N2_5  and  C4_7 
ROOT
HETATM    1  C4  UNL     1      -0.005   0.257  -0.131  1.00  0.00     0.035 A 
HETATM    2  C5  UNL     1       0.415  -0.034  -1.412  1.00  0.00     0.032 A 
HETATM    3  C6  UNL     1       1.761  -0.260  -1.605  1.00  0.00     0.034 A 
HETATM    4  C7  UNL     1       2.652  -0.199  -0.562  1.00  0.00     0.062 A 
HETATM    5  N3  UNL     1       3.965  -0.429  -0.800  1.00  0.00    -0.317 N 
ATOM      6  H3  UNL     1       4.273  -0.644  -1.748  1.00  0.00     0.169 HD
HETATM    7  C8  UNL     1       4.869  -0.378   0.194  1.00  0.00     0.314 A 
HETATM    8  O1  UNL     1       6.106  -0.596  -0.039  1.00  0.00    -0.262 OA
HETATM    9  C9  UNL     1       4.416  -0.085   1.459  1.00  0.00     0.314 A 
HETATM   10  O2  UNL     1       5.271  -0.040   2.380  1.00  0.00    -0.262 OA
HETATM   11  N4  UNL     1       3.120   0.149   1.731  1.00  0.00    -0.317 N 
ATOM     12  H4  UNL     1       2.818   0.364   2.681  1.00  0.00     0.169 HD
HETATM   13  C10 UNL     1       2.227   0.094   0.722  1.00  0.00     0.064 A 
HETATM   14  C11 UNL     1       0.887   0.320   0.920  1.00  0.00     0.061 A 
ENDROOT
BRANCH   1  15
HETATM   15  N2  UNL     1      -1.381   0.499   0.123  1.00  0.00    -0.352 N 
HETATM   16  C3  UNL     1      -2.322  -0.215  -0.397  1.00  0.00     0.178 C 
ATOM     17  H2  UNL     1      -1.636   1.269   0.742  1.00  0.00     0.166 HD
BRANCH  16  18
HETATM   18  N1  UNL     1      -3.666   0.095  -0.090  1.00  0.00    -0.386 N 
HETATM   19  C1  UNL     1      -4.528  -0.944   0.410  1.00  0.00     0.149 C 
HETATM   20  C2  UNL     1      -4.145   1.439  -0.283  1.00  0.00     0.149 C 
ENDBRANCH  16  18
ENDBRANCH   1  15
TORSDOF 2
