REMARK  3 active torsions:
REMARK  status: ('A' for Active; 'I' for Inactive)
REMARK    1  A    between atoms: C3_3  and  C4_4 
REMARK    2  A    between atoms: C4_4  and  C5_5 
REMARK    3  A    between atoms: C7_9  and  N2_10 
REMARK       I    between atoms: N2_10  and  C8_12 
REMARK       I    between atoms: C8_12  and  N3_13 
REMARK       I    between atoms: C8_12  and  N4_17 
ROOT
HETATM    1  C5  UNL     1       0.063  -0.071  -1.336  1.00  0.00     0.024 A 
HETATM    2  C6  UNL     1       0.537   1.157  -1.736  1.00  0.00     0.109 A 
HETATM    3  N1  UNL     1       1.770   1.474  -1.417  1.00  0.00    -0.345 N 
ATOM      4  H1  UNL     1       2.168   2.373  -1.690  1.00  0.00     0.167 HD
HETATM    5  C7  UNL     1       2.488   0.587  -0.726  1.00  0.00     0.147 A 
HETATM    6  S1  UNL     1       1.417  -0.716  -0.517  1.00  0.00    -0.053 SA
ENDROOT
BRANCH   5   7
HETATM    7  N2  UNL     1       3.737   0.726  -0.317  1.00  0.00    -0.321 N 
HETATM    8  C8  UNL     1       4.371  -0.344   0.429  1.00  0.00     0.482 C 
HETATM    9  N3  UNL     1       4.672   0.008   1.782  1.00  0.00    -0.033 N 
HETATM   10  N4  UNL     1       5.598  -0.680  -0.272  1.00  0.00    -0.033 N 
ATOM     11  H33 UNL     1       5.236   0.857   1.818  1.00  0.00     0.278 HD
ATOM     12  H32 UNL     1       3.836   0.339   2.264  1.00  0.00     0.278 HD
ATOM     13  H31 UNL     1       5.118  -0.745   2.307  1.00  0.00     0.278 HD
ATOM     14  H43 UNL     1       5.448  -0.910  -1.254  1.00  0.00     0.278 HD
ATOM     15  H42 UNL     1       6.209   0.123  -0.418  1.00  0.00     0.278 HD
ATOM     16  H41 UNL     1       6.044  -1.433   0.253  1.00  0.00     0.278 HD
ATOM     17  H2  UNL     1       4.252   1.581  -0.525  1.00  0.00     0.165 HD
ENDBRANCH   5   7
BRANCH   1  18
HETATM   18  C4  UNL     1      -1.253  -0.657  -1.597  1.00  0.00     0.034 C 
BRANCH  18  19
HETATM   19  C3  UNL     1      -2.292  -0.617  -0.864  1.00  0.00    -0.007 A 
HETATM   20  C2  UNL     1      -2.561  -0.056   0.356  1.00  0.00     0.034 A 
HETATM   21  C1  UNL     1      -1.774   0.635   1.150  1.00  0.00     0.044 C 
HETATM   22  N5  UNL     1      -3.867  -0.326   0.678  1.00  0.00    -0.361 N 
HETATM   23  C10 UNL     1      -4.447  -1.044  -0.296  1.00  0.00     0.091 A 
HETATM   24  C11 UNL     1      -4.535   0.096   1.891  1.00  0.00     0.155 C 
HETATM   25  C9  UNL     1      -3.498  -1.234  -1.254  1.00  0.00     0.031 A 
ENDBRANCH  18  19
ENDBRANCH   1  18
TORSDOF 3
