REMARK  4 active torsions:
REMARK  status: ('A' for Active; 'I' for Inactive)
REMARK    1  A    between atoms: N1_1  and  S1_4 
REMARK    2  A    between atoms: S1_4  and  C1_7 
REMARK    3  A    between atoms: C4_10  and  N2_11 
REMARK    4  A    between atoms: N2_11  and  C5_13 
ROOT
HETATM    1  C1  UNL     1      -2.036   0.388  -0.317  1.00  0.00     0.079 A 
HETATM    2  C2  UNL     1      -1.443   0.329  -1.559  1.00  0.00     0.027 A 
HETATM    3  C3  UNL     1      -0.163  -0.169  -1.721  1.00  0.00     0.031 A 
HETATM    4  C4  UNL     1       0.532  -0.617  -0.614  1.00  0.00     0.049 A 
HETATM    5  C7  UNL     1      -0.080  -0.550   0.619  1.00  0.00     0.031 A 
HETATM    6  C8  UNL     1      -1.343  -0.060   0.790  1.00  0.00     0.027 A 
ENDROOT
BRANCH   4   7
HETATM    7  N2  UNL     1       1.861  -1.138  -0.762  1.00  0.00    -0.190 N 
ATOM      8  H2  UNL     1       2.070  -1.886  -1.423  1.00  0.00     0.184 HD
BRANCH   7   9
HETATM    9  C5  UNL     1       2.790  -0.610  -0.012  1.00  0.00     0.698 A 
HETATM   10  N3  UNL     1       2.689   0.366   0.896  1.00  0.00    -0.185 N 
HETATM   11  C6  UNL     1       3.899   0.594   1.433  1.00  0.00     0.215 A 
ATOM     12  H3  UNL     1       1.830   0.859   1.142  1.00  0.00     0.185 HD
HETATM   13  N4  UNL     1       4.756  -0.255   0.846  1.00  0.00    -0.281 N 
HETATM   14  N5  UNL     1       4.068  -0.973  -0.023  1.00  0.00    -0.131 N 
ATOM     15  H4  UNL     1       5.755  -0.332   1.036  1.00  0.00     0.188 HD
ATOM     16  H5  UNL     1       4.462  -1.702  -0.618  1.00  0.00     0.205 HD
ENDBRANCH   7   9
ENDBRANCH   4   7
BRANCH   1  17
HETATM   17  S1  UNL     1      -3.670   1.026  -0.126  1.00  0.00     0.256 S 
HETATM   18  O1  UNL     1      -3.942   2.094  -1.170  1.00  0.00    -0.201 OA
HETATM   19  O2  UNL     1      -3.787   1.610   1.255  1.00  0.00    -0.201 OA
BRANCH  17  20
HETATM   20  N1  UNL     1      -4.791  -0.291  -0.291  1.00  0.00    -0.324 N 
ATOM     21  H12 UNL     1      -5.526  -0.327  -0.998  1.00  0.00     0.169 HD
ATOM     22  H11 UNL     1      -4.608  -1.009   0.410  1.00  0.00     0.169 HD
ENDBRANCH  17  20
ENDBRANCH   1  17
TORSDOF 4
