REMARK  3 active torsions:
REMARK  status: ('A' for Active; 'I' for Inactive)
REMARK    1  A    between atoms: S1_2  and  C2_5 
REMARK    2  A    between atoms: C5_8  and  N1_9 
REMARK    3  A    between atoms: N1_9  and  C6_11 
ROOT
HETATM    1  N1  UNL     1      -1.874  -0.773  -1.097  1.00  0.00    -0.190 N 
ATOM      2  H1  UNL     1      -1.995  -1.296  -1.964  1.00  0.00     0.184 HD
ENDROOT
BRANCH   1   3
HETATM    3  C5  UNL     1      -0.568  -0.518  -0.587  1.00  0.00     0.049 A 
HETATM    4  C4  UNL     1      -0.046   0.759  -0.622  1.00  0.00     0.031 A 
HETATM    5  C3  UNL     1       1.203   0.997  -0.133  1.00  0.00     0.025 A 
HETATM    6  C2  UNL     1       1.996  -0.006   0.410  1.00  0.00     0.059 A 
HETATM    7  C9  UNL     1       1.478  -1.266   0.443  1.00  0.00     0.025 A 
HETATM    8  C8  UNL     1       0.218  -1.515  -0.048  1.00  0.00     0.031 A 
BRANCH   6   9
HETATM    9  S1  UNL     1       3.586   0.360   1.020  1.00  0.00     0.171 S 
HETATM   10  C1  UNL     1       4.763   0.173  -0.301  1.00  0.00     0.167 C 
HETATM   11  O1  UNL     1       3.891  -0.642   2.110  1.00  0.00    -0.223 OA
HETATM   12  O2  UNL     1       3.698   1.741   1.554  1.00  0.00    -0.223 OA
ENDBRANCH   6   9
ENDBRANCH   1   3
BRANCH   1  13
HETATM   13  C6  UNL     1      -2.900  -0.337  -0.452  1.00  0.00     0.701 A 
HETATM   14  N2  UNL     1      -2.879   0.365   0.704  1.00  0.00    -0.128 N 
HETATM   15  N3  UNL     1      -4.106   0.642   1.075  1.00  0.00    -0.237 N 
ATOM     16  H2  UNL     1      -2.037   0.638   1.210  1.00  0.00     0.205 HD
HETATM   17  C7  UNL     1      -4.967   0.134   0.180  1.00  0.00     0.353 A 
ATOM     18  H3  UNL     1      -4.365   1.162   1.913  1.00  0.00     0.192 HD
HETATM   19  O3  UNL     1      -6.228   0.203   0.205  1.00  0.00    -0.245 OA
HETATM   20  N4  UNL     1      -4.203  -0.463  -0.750  1.00  0.00    -0.139 N 
ATOM     21  H4  UNL     1      -4.564  -0.947  -1.572  1.00  0.00     0.189 HD
ENDBRANCH   1  13
TORSDOF 3
