REMARK  3 active torsions:
REMARK  status: ('A' for Active; 'I' for Inactive)
REMARK    1  A    between atoms: S1_2  and  N1_4 
REMARK    2  A    between atoms: S1_2  and  C5_18 
REMARK    3  A    between atoms: N1_4  and  C1_6 
ROOT
HETATM    1  C1  UNL     1       1.506   0.728  -0.239  1.00  0.00     0.145 A 
HETATM    2  N2  UNL     1       2.022   1.822  -0.874  1.00  0.00    -0.282 N 
ATOM      3  H2  UNL     1       1.477   2.559  -1.321  1.00  0.00     0.188 HD
HETATM    4  N3  UNL     1       3.323   1.771  -0.816  1.00  0.00    -0.282 N 
ATOM      5  H3  UNL     1       3.938   2.478  -1.219  1.00  0.00     0.188 HD
HETATM    6  C2  UNL     1       3.762   0.681  -0.164  1.00  0.00     0.150 A 
HETATM    7  N4  UNL     1       4.779  -0.054   0.292  1.00  0.00    -0.284 N 
ATOM      8  H4  UNL     1       5.766   0.177   0.177  1.00  0.00     0.188 HD
HETATM    9  N5  UNL     1       4.320  -1.123   0.913  1.00  0.00    -0.309 N 
ATOM     10  H5  UNL     1       4.891  -1.846   1.351  1.00  0.00     0.186 HD
HETATM   11  C3  UNL     1       2.965  -1.105   0.874  1.00  0.00     0.126 A 
HETATM   12  C4  UNL     1       2.586   0.017   0.203  1.00  0.00     0.073 A 
ENDROOT
BRANCH   1  13
HETATM   13  N1  UNL     1       0.259   0.531  -0.150  1.00  0.00    -0.264 N 
ATOM     14  H1  UNL     1      -0.337   1.238  -0.581  1.00  0.00     0.180 HD
BRANCH  13  15
HETATM   15  S1  UNL     1      -0.543  -0.762   0.596  1.00  0.00     0.265 S 
HETATM   16  O1  UNL     1      -0.252  -2.097  -0.002  1.00  0.00    -0.200 OA
HETATM   17  O2  UNL     1      -0.226  -0.719   2.084  1.00  0.00    -0.200 OA
BRANCH  15  18
HETATM   18  C5  UNL     1      -2.296  -0.547   0.483  1.00  0.00     0.095 A 
HETATM   19  C6  UNL     1      -3.033   0.110   1.424  1.00  0.00     0.028 A 
HETATM   20  C7  UNL     1      -4.403   0.221   1.237  1.00  0.00     0.019 A 
HETATM   21  C8  UNL     1      -5.043  -0.308   0.137  1.00  0.00     0.087 A 
HETATM   22  N6  UNL     1      -4.291  -0.950  -0.771  1.00  0.00    -0.374 N 
HETATM   23  C9  UNL     1      -2.948  -1.069  -0.607  1.00  0.00     0.112 A 
ATOM     24  H6  UNL     1      -4.735  -1.354  -1.596  1.00  0.00     0.164 HD
ENDBRANCH  15  18
ENDBRANCH  13  15
ENDBRANCH   1  13
TORSDOF 3
