REMARK  4 active torsions:
REMARK  status: ('A' for Active; 'I' for Inactive)
REMARK    1  A    between atoms: C4_7  and  N3_8 
REMARK    2  A    between atoms: N3_8  and  C5_10 
REMARK    3  A    between atoms: C8_13  and  S1_14 
REMARK    4  A    between atoms: S1_14  and  N4_15 
ROOT
HETATM    1  N1  UNL     1       6.846  -0.992   0.990  1.00  0.00    -0.190 NA
HETATM    2  C1  UNL     1       5.726  -0.787   0.857  1.00  0.00     0.119 C 
HETATM    3  C2  UNL     1       4.329  -0.543   0.675  1.00  0.00     0.145 A 
HETATM    4  C3  UNL     1       3.350  -1.425   0.275  1.00  0.00     0.147 A 
HETATM    5  N2  UNL     1       2.165  -0.793   0.232  1.00  0.00    -0.199 N 
ATOM      6  H2  UNL     1       1.268  -1.201  -0.030  1.00  0.00     0.183 HD
HETATM    7  C4  UNL     1       2.389   0.475   0.600  1.00  0.00     0.683 A 
HETATM    8  N5  UNL     1       3.705   0.628   0.870  1.00  0.00    -0.180 N 
ATOM      9  H5  UNL     1       4.151   1.494   1.173  1.00  0.00     0.185 HD
ENDROOT
BRANCH   7  10
HETATM   10  N3  UNL     1       1.488   1.381   0.678  1.00  0.00    -0.192 N 
ATOM     11  H3  UNL     1       1.746   2.324   0.968  1.00  0.00     0.184 HD
BRANCH  10  12
HETATM   12  C5  UNL     1       0.132   1.089   0.365  1.00  0.00     0.049 A 
HETATM   13  C6  UNL     1      -0.267   0.783  -0.920  1.00  0.00     0.031 A 
HETATM   14  C7  UNL     1      -1.586   0.500  -1.219  1.00  0.00     0.027 A 
HETATM   15  C8  UNL     1      -2.573   0.509  -0.243  1.00  0.00     0.079 A 
HETATM   16  C9  UNL     1      -2.171   0.815   1.040  1.00  0.00     0.027 A 
HETATM   17  C10 UNL     1      -0.855   1.098   1.338  1.00  0.00     0.031 A 
BRANCH  15  18
HETATM   18  S1  UNL     1      -4.247   0.153  -0.608  1.00  0.00     0.256 S 
HETATM   19  O1  UNL     1      -5.163   0.855   0.373  1.00  0.00    -0.201 OA
HETATM   20  O2  UNL     1      -4.629   0.625  -1.976  1.00  0.00    -0.201 OA
BRANCH  18  21
HETATM   21  N4  UNL     1      -4.579  -1.545  -0.450  1.00  0.00    -0.324 N 
ATOM     22  H42 UNL     1      -3.877  -2.234  -0.178  1.00  0.00     0.169 HD
ATOM     23  H41 UNL     1      -5.555  -1.753  -0.663  1.00  0.00     0.169 HD
ENDBRANCH  18  21
ENDBRANCH  15  18
ENDBRANCH  10  12
ENDBRANCH   7  10
TORSDOF 4
