REMARK  3 active torsions:
REMARK  status: ('A' for Active; 'I' for Inactive)
REMARK    1  A    between atoms: C6_7  and  S1_8 
REMARK    2  A    between atoms: S1_8  and  N2_11 
REMARK    3  A    between atoms: N2_11  and  C7_13 
ROOT
HETATM    1  S1  UNL     1      -0.388   0.963  -0.758  1.00  0.00     0.266 S 
HETATM    2  O1  UNL     1      -0.271   0.865  -2.262  1.00  0.00    -0.200 OA
HETATM    3  O2  UNL     1      -0.268   2.444  -0.443  1.00  0.00    -0.200 OA
ENDROOT
BRANCH   1   4
HETATM    4  C6  UNL     1      -2.070   0.572  -0.303  1.00  0.00     0.103 A 
HETATM    5  C1  UNL     1      -2.505  -0.705  -0.551  1.00  0.00     0.069 A 
HETATM    6  N1  UNL     1      -1.653  -1.664  -1.143  1.00  0.00    -0.101 NA
HETATM    7  C2  UNL     1      -3.803  -1.075  -0.220  1.00  0.00     0.028 A 
HETATM    8  C3  UNL     1      -4.666  -0.166   0.360  1.00  0.00     0.002 A 
HETATM    9  C4  UNL     1      -4.198   1.113   0.598  1.00  0.00     0.002 A 
HETATM   10  C5  UNL     1      -2.908   1.484   0.270  1.00  0.00     0.027 A 
ENDBRANCH   1   4
BRANCH   1  11
HETATM   11  N2  UNL     1       0.605  -0.048   0.089  1.00  0.00    -0.264 N 
ATOM     12  H2  UNL     1       0.046  -0.770   0.543  1.00  0.00     0.180 HD
BRANCH  11  13
HETATM   13  C7  UNL     1       1.798  -0.223   0.357  1.00  0.00     0.139 A 
HETATM   14  N3  UNL     1       2.162  -1.284   1.167  1.00  0.00    -0.350 N 
HETATM   15  C8  UNL     1       3.429  -1.537   1.499  1.00  0.00     0.090 A 
ATOM     16  H3  UNL     1       1.431  -1.898   1.525  1.00  0.00     0.166 HD
HETATM   17  C9  UNL     1       4.489  -0.773   1.071  1.00  0.00     0.019 A 
HETATM   18  C10 UNL     1       4.179   0.291   0.265  1.00  0.00     0.032 A 
HETATM   19  C11 UNL     1       2.841   0.546  -0.077  1.00  0.00     0.091 A 
HETATM   20  N4  UNL     1       2.602   1.678  -0.922  1.00  0.00    -0.098 NA
ENDBRANCH  11  13
ENDBRANCH   1  11
TORSDOF 3
