REMARK  4 active torsions:
REMARK  status: ('A' for Active; 'I' for Inactive)
REMARK    1  A    between atoms: O1_2  and  C2_3 
REMARK    2  A    between atoms: C7_8  and  C8_9 
REMARK    3  A    between atoms: N1_10  and  O2_12 
REMARK    4  A    between atoms: C10_14  and  N2_15 
ROOT
HETATM    1  C2  UNL     1       0.595   0.926  -0.229  1.00  0.00     0.082 A 
HETATM    2  C3  UNL     1      -0.725   1.284  -0.174  1.00  0.00     0.069 A 
HETATM    3  C4  UNL     1      -1.687   0.335   0.094  1.00  0.00     0.067 A 
HETATM    4  C5  UNL     1      -1.290  -0.963   0.300  1.00  0.00     0.038 A 
HETATM    5  C6  UNL     1       0.058  -1.309   0.240  1.00  0.00     0.033 A 
HETATM    6  C7  UNL     1       1.042  -0.396  -0.023  1.00  0.00     0.016 A 
HETATM    7  C10 UNL     1      -2.402  -1.734   0.548  1.00  0.00     0.126 A 
HETATM    8  N3  UNL     1      -3.453  -0.888   0.487  1.00  0.00    -0.283 N 
ATOM      9  H3  UNL     1      -4.428  -1.154   0.627  1.00  0.00     0.189 HD
HETATM   10  N4  UNL     1      -3.032   0.331   0.220  1.00  0.00    -0.294 N 
HETATM   11  C11 UNL     1      -3.891   1.470   0.086  1.00  0.00     0.178 C 
ENDROOT
BRANCH   6  12
HETATM   12  C8  UNL     1       2.458  -0.667  -0.104  1.00  0.00     0.130 C 
HETATM   13  N1  UNL     1       3.066  -1.749   0.042  1.00  0.00    -0.276 N 
HETATM   14  C9  UNL     1       4.537  -1.842  -0.077  1.00  0.00     0.184 C 
BRANCH  13  15
HETATM   15  O2  UNL     1       2.458  -2.927   0.320  1.00  0.00    -0.288 OA
ATOM     16  H2  UNL     1       2.920  -3.750   0.431  1.00  0.00     0.244 HD
ENDBRANCH  13  15
ENDBRANCH   6  12
BRANCH   1  17
HETATM   17  O1  UNL     1       1.554   1.918  -0.505  1.00  0.00    -0.355 OA
HETATM   18  C1  UNL     1       1.201   3.252  -0.722  1.00  0.00     0.210 C 
ENDBRANCH   1  17
BRANCH   7  19
HETATM   19  N2  UNL     1      -2.395  -2.993   0.784  1.00  0.00    -0.384 N 
ATOM     20  H22 UNL     1      -1.601  -3.632   0.830  1.00  0.00     0.157 HD
ATOM     21  H21 UNL     1      -3.219  -3.565   0.968  1.00  0.00     0.157 HD
ENDBRANCH   7  19
TORSDOF 4
