REMARK  5 active torsions:
REMARK  status: ('A' for Active; 'I' for Inactive)
REMARK    1  A    between atoms: C2_2  and  N1_3 
REMARK    2  A    between atoms: N1_3  and  C3_5 
REMARK    3  A    between atoms: C5_9  and  N3_10 
REMARK    4  A    between atoms: N3_10  and  C6_12 
REMARK    5  A    between atoms: N7_22  and  O1_23 
ROOT
HETATM    1  C3  UNL     1      -2.375  -0.007  -0.486  1.00  0.00     0.720 A 
HETATM    2  N2  UNL     1      -1.988  -1.073   0.238  1.00  0.00    -0.195 N 
ATOM      3  H2  UNL     1      -2.653  -1.558   0.840  1.00  0.00     0.183 HD
HETATM    4  C4  UNL     1      -0.712  -1.490   0.157  1.00  0.00     0.156 A 
HETATM    5  C5  UNL     1       0.227  -0.861  -0.648  1.00  0.00     0.140 A 
HETATM    6  N6  UNL     1      -0.204   0.200  -1.355  1.00  0.00    -0.242 N 
ATOM      7  H6  UNL     1       0.448   0.695  -1.963  1.00  0.00     0.192 HD
HETATM    8  N7  UNL     1      -1.459   0.612  -1.276  1.00  0.00     0.018 N 
ENDROOT
BRANCH   5   9
HETATM    9  N3  UNL     1       1.578  -1.323  -0.718  1.00  0.00    -0.325 N 
ATOM     10  H3  UNL     1       1.809  -2.248  -1.080  1.00  0.00     0.169 HD
BRANCH   9  11
HETATM   11  C6  UNL     1       2.490  -0.512  -0.300  1.00  0.00     0.123 A 
HETATM   12  C7  UNL     1       3.845  -0.846  -0.316  1.00  0.00     0.075 A 
HETATM   13  C8  UNL     1       4.499   0.259   0.202  1.00  0.00     0.025 A 
HETATM   14  C9  UNL     1       5.969   0.346   0.370  1.00  0.00     0.070 C 
HETATM   15  N4  UNL     1       3.588   1.194   0.507  1.00  0.00    -0.304 N 
HETATM   16  N5  UNL     1       2.402   0.721   0.204  1.00  0.00    -0.285 N 
ATOM     17  H4  UNL     1       3.783   2.113   0.905  1.00  0.00     0.186 HD
ATOM     18  H5  UNL     1       1.527   1.229   0.336  1.00  0.00     0.188 HD
ENDBRANCH   9  11
ENDBRANCH   5   9
BRANCH   8  19
HETATM   19  O1  UNL     1      -1.881   1.713  -2.017  1.00  0.00    -0.254 OA
ATOM     20  H1  UNL     1      -1.241   2.146  -2.569  1.00  0.00     0.247 HD
ENDBRANCH   8  19
BRANCH   1  21
HETATM   21  N1  UNL     1      -3.577   0.455  -0.465  1.00  0.00    -0.223 N 
ATOM     22  H1  UNL     1      -3.817   1.267  -1.034  1.00  0.00     0.177 HD
BRANCH  21  23
HETATM   23  C2  UNL     1      -4.578  -0.161   0.350  1.00  0.00     0.134 C 
HETATM   24  C1  UNL     1      -5.829   0.723   0.323  1.00  0.00     0.027 C 
ENDBRANCH  21  23
ENDBRANCH   1  21
TORSDOF 5
