REMARK  10 active torsions:
REMARK  status: ('A' for Active; 'I' for Inactive)
REMARK    1  A    between atoms: N1_1  and  N2_4 
REMARK    2  A    between atoms: C2_9  and  O2_10 
REMARK    3  A    between atoms: C3_12  and  C4_13 
REMARK    4  A    between atoms: N4_14  and  N5_16 
REMARK    5  A    between atoms: N5_16  and  C5_18 
REMARK    6  A    between atoms: C6_23  and  N8_24 
REMARK    7  A    between atoms: N8_24  and  O3_26 
REMARK    8  A    between atoms: O3_26  and  C7_27 
REMARK    9  A    between atoms: C9_29  and  O4_30 
REMARK   10  A    between atoms: C10_32  and  C11_33 
ROOT
HETATM    1  C5  UNL     1      -0.447  -0.666  -0.355  1.00  0.00     0.726 A 
HETATM    2  N6  UNL     1      -0.786  -1.486   0.644  1.00  0.00    -0.116 N 
ATOM      3  H6  UNL     1      -1.731  -1.594   1.013  1.00  0.00     0.206 HD
HETATM    4  N7  UNL     1       0.261  -2.130   1.082  1.00  0.00    -0.115 N 
ATOM      5  H7  UNL     1       0.268  -2.814   1.839  1.00  0.00     0.206 HD
HETATM    6  C6  UNL     1       1.321  -1.741   0.370  1.00  0.00     0.732 A 
HETATM    7  N9  UNL     1       0.871  -0.836  -0.515  1.00  0.00    -0.017 N 
ATOM      8  H9  UNL     1       1.446  -0.352  -1.204  1.00  0.00     0.203 HD
ENDROOT
BRANCH   1   9
HETATM    9  N5  UNL     1      -1.282   0.209  -1.108  1.00  0.00    -0.131 N 
ATOM     10  H5  UNL     1      -0.830   0.767  -1.833  1.00  0.00     0.205 HD
BRANCH   9  11
HETATM   11  N4  UNL     1      -2.633   0.373  -0.952  1.00  0.00    -0.296 N 
HETATM   12  C4  UNL     1      -3.356   0.165   0.064  1.00  0.00     0.129 C 
ATOM     13  H4  UNL     1      -3.128   0.713  -1.776  1.00  0.00     0.186 HD
BRANCH  12  14
HETATM   14  C3  UNL     1      -4.810   0.416  -0.005  1.00  0.00     0.102 A 
HETATM   15  C2  UNL     1      -5.351   0.874  -1.174  1.00  0.00     0.161 A 
HETATM   16  N3  UNL     1      -6.666   1.125  -1.321  1.00  0.00    -0.287 N 
HETATM   17  C1  UNL     1      -7.491   0.920  -0.279  1.00  0.00     0.350 A 
ATOM     18  H3  UNL     1      -7.031   1.466  -2.210  1.00  0.00     0.172 HD
HETATM   19  N2  UNL     1      -6.981   0.469   0.887  1.00  0.00    -0.174 N 
HETATM   20  O1  UNL     1      -8.736   1.146  -0.380  1.00  0.00    -0.244 OA
HETATM   21  C13 UNL     1      -5.657   0.210   1.051  1.00  0.00     0.286 A 
HETATM   22  O9  UNL     1      -5.200  -0.209   2.140  1.00  0.00    -0.265 OA
BRANCH  15  23
HETATM   23  O2  UNL     1      -4.524   1.093  -2.261  1.00  0.00    -0.345 OA
ATOM     24  H2  UNL     1      -3.596   0.916  -2.157  1.00  0.00     0.219 HD
ENDBRANCH  15  23
BRANCH  19  25
HETATM   25  N1  UNL     1      -7.873   0.270   1.937  1.00  0.00    -0.332 N 
ATOM     26  H12 UNL     1      -8.867   0.464   1.814  1.00  0.00     0.177 HD
ATOM     27  H11 UNL     1      -7.488  -0.071   2.818  1.00  0.00     0.177 HD
ENDBRANCH  19  25
ENDBRANCH  12  14
ENDBRANCH   9  11
ENDBRANCH   1   9
BRANCH   6  28
HETATM   28  N8  UNL     1       2.671  -2.188   0.514  1.00  0.00    -0.089 N 
ATOM     29  H8  UNL     1       2.963  -3.023   0.006  1.00  0.00     0.213 HD
BRANCH  28  30
HETATM   30  O3  UNL     1       3.589  -1.550   1.300  1.00  0.00    -0.217 OA
BRANCH  30  31
HETATM   31  C7  UNL     1       4.567  -0.719   0.821  1.00  0.00     0.177 A 
HETATM   32  C8  UNL     1       5.757  -1.224   0.365  1.00  0.00     0.085 A 
HETATM   33  C9  UNL     1       6.747  -0.358  -0.123  1.00  0.00     0.109 A 
HETATM   34  C10 UNL     1       6.467   1.000  -0.120  1.00  0.00     0.188 A 
HETATM   35  O7  UNL     1       5.309   1.424   0.330  1.00  0.00    -0.263 OA
HETATM   36  C12 UNL     1       4.371   0.635   0.790  1.00  0.00     0.325 A 
HETATM   37  O8  UNL     1       3.264   1.126   1.214  1.00  0.00    -0.257 OA
BRANCH  33  38
HETATM   38  O4  UNL     1       7.961  -0.835  -0.592  1.00  0.00    -0.358 OA
ATOM     39  H4  UNL     1       8.631  -0.249  -0.922  1.00  0.00     0.217 HD
ENDBRANCH  33  38
BRANCH  34  40
HETATM   40  C11 UNL     1       7.476   1.942  -0.624  1.00  0.00     0.237 C 
HETATM   41  O5  UNL     1       7.248   3.167  -0.632  1.00  0.00    -0.642 OA
HETATM   42  O6  UNL     1       8.668   1.458  -1.083  1.00  0.00    -0.642 OA
ENDBRANCH  34  40
ENDBRANCH  30  31
ENDBRANCH  28  30
ENDBRANCH   6  28
TORSDOF 10
