REMARK  8 active torsions:
REMARK  status: ('A' for Active; 'I' for Inactive)
REMARK    1  A    between atoms: C2_2  and  C3_3 
REMARK    2  A    between atoms: C3_3  and  C4_4 
REMARK    3  A    between atoms: C4_4  and  C5_5 
REMARK    4  A    between atoms: C4_4  and  O1_7 
REMARK    5  A    between atoms: O1_7  and  C6_8 
REMARK    6  A    between atoms: C8_10  and  C9_11 
REMARK    7  A    between atoms: C10_12  and  C11_13 
REMARK    8  A    between atoms: C16_18  and  O2_19 
ROOT
HETATM    1  C6  UNL     1      -1.965  -0.634   0.121  1.00  0.00     0.116 A 
HETATM    2  C7  UNL     1      -0.692  -0.136  -0.137  1.00  0.00     0.069 A 
HETATM    3  C8  UNL     1       0.458  -0.873   0.004  1.00  0.00     0.035 A 
HETATM    4  N1  UNL     1       0.350  -2.144   0.413  1.00  0.00    -0.351 N 
ATOM      5  H1  UNL     1       1.183  -2.721   0.528  1.00  0.00     0.166 HD
HETATM    6  C18 UNL     1      -0.861  -2.647   0.668  1.00  0.00     0.108 A 
HETATM    7  C19 UNL     1      -1.178  -3.943   1.102  1.00  0.00     0.130 A 
HETATM    8 BR1  UNL     1       0.044  -5.350   1.448  1.00  0.00    -0.027 Br
HETATM    9  N2  UNL     1      -2.516  -3.927   1.204  1.00  0.00    -0.251 N 
ATOM     10  H2  UNL     1      -3.088  -4.718   1.499  1.00  0.00     0.195 HD
HETATM   11  O3  UNL     1      -2.972  -2.775   0.877  1.00  0.00    -0.232 OA
HETATM   12  C20 UNL     1      -2.049  -1.933   0.538  1.00  0.00     0.162 A 
ENDROOT
BRANCH   3  13
HETATM   13  C9  UNL     1       1.780  -0.308  -0.280  1.00  0.00     0.030 C 
HETATM   14  C10 UNL     1       2.844  -1.055  -0.129  1.00  0.00     0.014 C 
BRANCH  14  15
HETATM   15  C11 UNL     1       4.204  -0.601  -0.381  1.00  0.00    -0.033 A 
HETATM   16  C12 UNL     1       4.462   0.673  -0.804  1.00  0.00     0.018 A 
HETATM   17  C13 UNL     1       5.754   1.121  -1.049  1.00  0.00    -0.059 A 
HETATM   18  C14 UNL     1       6.023   2.494  -1.504  1.00  0.00     0.048 C 
HETATM   19  C15 UNL     1       6.778   0.227  -0.848  1.00  0.00     0.043 A 
HETATM   20  C16 UNL     1       6.531  -1.056  -0.422  1.00  0.00     0.067 A 
HETATM   21  C17 UNL     1       5.257  -1.484  -0.186  1.00  0.00     0.048 A 
BRANCH  20  22
HETATM   22  O2  UNL     1       7.574  -1.953  -0.222  1.00  0.00    -0.361 OA
ATOM     23  H2  UNL     1       7.403  -2.840   0.072  1.00  0.00     0.217 HD
ENDBRANCH  20  22
ENDBRANCH  14  15
ENDBRANCH   3  13
BRANCH   1  24
HETATM   24  O1  UNL     1      -2.993   0.170  -0.050  1.00  0.00    -0.311 OA
BRANCH  24  25
HETATM   25  C4  UNL     1      -4.398   0.061   0.097  1.00  0.00     0.063 C 
BRANCH  25  26
HETATM   26  C3  UNL     1      -4.775   0.827   1.271  1.00  0.00     0.007 C 
BRANCH  26  27
HETATM   27  C2  UNL     1      -4.911   2.261   1.411  1.00  0.00     0.025 C 
HETATM   28  C1  UNL     1      -5.995   2.992   0.679  1.00  0.00     0.009 C 
ENDBRANCH  26  27
ENDBRANCH  25  26
BRANCH  25  29
HETATM   29  C5  UNL     1      -5.109   0.053  -1.180  1.00  0.00     0.179 C 
HETATM   30 CL1  UNL     1      -5.252   1.473  -2.149  1.00  0.00    -0.123 Cl
ENDBRANCH  25  29
ENDBRANCH  24  25
ENDBRANCH   1  24
TORSDOF 8
