REMARK  3 active torsions:
REMARK  status: ('A' for Active; 'I' for Inactive)
REMARK    1  A    between atoms: C4_8  and  S1_9 
REMARK    2  A    between atoms: S1_9  and  N3_10 
REMARK    3  A    between atoms: C5_15  and  C6_16 
ROOT
HETATM    1  N1  UNL     1       0.505  -2.721   0.498  1.00  0.00    -0.100 NA
HETATM    2  C1  UNL     1      -0.566  -1.938   0.041  1.00  0.00     0.074 A 
HETATM    3  C2  UNL     1      -1.772  -2.546  -0.221  1.00  0.00     0.118 A 
HETATM    4  N2  UNL     1      -2.788  -1.805  -0.661  1.00  0.00    -0.330 N 
ATOM      5  H2  UNL     1      -3.689  -2.240  -0.859  1.00  0.00     0.168 HD
HETATM    6  C3  UNL     1      -2.623  -0.473  -0.845  1.00  0.00     0.269 A 
HETATM    7  O1  UNL     1      -3.612   0.203  -1.267  1.00  0.00    -0.266 OA
HETATM    8  C4  UNL     1      -1.407   0.168  -0.587  1.00  0.00     0.160 A 
HETATM    9  C5  UNL     1      -0.360  -0.591  -0.133  1.00  0.00     0.029 A 
ENDROOT
BRANCH   8  10
HETATM   10  S1  UNL     1      -1.326   1.872  -0.877  1.00  0.00     0.263 S 
HETATM   11  O2  UNL     1       0.030   2.348  -1.302  1.00  0.00    -0.201 OA
HETATM   12  O3  UNL     1      -2.294   2.236  -1.966  1.00  0.00    -0.201 OA
BRANCH  10  13
HETATM   13  N3  UNL     1      -1.843   2.680   0.578  1.00  0.00    -0.324 N 
ATOM     14  H32 UNL     1      -2.138   2.218   1.438  1.00  0.00     0.169 HD
ATOM     15  H31 UNL     1      -1.795   3.684   0.407  1.00  0.00     0.169 HD
ENDBRANCH  10  13
ENDBRANCH   8  10
BRANCH   9  16
HETATM   16  C6  UNL     1       0.925   0.021   0.151  1.00  0.00    -0.022 A 
HETATM   17  C7  UNL     1       1.930  -0.079  -0.806  1.00  0.00     0.012 A 
HETATM   18  C8  UNL     1       3.178   0.493  -0.559  1.00  0.00     0.001 A 
HETATM   19  C9  UNL     1       3.479   1.166   0.604  1.00  0.00     0.000 A 
HETATM   20  C10 UNL     1       2.470   1.253   1.537  1.00  0.00     0.001 A 
HETATM   21  C11 UNL     1       1.228   0.695   1.314  1.00  0.00     0.012 A 
ENDBRANCH   9  16
TORSDOF 3
