REMARK  3 active torsions:
REMARK  status: ('A' for Active; 'I' for Inactive)
REMARK    1  A    between atoms: N1_2  and  O1_3 
REMARK    2  A    between atoms: C2_5  and  C3_6 
REMARK    3  A    between atoms: N2_8  and  C5_9 
ROOT
HETATM    1  C5  UNL     1       1.601  -0.350  -0.009  1.00  0.00     0.056 A 
HETATM    2  C6  UNL     1       1.981  -1.472   0.727  1.00  0.00     0.032 A 
HETATM    3  C7  UNL     1       3.065  -2.211   0.299  1.00  0.00     0.025 A 
HETATM    4  C8  UNL     1       3.781  -1.870  -0.837  1.00  0.00     0.044 A 
HETATM    5  C9  UNL     1       4.906  -2.621  -1.298  1.00  0.00     0.099 C 
HETATM    6  N3  UNL     1       5.809  -3.241  -1.685  1.00  0.00    -0.191 NA
HETATM    7  C10 UNL     1       3.409  -0.762  -1.567  1.00  0.00     0.025 A 
HETATM    8  C11 UNL     1       2.329  -0.034  -1.132  1.00  0.00     0.032 A 
ENDROOT
BRANCH   1   9
HETATM    9  N2  UNL     1       0.490   0.401   0.435  1.00  0.00    -0.158 N 
HETATM   10  C4  UNL     1      -0.776   0.139  -0.031  1.00  0.00     0.131 A 
HETATM   11  C3  UNL     1      -1.875   0.846   0.377  1.00  0.00     0.040 A 
HETATM   12  C13 UNL     1      -1.626   1.868   1.312  1.00  0.00     0.144 A 
HETATM   13  N5  UNL     1      -0.402   2.111   1.754  1.00  0.00    -0.178 N 
HETATM   14  N6  UNL     1      -2.759   2.611   1.745  1.00  0.00    -0.081 NA
HETATM   15  C12 UNL     1       0.641   1.388   1.321  1.00  0.00     0.683 A 
ATOM     16  H5  UNL     1      -0.250   2.857   2.432  1.00  0.00     0.185 HD
HETATM   17  N4  UNL     1       1.838   1.617   1.745  1.00  0.00    -0.234 N 
ATOM     18  H42 UNL     1       2.631   1.067   1.416  1.00  0.00     0.174 HD
ATOM     19  H41 UNL     1       1.953   2.371   2.422  1.00  0.00     0.174 HD
BRANCH  11  20
HETATM   20  C2  UNL     1      -3.193   0.592  -0.091  1.00  0.00     0.132 C 
HETATM   21  N1  UNL     1      -3.678  -0.221  -0.890  1.00  0.00    -0.276 N 
HETATM   22  C1  UNL     1      -3.048  -1.233  -1.651  1.00  0.00     0.184 C 
BRANCH  21  23
HETATM   23  O1  UNL     1      -5.107  -0.129  -1.078  1.00  0.00    -0.288 OA
ATOM     24  H1  UNL     1      -5.530   0.551  -0.567  1.00  0.00     0.244 HD
ENDBRANCH  21  23
ENDBRANCH  11  20
ENDBRANCH   1   9
TORSDOF 3
