REMARK  4 active torsions:
REMARK  status: ('A' for Active; 'I' for Inactive)
REMARK    1  A    between atoms: C11_12  and  O1_13 
REMARK    2  A    between atoms: C14_17  and  C15_18 
REMARK    3  A    between atoms: C14_17  and  O2_24 
REMARK    4  A    between atoms: N2_19  and  N3_21 
ROOT
HETATM    1  C1  UNL     1      -0.851   2.727   2.273  1.00  0.00     0.221 C 
HETATM    2  N1  UNL     1      -0.659   1.741   1.658  1.00  0.00    -0.462 NA
HETATM    3  C2  UNL     1      -0.456   0.555   0.925  1.00  0.00     0.210 C 
HETATM    4  C3  UNL     1       0.353   0.835  -0.287  1.00  0.00     0.000 C 
HETATM    5  C4  UNL     1       1.079   2.115  -0.322  1.00  0.00     0.014 C 
HETATM    6  C5  UNL     1       2.290   1.835   0.538  1.00  0.00     0.010 C 
HETATM    7  C6  UNL     1       2.586   0.375   0.265  1.00  0.00    -0.043 C 
HETATM    8  C7  UNL     1       3.854   0.338  -0.585  1.00  0.00     0.015 C 
HETATM    9  C8  UNL     1       2.909  -0.342   1.550  1.00  0.00     0.015 C 
HETATM   10  C9  UNL     1       1.477  -0.177  -0.508  1.00  0.00     0.007 C 
HETATM   11  C10 UNL     1       0.948  -1.503  -0.143  1.00  0.00     0.038 C 
HETATM   12  C11 UNL     1      -0.432  -1.764  -0.631  1.00  0.00     0.126 C 
HETATM   13  C12 UNL     1      -1.327  -0.617  -0.874  1.00  0.00     0.058 C 
HETATM   14  C13 UNL     1      -0.570   0.597  -1.465  1.00  0.00     0.024 C 
HETATM   15  C14 UNL     1      -1.841   0.070   0.377  1.00  0.00     0.132 C 
ENDROOT
BRANCH  15  16
HETATM   16  C15 UNL     1      -2.455  -0.837   1.342  1.00  0.00     0.121 C 
HETATM   17  N2  UNL     1      -3.311  -1.713   1.067  1.00  0.00    -0.319 N 
ATOM     18  H2  UNL     1      -3.639  -2.264   1.860  1.00  0.00     0.185 HD
BRANCH  17  19
HETATM   19  N3  UNL     1      -3.877  -2.042  -0.156  1.00  0.00    -0.346 N 
ATOM     20  H32 UNL     1      -3.536  -1.480  -0.936  1.00  0.00     0.176 HD
ATOM     21  H31 UNL     1      -4.573  -2.754  -0.379  1.00  0.00     0.176 HD
ENDBRANCH  17  19
ENDBRANCH  15  16
BRANCH  15  22
HETATM   22  O2  UNL     1      -2.467   1.240   0.116  1.00  0.00    -0.376 OA
HETATM   23  C16 UNL     1      -3.720   1.292  -0.359  1.00  0.00     0.203 C 
ENDBRANCH  15  22
BRANCH  12  24
HETATM   24  O1  UNL     1      -0.387  -2.503  -1.841  1.00  0.00    -0.395 OA
ATOM     25  H1  UNL     1      -1.269  -2.670  -2.153  1.00  0.00     0.210 HD
ENDBRANCH  12  24
TORSDOF 4
