REMARK  4 active torsions:
REMARK  status: ('A' for Active; 'I' for Inactive)
REMARK       I    between atoms: C1_2  and  N2_4 
REMARK    1  A    between atoms: C2_6  and  N3_7 
REMARK    2  A    between atoms: C2_6  and  C13_19 
REMARK    3  A    between atoms: N3_7  and  C3_9 
REMARK    4  A    between atoms: C15_21  and  C16_22 
ROOT
HETATM    1  N1  UNL     1       2.966  -2.999  -0.604  1.00  0.00    -0.040 NA
HETATM    2  C1  UNL     1       2.622  -2.086  -1.625  1.00  0.00     0.334 C 
HETATM    3  O1  UNL     1       2.182  -2.520  -2.734  1.00  0.00    -0.251 OA
HETATM    4  N2  UNL     1       2.742  -0.692  -1.478  1.00  0.00    -0.300 N 
ATOM      5  H2  UNL     1       3.632  -0.257  -1.721  1.00  0.00     0.171 HD
HETATM    6  C2  UNL     1       1.768   0.084  -1.044  1.00  0.00     0.086 C 
ENDROOT
BRANCH   6   7
HETATM    7  N3  UNL     1       0.565  -0.590  -0.727  1.00  0.00    -0.374 N 
ATOM      8  H3  UNL     1       0.659  -1.548  -0.389  1.00  0.00     0.161 HD
BRANCH   7   9
HETATM    9  C3  UNL     1      -0.767  -0.082  -0.826  1.00  0.00     0.091 C 
HETATM   10  C4  UNL     1      -1.123   1.000   0.127  1.00  0.00     0.009 C 
HETATM   11  C5  UNL     1      -2.490   1.553  -0.243  1.00  0.00     0.011 C 
HETATM   12  C9  UNL     1      -1.240   0.388   1.512  1.00  0.00     0.011 C 
HETATM   13  C6  UNL     1      -3.509   0.449  -0.192  1.00  0.00    -0.013 C 
HETATM   14  C7  UNL     1      -3.614  -0.065   1.209  1.00  0.00     0.009 C 
HETATM   15  C12 UNL     1      -3.140  -0.652  -1.166  1.00  0.00     0.011 C 
HETATM   16  C8  UNL     1      -2.288  -0.672   1.581  1.00  0.00    -0.013 C 
HETATM   17  C10 UNL     1      -1.911  -1.774   0.622  1.00  0.00     0.011 C 
HETATM   18  C11 UNL     1      -1.793  -1.193  -0.747  1.00  0.00     0.009 C 
ENDBRANCH   7   9
ENDBRANCH   6   7
BRANCH   6  19
HETATM   19  C13 UNL     1       1.975   1.524  -0.936  1.00  0.00     0.067 A 
HETATM   20  C14 UNL     1       3.364   2.071  -1.230  1.00  0.00     0.027 A 
HETATM   21  C15 UNL     1       2.685   2.225   0.128  1.00  0.00     0.087 A 
BRANCH  21  22
HETATM   22  C16 UNL     1       3.336   1.609   1.278  1.00  0.00     0.236 C 
HETATM   23  N4  UNL     1       3.791   0.265   1.283  1.00  0.00    -0.062 NA
HETATM   24  O2  UNL     1       3.528   2.258   2.341  1.00  0.00    -0.276 OA
ENDBRANCH  21  22
ENDBRANCH   6  19
TORSDOF 4
