REMARK  3 active torsions:
REMARK  status: ('A' for Active; 'I' for Inactive)
REMARK    1  A    between atoms: C4_4  and  C5_5 
REMARK    2  A    between atoms: N1_6  and  N2_8 
REMARK       I    between atoms: N2_8  and  C6_10 
REMARK       I    between atoms: N4_12  and  C7_14 
REMARK       I    between atoms: N6_16  and  C8_18 
REMARK    3  A    between atoms: C8_18  and  C9_20 
ROOT
HETATM    1  N2  UNL     1       2.771  -0.369  -0.202  1.00  0.00    -0.274 N 
ATOM      2  H2  UNL     1       2.699  -0.679   0.767  1.00  0.00     0.189 HD
HETATM    3  C6  UNL     1       1.955   0.682  -0.685  1.00  0.00     0.209 C 
HETATM    4  N3  UNL     1       2.463   1.925  -1.141  1.00  0.00    -0.062 NA
HETATM    5  N4  UNL     1       0.682   0.500  -0.711  1.00  0.00    -0.303 N 
ATOM      6  H4  UNL     1       0.099   1.261  -1.060  1.00  0.00     0.171 HD
HETATM    7  C7  UNL     1       0.038  -0.683  -0.288  1.00  0.00     0.197 C 
HETATM    8  N5  UNL     1       0.696  -1.928  -0.358  1.00  0.00    -0.063 NA
HETATM    9  N6  UNL     1      -1.159  -0.630   0.165  1.00  0.00    -0.301 N 
ATOM     10  H6  UNL     1      -1.625  -1.484   0.471  1.00  0.00     0.171 HD
HETATM   11  C8  UNL     1      -1.838   0.610   0.243  1.00  0.00     0.228 C 
HETATM   12  O1  UNL     1      -1.216   1.681   0.421  1.00  0.00    -0.273 OA
ENDROOT
BRANCH   1  13
HETATM   13  N1  UNL     1       3.674  -0.973  -1.075  1.00  0.00    -0.313 N 
HETATM   14  C5  UNL     1       4.871  -1.272  -0.767  1.00  0.00     0.085 C 
ATOM     15  H1  UNL     1       3.355  -1.189  -2.020  1.00  0.00     0.185 HD
BRANCH  14  16
HETATM   16  C4  UNL     1       5.406  -0.989   0.584  1.00  0.00     0.030 A 
HETATM   17  C2  UNL     1       6.186   0.233   0.867  1.00  0.00    -0.009 A 
HETATM   18  C1  UNL     1       6.429   1.242  -0.235  1.00  0.00     0.011 C 
HETATM   19  C3  UNL     1       6.884  -1.082   0.729  1.00  0.00     0.015 A 
ENDBRANCH  14  16
ENDBRANCH   1  13
BRANCH  11  20
HETATM   20  C9  UNL     1      -3.336   0.657   0.112  1.00  0.00     0.078 C 
HETATM   21  C10 UNL     1      -3.901  -0.174   1.211  1.00  0.00     0.014 C 
HETATM   22  C11 UNL     1      -5.333   0.063   1.518  1.00  0.00     0.001 C 
HETATM   23  C12 UNL     1      -6.054   0.913   0.506  1.00  0.00     0.000 C 
HETATM   24  C13 UNL     1      -6.120   0.327  -0.854  1.00  0.00     0.000 C 
HETATM   25  C14 UNL     1      -5.023  -0.633  -1.179  1.00  0.00     0.001 C 
HETATM   26  C15 UNL     1      -3.664  -0.003  -1.205  1.00  0.00     0.014 C 
ENDBRANCH  11  20
TORSDOF 3
