REMARK  6 active torsions:
REMARK  status: ('A' for Active; 'I' for Inactive)
REMARK    1  A    between atoms: C3_3  and  C4_4 
REMARK    2  A    between atoms: C5_5  and  C6_6 
REMARK    3  A    between atoms: C6_6  and  O2_8 
REMARK    4  A    between atoms: O2_8  and  C7_9 
REMARK    5  A    between atoms: C7_9  and  C8_10 
REMARK    6  A    between atoms: C11_15  and  O4_16 
ROOT
HETATM    1  C4  UNL     1      -0.320   0.815  -0.472  1.00  0.00     0.084 C 
HETATM    2  C5  UNL     1       0.601  -0.175   0.148  1.00  0.00     0.101 C 
HETATM    3  C9  UNL     1       0.146  -1.577   0.150  1.00  0.00     0.048 C 
HETATM    4  C10 UNL     1      -1.179  -1.882  -0.438  1.00  0.00     0.134 C 
HETATM    5  O3  UNL     1      -1.608  -0.888  -1.350  1.00  0.00    -0.348 OA
HETATM    6  C11 UNL     1      -1.720   0.234  -0.531  1.00  0.00     0.170 C 
HETATM    7  C12 UNL     1      -2.218  -0.236   0.819  1.00  0.00     0.080 C 
HETATM    8  C13 UNL     1      -2.317  -1.722   0.579  1.00  0.00    -0.016 C 
HETATM    9  C14 UNL     1      -3.623  -2.008  -0.086  1.00  0.00     0.018 C 
HETATM   10  C15 UNL     1      -2.138  -2.555   1.783  1.00  0.00     0.018 C 
ENDROOT
BRANCH   2  11
HETATM   11  C6  UNL     1       1.930  -0.070  -0.582  1.00  0.00     0.264 C 
HETATM   12  O1  UNL     1       2.064   0.745  -1.527  1.00  0.00    -0.265 OA
BRANCH  11  13
HETATM   13  O2  UNL     1       2.992  -0.829  -0.254  1.00  0.00    -0.320 OA
BRANCH  13  14
HETATM   14  C7  UNL     1       4.279  -0.953  -0.697  1.00  0.00     0.193 C 
BRANCH  14  15
HETATM   15  C8  UNL     1       5.249   0.153  -0.512  1.00  0.00     0.141 C 
HETATM   16 CL1  UNL     1       4.814   1.627  -1.317  1.00  0.00    -0.128 Cl
ENDBRANCH  14  15
ENDBRANCH  13  14
ENDBRANCH  11  13
ENDBRANCH   2  11
BRANCH   1  17
HETATM   17  C3  UNL     1      -0.300   2.135   0.184  1.00  0.00    -0.020 C 
HETATM   18  C2  UNL     1       0.130   3.190  -0.491  1.00  0.00    -0.034 C 
HETATM   19  C1  UNL     1       0.172   4.561   0.130  1.00  0.00     0.036 C 
ENDBRANCH   1  17
BRANCH   6  20
HETATM   20  O4  UNL     1      -2.633   1.160  -1.044  1.00  0.00    -0.365 OA
ATOM     21  H4  UNL     1      -3.510   0.796  -1.081  1.00  0.00     0.213 HD
ENDBRANCH   6  20
TORSDOF 6
