REMARK  5 active torsions:
REMARK  status: ('A' for Active; 'I' for Inactive)
REMARK    1  A    between atoms: C3_3  and  C5_5 
REMARK    2  A    between atoms: C5_5  and  C6_6 
REMARK    3  A    between atoms: C8_11  and  C9_12 
REMARK    4  A    between atoms: C9_12  and  O2_14 
REMARK    5  A    between atoms: O2_14  and  C10_15 
ROOT
HETATM    1  C1  UNL     1       2.372   2.878   0.056  1.00  0.00     0.012 C 
HETATM    2  C2  UNL     1       2.839   1.770   0.233  1.00  0.00    -0.113 C 
HETATM    3  C3  UNL     1       3.422   0.465   0.472  1.00  0.00     0.062 C 
HETATM    4  C4  UNL     1       4.950   0.687   0.376  1.00  0.00     0.023 C 
ENDROOT
BRANCH   3   5
HETATM    5  C5  UNL     1       3.094  -0.586  -0.474  1.00  0.00     0.051 C 
BRANCH   5   6
HETATM    6  C6  UNL     1       1.740  -1.068  -0.723  1.00  0.00     0.204 C 
HETATM    7  N1  UNL     1       0.704  -0.219  -1.224  1.00  0.00    -0.060 N 
HETATM    8  C7  UNL     1      -0.047  -0.412  -0.038  1.00  0.00     0.242 C 
ATOM      9  H12 UNL     1       0.929   0.727  -1.532  1.00  0.00     0.278 HD
ATOM     10  H11 UNL     1       0.280  -0.419  -2.130  1.00  0.00     0.278 HD
HETATM   11  C8  UNL     1      -1.456  -0.803  -0.180  1.00  0.00     0.067 C 
HETATM   12  C14 UNL     1       0.894  -1.468   0.462  1.00  0.00     0.113 C 
HETATM   13  C12 UNL     1      -1.900  -1.940  -0.640  1.00  0.00     0.035 C 
HETATM   14 CL1  UNL     1      -3.623  -2.225  -0.735  1.00  0.00    -0.087 Cl
HETATM   15  C13 UNL     1      -0.967  -3.007  -1.086  1.00  0.00     0.126 C 
HETATM   16  S1  UNL     1       0.248  -3.144   0.287  1.00  0.00    -0.154 SA
BRANCH  11  17
HETATM   17  C9  UNL     1      -2.489   0.170   0.226  1.00  0.00     0.292 C 
HETATM   18  O1  UNL     1      -2.159   1.315   0.689  1.00  0.00    -0.259 OA
BRANCH  17  19
HETATM   19  O2  UNL     1      -3.839  -0.067   0.143  1.00  0.00    -0.318 OA
BRANCH  19  20
HETATM   20  C10 UNL     1      -4.827   0.869   0.534  1.00  0.00     0.174 C 
HETATM   21  C11 UNL     1      -4.760   2.155  -0.227  1.00  0.00     0.034 C 
ENDBRANCH  19  20
ENDBRANCH  17  19
ENDBRANCH  11  17
ENDBRANCH   5   6
ENDBRANCH   3   5
TORSDOF 5
