REMARK  9 active torsions:
REMARK  status: ('A' for Active; 'I' for Inactive)
REMARK    1  A    between atoms: C2_2  and  C3_3 
REMARK    2  A    between atoms: C3_3  and  C5_5 
REMARK    3  A    between atoms: C5_5  and  N1_6 
REMARK       I    between atoms: N1_6  and  C6_8 
REMARK       I    between atoms: C6_8  and  N2_10 
REMARK    4  A    between atoms: N2_10  and  C7_12 
REMARK    5  A    between atoms: C10_15  and  O2_16 
REMARK    6  A    between atoms: C17_24  and  C18_25 
REMARK    7  A    between atoms: C18_25  and  C19_26 
REMARK    8  A    between atoms: C19_26  and  C20_27 
REMARK    9  A    between atoms: C20_27  and  O3_28 
ROOT
HETATM    1  C7  UNL     1       1.320   2.234  -0.852  1.00  0.00     0.087 C 
HETATM    2  C8  UNL     1       1.136   2.293   0.670  1.00  0.00     0.033 C 
HETATM    3  C9  UNL     1      -0.085   1.424   0.876  1.00  0.00     0.021 C 
HETATM    4  C10 UNL     1      -0.200   0.814   2.239  1.00  0.00     0.123 C 
HETATM    5  C11 UNL     1      -0.621  -0.613   2.225  1.00  0.00     0.042 C 
HETATM    6  C12 UNL     1      -1.410  -1.112   1.068  1.00  0.00    -0.034 C 
HETATM    7  C13 UNL     1      -1.063  -2.627   1.020  1.00  0.00     0.016 C 
HETATM    8  C14 UNL     1      -2.858  -1.095   1.351  1.00  0.00    -0.002 C 
HETATM    9  C15 UNL     1      -3.465   0.116   1.934  1.00  0.00     0.006 C 
HETATM   10  C16 UNL     1      -4.958   0.029   1.532  1.00  0.00     0.005 C 
HETATM   11  C17 UNL     1      -5.077  -1.257   0.814  1.00  0.00    -0.010 C 
HETATM   12  C21 UNL     1      -3.737  -1.354   0.112  1.00  0.00    -0.006 C 
HETATM   13  C22 UNL     1      -3.473  -0.262  -0.844  1.00  0.00     0.006 C 
HETATM   14  C23 UNL     1      -2.051   0.164  -1.018  1.00  0.00     0.006 C 
HETATM   15  C24 UNL     1      -1.018  -0.588  -0.283  1.00  0.00    -0.001 C 
HETATM   16  C25 UNL     1       0.188   0.314  -0.061  1.00  0.00    -0.001 C 
HETATM   17  C26 UNL     1       0.782   0.890  -1.265  1.00  0.00     0.031 C 
ENDROOT
BRANCH   1  18
HETATM   18  N2  UNL     1       2.713   2.434  -1.159  1.00  0.00    -0.339 N 
HETATM   19  C6  UNL     1       3.783   1.627  -0.720  1.00  0.00     0.316 C 
HETATM   20  N1  UNL     1       5.129   1.899  -1.070  1.00  0.00    -0.343 N 
HETATM   21  O1  UNL     1       3.582   0.626   0.006  1.00  0.00    -0.247 OA
ATOM     22  H1  UNL     1       5.313   2.711  -1.659  1.00  0.00     0.164 HD
ATOM     23  H2  UNL     1       2.947   3.233  -1.748  1.00  0.00     0.164 HD
BRANCH  20  24
HETATM   24  C5  UNL     1       6.246   1.110  -0.651  1.00  0.00     0.128 C 
BRANCH  24  25
HETATM   25  C3  UNL     1       6.238  -0.318  -1.088  1.00  0.00    -0.001 C 
HETATM   26  C4  UNL     1       6.274  -0.489  -2.589  1.00  0.00     0.011 C 
BRANCH  25  27
HETATM   27  C2  UNL     1       7.499  -0.967  -0.547  1.00  0.00     0.001 C 
HETATM   28  C1  UNL     1       7.548  -0.839   0.977  1.00  0.00     0.005 C 
ENDBRANCH  25  27
ENDBRANCH  24  25
ENDBRANCH  20  24
ENDBRANCH   1  18
BRANCH   4  29
HETATM   29  O2  UNL     1       1.049   0.941   2.850  1.00  0.00    -0.395 OA
ATOM     30  H2  UNL     1       0.976   0.554   3.715  1.00  0.00     0.210 HD
ENDBRANCH   4  29
BRANCH  11  31
HETATM   31  C18 UNL     1      -6.271  -1.618   0.090  1.00  0.00     0.012 C 
BRANCH  31  32
HETATM   32  C19 UNL     1      -6.811  -0.829  -1.022  1.00  0.00     0.077 C 
BRANCH  32  33
HETATM   33  C20 UNL     1      -7.222   0.555  -0.727  1.00  0.00     0.110 C 
HETATM   34  S1  UNL     1      -8.374   0.883   0.400  1.00  0.00    -0.058 SA
BRANCH  33  35
HETATM   35  O3  UNL     1      -6.662   1.645  -1.383  1.00  0.00    -0.354 OA
ATOM     36  H3  UNL     1      -6.927   2.537  -1.193  1.00  0.00     0.218 HD
ENDBRANCH  33  35
ENDBRANCH  32  33
ENDBRANCH  31  32
ENDBRANCH  11  31
TORSDOF 9
