REMARK  9 active torsions:
REMARK  status: ('A' for Active; 'I' for Inactive)
REMARK    1  A    between atoms: C3_3  and  O1_4 
REMARK    2  A    between atoms: C14_16  and  O2_17 
REMARK    3  A    between atoms: C18_22  and  C19_23 
REMARK    4  A    between atoms: C20_24  and  C21_25 
REMARK    5  A    between atoms: C21_25  and  C22_26 
REMARK    6  A    between atoms: C22_26  and  N1_27 
REMARK    7  A    between atoms: N1_27  and  C23_30 
REMARK    8  A    between atoms: C23_30  and  C24_31 
REMARK    9  A    between atoms: C24_31  and  C25_32 
ROOT
HETATM    1  C1  UNL     1      -8.154  -0.227  -1.582  1.00  0.00     0.100 C 
HETATM    2  C2  UNL     1      -7.323   0.501  -1.063  1.00  0.00    -0.150 C 
HETATM    3  C3  UNL     1      -6.349   1.391  -0.433  1.00  0.00     0.112 C 
HETATM    4  C4  UNL     1      -5.125   1.530  -1.338  1.00  0.00     0.052 C 
HETATM    5  C5  UNL     1      -4.617   0.122  -1.528  1.00  0.00     0.018 C 
HETATM    6  C6  UNL     1      -4.092  -0.464  -0.266  1.00  0.00    -0.017 C 
HETATM    7  C7  UNL     1      -4.526  -1.945  -0.213  1.00  0.00     0.020 C 
HETATM    8  C8  UNL     1      -4.649   0.170   0.930  1.00  0.00    -0.071 C 
HETATM    9  C9  UNL     1      -3.974   0.007   2.081  1.00  0.00    -0.023 C 
HETATM   10  C10 UNL     1      -2.727  -0.763   2.203  1.00  0.00     0.033 C 
HETATM   11  C11 UNL     1      -1.906  -0.858   0.953  1.00  0.00    -0.000 C 
HETATM   12  C12 UNL     1      -2.581  -0.499  -0.313  1.00  0.00     0.005 C 
HETATM   13  C13 UNL     1      -1.946   0.745  -0.854  1.00  0.00     0.039 C 
HETATM   14  C14 UNL     1      -0.529   0.307  -1.270  1.00  0.00     0.140 C 
HETATM   15  C15 UNL     1       0.230   0.124   0.012  1.00  0.00     0.059 C 
HETATM   16  C16 UNL     1       1.045   1.340   0.192  1.00  0.00    -0.103 C 
HETATM   17  C17 UNL     1       1.690   2.349   0.339  1.00  0.00     0.013 C 
HETATM   18  C18 UNL     1       1.175  -1.070  -0.060  1.00  0.00     0.031 C 
HETATM   19  C26 UNL     1       1.000  -1.836   1.228  1.00  0.00     0.011 C 
HETATM   20  C27 UNL     1       0.238  -0.917   2.120  1.00  0.00     0.007 C 
HETATM   21  C28 UNL     1      -0.628  -0.084   1.204  1.00  0.00     0.014 C 
HETATM   22  C29 UNL     1      -5.907   0.934   0.910  1.00  0.00     0.085 C 
ENDROOT
BRANCH   3  23
HETATM   23  O1  UNL     1      -7.004   2.632  -0.306  1.00  0.00    -0.378 OA
ATOM     24  H1  UNL     1      -6.371   3.210   0.103  1.00  0.00     0.211 HD
ENDBRANCH   3  23
BRANCH  14  25
HETATM   25  O2  UNL     1       0.040   1.184  -2.151  1.00  0.00    -0.394 OA
ATOM     26  H2  UNL     1       0.914   0.914  -2.408  1.00  0.00     0.210 HD
ENDBRANCH  14  25
BRANCH  18  27
HETATM   27  C19 UNL     1       2.596  -0.656  -0.162  1.00  0.00    -0.024 C 
HETATM   28  C20 UNL     1       3.376  -1.038  -1.163  1.00  0.00    -0.029 C 
BRANCH  28  29
HETATM   29  C21 UNL     1       4.790  -0.661  -1.319  1.00  0.00     0.054 C 
BRANCH  29  30
HETATM   30  C22 UNL     1       5.323   0.220  -0.239  1.00  0.00     0.236 C 
BRANCH  30  31
HETATM   31  N1  UNL     1       6.728   0.560  -0.453  1.00  0.00    -0.074 N 
ATOM     32  H12 UNL     1       6.865   1.002  -1.362  1.00  0.00     0.277 HD
ATOM     33  H11 UNL     1       7.015   1.332   0.149  1.00  0.00     0.277 HD
BRANCH  31  34
HETATM   34  C23 UNL     1       7.599  -0.574  -0.292  1.00  0.00     0.242 C 
BRANCH  34  35
HETATM   35  C24 UNL     1       9.014  -0.059  -0.549  1.00  0.00     0.140 C 
BRANCH  35  36
HETATM   36  C25 UNL     1       9.314   1.005   0.436  1.00  0.00     0.174 C 
HETATM   37  O3  UNL     1       9.715   0.670   1.573  1.00  0.00    -0.648 OA
HETATM   38  O4  UNL     1       9.145   2.316   0.076  1.00  0.00    -0.648 OA
ENDBRANCH  35  36
ENDBRANCH  34  35
ENDBRANCH  31  34
ENDBRANCH  30  31
ENDBRANCH  29  30
ENDBRANCH  28  29
ENDBRANCH  18  27
TORSDOF 9
