REMARK  8 active torsions:
REMARK  status: ('A' for Active; 'I' for Inactive)
REMARK    1  A    between atoms: C2_2  and  C3_3 
REMARK    2  A    between atoms: C3_3  and  N1_4 
REMARK    3  A    between atoms: N1_4  and  C4_7 
REMARK    4  A    between atoms: C4_7  and  C5_8 
REMARK       I    between atoms: C5_8  and  N2_10 
REMARK    5  A    between atoms: N2_10  and  C6_12 
REMARK    6  A    between atoms: C8_14  and  C9_15 
REMARK    7  A    between atoms: C9_15  and  C10_16 
REMARK    8  A    between atoms: C25_33  and  O4_34 
ROOT
HETATM    1  C5  UNL     1       0.027   1.665   0.671  1.00  0.00     0.243 C 
HETATM    2  O1  UNL     1      -0.457   2.725   1.155  1.00  0.00    -0.272 OA
HETATM    3  N2  UNL     1      -0.723   0.549   0.254  1.00  0.00    -0.354 N 
ATOM      4  H2  UNL     1      -0.194  -0.240  -0.116  1.00  0.00     0.162 HD
ENDROOT
BRANCH   1   5
HETATM    5  C4  UNL     1       1.508   1.681   0.566  1.00  0.00     0.335 C 
BRANCH   5   6
HETATM    6  N1  UNL     1       2.045   0.471   0.004  1.00  0.00    -0.054 N 
ATOM      7  H12 UNL     1       1.642   0.287  -0.915  1.00  0.00     0.279 HD
ATOM      8  H11 UNL     1       1.699  -0.347   0.505  1.00  0.00     0.279 HD
BRANCH   6   9
HETATM    9  C3  UNL     1       3.495   0.467  -0.056  1.00  0.00     0.147 C 
HETATM   10  C20 UNL     1       3.831  -0.785  -0.906  1.00  0.00     0.043 C 
HETATM   11  C21 UNL     1       5.314  -0.665  -1.178  1.00  0.00     0.004 C 
HETATM   12  C22 UNL     1       6.031  -0.874   0.111  1.00  0.00     0.012 C 
HETATM   13  C23 UNL     1       5.494  -0.216   1.316  1.00  0.00    -0.012 C 
HETATM   14  C24 UNL     1       6.541   0.799   1.811  1.00  0.00     0.018 C 
HETATM   15  C25 UNL     1       5.474  -1.278   2.432  1.00  0.00     0.126 C 
HETATM   16  C28 UNL     1       4.132   0.355   1.274  1.00  0.00     0.036 C 
HETATM   17  C26 UNL     1       4.250  -0.905   3.261  1.00  0.00     0.033 C 
HETATM   18  C27 UNL     1       3.286  -0.581   2.112  1.00  0.00     0.011 C 
BRANCH   9  19
HETATM   19  C2  UNL     1       3.896   1.606  -0.900  1.00  0.00     0.002 C 
HETATM   20  C1  UNL     1       4.461   2.718  -0.507  1.00  0.00     0.009 C 
ENDBRANCH   9  19
BRANCH  15  21
HETATM   21  O4  UNL     1       5.262  -2.545   1.950  1.00  0.00    -0.395 OA
ATOM     22  H4  UNL     1       5.250  -3.200   2.638  1.00  0.00     0.210 HD
ENDBRANCH  15  21
ENDBRANCH   6   9
ENDBRANCH   5   6
ENDBRANCH   1   5
BRANCH   3  23
HETATM   23  C6  UNL     1      -2.137   0.400   0.292  1.00  0.00     0.093 C 
HETATM   24  C7  UNL     1      -2.695  -0.602   1.258  1.00  0.00     0.031 C 
HETATM   25  C8  UNL     1      -4.123  -0.792   0.742  1.00  0.00     0.003 C 
HETATM   26  C11 UNL     1      -3.893  -0.842  -0.720  1.00  0.00     0.008 C 
HETATM   27  C12 UNL     1      -5.036  -0.857  -1.647  1.00  0.00    -0.043 C 
HETATM   28  C18 UNL     1      -2.778   0.114  -1.056  1.00  0.00    -0.019 C 
HETATM   29  C13 UNL     1      -4.660  -1.777  -2.827  1.00  0.00     0.015 C 
HETATM   30  C14 UNL     1      -6.248  -1.499  -1.011  1.00  0.00     0.015 C 
HETATM   31  C15 UNL     1      -5.464   0.448  -2.235  1.00  0.00     0.009 C 
HETATM   32  C16 UNL     1      -4.612   1.628  -1.905  1.00  0.00     0.002 C 
HETATM   33  C17 UNL     1      -3.166   1.352  -1.772  1.00  0.00     0.011 C 
HETATM   34  C19 UNL     1      -1.723  -0.576  -1.948  1.00  0.00     0.018 C 
BRANCH  25  35
HETATM   35  C9  UNL     1      -4.999   0.186   1.353  1.00  0.00     0.118 C 
BRANCH  35  36
HETATM   36  C10 UNL     1      -5.062   0.032   2.819  1.00  0.00     0.172 C 
HETATM   37  O2  UNL     1      -4.543  -0.869   3.505  1.00  0.00    -0.648 OA
HETATM   38  O3  UNL     1      -5.784   1.003   3.547  1.00  0.00    -0.648 OA
ENDBRANCH  35  36
ENDBRANCH  25  35
ENDBRANCH   3  23
TORSDOF 8
