REMARK  11 active torsions:
REMARK  status: ('A' for Active; 'I' for Inactive)
REMARK    1  A    between atoms: C2_2  and  C3_3 
REMARK    2  A    between atoms: C3_3  and  N1_4 
REMARK    3  A    between atoms: N1_4  and  C5_6 
REMARK    4  A    between atoms: C5_6  and  C6_7 
REMARK    5  A    between atoms: C6_7  and  C7_8 
REMARK    6  A    between atoms: C8_9  and  C9_10 
REMARK    7  A    between atoms: C20_21  and  C21_22 
REMARK    8  A    between atoms: C21_22  and  C23_24 
REMARK    9  A    between atoms: C23_24  and  C24_25 
REMARK   10  A    between atoms: C24_25  and  C25_26 
REMARK   11  A    between atoms: C30_34  and  O3_35 
ROOT
HETATM    1  C9  UNL     1       2.543  -1.051  -0.945  1.00  0.00     0.094 C 
HETATM    2  C10 UNL     1       1.827   0.156  -1.462  1.00  0.00     0.025 C 
HETATM    3  C11 UNL     1       0.339   0.041  -1.505  1.00  0.00    -0.005 C 
HETATM    4  C12 UNL     1      -0.225   1.451  -1.412  1.00  0.00     0.006 C 
HETATM    5  C13 UNL     1      -1.716   1.481  -1.494  1.00  0.00     0.008 C 
HETATM    6  C14 UNL     1      -2.337   0.145  -1.237  1.00  0.00     0.020 C 
HETATM    7  C15 UNL     1      -1.663  -0.609  -0.135  1.00  0.00     0.001 C 
HETATM    8  C16 UNL     1      -1.863   0.152   1.148  1.00  0.00     0.007 C 
HETATM    9  C17 UNL     1      -3.367   0.037   1.454  1.00  0.00     0.015 C 
HETATM   10  C18 UNL     1      -4.198   0.665   0.394  1.00  0.00     0.009 C 
HETATM   11  C19 UNL     1      -4.553   2.118   0.608  1.00  0.00     0.020 C 
HETATM   12  C20 UNL     1      -5.422  -0.109  -0.066  1.00  0.00     0.136 C 
HETATM   13  O2  UNL     1      -4.539  -0.857  -0.879  1.00  0.00    -0.378 OA
HETATM   14  C26 UNL     1      -3.806   0.323  -1.003  1.00  0.00     0.137 C 
HETATM   15  C27 UNL     1      -0.249  -0.889  -0.489  1.00  0.00    -0.034 C 
HETATM   16  C28 UNL     1      -0.212  -2.292  -1.113  1.00  0.00     0.016 C 
HETATM   17  C29 UNL     1       0.659  -0.912   0.723  1.00  0.00     0.042 C 
HETATM   18  C30 UNL     1       2.030  -1.401   0.413  1.00  0.00     0.134 C 
ENDROOT
BRANCH   1  19
HETATM   19  C8  UNL     1       3.979  -0.690  -0.865  1.00  0.00    -0.099 C 
HETATM   20  C7  UNL     1       5.138  -0.400  -0.778  1.00  0.00    -0.104 C 
BRANCH  20  21
HETATM   21  C6  UNL     1       6.566  -0.022  -0.655  1.00  0.00     0.113 C 
BRANCH  21  22
HETATM   22  C5  UNL     1       6.777   0.364   0.779  1.00  0.00     0.128 C 
BRANCH  22  23
HETATM   23  N1  UNL     1       8.125   0.750   0.992  1.00  0.00    -0.416 N 
HETATM   24  C4  UNL     1       8.366   1.705   2.022  1.00  0.00     0.143 C 
BRANCH  23  25
HETATM   25  C3  UNL     1       9.102  -0.293   0.910  1.00  0.00     0.116 C 
BRANCH  25  26
HETATM   26  C2  UNL     1      10.433   0.300   0.430  1.00  0.00     0.015 C 
HETATM   27  C1  UNL     1      10.240   0.930  -0.947  1.00  0.00     0.006 C 
ENDBRANCH  25  26
ENDBRANCH  23  25
ENDBRANCH  22  23
ENDBRANCH  21  22
ENDBRANCH  20  21
ENDBRANCH   1  19
BRANCH  18  28
HETATM   28  O3  UNL     1       2.902  -0.798   1.350  1.00  0.00    -0.394 OA
ATOM     29  H3  UNL     1       2.576  -1.021   2.214  1.00  0.00     0.210 HD
ENDBRANCH  18  28
BRANCH  12  30
HETATM   30  C21 UNL     1      -6.126  -0.901   0.967  1.00  0.00     0.012 C 
HETATM   31  C22 UNL     1      -6.637  -0.048   2.097  1.00  0.00     0.012 C 
BRANCH  30  32
HETATM   32  C23 UNL     1      -7.312  -1.600   0.354  1.00  0.00     0.015 C 
BRANCH  32  33
HETATM   33  C24 UNL     1      -8.328  -0.682  -0.244  1.00  0.00     0.100 C 
BRANCH  33  34
HETATM   34  C25 UNL     1      -9.459  -1.451  -0.819  1.00  0.00     0.231 C 
HETATM   35  N2  UNL     1     -10.541  -0.762  -1.410  1.00  0.00    -0.062 NA
HETATM   36  O1  UNL     1      -9.461  -2.700  -0.786  1.00  0.00    -0.277 OA
ENDBRANCH  33  34
ENDBRANCH  32  33
ENDBRANCH  30  32
ENDBRANCH  12  30
TORSDOF 11
