REMARK  10 active torsions:
REMARK  status: ('A' for Active; 'I' for Inactive)
REMARK    1  A    between atoms: C2_2  and  C3_3 
REMARK    2  A    between atoms: C3_3  and  C4_4 
REMARK    3  A    between atoms: C4_4  and  C5_5 
REMARK    4  A    between atoms: C5_5  and  N1_6 
REMARK    5  A    between atoms: C5_5  and  C11_17 
REMARK       I    between atoms: N1_6  and  C6_8 
REMARK    6  A    between atoms: C6_8  and  C7_10 
REMARK    7  A    between atoms: C14_21  and  O4_22 
REMARK    8  A    between atoms: C16_24  and  O5_25 
REMARK    9  A    between atoms: C23_36  and  C24_37 
REMARK   10  A    between atoms: C24_37  and  C25_38 
ROOT
HETATM    1  C11 UNL     1      -0.101  -0.780  -0.060  1.00  0.00     0.189 C 
HETATM    2  O3  UNL     1      -0.461  -0.672   1.283  1.00  0.00    -0.340 OA
HETATM    3  C12 UNL     1      -1.504   0.087   1.746  1.00  0.00     0.082 A 
HETATM    4  C13 UNL     1      -1.522   0.490   3.082  1.00  0.00     0.077 A 
HETATM    5  C14 UNL     1      -2.567   1.255   3.559  1.00  0.00     0.105 A 
HETATM    6  C16 UNL     1      -3.557   1.581   2.650  1.00  0.00     0.117 A 
HETATM    7  C17 UNL     1      -3.530   1.179   1.334  1.00  0.00     0.058 A 
HETATM    8 BR1  UNL     1      -4.915   1.653   0.120  1.00  0.00    -0.047 Br
HETATM    9  C18 UNL     1      -2.479   0.411   0.859  1.00  0.00     0.028 A 
HETATM   10  C19 UNL     1      -2.439  -0.030  -0.556  1.00  0.00     0.199 C 
HETATM   11  O6  UNL     1      -3.559  -0.846  -0.698  1.00  0.00    -0.343 OA
HETATM   12  C20 UNL     1      -3.089  -2.115  -0.607  1.00  0.00     0.159 C 
HETATM   13  C21 UNL     1      -3.274  -2.634   0.815  1.00  0.00     0.078 C 
HETATM   14  C22 UNL     1      -3.985  -2.989  -1.475  1.00  0.00     0.078 C 
HETATM   15  O7  UNL     1      -1.787  -2.143  -0.982  1.00  0.00    -0.339 OA
HETATM   16  C23 UNL     1      -1.290  -0.807  -1.018  1.00  0.00     0.123 C 
ENDROOT
BRANCH   1  17
HETATM   17  C5  UNL     1       0.983   0.184  -0.358  1.00  0.00     0.117 C 
BRANCH  17  18
HETATM   18  C4  UNL     1       0.681   1.613  -0.139  1.00  0.00     0.028 C 
BRANCH  18  19
HETATM   19  C3  UNL     1       1.787   2.570  -0.412  1.00  0.00     0.002 C 
BRANCH  19  20
HETATM   20  C2  UNL     1       2.277   2.542  -1.850  1.00  0.00    -0.004 C 
HETATM   21  C1  UNL     1       3.398   3.541  -2.033  1.00  0.00     0.005 C 
ENDBRANCH  19  20
ENDBRANCH  18  19
ENDBRANCH  17  18
BRANCH  17  22
HETATM   22  N1  UNL     1       2.086  -0.187   0.536  1.00  0.00    -0.348 N 
HETATM   23  C6  UNL     1       3.325  -0.681   0.150  1.00  0.00     0.277 C 
HETATM   24  O1  UNL     1       3.593  -0.852  -1.061  1.00  0.00    -0.265 OA
ATOM     25  H1  UNL     1       1.927  -0.071   1.537  1.00  0.00     0.163 HD
BRANCH  23  26
HETATM   26  C7  UNL     1       4.345  -1.013   1.131  1.00  0.00     0.168 A 
HETATM   27  C8  UNL     1       5.614  -1.508   0.925  1.00  0.00     0.071 A 
HETATM   28  C9  UNL     1       6.178  -1.652   2.165  1.00  0.00     0.031 A 
HETATM   29  C10 UNL     1       7.550  -2.158   2.445  1.00  0.00     0.070 C 
HETATM   30  N2  UNL     1       5.279  -1.260   3.056  1.00  0.00    -0.265 N 
HETATM   31  O2  UNL     1       4.218  -0.891   2.443  1.00  0.00    -0.232 OA
ATOM     32  H2  UNL     1       5.411  -1.253   4.067  1.00  0.00     0.194 HD
ENDBRANCH  23  26
ENDBRANCH  17  22
ENDBRANCH   1  17
BRANCH  16  33
HETATM   33  C24 UNL     1      -0.817  -0.664  -2.421  1.00  0.00     0.048 C 
BRANCH  33  34
HETATM   34  C25 UNL     1      -1.744  -0.665  -3.565  1.00  0.00    -0.020 C 
HETATM   35  C26 UNL     1      -2.764   0.405  -3.696  1.00  0.00     0.009 C 
HETATM   36  C27 UNL     1      -0.893  -0.549  -4.864  1.00  0.00     0.009 C 
ENDBRANCH  33  34
ENDBRANCH  16  33
BRANCH   5  37
HETATM   37  O4  UNL     1      -2.653   1.692   4.874  1.00  0.00    -0.353 OA
HETATM   38  C15 UNL     1      -1.604   1.320   5.749  1.00  0.00     0.210 C 
ENDBRANCH   5  37
BRANCH   6  39
HETATM   39  O5  UNL     1      -4.620   2.351   3.103  1.00  0.00    -0.357 OA
ATOM     40  H5  UNL     1      -5.300   2.575   2.479  1.00  0.00     0.218 HD
ENDBRANCH   6  39
TORSDOF 10
