REMARK  12 active torsions:
REMARK  status: ('A' for Active; 'I' for Inactive)
REMARK    1  A    between atoms: C3_4  and  C4_5 
REMARK    2  A    between atoms: C4_5  and  O2_6 
REMARK    3  A    between atoms: O2_6  and  C5_7 
REMARK    4  A    between atoms: C5_7  and  C6_9 
REMARK    5  A    between atoms: C6_9  and  C7_10 
REMARK    6  A    between atoms: C13_16  and  O4_17 
REMARK    7  A    between atoms: C14_19  and  O5_20 
REMARK    8  A    between atoms: C15_22  and  O6_23 
REMARK    9  A    between atoms: O6_23  and  C16_24 
REMARK   10  A    between atoms: C17_25  and  C18_26 
REMARK   11  A    between atoms: C18_26  and  N1_27 
REMARK   12  A    between atoms: C25_35  and  C26_36 
ROOT
HETATM    1  C1  UNL     1      -0.840   2.063   0.883  1.00  0.00     0.042 C 
HETATM    2  C2  UNL     1      -0.885   0.668   0.442  1.00  0.00     0.150 C 
HETATM    3  O1  UNL     1       0.442   0.154   0.306  1.00  0.00    -0.373 OA
HETATM    4  C3  UNL     1       1.138   0.770  -0.700  1.00  0.00     0.177 C 
HETATM    5  C13 UNL     1       0.512   0.315  -2.037  1.00  0.00     0.180 C 
HETATM    6  C14 UNL     1      -0.894   0.947  -2.026  1.00  0.00     0.181 C 
HETATM    7  C15 UNL     1      -1.575   0.332  -0.836  1.00  0.00     0.189 C 
ENDROOT
BRANCH   7   8
HETATM    8  O6  UNL     1      -2.972   0.259  -0.875  1.00  0.00    -0.339 OA
BRANCH   8   9
HETATM    9  C16 UNL     1      -3.703  -0.845  -0.356  1.00  0.00     0.096 A 
HETATM   10  C17 UNL     1      -4.291  -0.810   0.869  1.00  0.00     0.011 A 
HETATM   11  C24 UNL     1      -4.936  -1.954   1.277  1.00  0.00     0.062 A 
HETATM   12  S1  UNL     1      -4.727  -3.024  -0.016  1.00  0.00    -0.098 SA
HETATM   13  C25 UNL     1      -3.811  -1.986  -1.072  1.00  0.00     0.052 A 
BRANCH  10  14
HETATM   14  C18 UNL     1      -4.349   0.419   1.773  1.00  0.00     0.314 C 
BRANCH  14  15
HETATM   15  N1  UNL     1      -5.121   0.146   2.959  1.00  0.00     0.092 N 
HETATM   16  C19 UNL     1      -4.918   1.295   3.834  1.00  0.00     0.272 C 
HETATM   17  C20 UNL     1      -5.176   2.607   3.160  1.00  0.00     0.030 C 
HETATM   18  C21 UNL     1      -6.602   2.630   2.671  1.00  0.00     0.003 C 
HETATM   19  C22 UNL     1      -7.274   1.357   3.128  1.00  0.00     0.030 C 
HETATM   20  C23 UNL     1      -6.558   0.131   2.654  1.00  0.00     0.272 C 
ENDBRANCH  14  15
ENDBRANCH  10  14
BRANCH  13  21
HETATM   21  C26 UNL     1      -3.299  -2.412  -2.384  1.00  0.00     0.022 A 
HETATM   22  C27 UNL     1      -2.824  -3.697  -2.516  1.00  0.00     0.016 A 
HETATM   23  C28 UNL     1      -2.435  -4.171  -3.758  1.00  0.00     0.001 A 
HETATM   24  C29 UNL     1      -2.516  -3.373  -4.880  1.00  0.00     0.003 A 
HETATM   25  C30 UNL     1      -2.988  -2.099  -4.755  1.00  0.00     0.043 A 
HETATM   26  C31 UNL     1      -3.378  -1.635  -3.493  1.00  0.00     0.128 A 
HETATM   27  F1  UNL     1      -3.916  -0.392  -3.499  1.00  0.00    -0.205 F 
ENDBRANCH  13  21
ENDBRANCH   8   9
ENDBRANCH   7   8
BRANCH   6  28
HETATM   28  O5  UNL     1      -0.660   2.312  -1.915  1.00  0.00    -0.390 OA
ATOM     29  H5  UNL     1      -1.526   2.701  -1.908  1.00  0.00     0.210 HD
ENDBRANCH   6  28
BRANCH   5  30
HETATM   30  O4  UNL     1       1.252   0.700  -3.120  1.00  0.00    -0.390 OA
ATOM     31  H4  UNL     1       0.867   0.420  -3.942  1.00  0.00     0.210 HD
ENDBRANCH   5  30
BRANCH   4  32
HETATM   32  C4  UNL     1       2.554   0.309  -0.743  1.00  0.00     0.213 C 
BRANCH  32  33
HETATM   33  O2  UNL     1       3.299   0.482   0.414  1.00  0.00    -0.319 OA
BRANCH  33  34
HETATM   34  C5  UNL     1       4.647   0.097   0.387  1.00  0.00     0.259 C 
HETATM   35  O3  UNL     1       5.052  -0.365  -0.706  1.00  0.00    -0.265 OA
BRANCH  34  36
HETATM   36  C6  UNL     1       5.527   0.217   1.538  1.00  0.00     0.115 C 
BRANCH  36  37
HETATM   37  C7  UNL     1       6.984  -0.040   1.298  1.00  0.00    -0.005 C 
HETATM   38  C8  UNL     1       7.499   0.966   0.303  1.00  0.00     0.005 C 
HETATM   39  C9  UNL     1       8.998   0.695   0.146  1.00  0.00     0.000 C 
HETATM   40  C10 UNL     1       9.069  -0.613  -0.626  1.00  0.00     0.000 C 
HETATM   41  C11 UNL     1       8.554  -1.714   0.233  1.00  0.00     0.000 C 
HETATM   42  C12 UNL     1       7.261  -1.460   0.929  1.00  0.00     0.005 C 
ENDBRANCH  36  37
ENDBRANCH  34  36
ENDBRANCH  33  34
ENDBRANCH  32  33
ENDBRANCH   4  32
TORSDOF 12
