REMARK  15 active torsions:
REMARK  status: ('A' for Active; 'I' for Inactive)
REMARK    1  A    between atoms: C2_2  and  O1_3 
REMARK    2  A    between atoms: C3_7  and  N2_8 
REMARK    3  A    between atoms: N2_8  and  C4_10 
REMARK    4  A    between atoms: C5_16  and  C6_17 
REMARK    5  A    between atoms: C7_20  and  C8_21 
REMARK    6  A    between atoms: C10_23  and  C11_24 
REMARK    7  A    between atoms: C11_24  and  N6_25 
REMARK    8  A    between atoms: N6_25  and  C12_27 
REMARK    9  A    between atoms: C12_27  and  C13_28 
REMARK   10  A    between atoms: C12_27  and  C14_31 
REMARK   11  A    between atoms: C13_28  and  O3_29 
REMARK   12  A    between atoms: C14_31  and  O4_32 
REMARK   13  A    between atoms: C16_37  and  C17_38 
REMARK   14  A    between atoms: C18_41  and  O6_42 
REMARK   15  A    between atoms: N9_44  and  N10_45 
ROOT
HETATM    1  C6  UNL     1      -1.824  -1.082  -0.062  1.00  0.00     0.162 A 
HETATM    2  N5  UNL     1      -0.633  -1.729  -0.251  1.00  0.00    -0.335 N 
ATOM      3  H5  UNL     1      -0.534  -2.594  -0.782  1.00  0.00     0.168 HD
HETATM    4  C7  UNL     1       0.373  -1.106   0.332  1.00  0.00     0.100 A 
HETATM    5  C18 UNL     1      -0.196   0.012   0.936  1.00  0.00     0.191 A 
HETATM    6  N9  UNL     1      -1.539  -0.020   0.666  1.00  0.00    -0.220 N 
ENDROOT
BRANCH   4   7
HETATM    7  C8  UNL     1       1.794  -1.417   0.403  1.00  0.00     0.028 A 
HETATM    8  C9  UNL     1       2.701  -0.505  -0.185  1.00  0.00     0.026 A 
HETATM    9  C10 UNL     1       4.037  -0.744  -0.214  1.00  0.00    -0.025 A 
HETATM   10  C15 UNL     1       4.499  -1.907   0.347  1.00  0.00     0.097 A 
HETATM   11  N7  UNL     1       3.650  -2.758   0.898  1.00  0.00    -0.360 N 
HETATM   12  C16 UNL     1       2.300  -2.543   0.943  1.00  0.00     0.110 A 
ATOM     13  H7  UNL     1       4.019  -3.615   1.309  1.00  0.00     0.165 HD
BRANCH   9  14
HETATM   14  C11 UNL     1       4.972   0.220  -0.823  1.00  0.00     0.154 C 
BRANCH  14  15
HETATM   15  N6  UNL     1       5.719   0.835   0.225  1.00  0.00    -0.409 N 
ATOM     16  H6  UNL     1       5.575   0.587   1.204  1.00  0.00     0.154 HD
BRANCH  15  17
HETATM   17  C12 UNL     1       6.677   1.814  -0.169  1.00  0.00     0.124 C 
BRANCH  17  18
HETATM   18  C13 UNL     1       6.042   3.012  -0.845  1.00  0.00     0.191 C 
BRANCH  18  19
HETATM   19  O3  UNL     1       7.052   3.910  -1.194  1.00  0.00    -0.399 OA
ATOM     20  H3  UNL     1       6.654   4.661  -1.618  1.00  0.00     0.209 HD
ENDBRANCH  18  19
ENDBRANCH  17  18
BRANCH  17  21
HETATM   21  C14 UNL     1       7.743   1.192  -1.014  1.00  0.00     0.191 C 
BRANCH  21  22
HETATM   22  O4  UNL     1       8.377   0.194  -0.284  1.00  0.00    -0.399 OA
ATOM     23  H4  UNL     1       9.054  -0.201  -0.821  1.00  0.00     0.209 HD
ENDBRANCH  21  22
ENDBRANCH  17  21
ENDBRANCH  15  17
ENDBRANCH  14  15
ENDBRANCH   9  14
BRANCH  12  24
HETATM   24  C17 UNL     1       1.477  -3.510   1.625  1.00  0.00     0.282 C 
HETATM   25  N8  UNL     1       2.059  -4.743   2.029  1.00  0.00    -0.056 NA
HETATM   26  O5  UNL     1       0.289  -3.326   1.880  1.00  0.00    -0.269 OA
ENDBRANCH  12  24
ENDBRANCH   4   7
BRANCH   5  27
HETATM   27  O6  UNL     1       0.480   0.973   1.672  1.00  0.00    -0.343 OA
ATOM     28  H6  UNL     1       0.092   1.736   2.084  1.00  0.00     0.219 HD
ENDBRANCH   5  27
BRANCH   1  29
HETATM   29  C5  UNL     1      -3.059  -1.597  -0.617  1.00  0.00     0.148 A 
HETATM   30  C4  UNL     1      -4.357  -1.138  -0.558  1.00  0.00     0.163 A 
HETATM   31  N3  UNL     1      -5.110  -2.031  -1.260  1.00  0.00    -0.223 N 
HETATM   32  O2  UNL     1      -4.361  -2.976  -1.727  1.00  0.00    -0.155 OA
ATOM     33  H3  UNL     1      -6.118  -1.964  -1.397  1.00  0.00     0.198 HD
HETATM   34  N4  UNL     1      -3.159  -2.744  -1.364  1.00  0.00    -0.234 N 
ATOM     35  H4  UNL     1      -2.367  -3.341  -1.601  1.00  0.00     0.197 HD
BRANCH  30  36
HETATM   36  N2  UNL     1      -4.795  -0.121   0.016  1.00  0.00    -0.310 N 
ATOM     37  H2  UNL     1      -4.079   0.427   0.493  1.00  0.00     0.170 HD
BRANCH  36  38
HETATM   38  C3  UNL     1      -6.092   0.412   0.129  1.00  0.00     0.196 C 
HETATM   39  N1  UNL     1      -7.195   0.055  -0.394  1.00  0.00    -0.314 N 
HETATM   40  C2  UNL     1      -8.281   0.886  -0.003  1.00  0.00     0.226 C 
ATOM     41  H1  UNL     1      -7.290  -0.741  -1.025  1.00  0.00     0.167 HD
HETATM   42  C1  UNL     1      -9.291   1.145  -1.078  1.00  0.00     0.094 C 
HETATM   43  N12 UNL     1      -7.610   2.115   0.428  1.00  0.00    -0.078 NA
HETATM   44  N11 UNL     1      -6.421   1.581   0.935  1.00  0.00    -0.271 N 
ATOM     45  H11 UNL     1      -5.884   1.943   1.723  1.00  0.00     0.185 HD
BRANCH  40  46
HETATM   46  O1  UNL     1      -8.886   0.275   1.121  1.00  0.00    -0.356 OA
ATOM     47  H1  UNL     1      -8.245   0.111   1.803  1.00  0.00     0.214 HD
ENDBRANCH  40  46
ENDBRANCH  36  38
ENDBRANCH  30  36
ENDBRANCH   1  29
BRANCH   6  48
HETATM   48  N10 UNL     1      -2.375   0.993   1.157  1.00  0.00    -0.335 N 
ATOM     49 2H10 UNL     1      -3.375   0.969   0.956  1.00  0.00     0.177 HD
ATOM     50 1H10 UNL     1      -2.155   1.814   1.720  1.00  0.00     0.177 HD
ENDBRANCH   6  48
TORSDOF 15
