REMARK  11 active torsions:
REMARK  status: ('A' for Active; 'I' for Inactive)
REMARK    1  A    between atoms: C2_2  and  C3_4 
REMARK    2  A    between atoms: C5_7  and  C6_8 
REMARK       I    between atoms: C6_8  and  N2_10 
REMARK       I    between atoms: N2_10  and  C7_12 
REMARK       I    between atoms: C7_12  and  N3_13 
REMARK       I    between atoms: C7_12  and  N4_17 
REMARK    3  A    between atoms: C8_24  and  N6_25 
REMARK    4  A    between atoms: N6_25  and  C9_26 
REMARK    5  A    between atoms: C9_26  and  O4_27 
REMARK    6  A    between atoms: C9_26  and  C10_29 
REMARK    7  A    between atoms: C11_31  and  C12_32 
REMARK    8  A    between atoms: C12_32  and  O6_33 
REMARK    9  A    between atoms: C12_32  and  N7_35 
REMARK   10  A    between atoms: C16_42  and  N9_43 
REMARK   11  A    between atoms: C17_45  and  C19_47 
ROOT
HETATM    1  N7  UNL     1      -1.421  -4.149  -1.088  1.00  0.00    -0.295 N 
ATOM      2  H7  UNL     1      -1.378  -3.567  -1.924  1.00  0.00     0.174 HD
HETATM    3  C13 UNL     1      -0.911  -5.451  -1.083  1.00  0.00     0.179 C 
HETATM    4  N8  UNL     1      -0.475  -6.537  -1.064  1.00  0.00    -0.172 NA
ENDROOT
BRANCH   1   5
HETATM    5  C12 UNL     1      -2.010  -3.661   0.134  1.00  0.00     0.285 C 
BRANCH   5   6
HETATM    6  C11 UNL     1      -2.510  -2.262  -0.014  1.00  0.00     0.106 A 
HETATM    7  O5  UNL     1      -1.860  -1.238   0.499  1.00  0.00    -0.306 OA
HETATM    8  C10 UNL     1      -2.283  -0.003   0.379  1.00  0.00     0.145 A 
HETATM    9  C16 UNL     1      -3.435   0.336  -0.288  1.00  0.00     0.119 A 
HETATM   10  C15 UNL     1      -4.165  -0.709  -0.853  1.00  0.00     0.203 A 
HETATM   11  C14 UNL     1      -3.678  -1.997  -0.699  1.00  0.00     0.094 A 
HETATM   12  O7  UNL     1      -5.207  -0.419  -1.458  1.00  0.00    -0.286 OA
BRANCH   8  13
HETATM   13  C9  UNL     1      -1.471   1.133   1.003  1.00  0.00     0.362 C 
BRANCH  13  14
HETATM   14  N6  UNL     1      -0.179   0.954   0.737  1.00  0.00    -0.382 NA
BRANCH  14  15
HETATM   15  C8  UNL     1       0.985   0.795   0.497  1.00  0.00     0.254 A 
HETATM   16  C3  UNL     1       1.954   1.709   0.136  1.00  0.00     0.103 A 
HETATM   17  C4  UNL     1       3.255   1.265  -0.092  1.00  0.00     0.099 A 
HETATM   18  N1  UNL     1       4.282   2.167  -0.465  1.00  0.00    -0.099 NA
HETATM   19  C5  UNL     1       3.617  -0.060   0.029  1.00  0.00     0.147 A 
HETATM   20  N5  UNL     1       2.606  -0.886   0.387  1.00  0.00    -0.251 N 
HETATM   21  O3  UNL     1       1.423  -0.485   0.595  1.00  0.00    -0.203 OA
ATOM     22  H5  UNL     1       2.807  -1.880   0.494  1.00  0.00     0.195 HD
BRANCH  16  23
HETATM   23  C2  UNL     1       1.691   3.117  -0.018  1.00  0.00     0.163 C 
HETATM   24  C1  UNL     1       0.436   3.841   0.163  1.00  0.00     0.097 C 
HETATM   25  O1  UNL     1       2.691   3.848  -0.363  1.00  0.00    -0.293 OA
ENDBRANCH  16  23
BRANCH  19  26
HETATM   26  C6  UNL     1       4.963  -0.535  -0.208  1.00  0.00     0.274 C 
HETATM   27  O2  UNL     1       5.846   0.282  -0.540  1.00  0.00    -0.266 OA
HETATM   28  N2  UNL     1       5.307  -1.895  -0.074  1.00  0.00    -0.306 N 
HETATM   29  C7  UNL     1       6.628  -2.423  -0.298  1.00  0.00     0.483 C 
ATOM     30  H2  UNL     1       4.573  -2.548   0.199  1.00  0.00     0.166 HD
HETATM   31  N3  UNL     1       6.585  -3.409  -1.378  1.00  0.00    -0.033 N 
HETATM   32  N4  UNL     1       7.161  -3.113   0.850  1.00  0.00    -0.033 N 
ATOM     33  H33 UNL     1       5.901  -4.145  -1.200  1.00  0.00     0.278 HD
ATOM     34  H32 UNL     1       6.173  -3.029  -2.230  1.00  0.00     0.278 HD
ATOM     35  H31 UNL     1       7.521  -3.783  -1.537  1.00  0.00     0.278 HD
ATOM     36  H43 UNL     1       7.143  -2.514   1.675  1.00  0.00     0.278 HD
ATOM     37  H42 UNL     1       6.524  -3.846   1.162  1.00  0.00     0.278 HD
ATOM     38  H41 UNL     1       8.097  -3.487   0.691  1.00  0.00     0.278 HD
ENDBRANCH  19  26
ENDBRANCH  14  15
ENDBRANCH  13  14
BRANCH  13  39
HETATM   39  O4  UNL     1      -1.690   0.959   2.413  1.00  0.00    -0.360 OA
ATOM     40  H4  UNL     1      -2.612   1.087   2.603  1.00  0.00     0.213 HD
ENDBRANCH  13  39
ENDBRANCH   8  13
BRANCH   9  41
HETATM   41  N9  UNL     1      -3.825   1.686  -0.370  1.00  0.00    -0.352 N 
HETATM   42  C17 UNL     1      -4.753   2.202   0.373  1.00  0.00     0.047 C 
HETATM   43  C18 UNL     1      -5.430   1.324   1.350  1.00  0.00     0.072 C 
ATOM     44  H9  UNL     1      -3.355   2.287  -1.047  1.00  0.00     0.166 HD
BRANCH  42  45
HETATM   45  C19 UNL     1      -5.143   3.596   0.278  1.00  0.00     0.132 C 
HETATM   46  N10 UNL     1      -6.072   4.031   1.051  1.00  0.00    -0.386 N 
ATOM     47 2H10 UNL     1      -6.509   3.385   1.708  1.00  0.00     0.157 HD
ATOM     48 1H10 UNL     1      -6.346   5.011   0.984  1.00  0.00     0.157 HD
HETATM   49  N11 UNL     1      -4.536   4.492  -0.634  1.00  0.00    -0.081 NA
ENDBRANCH  42  45
ENDBRANCH   9  41
ENDBRANCH   5   6
BRANCH   5  50
HETATM   50  O6  UNL     1      -3.032  -4.542   0.489  1.00  0.00    -0.370 OA
ATOM     51  H6  UNL     1      -2.714  -5.432   0.583  1.00  0.00     0.212 HD
ENDBRANCH   5  50
ENDBRANCH   1   5
TORSDOF 11
