REMARK  17 active torsions:
REMARK  status: ('A' for Active; 'I' for Inactive)
REMARK    1  A    between atoms: N1_1  and  C1_4 
REMARK    2  A    between atoms: C2_7  and  O1_8 
REMARK    3  A    between atoms: C3_10  and  C4_11 
REMARK    4  A    between atoms: N5_16  and  C5_17 
REMARK    5  A    between atoms: C5_17  and  C6_18 
REMARK    6  A    between atoms: C6_18  and  O2_19 
REMARK    7  A    between atoms: C6_18  and  C7_21 
REMARK    8  A    between atoms: C8_30  and  C9_31 
REMARK    9  A    between atoms: C10_32  and  O3_33 
REMARK   10  A    between atoms: C11_35  and  O4_36 
REMARK       I    between atoms: N10_38  and  C12_39 
REMARK   11  A    between atoms: C12_39  and  C13_41 
REMARK   12  A    between atoms: C13_41  and  O6_42 
REMARK   13  A    between atoms: C14_44  and  O7_45 
REMARK   14  A    between atoms: N11_47  and  C15_48 
REMARK   15  A    between atoms: C15_48  and  C16_49 
REMARK   16  A    between atoms: C16_49  and  O8_50 
REMARK   17  A    between atoms: C16_49  and  O9_52 
ROOT
HETATM    1  C4  UNL     1       1.536   0.498  -1.212  1.00  0.00     0.110 A 
HETATM    2  N3  UNL     1       2.367  -0.223  -1.972  1.00  0.00    -0.282 N 
ATOM      3  H3  UNL     1       3.357  -0.032  -2.125  1.00  0.00     0.188 HD
HETATM    4  N4  UNL     1       1.697  -1.204  -2.478  1.00  0.00    -0.239 N 
ATOM      5  H4  UNL     1       2.088  -1.912  -3.100  1.00  0.00     0.208 HD
HETATM    6  N5  UNL     1       0.419  -1.168  -2.077  1.00  0.00    -0.272 N 
HETATM    7  C8  UNL     1       0.264  -0.107  -1.274  1.00  0.00     0.100 A 
ENDROOT
BRANCH   1   8
HETATM    8  C3  UNL     1       1.822   1.702  -0.449  1.00  0.00     0.133 A 
HETATM    9  C2  UNL     1       1.350   2.942  -0.829  1.00  0.00     0.185 A 
HETATM   10  N2  UNL     1       1.753   3.803   0.114  1.00  0.00    -0.168 N 
HETATM   11  C1  UNL     1       2.445   3.119   1.036  1.00  0.00     0.680 A 
ATOM     12  H2  UNL     1       1.566   4.806   0.128  1.00  0.00     0.186 HD
HETATM   13  N11 UNL     1       2.500   1.798   0.700  1.00  0.00    -0.172 N 
BRANCH   9  14
HETATM   14  O1  UNL     1       0.594   3.253  -1.981  1.00  0.00    -0.344 OA
ATOM     15  H1  UNL     1       0.308   2.642  -2.650  1.00  0.00     0.219 HD
ENDBRANCH   9  14
BRANCH  11  16
HETATM   16  N1  UNL     1       3.001   3.591   2.106  1.00  0.00    -0.234 N 
ATOM     17  H12 UNL     1       2.960   4.579   2.357  1.00  0.00     0.174 HD
ATOM     18  H11 UNL     1       3.528   3.071   2.808  1.00  0.00     0.174 HD
ENDBRANCH  11  16
BRANCH  13  19
HETATM   19  C15 UNL     1       3.153   0.806   1.526  1.00  0.00     0.208 C 
BRANCH  19  20
HETATM   20  C16 UNL     1       4.636   0.740   1.307  1.00  0.00     0.272 C 
BRANCH  20  21
HETATM   21  O8  UNL     1       5.239  -0.228   2.112  1.00  0.00    -0.370 OA
ATOM     22  H8  UNL     1       6.178  -0.270   1.973  1.00  0.00     0.212 HD
ENDBRANCH  20  21
BRANCH  20  23
HETATM   23  O9  UNL     1       5.038   0.484   0.014  1.00  0.00    -0.370 OA
ATOM     24  H9  UNL     1       5.977   0.442  -0.125  1.00  0.00     0.212 HD
ENDBRANCH  20  23
ENDBRANCH  19  20
ENDBRANCH  13  19
ENDBRANCH   1   8
BRANCH   7  25
HETATM   25  C9  UNL     1      -0.925   0.381  -0.601  1.00  0.00     0.084 A 
HETATM   26  C10 UNL     1      -2.069   0.937  -1.194  1.00  0.00     0.134 A 
HETATM   27  C11 UNL     1      -2.982   1.274  -0.225  1.00  0.00     0.186 A 
HETATM   28  N10 UNL     1      -2.434   0.940   0.976  1.00  0.00    -0.236 N 
HETATM   29  C12 UNL     1      -3.123   1.151   2.202  1.00  0.00     0.255 C 
HETATM   30  C14 UNL     1      -1.226   0.416   0.750  1.00  0.00     0.167 A 
HETATM   31  O5  UNL     1      -4.290   1.662   2.223  1.00  0.00    -0.270 OA
BRANCH  26  32
HETATM   32  O3  UNL     1      -2.249   1.121  -2.563  1.00  0.00    -0.356 OA
ATOM     33  H3  UNL     1      -3.023   1.497  -2.964  1.00  0.00     0.218 HD
ENDBRANCH  26  32
BRANCH  27  34
HETATM   34  O4  UNL     1      -4.241   1.854  -0.446  1.00  0.00    -0.344 OA
ATOM     35  H4  UNL     1      -4.873   2.087   0.224  1.00  0.00     0.219 HD
ENDBRANCH  27  34
BRANCH  29  36
HETATM   36  C13 UNL     1      -2.522   0.787   3.518  1.00  0.00     0.267 C 
BRANCH  36  37
HETATM   37  O6  UNL     1      -3.449   1.058   4.548  1.00  0.00    -0.392 OA
ATOM     38  H6  UNL     1      -3.066   0.826   5.386  1.00  0.00     0.210 HD
ENDBRANCH  36  37
ENDBRANCH  29  36
BRANCH  30  39
HETATM   39  O7  UNL     1      -0.389  -0.034   1.755  1.00  0.00    -0.345 OA
ATOM     40  H7  UNL     1      -0.596  -0.010   2.682  1.00  0.00     0.219 HD
ENDBRANCH  30  39
ENDBRANCH   7  25
BRANCH   6  41
HETATM   41  C5  UNL     1      -0.610  -2.124  -2.433  1.00  0.00     0.190 C 
BRANCH  41  42
HETATM   42  C6  UNL     1      -0.609  -3.312  -1.509  1.00  0.00     0.208 C 
BRANCH  42  43
HETATM   43  O2  UNL     1      -0.835  -3.022  -0.183  1.00  0.00    -0.386 OA
ATOM     44  H2  UNL     1      -0.834  -3.772   0.400  1.00  0.00     0.210 HD
ENDBRANCH  42  43
BRANCH  42  45
HETATM   45  C7  UNL     1      -1.561  -4.350  -1.935  1.00  0.00     0.144 A 
HETATM   46  N6  UNL     1      -2.868  -4.339  -1.641  1.00  0.00    -0.270 N 
HETATM   47  N7  UNL     1      -3.453  -5.395  -2.160  1.00  0.00    -0.227 N 
ATOM     48  H6  UNL     1      -3.339  -3.618  -1.095  1.00  0.00     0.190 HD
HETATM   49  N8  UNL     1      -2.524  -6.088  -2.788  1.00  0.00    -0.227 N 
ATOM     50  H7  UNL     1      -4.442  -5.634  -2.090  1.00  0.00     0.210 HD
HETATM   51  N9  UNL     1      -1.360  -5.464  -2.662  1.00  0.00    -0.270 N 
ATOM     52  H8  UNL     1      -2.676  -6.963  -3.290  1.00  0.00     0.210 HD
ATOM     53  H9  UNL     1      -0.469  -5.775  -3.049  1.00  0.00     0.190 HD
ENDBRANCH  42  45
ENDBRANCH  41  42
ENDBRANCH   6  41
TORSDOF 17
