REMARK  16 active torsions:
REMARK  status: ('A' for Active; 'I' for Inactive)
REMARK       I    between atoms: C2_2  and  N1_4 
REMARK    1  A    between atoms: N1_4  and  C3_5 
REMARK    2  A    between atoms: C4_6  and  O2_7 
REMARK    3  A    between atoms: C5_9  and  O3_10 
REMARK    4  A    between atoms: C6_12  and  N2_13 
REMARK    5  A    between atoms: N3_16  and  N4_17 
REMARK    6  A    between atoms: C7_20  and  C8_21 
REMARK    7  A    between atoms: C9_23  and  C10_24 
REMARK    8  A    between atoms: C11_30  and  N7_31 
REMARK    9  A    between atoms: C12_36  and  C13_37 
REMARK   10  A    between atoms: C13_37  and  N9_38 
REMARK   11  A    between atoms: C15_40  and  C16_41 
REMARK   12  A    between atoms: C16_41  and  O6_42 
REMARK   13  A    between atoms: O6_42  and  C17_43 
REMARK   14  A    between atoms: C17_43  and  O7_44 
REMARK   15  A    between atoms: C17_43  and  C18_46 
REMARK   16  A    between atoms: C18_46  and  O8_47 
ROOT
HETATM    1  C8  UNL     1      -1.255   0.590  -0.943  1.00  0.00     0.134 A 
HETATM    2  O4  UNL     1      -1.719   1.694  -0.420  1.00  0.00    -0.287 OA
HETATM    3  C9  UNL     1      -0.805   2.598  -0.292  1.00  0.00     0.181 A 
HETATM    4  N8  UNL     1       0.303   2.079  -0.736  1.00  0.00    -0.334 N 
ATOM      5  H8  UNL     1       1.207   2.550  -0.764  1.00  0.00     0.168 HD
HETATM    6  C12 UNL     1       0.050   0.737  -1.181  1.00  0.00     0.067 A 
ENDROOT
BRANCH   1   7
HETATM    7  C7  UNL     1      -2.188  -0.549  -1.171  1.00  0.00     0.137 A 
HETATM    8  C3  UNL     1      -3.179  -0.827  -0.253  1.00  0.00     0.178 A 
HETATM    9  C4  UNL     1      -4.164  -1.815  -0.630  1.00  0.00     0.146 A 
HETATM   10  C5  UNL     1      -4.147  -2.457  -1.790  1.00  0.00     0.148 A 
HETATM   11  C6  UNL     1      -3.116  -2.129  -2.664  1.00  0.00     0.157 A 
HETATM   12  N3  UNL     1      -2.159  -1.192  -2.369  1.00  0.00    -0.238 N 
BRANCH   8  13
HETATM   13  N1  UNL     1      -3.312  -0.397   0.967  1.00  0.00    -0.365 NA
HETATM   14  C2  UNL     1      -3.453   0.065   2.276  1.00  0.00     0.288 C 
HETATM   15  C1  UNL     1      -3.282  -0.961   3.418  1.00  0.00     0.135 C 
HETATM   16  O1  UNL     1      -3.706   1.209   2.725  1.00  0.00    -0.258 OA
ENDBRANCH   8  13
BRANCH   9  17
HETATM   17  O2  UNL     1      -5.185  -2.081   0.322  1.00  0.00    -0.355 OA
ATOM     18  H2  UNL     1      -5.833  -2.730   0.074  1.00  0.00     0.218 HD
ENDBRANCH   9  17
BRANCH  10  19
HETATM   19  O3  UNL     1      -5.051  -3.400  -2.175  1.00  0.00    -0.355 OA
ATOM     20  H3  UNL     1      -5.039  -3.860  -3.006  1.00  0.00     0.218 HD
ENDBRANCH  10  19
BRANCH  11  21
HETATM   21  N2  UNL     1      -3.048  -2.725  -3.789  1.00  0.00    -0.382 N 
ATOM     22  H22 UNL     1      -3.760  -3.422  -4.008  1.00  0.00     0.157 HD
ATOM     23  H21 UNL     1      -2.292  -2.484  -4.430  1.00  0.00     0.157 HD
ENDBRANCH  11  21
BRANCH  12  24
HETATM   24  N4  UNL     1      -1.270  -0.859  -3.389  1.00  0.00    -0.336 N 
ATOM     25  H42 UNL     1      -1.248  -1.341  -4.288  1.00  0.00     0.177 HD
ATOM     26  H41 UNL     1      -0.558  -0.162  -3.170  1.00  0.00     0.177 HD
ENDBRANCH  12  24
ENDBRANCH   1   7
BRANCH   6  27
HETATM   27  C13 UNL     1       1.175  -0.110  -1.546  1.00  0.00     0.206 C 
BRANCH  27  28
HETATM   28  N9  UNL     1       1.850  -0.436  -0.272  1.00  0.00    -0.279 N 
HETATM   29  C14 UNL     1       2.731   0.296   0.388  1.00  0.00     0.136 A 
HETATM   30  C15 UNL     1       3.182  -0.439   1.492  1.00  0.00     0.064 A 
HETATM   31  N10 UNL     1       2.538  -1.588   1.445  1.00  0.00    -0.285 N 
HETATM   32  N11 UNL     1       1.734  -1.592   0.382  1.00  0.00    -0.020 NA
ATOM     33  H10 UNL     1       2.639  -2.351   2.114  1.00  0.00     0.184 HD
BRANCH  30  34
HETATM   34  C16 UNL     1       4.231   0.132   2.393  1.00  0.00     0.230 C 
BRANCH  34  35
HETATM   35  O6  UNL     1       5.398  -0.623   2.356  1.00  0.00    -0.353 OA
BRANCH  35  36
HETATM   36  C17 UNL     1       5.918  -0.827   1.085  1.00  0.00     0.280 C 
BRANCH  36  37
HETATM   37  O7  UNL     1       7.086  -0.025   0.902  1.00  0.00    -0.369 OA
ATOM     38  H7  UNL     1       7.442  -0.165   0.032  1.00  0.00     0.212 HD
ENDBRANCH  36  37
BRANCH  36  39
HETATM   39  C18 UNL     1       6.309  -2.247   0.890  1.00  0.00     0.224 C 
BRANCH  39  40
HETATM   40  O8  UNL     1       7.284  -2.621   1.785  1.00  0.00    -0.396 OA
ATOM     41  H8  UNL     1       7.534  -3.529   1.660  1.00  0.00     0.209 HD
ENDBRANCH  39  40
ENDBRANCH  36  39
ENDBRANCH  35  36
ENDBRANCH  34  35
ENDBRANCH  30  34
ENDBRANCH  27  28
ENDBRANCH   6  27
BRANCH   3  42
HETATM   42  C10 UNL     1      -1.025   3.958   0.274  1.00  0.00     0.153 A 
HETATM   43  N5  UNL     1      -0.062   4.876   0.419  1.00  0.00    -0.234 N 
HETATM   44  O5  UNL     1      -0.654   5.968   0.920  1.00  0.00    -0.155 OA
ATOM     45  H5  UNL     1       0.927   4.766   0.193  1.00  0.00     0.197 HD
HETATM   46  N6  UNL     1      -1.920   5.790   1.093  1.00  0.00    -0.224 N 
HETATM   47  C11 UNL     1      -2.195   4.536   0.702  1.00  0.00     0.154 A 
ATOM     48  H6  UNL     1      -2.585   6.472   1.457  1.00  0.00     0.198 HD
BRANCH  47  49
HETATM   49  N7  UNL     1      -3.361   3.986   0.684  1.00  0.00    -0.382 N 
ATOM     50  H72 UNL     1      -3.570   3.033   0.387  1.00  0.00     0.157 HD
ATOM     51  H71 UNL     1      -4.230   4.415   1.002  1.00  0.00     0.157 HD
ENDBRANCH  47  49
ENDBRANCH   3  42
TORSDOF 16
