REMARK  14 active torsions:
REMARK  status: ('A' for Active; 'I' for Inactive)
REMARK    1  A    between atoms: C4_6  and  N2_7 
REMARK    2  A    between atoms: N2_7  and  C5_9 
REMARK    3  A    between atoms: C6_12  and  C7_13 
REMARK    4  A    between atoms: C8_18  and  N6_19 
REMARK    5  A    between atoms: N6_19  and  N7_21 
REMARK    6  A    between atoms: N7_21  and  C9_23 
REMARK    7  A    between atoms: C10_26  and  N10_27 
REMARK    8  A    between atoms: N10_27  and  C11_29 
REMARK    9  A    between atoms: C12_30  and  C13_31 
REMARK   10  A    between atoms: C13_31  and  O3_32 
REMARK   11  A    between atoms: C13_31  and  O4_34 
REMARK   12  A    between atoms: C14_37  and  C15_38 
REMARK   13  A    between atoms: C15_38  and  O6_39 
REMARK   14  A    between atoms: C15_38  and  O7_41 
ROOT
HETATM    1  C5  UNL     1       1.394   0.689  -0.507  1.00  0.00     0.139 A 
HETATM    2  N3  UNL     1       2.306   1.606  -0.167  1.00  0.00    -0.322 N 
ATOM      3  H3  UNL     1       3.208   1.275   0.176  1.00  0.00     0.169 HD
HETATM    4  C6  UNL     1       2.113   2.956  -0.247  1.00  0.00     0.175 A 
HETATM    5  N5  UNL     1       0.940   3.401  -0.692  1.00  0.00    -0.321 N 
ATOM      6  H5  UNL     1       0.772   4.405  -0.760  1.00  0.00     0.169 HD
HETATM    7  C8  UNL     1      -0.025   2.536  -1.052  1.00  0.00     0.152 A 
HETATM    8  C10 UNL     1       0.148   1.178  -0.980  1.00  0.00     0.123 A 
ENDROOT
BRANCH   8   9
HETATM    9  N10 UNL     1      -0.865   0.263  -1.361  1.00  0.00    -0.345 N 
ATOM     10  H10 UNL     1      -0.877  -0.040  -2.335  1.00  0.00     0.166 HD
BRANCH   9  11
HETATM   11  C11 UNL     1      -1.856  -0.264  -0.513  1.00  0.00     0.118 A 
HETATM   12  C12 UNL     1      -2.801  -1.134  -0.977  1.00  0.00     0.138 A 
HETATM   13  O5  UNL     1      -3.739  -1.640  -0.164  1.00  0.00    -0.307 OA
HETATM   14  C14 UNL     1      -3.833  -1.361   1.092  1.00  0.00     0.112 A 
HETATM   15  C16 UNL     1      -2.926  -0.497   1.640  1.00  0.00     0.095 A 
HETATM   16  C17 UNL     1      -1.926   0.060   0.832  1.00  0.00     0.203 A 
HETATM   17  O8  UNL     1      -1.095   0.843   1.307  1.00  0.00    -0.286 OA
BRANCH  12  18
HETATM   18  C13 UNL     1      -2.871  -1.579  -2.377  1.00  0.00     0.315 C 
BRANCH  18  19
HETATM   19  O3  UNL     1      -4.229  -1.533  -2.795  1.00  0.00    -0.365 OA
ATOM     20  H3  UNL     1      -4.274  -1.820  -3.699  1.00  0.00     0.213 HD
ENDBRANCH  18  19
BRANCH  18  21
HETATM   21  O4  UNL     1      -2.424  -2.918  -2.411  1.00  0.00    -0.365 OA
ATOM     22  H4  UNL     1      -2.469  -3.205  -3.315  1.00  0.00     0.213 HD
ENDBRANCH  18  21
ENDBRANCH  12  18
BRANCH  14  23
HETATM   23  C15 UNL     1      -4.893  -1.956   1.927  1.00  0.00     0.312 C 
BRANCH  23  24
HETATM   24  O6  UNL     1      -6.145  -1.910   1.276  1.00  0.00    -0.365 OA
ATOM     25  H6  UNL     1      -6.828  -2.293   1.814  1.00  0.00     0.213 HD
ENDBRANCH  23  24
BRANCH  23  26
HETATM   26  O7  UNL     1      -5.060  -1.262   3.128  1.00  0.00    -0.365 OA
ATOM     27  H7  UNL     1      -5.743  -1.645   3.666  1.00  0.00     0.213 HD
ENDBRANCH  23  26
ENDBRANCH  14  23
ENDBRANCH   9  11
ENDBRANCH   8   9
BRANCH   1  28
HETATM   28  N2  UNL     1       1.546  -0.706  -0.449  1.00  0.00    -0.326 N 
ATOM     29  H2  UNL     1       0.716  -1.208  -0.766  1.00  0.00     0.169 HD
BRANCH  28  30
HETATM   30  C4  UNL     1       2.580  -1.563  -0.054  1.00  0.00     0.116 A 
HETATM   31  C3  UNL     1       3.812  -1.243   0.416  1.00  0.00     0.123 A 
HETATM   32  C2  UNL     1       4.712  -2.252   0.758  1.00  0.00     0.254 A 
HETATM   33  N1  UNL     1       4.432  -3.550   0.650  1.00  0.00    -0.271 N 
HETATM   34  O1  UNL     1       5.870  -1.958   1.200  1.00  0.00    -0.268 OA
HETATM   35  C1  UNL     1       5.412  -4.566   1.023  1.00  0.00     0.164 C 
HETATM   36  C18 UNL     1       3.221  -3.867   0.188  1.00  0.00     0.330 A 
HETATM   37  N11 UNL     1       2.347  -2.925  -0.144  1.00  0.00    -0.294 N 
HETATM   38  O9  UNL     1       2.920  -5.080   0.072  1.00  0.00    -0.246 OA
ATOM     39  H11 UNL     1       1.436  -3.227  -0.491  1.00  0.00     0.172 HD
ENDBRANCH  28  30
ENDBRANCH   1  28
BRANCH   7  40
HETATM   40  N6  UNL     1      -1.181   2.973  -1.498  1.00  0.00    -0.285 N 
ATOM     41  H6  UNL     1      -1.925   2.333  -1.776  1.00  0.00     0.188 HD
BRANCH  40  42
HETATM   42  N7  UNL     1      -1.340   4.358  -1.572  1.00  0.00    -0.298 N 
ATOM     43  H7  UNL     1      -0.954   4.853  -2.376  1.00  0.00     0.183 HD
BRANCH  42  44
HETATM   44  C9  UNL     1      -2.030   5.117  -0.554  1.00  0.00     0.318 A 
HETATM   45  N8  UNL     1      -1.382   4.981   0.766  1.00  0.00    -0.100 NA
HETATM   46  N9  UNL     1      -2.655   4.506   0.537  1.00  0.00    -0.100 NA
ENDBRANCH  42  44
ENDBRANCH  40  42
ENDBRANCH   7  40
BRANCH   4  47
HETATM   47  C7  UNL     1       3.192   3.886   0.156  1.00  0.00     0.298 C 
HETATM   48  N4  UNL     1       4.422   3.357   0.624  1.00  0.00    -0.054 NA
HETATM   49  O2  UNL     1       3.049   5.116   0.095  1.00  0.00    -0.268 OA
ENDBRANCH   4  47
TORSDOF 14
