REMARK  13 active torsions:
REMARK  status: ('A' for Active; 'I' for Inactive)
REMARK    1  A    between atoms: O1_2  and  N1_3 
REMARK    2  A    between atoms: C3_6  and  S1_7 
REMARK    3  A    between atoms: S1_7  and  C4_8 
REMARK    4  A    between atoms: C4_8  and  C5_9 
REMARK    5  A    between atoms: C6_12  and  N3_13 
REMARK    6  A    between atoms: C11_28  and  N10_29 
REMARK    7  A    between atoms: C12_34  and  N12_35 
REMARK    8  A    between atoms: C14_40  and  C15_41 
REMARK    9  A    between atoms: C15_41  and  O3_42 
REMARK   10  A    between atoms: C16_44  and  N13_45 
REMARK   11  A    between atoms: N13_45  and  C17_48 
REMARK   12  A    between atoms: C17_48  and  O4_49 
REMARK   13  A    between atoms: C17_48  and  O5_51 
ROOT
HETATM    1  C5  UNL     1       1.449  -1.036  -0.371  1.00  0.00     0.053 A 
HETATM    2  N2  UNL     1       2.268  -0.008   0.025  1.00  0.00    -0.193 N 
ATOM      3  H2  UNL     1       1.870   0.930   0.058  1.00  0.00     0.184 HD
HETATM    4  C6  UNL     1       3.548  -0.151   0.370  1.00  0.00     0.690 A 
HETATM    5  N8  UNL     1       4.046  -1.424   0.314  1.00  0.00    -0.175 N 
ATOM      6  H8  UNL     1       5.021  -1.574   0.572  1.00  0.00     0.186 HD
HETATM    7  C10 UNL     1       3.320  -2.481  -0.061  1.00  0.00     0.152 A 
HETATM    8  N9  UNL     1       3.841  -3.728  -0.089  1.00  0.00    -0.175 N 
ATOM      9  H9  UNL     1       4.817  -3.873   0.169  1.00  0.00     0.186 HD
HETATM   10  C11 UNL     1       3.087  -4.778  -0.453  1.00  0.00     0.679 A 
HETATM   11  N11 UNL     1       1.802  -4.641  -0.801  1.00  0.00    -0.176 N 
ATOM     12  H11 UNL     1       1.256  -5.459  -1.072  1.00  0.00     0.186 HD
HETATM   13  C12 UNL     1       1.218  -3.395  -0.792  1.00  0.00     0.130 A 
HETATM   14  C13 UNL     1       1.985  -2.317  -0.419  1.00  0.00     0.077 A 
ENDROOT
BRANCH   1  15
HETATM   15  C4  UNL     1       0.052  -0.853  -0.747  1.00  0.00     0.135 C 
BRANCH  15  16
HETATM   16  S1  UNL     1      -0.309   0.952  -0.525  1.00  0.00    -0.125 SA
BRANCH  16  17
HETATM   17  C3  UNL     1      -1.953   1.230  -1.021  1.00  0.00     0.233 C 
HETATM   18  C2  UNL     1      -3.074   0.712  -0.181  1.00  0.00     0.082 C 
HETATM   19  N1  UNL     1      -3.107   0.133   0.867  1.00  0.00    -0.270 N 
HETATM   20  C16 UNL     1      -4.219   1.231  -1.031  1.00  0.00     0.273 C 
ATOM     21  H1  UNL     1      -4.092  -0.033   1.075  1.00  0.00     0.194 HD
HETATM   22  C14 UNL     1      -3.673   2.632  -1.243  1.00  0.00     0.183 C 
HETATM   23  O2  UNL     1      -2.278   2.573  -1.183  1.00  0.00    -0.360 OA
BRANCH  19  24
HETATM   24  O1  UNL     1      -2.432  -0.375   1.853  1.00  0.00    -0.285 OA
HETATM   25  C1  UNL     1      -2.856  -1.194   2.901  1.00  0.00     0.237 C 
ENDBRANCH  19  24
BRANCH  20  26
HETATM   26  N13 UNL     1      -5.496   1.114  -0.498  1.00  0.00    -0.013 N 
ATOM     27 2H13 UNL     1      -5.567   1.626   0.382  1.00  0.00     0.284 HD
ATOM     28 1H13 UNL     1      -6.169   1.640  -1.056  1.00  0.00     0.284 HD
BRANCH  26  29
HETATM   29  C17 UNL     1      -5.927  -0.241  -0.331  1.00  0.00     0.465 C 
BRANCH  29  30
HETATM   30  O4  UNL     1      -5.927  -0.945  -1.536  1.00  0.00    -0.350 OA
ATOM     31  H4  UNL     1      -6.213  -1.844  -1.425  1.00  0.00     0.214 HD
ENDBRANCH  29  30
BRANCH  29  32
HETATM   32  O5  UNL     1      -7.278  -0.280   0.094  1.00  0.00    -0.350 OA
ATOM     33  H5  UNL     1      -7.564  -1.179   0.205  1.00  0.00     0.214 HD
ENDBRANCH  29  32
ENDBRANCH  26  29
ENDBRANCH  20  26
BRANCH  22  34
HETATM   34  C15 UNL     1      -4.243   3.603  -0.245  1.00  0.00     0.198 C 
BRANCH  34  35
HETATM   35  O3  UNL     1      -3.946   3.290   1.055  1.00  0.00    -0.398 OA
ATOM     36  H3  UNL     1      -4.306   3.903   1.685  1.00  0.00     0.209 HD
ENDBRANCH  34  35
ENDBRANCH  22  34
ENDBRANCH  16  17
ENDBRANCH  15  16
ENDBRANCH   1  15
BRANCH   4  37
HETATM   37  N3  UNL     1       4.436   0.890   0.779  1.00  0.00    -0.138 N 
HETATM   38  C7  UNL     1       5.713   0.465   1.319  1.00  0.00     0.276 A 
HETATM   39  N4  UNL     1       6.528   1.575   1.715  1.00  0.00    -0.347 N 
HETATM   40  C8  UNL     1       6.239   2.810   1.622  1.00  0.00     0.191 A 
ATOM     41  H4  UNL     1       7.439   1.350   2.115  1.00  0.00     0.163 HD
HETATM   42  N5  UNL     1       7.201   3.756   2.077  1.00  0.00    -0.063 NA
HETATM   43  N6  UNL     1       4.984   3.219   1.081  1.00  0.00    -0.304 N 
HETATM   44  C9  UNL     1       4.164   2.266   0.694  1.00  0.00     0.213 A 
ATOM     45  H6  UNL     1       4.734   4.204   0.998  1.00  0.00     0.171 HD
HETATM   46  N7  UNL     1       2.905   2.631   0.147  1.00  0.00    -0.062 NA
ENDBRANCH   4  37
BRANCH  13  47
HETATM   47  N12 UNL     1      -0.012  -3.294  -1.129  1.00  0.00    -0.384 N 
ATOM     48 2H12 UNL     1      -0.581  -4.094  -1.406  1.00  0.00     0.157 HD
ATOM     49 1H12 UNL     1      -0.445  -2.370  -1.122  1.00  0.00     0.157 HD
ENDBRANCH  13  47
BRANCH  10  50
HETATM   50  N10 UNL     1       3.639  -5.944  -0.462  1.00  0.00    -0.234 N 
ATOM     51 2H10 UNL     1       4.618  -6.048  -0.197  1.00  0.00     0.174 HD
ATOM     52 1H10 UNL     1       3.066  -6.741  -0.738  1.00  0.00     0.174 HD
ENDBRANCH  10  50
TORSDOF 13
