REMARK  15 active torsions:
REMARK  status: ('A' for Active; 'I' for Inactive)
REMARK    1  A    between atoms: N1_1  and  C1_5 
REMARK    2  A    between atoms: C1_5  and  C2_6 
REMARK    3  A    between atoms: C2_6  and  C3_7 
REMARK    4  A    between atoms: C2_6  and  N5_23 
REMARK    5  A    between atoms: C3_7  and  N2_8 
REMARK    6  A    between atoms: C4_13  and  C5_14 
REMARK    7  A    between atoms: C11_20  and  O1_21 
REMARK    8  A    between atoms: N5_23  and  C12_25 
REMARK    9  A    between atoms: C13_28  and  C14_29 
REMARK   10  A    between atoms: N10_36  and  C15_37 
REMARK   11  A    between atoms: C17_42  and  O2_43 
REMARK   12  A    between atoms: C18_45  and  O3_46 
REMARK   13  A    between atoms: C19_48  and  O4_49 
REMARK   14  A    between atoms: C20_51  and  N12_52 
REMARK   15  A    between atoms: C21_56  and  O5_57 
ROOT
HETATM    1  C12 UNL     1      -0.268  -0.019   0.023  1.00  0.00     0.205 C 
HETATM    2  N6  UNL     1      -1.506   0.664  -0.218  1.00  0.00    -0.386 N 
ATOM      3  H6  UNL     1      -1.511   1.668  -0.399  1.00  0.00     0.156 HD
HETATM    4  C13 UNL     1      -2.710  -0.057  -0.204  1.00  0.00     0.180 C 
HETATM    5  C19 UNL     1      -2.520  -1.507  -0.410  1.00  0.00     0.181 C 
HETATM    6  C20 UNL     1      -1.537  -2.115   0.517  1.00  0.00     0.246 C 
HETATM    7  C21 UNL     1      -0.351  -1.229   0.846  1.00  0.00     0.192 C 
ENDROOT
BRANCH   1   8
HETATM    8  N5  UNL     1       0.464  -0.100  -1.157  1.00  0.00    -0.392 N 
ATOM      9  H5  UNL     1      -0.043  -0.043  -2.040  1.00  0.00     0.155 HD
BRANCH   8  10
HETATM   10  C2  UNL     1       1.857  -0.255  -1.205  1.00  0.00     0.124 C 
BRANCH  10  11
HETATM   11  C1  UNL     1       2.201  -0.766  -2.608  1.00  0.00     0.256 C 
BRANCH  11  12
HETATM   12  N1  UNL     1       1.526  -2.045  -2.772  1.00  0.00    -0.077 N 
ATOM     13  H13 UNL     1       1.751  -2.714  -2.036  1.00  0.00     0.274 HD
ATOM     14  H12 UNL     1       0.522  -1.993  -2.599  1.00  0.00     0.274 HD
ATOM     15  H11 UNL     1       1.755  -2.385  -3.706  1.00  0.00     0.274 HD
ENDBRANCH  11  12
ENDBRANCH  10  11
BRANCH  10  16
HETATM   16  C3  UNL     1       2.554   1.099  -0.990  1.00  0.00     0.179 C 
BRANCH  16  17
HETATM   17  N2  UNL     1       3.987   1.001  -1.107  1.00  0.00    -0.253 N 
HETATM   18  N3  UNL     1       4.687   1.153  -2.236  1.00  0.00    -0.238 N 
HETATM   19  N4  UNL     1       5.977   1.004  -2.011  1.00  0.00    -0.281 N 
ATOM     20  H3  UNL     1       4.278   1.357  -3.148  1.00  0.00     0.208 HD
HETATM   21  C4  UNL     1       6.150   0.743  -0.689  1.00  0.00     0.112 A 
ATOM     22  H4  UNL     1       6.718   1.073  -2.709  1.00  0.00     0.188 HD
HETATM   23  C11 UNL     1       4.886   0.746  -0.146  1.00  0.00     0.188 A 
BRANCH  21  24
HETATM   24  C5  UNL     1       7.436   0.504  -0.015  1.00  0.00    -0.004 A 
HETATM   25  C6  UNL     1       7.629  -0.505   0.901  1.00  0.00     0.014 A 
HETATM   26  C7  UNL     1       8.842  -0.711   1.511  1.00  0.00     0.001 A 
HETATM   27  C8  UNL     1       9.900   0.108   1.203  1.00  0.00     0.000 A 
HETATM   28  C9  UNL     1       9.718   1.116   0.291  1.00  0.00     0.001 A 
HETATM   29  C10 UNL     1       8.498   1.320  -0.318  1.00  0.00     0.014 A 
ENDBRANCH  21  24
BRANCH  23  30
HETATM   30  O1  UNL     1       4.631   0.514   1.213  1.00  0.00    -0.343 OA
ATOM     31  H1  UNL     1       5.268   0.333   1.894  1.00  0.00     0.219 HD
ENDBRANCH  23  30
ENDBRANCH  16  17
ENDBRANCH  10  16
ENDBRANCH   8  10
ENDBRANCH   1   8
BRANCH   7  32
HETATM   32  O5  UNL     1       0.769  -2.022   0.744  1.00  0.00    -0.390 OA
ATOM     33  H5  UNL     1       0.715  -2.806   1.277  1.00  0.00     0.210 HD
ENDBRANCH   7  32
BRANCH   4  34
HETATM   34  C14 UNL     1      -3.542   0.311   0.968  1.00  0.00     0.143 A 
HETATM   35  N7  UNL     1      -3.098   0.374   2.220  1.00  0.00    -0.270 N 
HETATM   36  N8  UNL     1      -4.103   0.741   2.985  1.00  0.00    -0.227 N 
ATOM     37  H7  UNL     1      -2.148   0.173   2.531  1.00  0.00     0.190 HD
HETATM   38  N9  UNL     1      -5.162   0.903   2.220  1.00  0.00    -0.222 N 
ATOM     39  H8  UNL     1      -4.068   0.877   3.995  1.00  0.00     0.210 HD
HETATM   40  N10 UNL     1      -4.833   0.642   0.975  1.00  0.00    -0.227 N 
ATOM     41  H9  UNL     1      -6.088   1.185   2.542  1.00  0.00     0.210 HD
BRANCH  40  42
HETATM   42  C15 UNL     1      -5.769   0.732  -0.133  1.00  0.00     0.340 C 
HETATM   43  N11 UNL     1      -6.755  -0.288   0.030  1.00  0.00    -0.047 N 
HETATM   44  C16 UNL     1      -7.749   0.201   0.951  1.00  0.00     0.269 C 
ATOM     45 2H11 UNL     1      -7.155  -0.596  -0.856  1.00  0.00     0.279 HD
ATOM     46 1H11 UNL     1      -6.356  -1.182   0.317  1.00  0.00     0.279 HD
HETATM   47  C17 UNL     1      -7.693   1.699   0.873  1.00  0.00     0.176 C 
HETATM   48  C18 UNL     1      -6.571   2.035  -0.053  1.00  0.00     0.200 C 
BRANCH  47  49
HETATM   49  O2  UNL     1      -8.873   2.199   0.291  1.00  0.00    -0.391 OA
ATOM     50  H2  UNL     1      -8.838   3.147   0.242  1.00  0.00     0.210 HD
ENDBRANCH  47  49
BRANCH  48  51
HETATM   51  O3  UNL     1      -7.065   2.265  -1.345  1.00  0.00    -0.389 OA
ATOM     52  H3  UNL     1      -7.562   3.073  -1.295  1.00  0.00     0.210 HD
ENDBRANCH  48  51
ENDBRANCH  40  42
ENDBRANCH   4  34
BRANCH   6  53
HETATM   53  N12 UNL     1      -1.066  -3.378  -0.089  1.00  0.00    -0.070 N 
ATOM     54 3H12 UNL     1      -1.829  -4.011  -0.328  1.00  0.00     0.274 HD
ATOM     55 2H12 UNL     1      -0.696  -3.251  -1.031  1.00  0.00     0.274 HD
ATOM     56 1H12 UNL     1      -0.389  -3.797   0.549  1.00  0.00     0.274 HD
ENDBRANCH   6  53
BRANCH   5  57
HETATM   57  O4  UNL     1      -2.059  -1.689  -1.737  1.00  0.00    -0.391 OA
ATOM     58  H4  UNL     1      -1.937  -2.622  -1.870  1.00  0.00     0.210 HD
ENDBRANCH   5  57
TORSDOF 15
