REMARK  14 active torsions:
REMARK  status: ('A' for Active; 'I' for Inactive)
REMARK    1  A    between atoms: C3_7  and  C4_8 
REMARK    2  A    between atoms: C4_8  and  C5_9 
REMARK    3  A    between atoms: C5_9  and  C6_10 
REMARK    4  A    between atoms: C6_10  and  S1_11 
REMARK    5  A    between atoms: S1_11  and  C7_12 
REMARK    6  A    between atoms: C7_12  and  C8_13 
REMARK    7  A    between atoms: C8_13  and  C9_14 
REMARK    8  A    between atoms: C10_19  and  N5_20 
REMARK    9  A    between atoms: N6_23  and  O1_24 
REMARK   10  A    between atoms: C11_26  and  C12_27 
REMARK   11  A    between atoms: C12_27  and  O2_28 
REMARK   12  A    between atoms: C14_35  and  N9_36 
REMARK   13  A    between atoms: C15_41  and  N11_42 
REMARK   14  A    between atoms: C16_46  and  N13_47 
ROOT
HETATM    1  C4  UNL     1      -1.986  -0.378   0.264  1.00  0.00     0.187 C 
HETATM    2  N7  UNL     1      -2.991   0.202   1.177  1.00  0.00    -0.190 N 
ATOM      3  H7  UNL     1      -2.994  -0.047   2.166  1.00  0.00     0.180 HD
HETATM    4  C13 UNL     1      -3.940   1.098   0.669  1.00  0.00     0.715 A 
HETATM    5  N8  UNL     1      -5.218   1.147   1.083  1.00  0.00    -0.021 N 
ATOM      6  H8  UNL     1      -5.532   0.492   1.800  1.00  0.00     0.203 HD
HETATM    7  C14 UNL     1      -6.091   2.030   0.582  1.00  0.00     0.705 A 
HETATM    8  N10 UNL     1      -5.650   2.877  -0.358  1.00  0.00    -0.022 N 
ATOM      9  H10 UNL     1      -6.303   3.556  -0.750  1.00  0.00     0.203 HD
HETATM   10  C15 UNL     1      -4.363   2.869  -0.813  1.00  0.00     0.710 A 
HETATM   11  N12 UNL     1      -3.530   1.962  -0.277  1.00  0.00     0.034 N 
HETATM   12  C16 UNL     1      -2.142   1.847  -0.686  1.00  0.00     0.425 C 
HETATM   13  N14 UNL     1      -1.831   0.432  -0.862  1.00  0.00    -0.346 N 
ATOM     14  H14 UNL     1      -1.518   0.056  -1.757  1.00  0.00     0.160 HD
ENDROOT
BRANCH   1  15
HETATM   15  C3  UNL     1      -2.551  -1.762   0.011  1.00  0.00     0.190 A 
HETATM   16  N2  UNL     1      -2.869  -2.529   1.090  1.00  0.00    -0.278 N 
HETATM   17  N1  UNL     1      -3.333  -3.686   0.642  1.00  0.00    -0.282 N 
ATOM     18  H2  UNL     1      -2.768  -2.261   2.069  1.00  0.00     0.189 HD
HETATM   19  C2  UNL     1      -3.283  -3.587  -0.704  1.00  0.00     0.136 A 
ATOM     20  H1  UNL     1      -3.658  -4.480   1.194  1.00  0.00     0.189 HD
HETATM   21  C1  UNL     1      -3.716  -4.679  -1.627  1.00  0.00     0.099 C 
HETATM   22  O3  UNL     1      -2.806  -2.409  -1.060  1.00  0.00    -0.278 OA
ENDBRANCH   1  15
BRANCH   1  23
HETATM   23  C5  UNL     1      -0.715  -0.697   1.071  1.00  0.00     0.073 C 
BRANCH  23  24
HETATM   24  C6  UNL     1       0.127  -1.635   0.219  1.00  0.00     0.078 C 
BRANCH  24  25
HETATM   25  S1  UNL     1       0.770  -0.904  -1.258  1.00  0.00    -0.169 SA
BRANCH  25  26
HETATM   26  C7  UNL     1       2.607  -0.945  -1.304  1.00  0.00     0.080 C 
BRANCH  26  27
HETATM   27  C8  UNL     1       3.208  -0.992   0.068  1.00  0.00     0.071 C 
BRANCH  27  28
HETATM   28  C9  UNL     1       4.680  -0.958   0.113  1.00  0.00     0.055 A 
HETATM   29  N3  UNL     1       5.444  -2.062   0.140  1.00  0.00    -0.288 N 
HETATM   30  N4  UNL     1       6.788  -1.961   0.158  1.00  0.00    -0.130 N 
ATOM     31  H3  UNL     1       5.005  -2.983   0.147  1.00  0.00     0.187 HD
HETATM   32  C10 UNL     1       7.436  -0.788   0.147  1.00  0.00     0.717 A 
ATOM     33  H4  UNL     1       7.339  -2.819   0.181  1.00  0.00     0.205 HD
HETATM   34  N6  UNL     1       6.700   0.338   0.119  1.00  0.00    -0.052 N 
HETATM   35  C11 UNL     1       5.346   0.247   0.103  1.00  0.00     0.106 A 
BRANCH  32  36
HETATM   36  N5  UNL     1       8.710  -0.682   0.165  1.00  0.00    -0.231 N 
ATOM     37  H52 UNL     1       9.268  -1.536   0.186  1.00  0.00     0.174 HD
ATOM     38  H51 UNL     1       9.203   0.211   0.157  1.00  0.00     0.174 HD
ENDBRANCH  32  36
BRANCH  34  39
HETATM   39  O1  UNL     1       7.335   1.549   0.101  1.00  0.00    -0.269 OA
ATOM     40  H1  UNL     1       6.815   2.344   0.081  1.00  0.00     0.245 HD
ENDBRANCH  34  39
BRANCH  35  41
HETATM   41  C12 UNL     1       4.556   1.513   0.119  1.00  0.00     0.226 C 
BRANCH  41  42
HETATM   42  O2  UNL     1       5.368   2.633   0.117  1.00  0.00    -0.395 OA
ATOM     43  H2  UNL     1       4.865   3.439   0.127  1.00  0.00     0.209 HD
ENDBRANCH  41  42
ENDBRANCH  35  41
ENDBRANCH  27  28
ENDBRANCH  26  27
ENDBRANCH  25  26
ENDBRANCH  24  25
ENDBRANCH  23  24
ENDBRANCH   1  23
BRANCH  12  44
HETATM   44  N13 UNL     1      -1.335   2.476   0.324  1.00  0.00    -0.039 N 
ATOM     45 3H13 UNL     1      -1.614   3.439   0.512  1.00  0.00     0.279 HD
ATOM     46 2H13 UNL     1      -1.505   2.102   1.257  1.00  0.00     0.279 HD
ATOM     47 1H13 UNL     1      -0.360   2.395   0.037  1.00  0.00     0.279 HD
ENDBRANCH  12  44
BRANCH   7  48
HETATM   48  N9  UNL     1      -7.334   2.059   1.000  1.00  0.00    -0.234 N 
ATOM     49  H92 UNL     1      -7.670   1.414   1.716  1.00  0.00     0.174 HD
ATOM     50  H91 UNL     1      -7.999   2.732   0.618  1.00  0.00     0.174 HD
ENDBRANCH   7  48
BRANCH  10  51
HETATM   51  N11 UNL     1      -3.959   3.712  -1.719  1.00  0.00    -0.233 N 
ATOM     52 2H11 UNL     1      -4.592   4.401  -2.126  1.00  0.00     0.174 HD
ATOM     53 1H11 UNL     1      -2.997   3.706  -2.059  1.00  0.00     0.174 HD
ENDBRANCH  10  51
TORSDOF 14
