REMARK  9 active torsions:
REMARK  status: ('A' for Active; 'I' for Inactive)
REMARK    1  A    between atoms: N1_1  and  N2_4 
REMARK    2  A    between atoms: N2_4  and  C1_6 
REMARK    3  A    between atoms: C1_6  and  C2_7 
REMARK    4  A    between atoms: C3_8  and  N3_9 
REMARK    5  A    between atoms: N3_9  and  C4_12 
REMARK    6  A    between atoms: C6_19  and  N7_20 
REMARK    7  A    between atoms: N7_20  and  C7_22 
REMARK    8  A    between atoms: C10_26  and  N9_27 
REMARK    9  A    between atoms: C12_31  and  N10_32 
ROOT
HETATM    1  C4  UNL     1      -0.018  -0.744  -1.666  1.00  0.00     0.330 C 
HETATM    2  N4  UNL     1       0.007   0.426  -2.507  1.00  0.00    -0.334 N 
ATOM      3  H4  UNL     1      -0.794   1.027  -2.702  1.00  0.00     0.164 HD
HETATM    4  C5  UNL     1       1.178   0.596  -2.969  1.00  0.00     0.187 C 
HETATM    5  N5  UNL     1       1.639   1.647  -3.854  1.00  0.00    -0.064 NA
HETATM    6  N6  UNL     1       2.074  -0.407  -2.488  1.00  0.00    -0.340 N 
ATOM      7  H6  UNL     1       3.027  -0.573  -2.810  1.00  0.00     0.164 HD
HETATM    8  C6  UNL     1       1.388  -1.129  -1.478  1.00  0.00     0.234 C 
ENDROOT
BRANCH   1   9
HETATM    9  N3  UNL     1      -0.851  -0.549  -0.497  1.00  0.00    -0.036 N 
ATOM     10  H32 UNL     1      -0.535   0.216   0.098  1.00  0.00     0.281 HD
ATOM     11  H31 UNL     1      -0.758  -1.296   0.192  1.00  0.00     0.281 HD
BRANCH   9  12
HETATM   12  C3  UNL     1      -2.208  -0.378  -0.972  1.00  0.00     0.288 C 
HETATM   13  C2  UNL     1      -3.091   0.557  -0.290  1.00  0.00     0.033 C 
HETATM   14  C14 UNL     1      -4.064  -0.317   0.432  1.00  0.00     0.186 C 
HETATM   15  N12 UNL     1      -3.904  -1.595  -0.151  1.00  0.00    -0.341 N 
HETATM   16  N13 UNL     1      -5.418   0.168   0.327  1.00  0.00    -0.342 N 
HETATM   17  S1  UNL     1      -3.909  -0.334   2.241  1.00  0.00    -0.104 SA
HETATM   18  C13 UNL     1      -2.907  -1.689  -0.926  1.00  0.00     0.127 C 
ATOM     19  H12 UNL     1      -4.536  -2.373   0.036  1.00  0.00     0.164 HD
HETATM   20  N11 UNL     1      -2.520  -2.886  -1.670  1.00  0.00    -0.085 NA
HETATM   21  C15 UNL     1      -6.200   0.013   1.269  1.00  0.00     0.101 C 
ATOM     22  H13 UNL     1      -5.728   0.638  -0.523  1.00  0.00     0.164 HD
HETATM   23  N14 UNL     1      -7.579   0.475   1.236  1.00  0.00    -0.087 NA
HETATM   24  C16 UNL     1      -5.714  -0.682   2.486  1.00  0.00     0.151 C 
BRANCH  13  25
HETATM   25  C1  UNL     1      -2.608   1.751   0.396  1.00  0.00     0.117 C 
BRANCH  25  26
HETATM   26  N2  UNL     1      -1.714   1.701   1.450  1.00  0.00    -0.318 N 
ATOM     27  H2  UNL     1      -1.296   0.837   1.796  1.00  0.00     0.185 HD
BRANCH  26  28
HETATM   28  N1  UNL     1      -1.450   2.934   1.979  1.00  0.00    -0.345 N 
ATOM     29  H12 UNL     1      -1.875   3.790   1.623  1.00  0.00     0.176 HD
ATOM     30  H11 UNL     1      -0.791   2.897   2.756  1.00  0.00     0.176 HD
ENDBRANCH  26  28
ENDBRANCH  25  26
ENDBRANCH  13  25
ENDBRANCH   9  12
ENDBRANCH   1   9
BRANCH   8  31
HETATM   31  N7  UNL     1       1.965  -1.129  -0.199  1.00  0.00    -0.363 N 
ATOM     32  H7  UNL     1       1.363  -1.489   0.542  1.00  0.00     0.162 HD
BRANCH  31  33
HETATM   33  C7  UNL     1       3.247  -0.710   0.228  1.00  0.00     0.065 A 
HETATM   34  C8  UNL     1       3.946   0.337  -0.334  1.00  0.00     0.060 A 
HETATM   35  C9  UNL     1       5.183   0.802   0.139  1.00  0.00     0.081 A 
HETATM   36  N8  UNL     1       5.857   1.884  -0.481  1.00  0.00    -0.100 NA
HETATM   37  C10 UNL     1       5.753   0.209   1.215  1.00  0.00     0.129 A 
HETATM   38  C11 UNL     1       5.106  -0.824   1.807  1.00  0.00     0.076 A 
HETATM   39  C12 UNL     1       3.869  -1.300   1.345  1.00  0.00     0.131 A 
BRANCH  37  40
HETATM   40  N9  UNL     1       7.015   0.619   1.760  1.00  0.00    -0.114 N 
HETATM   41  O1  UNL     1       7.730  -0.220   2.367  1.00  0.00    -0.532 OA
HETATM   42  O2  UNL     1       7.496   1.890   1.655  1.00  0.00    -0.532 OA
ENDBRANCH  37  40
BRANCH  39  43
HETATM   43  N10 UNL     1       3.363  -2.397   2.043  1.00  0.00    -0.113 N 
HETATM   44  O3  UNL     1       4.223  -3.198   2.567  1.00  0.00    -0.532 OA
HETATM   45  O4  UNL     1       2.081  -2.763   2.250  1.00  0.00    -0.532 OA
ENDBRANCH  39  43
ENDBRANCH  31  33
ENDBRANCH   8  31
TORSDOF 9
