REMARK  12 active torsions:
REMARK  status: ('A' for Active; 'I' for Inactive)
REMARK    1  A    between atoms: O1_2  and  C2_3 
REMARK    2  A    between atoms: C2_3  and  N15_45 
REMARK    3  A    between atoms: N1_4  and  C3_6 
REMARK    4  A    between atoms: C4_9  and  N3_10 
REMARK    5  A    between atoms: C6_12  and  C7_13 
REMARK    6  A    between atoms: N4_15  and  C9_16 
REMARK    7  A    between atoms: C9_16  and  C10_17 
REMARK    8  A    between atoms: C10_17  and  O2_18 
REMARK    9  A    between atoms: C11_28  and  O3_29 
REMARK   10  A    between atoms: C13_31  and  N9_32 
REMARK   11  A    between atoms: N9_32  and  C14_34 
REMARK   12  A    between atoms: N13_41  and  N14_42 
REMARK       I    between atoms: N15_45  and  C16_47 
ROOT
HETATM    1  C3  UNL     1      -2.038  -0.044  -0.946  1.00  0.00     0.709 A 
HETATM    2  N2  UNL     1      -0.804  -0.384  -0.583  1.00  0.00    -0.170 N 
ATOM      3  H2  UNL     1      -0.505  -1.348  -0.729  1.00  0.00     0.186 HD
HETATM    4  C4  UNL     1       0.067   0.475  -0.035  1.00  0.00     0.180 A 
HETATM    5  C11 UNL     1      -0.347   1.771   0.157  1.00  0.00     0.162 A 
HETATM    6  C13 UNL     1      -1.642   2.182  -0.209  1.00  0.00     0.184 A 
HETATM    7  N13 UNL     1      -2.423   1.247  -0.744  1.00  0.00    -0.073 N 
ENDROOT
BRANCH   4   8
HETATM    8  N3  UNL     1       1.362   0.015   0.315  1.00  0.00    -0.231 N 
HETATM    9  C5  UNL     1       2.284  -0.547  -0.525  1.00  0.00     0.153 A 
HETATM   10  C6  UNL     1       3.373  -0.834   0.229  1.00  0.00     0.096 A 
HETATM   11  N7  UNL     1       3.067  -0.438   1.477  1.00  0.00    -0.282 N 
HETATM   12  N8  UNL     1       1.854   0.076   1.540  1.00  0.00    -0.234 N 
ATOM     13  H7  UNL     1       3.695  -0.524   2.276  1.00  0.00     0.188 HD
ATOM     14  H8  UNL     1       1.389   0.447   2.369  1.00  0.00     0.209 HD
BRANCH  10  15
HETATM   15  C7  UNL     1       4.635  -1.439  -0.177  1.00  0.00     0.096 A 
HETATM   16  C8  UNL     1       5.721  -1.701   0.651  1.00  0.00     0.145 A 
HETATM   17  N4  UNL     1       6.701  -2.259  -0.081  1.00  0.00    -0.285 N 
HETATM   18  N5  UNL     1       6.263  -2.350  -1.318  1.00  0.00    -0.240 N 
HETATM   19  N6  UNL     1       5.018  -1.860  -1.394  1.00  0.00    -0.283 N 
ATOM     20  H5  UNL     1       6.791  -2.735  -2.101  1.00  0.00     0.208 HD
ATOM     21  H6  UNL     1       4.451  -1.814  -2.241  1.00  0.00     0.188 HD
BRANCH  17  22
HETATM   22  C9  UNL     1       7.985  -2.665   0.449  1.00  0.00     0.175 C 
BRANCH  22  23
HETATM   23  C10 UNL     1       8.967  -1.518   0.356  1.00  0.00     0.185 C 
BRANCH  23  24
HETATM   24  O2  UNL     1       8.564  -0.398   1.062  1.00  0.00    -0.399 OA
ATOM     25  H2  UNL     1       9.181   0.322   1.004  1.00  0.00     0.209 HD
ENDBRANCH  23  24
ENDBRANCH  22  23
ENDBRANCH  17  22
ENDBRANCH  10  15
ENDBRANCH   4   8
BRANCH   5  26
HETATM   26  O3  UNL     1       0.489   2.728   0.718  1.00  0.00    -0.349 OA
HETATM   27  C12 UNL     1       0.497   2.927   2.118  1.00  0.00     0.210 C 
ENDBRANCH   5  26
BRANCH   1  28
HETATM   28  N1  UNL     1      -2.914  -0.999  -1.522  1.00  0.00    -0.153 N 
HETATM   29  C2  UNL     1      -3.612  -1.835  -0.875  1.00  0.00     0.239 C 
ATOM     30  H1  UNL     1      -2.988  -1.014  -2.539  1.00  0.00     0.188 HD
BRANCH  29  31
HETATM   31  O1  UNL     1      -4.433  -2.722  -1.535  1.00  0.00    -0.327 OA
HETATM   32  C1  UNL     1      -4.595  -2.725  -2.941  1.00  0.00     0.213 C 
ENDBRANCH  29  31
BRANCH  29  33
HETATM   33  N15 UNL     1      -3.558  -1.870   0.536  1.00  0.00    -0.296 N 
HETATM   34  C16 UNL     1      -3.651  -3.115   1.217  1.00  0.00     0.189 C 
HETATM   35  N16 UNL     1      -3.034  -3.320   2.329  1.00  0.00    -0.373 N 
HETATM   36  N17 UNL     1      -4.425  -4.178   0.698  1.00  0.00    -0.064 NA
ATOM     37 2H16 UNL     1      -2.476  -2.553   2.703  1.00  0.00     0.158 HD
ATOM     38 1H16 UNL     1      -3.101  -4.213   2.817  1.00  0.00     0.158 HD
ATOM     39  H15 UNL     1      -3.453  -1.004   1.065  1.00  0.00     0.172 HD
ENDBRANCH  29  33
ENDBRANCH   1  28
BRANCH   6  40
HETATM   40  N9  UNL     1      -1.962   3.372  -0.008  1.00  0.00    -0.320 N 
ATOM     41  H9  UNL     1      -1.215   3.923   0.415  1.00  0.00     0.169 HD
BRANCH  40  42
HETATM   42  C14 UNL     1      -3.116   4.102  -0.238  1.00  0.00     0.165 A 
HETATM   43  N10 UNL     1      -3.560   4.908  -1.217  1.00  0.00    -0.281 N 
HETATM   44  N11 UNL     1      -4.669   5.098  -0.545  1.00  0.00    -0.283 N 
ATOM     45  H10 UNL     1      -3.189   5.235  -2.109  1.00  0.00     0.188 HD
HETATM   46  C15 UNL     1      -4.304   4.313   0.467  1.00  0.00     0.176 A 
ATOM     47  H11 UNL     1      -5.508   5.648  -0.730  1.00  0.00     0.188 HD
HETATM   48  N12 UNL     1      -4.874   3.895   1.693  1.00  0.00    -0.077 NA
ENDBRANCH  40  42
ENDBRANCH   6  40
BRANCH   7  49
HETATM   49  N14 UNL     1      -3.723   1.575  -1.134  1.00  0.00    -0.322 N 
ATOM     50 2H14 UNL     1      -4.322   0.858  -1.544  1.00  0.00     0.178 HD
ATOM     51 1H14 UNL     1      -4.011   2.542  -0.983  1.00  0.00     0.178 HD
ENDBRANCH   7  49
TORSDOF 12
