REMARK  14 active torsions:
REMARK  status: ('A' for Active; 'I' for Inactive)
REMARK    1  A    between atoms: O1_2  and  C2_3 
REMARK    2  A    between atoms: C2_3  and  O2_4 
REMARK    3  A    between atoms: C2_3  and  C3_6 
REMARK    4  A    between atoms: C5_14  and  N3_15 
REMARK    5  A    between atoms: N3_15  and  C6_17 
REMARK    6  A    between atoms: C6_17  and  O3_18 
REMARK    7  A    between atoms: C6_17  and  C7_20 
REMARK    8  A    between atoms: C9_24  and  O4_25 
REMARK    9  A    between atoms: C10_28  and  N5_29 
REMARK   10  A    between atoms: C11_31  and  C13_33 
REMARK   11  A    between atoms: C13_33  and  C14_35 
REMARK   12  A    between atoms: C14_35  and  O7_36 
REMARK   13  A    between atoms: C14_35  and  O8_38 
REMARK   14  A    between atoms: C16_43  and  O9_44 
ROOT
HETATM    1  C7  UNL     1      -0.955  -1.652  -0.487  1.00  0.00     0.112 A 
HETATM    2  N4  UNL     1      -0.455  -0.425  -0.773  1.00  0.00    -0.347 N 
ATOM      3  H4  UNL     1      -1.048   0.254  -1.250  1.00  0.00     0.166 HD
HETATM    4  C8  UNL     1       0.788  -0.083  -0.448  1.00  0.00     0.121 A 
HETATM    5  C9  UNL     1       1.283   1.161  -0.742  1.00  0.00     0.216 A 
HETATM    6  O5  UNL     1       2.513   1.448  -0.401  1.00  0.00    -0.253 OA
HETATM    7  C10 UNL     1       3.309   0.596   0.217  1.00  0.00     0.231 A 
HETATM    8  N6  UNL     1       2.895  -0.651   0.542  1.00  0.00    -0.317 N 
ATOM      9  H6  UNL     1       3.525  -1.296   1.019  1.00  0.00     0.169 HD
HETATM   10  C15 UNL     1       1.650  -1.028   0.230  1.00  0.00     0.104 A 
HETATM   11  C16 UNL     1       1.138  -2.270   0.516  1.00  0.00     0.147 A 
HETATM   12  C17 UNL     1      -0.157  -2.576   0.159  1.00  0.00     0.234 A 
HETATM   13  O10 UNL     1      -0.623  -3.711   0.422  1.00  0.00    -0.283 OA
ENDROOT
BRANCH   1  14
HETATM   14  C6  UNL     1      -2.336  -1.947  -0.882  1.00  0.00     0.274 C 
BRANCH  14  15
HETATM   15  N3  UNL     1      -3.242  -0.872  -0.557  1.00  0.00    -0.344 N 
ATOM     16  H3  UNL     1      -2.855  -0.006  -0.182  1.00  0.00     0.164 HD
BRANCH  15  17
HETATM   17  C5  UNL     1      -4.677  -0.967  -0.740  1.00  0.00     0.123 A 
HETATM   18  C3  UNL     1      -5.492   0.087  -0.415  1.00  0.00     0.084 A 
HETATM   19  S1  UNL     1      -7.040  -0.519  -0.806  1.00  0.00    -0.050 SA
HETATM   20  C4  UNL     1      -6.570  -2.059  -1.355  1.00  0.00     0.144 A 
HETATM   21  N1  UNL     1      -7.320  -3.040  -1.810  1.00  0.00    -0.380 N 
HETATM   22  N2  UNL     1      -5.246  -2.044  -1.215  1.00  0.00    -0.322 N 
ATOM     23  H12 UNL     1      -8.334  -3.051  -1.917  1.00  0.00     0.158 HD
ATOM     24  H11 UNL     1      -7.038  -3.963  -2.139  1.00  0.00     0.158 HD
ATOM     25  H2  UNL     1      -4.687  -2.857  -1.473  1.00  0.00     0.169 HD
BRANCH  18  26
HETATM   26  C2  UNL     1      -5.105   1.433   0.144  1.00  0.00     0.301 C 
BRANCH  26  27
HETATM   27  O1  UNL     1      -5.816   2.402  -0.563  1.00  0.00    -0.361 OA
HETATM   28  C1  UNL     1      -4.979   3.277  -1.233  1.00  0.00     0.205 C 
ENDBRANCH  26  27
BRANCH  26  29
HETATM   29  O2  UNL     1      -5.417   1.431   1.492  1.00  0.00    -0.366 OA
ATOM     30  H2  UNL     1      -4.933   0.771   1.974  1.00  0.00     0.213 HD
ENDBRANCH  26  29
ENDBRANCH  18  26
ENDBRANCH  15  17
ENDBRANCH  14  15
BRANCH  14  31
HETATM   31  O3  UNL     1      -2.437  -2.262  -2.250  1.00  0.00    -0.371 OA
ATOM     32  H3  UNL     1      -1.841  -2.970  -2.464  1.00  0.00     0.212 HD
ENDBRANCH  14  31
ENDBRANCH   1  14
BRANCH  11  33
HETATM   33  O9  UNL     1       1.926  -3.211   1.165  1.00  0.00    -0.355 OA
ATOM     34  H9  UNL     1       1.572  -4.070   1.363  1.00  0.00     0.218 HD
ENDBRANCH  11  33
BRANCH   5  35
HETATM   35  O4  UNL     1       0.498   2.128  -1.399  1.00  0.00    -0.339 OA
ATOM     36  H4  UNL     1       0.841   2.990  -1.603  1.00  0.00     0.220 HD
ENDBRANCH   5  35
BRANCH   7  37
HETATM   37  N5  UNL     1       4.613   1.049   0.522  1.00  0.00    -0.322 N 
HETATM   38  C11 UNL     1       5.673   0.408   0.166  1.00  0.00     0.059 C 
HETATM   39  C12 UNL     1       5.484  -0.858  -0.595  1.00  0.00     0.072 C 
ATOM     40  H5  UNL     1       4.719   1.918   1.045  1.00  0.00     0.169 HD
BRANCH  38  41
HETATM   41  C13 UNL     1       7.015   0.872   0.479  1.00  0.00     0.225 C 
HETATM   42  O6  UNL     1       8.010   0.217   0.113  1.00  0.00    -0.286 OA
BRANCH  41  43
HETATM   43  C14 UNL     1       7.194   2.127   1.233  1.00  0.00     0.332 C 
BRANCH  43  44
HETATM   44  O7  UNL     1       8.528   2.427   1.447  1.00  0.00    -0.365 OA
ATOM     45  H7  UNL     1       8.643   3.235   1.933  1.00  0.00     0.213 HD
ENDBRANCH  43  44
BRANCH  43  46
HETATM   46  O8  UNL     1       6.502   1.996   2.435  1.00  0.00    -0.365 OA
ATOM     47  H8  UNL     1       6.617   2.804   2.921  1.00  0.00     0.213 HD
ENDBRANCH  43  46
ENDBRANCH  41  43
ENDBRANCH  38  41
ENDBRANCH   7  37
TORSDOF 14
