REMARK  10 active torsions:
REMARK  status: ('A' for Active; 'I' for Inactive)
REMARK    1  A    between atoms: C1_4  and  C2_6 
REMARK    2  A    between atoms: C4_9  and  C5_10 
REMARK    3  A    between atoms: C5_10  and  N4_11 
REMARK    4  A    between atoms: C5_10  and  N5_15 
REMARK    5  A    between atoms: N6_19  and  N7_20 
REMARK    6  A    between atoms: N7_20  and  C6_22 
REMARK    7  A    between atoms: C8_24  and  O1_25 
REMARK    8  A    between atoms: C12_36  and  N11_37 
REMARK    9  A    between atoms: C13_42  and  C14_43 
REMARK   10  A    between atoms: C15_46  and  N15_47 
ROOT
HETATM    1  C2  UNL     1       1.497  -2.038   0.240  1.00  0.00     0.079 A 
HETATM    2  C3  UNL     1       0.776  -3.033  -0.409  1.00  0.00     0.092 A 
HETATM    3  N3  UNL     1       1.169  -4.388  -0.643  1.00  0.00    -0.099 NA
HETATM    4  C4  UNL     1      -0.401  -2.455  -0.784  1.00  0.00     0.118 A 
HETATM    5  N6  UNL     1      -0.429  -1.125  -0.384  1.00  0.00    -0.235 N 
HETATM    6  C12 UNL     1       0.717  -0.870   0.235  1.00  0.00     0.168 A 
ENDROOT
BRANCH   5   7
HETATM    7  N7  UNL     1      -1.460  -0.296  -0.769  1.00  0.00    -0.290 N 
ATOM      8  H7  UNL     1      -1.918  -0.624  -1.619  1.00  0.00     0.187 HD
BRANCH   7   9
HETATM    9  C6  UNL     1      -2.030   0.873  -0.288  1.00  0.00     0.078 A 
HETATM   10  C7  UNL     1      -1.952   1.422   0.959  1.00  0.00     0.072 A 
HETATM   11  C8  UNL     1      -2.470   2.642   1.336  1.00  0.00     0.099 A 
HETATM   12  C9  UNL     1      -3.126   3.385   0.390  1.00  0.00     0.120 A 
HETATM   13  N8  UNL     1      -3.724   4.565   0.420  1.00  0.00    -0.237 N 
HETATM   14  C10 UNL     1      -3.249   2.902  -0.887  1.00  0.00     0.114 A 
HETATM   15  O2  UNL     1      -4.192   4.810  -0.755  1.00  0.00    -0.156 OA
ATOM     16  H8  UNL     1      -3.801   5.176   1.233  1.00  0.00     0.197 HD
HETATM   17  N9  UNL     1      -3.929   3.831  -1.583  1.00  0.00    -0.237 N 
ATOM     18  H9  UNL     1      -4.190   3.782  -2.568  1.00  0.00     0.197 HD
HETATM   19  C11 UNL     1      -2.717   1.683  -1.217  1.00  0.00     0.105 A 
HETATM   20  N10 UNL     1      -2.860   1.220  -2.541  1.00  0.00    -0.097 NA
BRANCH  11  21
HETATM   21  O1  UNL     1      -2.320   3.101   2.661  1.00  0.00    -0.358 OA
ATOM     22  H1  UNL     1      -2.677   3.942   2.921  1.00  0.00     0.217 HD
ENDBRANCH  11  21
ENDBRANCH   7   9
ENDBRANCH   5   7
BRANCH   4  23
HETATM   23  C5  UNL     1      -1.457  -3.222  -1.504  1.00  0.00     0.431 C 
BRANCH  23  24
HETATM   24  N4  UNL     1      -0.783  -3.986  -2.547  1.00  0.00    -0.045 N 
ATOM     25  H43 UNL     1      -0.213  -3.408  -3.165  1.00  0.00     0.277 HD
ATOM     26  H42 UNL     1      -0.030  -4.575  -2.192  1.00  0.00     0.277 HD
ATOM     27  H41 UNL     1      -1.506  -4.511  -3.040  1.00  0.00     0.277 HD
ENDBRANCH  23  24
BRANCH  23  28
HETATM   28  N5  UNL     1      -2.106  -4.173  -0.599  1.00  0.00    -0.045 N 
ATOM     29  H53 UNL     1      -1.430  -4.790  -0.148  1.00  0.00     0.277 HD
ATOM     30  H52 UNL     1      -2.472  -3.714   0.235  1.00  0.00     0.277 HD
ATOM     31  H51 UNL     1      -2.829  -4.698  -1.092  1.00  0.00     0.277 HD
ENDBRANCH  23  28
ENDBRANCH   4  23
BRANCH   6  32
HETATM   32  N11 UNL     1       1.266   0.308   0.800  1.00  0.00    -0.198 N 
HETATM   33  N12 UNL     1       1.348   0.652   2.062  1.00  0.00    -0.232 N 
HETATM   34  N13 UNL     1       1.894   1.785   2.264  1.00  0.00    -0.277 N 
ATOM     35  H12 UNL     1       1.003   0.062   2.819  1.00  0.00     0.209 HD
HETATM   36  C13 UNL     1       2.237   2.303   1.037  1.00  0.00     0.167 A 
ATOM     37  H13 UNL     1       2.049   2.227   3.170  1.00  0.00     0.189 HD
HETATM   38  C15 UNL     1       1.842   1.368   0.111  1.00  0.00     0.231 A 
BRANCH  36  39
HETATM   39  C14 UNL     1       2.877   3.568   0.848  1.00  0.00     0.286 C 
HETATM   40  N14 UNL     1       3.195   4.336   2.047  1.00  0.00    -0.056 NA
HETATM   41  O3  UNL     1       3.191   4.082  -0.215  1.00  0.00    -0.269 OA
ENDBRANCH  36  39
BRANCH  38  42
HETATM   42  N15 UNL     1       2.007   1.358  -1.287  1.00  0.00    -0.093 N 
HETATM   43  O4  UNL     1       1.686   0.313  -1.926  1.00  0.00    -0.530 OA
HETATM   44  O5  UNL     1       2.527   2.390  -1.985  1.00  0.00    -0.530 OA
ENDBRANCH  38  42
ENDBRANCH   6  32
BRANCH   1  45
HETATM   45  C1  UNL     1       2.814  -2.292   0.771  1.00  0.00     0.126 C 
HETATM   46  N1  UNL     1       3.331  -3.487   0.638  1.00  0.00    -0.387 N 
ATOM     47  H12 UNL     1       4.262  -3.667   1.013  1.00  0.00     0.157 HD
ATOM     48  H11 UNL     1       2.770  -4.197   0.167  1.00  0.00     0.157 HD
HETATM   49  N2  UNL     1       3.585  -1.317   1.418  1.00  0.00    -0.082 NA
ENDBRANCH   1  45
TORSDOF 10
