REMARK  4 active torsions:
REMARK  status: ('A' for Active; 'I' for Inactive)
REMARK    1  A    between atoms: O1_2  and  C2_3 
REMARK    2  A    between atoms: C5_6  and  C6_7 
REMARK    3  A    between atoms: C7_8  and  C8_9 
REMARK    4  A    between atoms: C18_20  and  O2_21 
ROOT
HETATM    1  C6  UNL     1       0.598   0.230  -0.116  1.00  0.00     0.015 C 
HETATM    2  C7  UNL     1      -0.537  -0.349   0.266  1.00  0.00     0.013 C 
ENDROOT
BRANCH   2   3
HETATM    3  C8  UNL     1      -1.815   0.179  -0.196  1.00  0.00    -0.022 A 
HETATM    4  C9  UNL     1      -1.887   1.266  -1.022  1.00  0.00     0.029 A 
HETATM    5  C10 UNL     1      -3.097   1.751  -1.448  1.00  0.00     0.091 A 
HETATM    6  N1  UNL     1      -4.265   1.208  -1.096  1.00  0.00    -0.360 N 
HETATM    7  C11 UNL     1      -5.504   1.763  -1.576  1.00  0.00     0.155 C 
HETATM    8  C12 UNL     1      -4.206   0.138  -0.284  1.00  0.00     0.044 A 
HETATM    9  C13 UNL     1      -5.398  -0.434   0.090  1.00  0.00     0.030 A 
HETATM   10  C17 UNL     1      -3.028  -0.408   0.188  1.00  0.00     0.001 A 
HETATM   11  C14 UNL     1      -5.407  -1.533   0.921  1.00  0.00     0.002 A 
HETATM   12  C15 UNL     1      -4.252  -2.093   1.401  1.00  0.00     0.001 A 
HETATM   13  C16 UNL     1      -3.038  -1.502   1.014  1.00  0.00     0.014 A 
ENDBRANCH   2   3
BRANCH   1  14
HETATM   14  C5  UNL     1       1.905  -0.289   0.341  1.00  0.00    -0.003 A 
HETATM   15  C4  UNL     1       2.010  -1.362   1.157  1.00  0.00     0.017 A 
HETATM   16  C3  UNL     1       3.249  -1.861   1.595  1.00  0.00     0.038 A 
HETATM   17  C2  UNL     1       4.361  -1.191   1.143  1.00  0.00     0.070 A 
HETATM   18  C20 UNL     1       4.290  -0.098   0.314  1.00  0.00     0.074 A 
HETATM   19  C18 UNL     1       3.063   0.355  -0.089  1.00  0.00     0.081 A 
BRANCH  17  20
HETATM   20  O1  UNL     1       5.609  -1.662   1.562  1.00  0.00    -0.356 OA
HETATM   21  C1  UNL     1       6.798  -1.000   1.119  1.00  0.00     0.210 C 
ENDBRANCH  17  20
BRANCH  19  22
HETATM   22  O2  UNL     1       2.921   1.466  -0.936  1.00  0.00    -0.355 OA
HETATM   23  C19 UNL     1       4.102   2.115  -1.368  1.00  0.00     0.210 C 
ENDBRANCH  19  22
ENDBRANCH   1  14
TORSDOF 4
