REMARK  3 active torsions:
REMARK  status: ('A' for Active; 'I' for Inactive)
REMARK    1  A    between atoms: S1_2  and  C1_3 
REMARK    2  A    between atoms: S1_2  and  C14_16 
REMARK    3  A    between atoms: C1_3  and  C2_4 
ROOT
HETATM    1  C2  UNL     1      -0.138   1.621  -1.410  1.00  0.00    -0.045 A 
HETATM    2  C3  UNL     1       0.452   1.848  -2.648  1.00  0.00     0.008 A 
HETATM    3  C4  UNL     1       1.727   1.386  -2.838  1.00  0.00     0.001 A 
HETATM    4  C5  UNL     1       2.441   0.724  -1.886  1.00  0.00     0.012 A 
HETATM    5  C6  UNL     1       1.841   0.505  -0.658  1.00  0.00    -0.025 A 
HETATM    6  C7  UNL     1       2.572  -0.192   0.373  1.00  0.00    -0.026 A 
HETATM    7  C8  UNL     1       2.380   0.056   1.716  1.00  0.00     0.012 A 
HETATM    8  C9  UNL     1       3.096  -0.622   2.697  1.00  0.00     0.001 A 
HETATM    9  C10 UNL     1       4.015  -1.559   2.342  1.00  0.00     0.000 A 
HETATM   10  C11 UNL     1       4.227  -1.825   1.027  1.00  0.00     0.001 A 
HETATM   11  C12 UNL     1       3.517  -1.153   0.041  1.00  0.00     0.012 A 
HETATM   12  C13 UNL     1       0.552   0.952  -0.418  1.00  0.00     0.020 A 
ENDROOT
BRANCH   1  13
HETATM   13  C1  UNL     1      -1.510   2.101  -1.146  1.00  0.00     0.154 C 
BRANCH  13  14
HETATM   14  S1  UNL     1      -2.790   1.009  -1.523  1.00  0.00     0.070 S 
HETATM   15  O1  UNL     1      -2.954   0.486  -3.054  1.00  0.00    -0.251 OA
BRANCH  14  16
HETATM   16  C14 UNL     1      -3.461   0.075  -0.265  1.00  0.00     0.100 A 
HETATM   17  C15 UNL     1      -2.738  -0.941   0.331  1.00  0.00     0.039 A 
HETATM   18  C16 UNL     1      -3.260  -1.704   1.355  1.00  0.00     0.004 A 
HETATM   19  C17 UNL     1      -4.536  -1.478   1.825  1.00  0.00     0.017 A 
HETATM   20  C18 UNL     1      -5.252  -0.450   1.212  1.00  0.00     0.089 A 
HETATM   21  N1  UNL     1      -4.723   0.269   0.228  1.00  0.00    -0.359 N 
ATOM     22  H1  UNL     1      -5.291   1.009  -0.184  1.00  0.00     0.166 HD
ENDBRANCH  14  16
ENDBRANCH  13  14
ENDBRANCH   1  13
TORSDOF 3
