REMARK  4 active torsions:
REMARK  status: ('A' for Active; 'I' for Inactive)
REMARK    1  A    between atoms: C4_6  and  C5_7 
REMARK    2  A    between atoms: N2_12  and  C10_13 
REMARK    3  A    between atoms: C10_13  and  C11_14 
REMARK    4  A    between atoms: C11_14  and  C12_15 
ROOT
HETATM    1  C5  UNL     1       2.117   0.704   0.570  1.00  0.00     0.045 A 
HETATM    2  C6  UNL     1       2.102   1.681   1.590  1.00  0.00     0.030 A 
HETATM    3  C7  UNL     1       1.188   2.696   1.517  1.00  0.00     0.004 A 
HETATM    4  C8  UNL     1       0.312   2.735   0.455  1.00  0.00     0.017 A 
HETATM    5  C9  UNL     1       0.333   1.785  -0.528  1.00  0.00     0.091 A 
HETATM    6  N2  UNL     1       1.256   0.767  -0.447  1.00  0.00    -0.356 N 
ENDROOT
BRANCH   6   7
HETATM    7  C10 UNL     1       1.273  -0.236  -1.484  1.00  0.00     0.134 C 
BRANCH   7   8
HETATM    8  C11 UNL     1       0.319  -1.327  -1.195  1.00  0.00     0.077 C 
BRANCH   8   9
HETATM    9  C12 UNL     1      -1.110  -0.912  -1.065  1.00  0.00     0.011 A 
HETATM   10  C13 UNL     1      -1.958  -0.845  -2.160  1.00  0.00     0.026 A 
HETATM   11  C14 UNL     1      -3.289  -0.475  -2.037  1.00  0.00     0.015 A 
HETATM   12  C15 UNL     1      -3.804  -0.162  -0.795  1.00  0.00    -0.009 A 
HETATM   13  C16 UNL     1      -5.123   0.211  -0.616  1.00  0.00     0.013 A 
HETATM   14  C20 UNL     1      -2.940  -0.237   0.281  1.00  0.00     0.042 A 
HETATM   15  C17 UNL     1      -5.631   0.524   0.636  1.00  0.00     0.001 A 
HETATM   16  C18 UNL     1      -4.778   0.453   1.712  1.00  0.00     0.002 A 
HETATM   17  C19 UNL     1      -3.467   0.079   1.520  1.00  0.00     0.030 A 
HETATM   18  N3  UNL     1      -1.644  -0.601   0.128  1.00  0.00    -0.359 N 
ATOM     19  H3  UNL     1      -1.048  -0.641   0.955  1.00  0.00     0.166 HD
ENDBRANCH   8   9
ENDBRANCH   7   8
ENDBRANCH   6   7
BRANCH   1  20
HETATM   20  C4  UNL     1       3.131  -0.326   0.664  1.00  0.00     0.006 A 
HETATM   21  C3  UNL     1       2.964  -1.450   1.433  1.00  0.00     0.101 A 
HETATM   22  N1  UNL     1       3.916  -2.412   1.530  1.00  0.00    -0.374 N 
HETATM   23  C2  UNL     1       5.089  -2.328   0.878  1.00  0.00     0.087 A 
ATOM     24  H1  UNL     1       3.736  -3.226   2.117  1.00  0.00     0.164 HD
HETATM   25  C1  UNL     1       5.308  -1.217   0.090  1.00  0.00     0.018 A 
HETATM   26  C21 UNL     1       4.337  -0.220  -0.019  1.00  0.00     0.016 A 
ENDBRANCH   1  20
TORSDOF 4
