REMARK  4 active torsions:
REMARK  status: ('A' for Active; 'I' for Inactive)
REMARK    1  A    between atoms: C4_6  and  C5_7 
REMARK    2  A    between atoms: C8_10  and  C9_11 
REMARK    3  A    between atoms: C9_11  and  C10_12 
REMARK    4  A    between atoms: N2_17  and  C15_18 
ROOT
HETATM    1  C5  UNL     1       2.442  -0.328  -0.272  1.00  0.00    -0.025 A 
HETATM    2  C6  UNL     1       1.554  -1.129   0.412  1.00  0.00     0.013 A 
HETATM    3  C7  UNL     1       0.180  -1.121   0.135  1.00  0.00     0.008 A 
HETATM    4  C8  UNL     1      -0.333  -0.305  -0.841  1.00  0.00    -0.052 A 
HETATM    5  C18 UNL     1       0.573   0.502  -1.528  1.00  0.00     0.008 A 
HETATM    6  C19 UNL     1       1.932   0.493  -1.253  1.00  0.00     0.013 A 
ENDROOT
BRANCH   4   7
HETATM    7  C9  UNL     1      -1.767  -0.211  -1.217  1.00  0.00     0.096 C 
BRANCH   7   8
HETATM    8  C10 UNL     1      -2.516   0.851  -0.566  1.00  0.00     0.022 A 
HETATM    9  C11 UNL     1      -2.464   2.139  -1.120  1.00  0.00     0.026 A 
HETATM   10  C12 UNL     1      -3.143   3.210  -0.581  1.00  0.00     0.003 A 
HETATM   11  C13 UNL     1      -3.907   3.016   0.548  1.00  0.00     0.018 A 
HETATM   12  C14 UNL     1      -3.949   1.752   1.079  1.00  0.00     0.099 A 
HETATM   13  N2  UNL     1      -3.264   0.696   0.526  1.00  0.00    -0.305 N 
BRANCH  13  14
HETATM   14  C15 UNL     1      -3.368  -0.586   1.129  1.00  0.00     0.170 A 
HETATM   15  C16 UNL     1      -4.118  -1.635   0.651  1.00  0.00     0.146 A 
HETATM   16  N3  UNL     1      -3.978  -2.690   1.481  1.00  0.00    -0.352 N 
HETATM   17  C17 UNL     1      -3.147  -2.272   2.450  1.00  0.00     0.235 A 
ATOM     18  H3  UNL     1      -4.411  -3.609   1.391  1.00  0.00     0.166 HD
HETATM   19  O1  UNL     1      -2.800  -1.028   2.221  1.00  0.00    -0.287 OA
ENDBRANCH  13  14
ENDBRANCH   7   8
ENDBRANCH   4   7
BRANCH   1  20
HETATM   20  C4  UNL     1       3.857  -0.382   0.063  1.00  0.00    -0.011 A 
HETATM   21  C3  UNL     1       4.688   0.717  -0.059  1.00  0.00     0.099 A 
HETATM   22  N1  UNL     1       5.990   0.704   0.239  1.00  0.00    -0.374 N 
HETATM   23  C2  UNL     1       6.572  -0.422   0.687  1.00  0.00     0.087 A 
ATOM     24  H1  UNL     1       6.545   1.552   0.126  1.00  0.00     0.164 HD
HETATM   25  C1  UNL     1       5.794  -1.564   0.834  1.00  0.00     0.018 A 
HETATM   26  C20 UNL     1       4.451  -1.548   0.526  1.00  0.00     0.015 A 
ENDBRANCH   1  20
TORSDOF 4
