REMARK  5 active torsions:
REMARK  status: ('A' for Active; 'I' for Inactive)
REMARK    1  A    between atoms: N1_2  and  C2_3 
REMARK    2  A    between atoms: N1_2  and  C12_19 
REMARK    3  A    between atoms: C2_3  and  C3_4 
REMARK    4  A    between atoms: C5_6  and  C6_7 
REMARK    5  A    between atoms: N2_10  and  C7_11 
ROOT
HETATM    1  C3  UNL     1      -0.606  -0.160   0.164  1.00  0.00     0.055 C 
HETATM    2  C4  UNL     1      -1.042   0.083   1.550  1.00  0.00     0.059 C 
HETATM    3  C5  UNL     1      -2.433  -0.436   1.659  1.00  0.00     0.324 C 
HETATM    4  N2  UNL     1      -2.718  -1.099   0.435  1.00  0.00     0.109 N 
HETATM    5  C11 UNL     1      -1.545  -1.263  -0.346  1.00  0.00     0.284 C 
ENDROOT
BRANCH   1   6
HETATM    6  C2  UNL     1       0.825  -0.540  -0.050  1.00  0.00     0.064 C 
BRANCH   6   7
HETATM    7  N1  UNL     1       1.783   0.396   0.366  1.00  0.00    -0.393 N 
HETATM    8  C1  UNL     1       1.976   0.617   1.742  1.00  0.00     0.149 C 
BRANCH   7   9
HETATM    9  C12 UNL     1       2.971   0.324  -0.447  1.00  0.00     0.083 C 
HETATM   10  C13 UNL     1       3.875  -0.834  -0.063  1.00  0.00     0.025 C 
HETATM   11  C14 UNL     1       5.088  -0.725  -0.994  1.00  0.00     0.002 C 
HETATM   12  C15 UNL     1       5.935   0.423  -0.534  1.00  0.00     0.000 C 
HETATM   13  C16 UNL     1       5.129   1.545   0.030  1.00  0.00     0.002 C 
HETATM   14  C17 UNL     1       3.749   1.588  -0.545  1.00  0.00     0.025 C 
ENDBRANCH   7   9
ENDBRANCH   6   7
ENDBRANCH   1   6
BRANCH   3  15
HETATM   15  C6  UNL     1      -2.620  -1.316   2.849  1.00  0.00     0.207 C 
HETATM   16  O1  UNL     1      -2.979  -2.501   2.721  1.00  0.00    -0.646 OA
HETATM   17  O2  UNL     1      -2.374  -0.750   4.091  1.00  0.00    -0.646 OA
ENDBRANCH   3  15
BRANCH   4  18
HETATM   18  C7  UNL     1      -3.822  -0.494  -0.208  1.00  0.00     0.238 C 
HETATM   19  C8  UNL     1      -3.646   0.936  -0.628  1.00  0.00     0.052 C 
HETATM   20  C9  UNL     1      -5.057   1.387  -0.988  1.00  0.00     0.142 C 
HETATM   21  S1  UNL     1      -5.633  -0.053  -1.902  1.00  0.00     0.146 S 
HETATM   22  O3  UNL     1      -6.903  -0.568  -1.329  1.00  0.00    -0.228 OA
HETATM   23  O4  UNL     1      -5.682   0.213  -3.359  1.00  0.00    -0.228 OA
HETATM   24  C10 UNL     1      -4.283  -1.172  -1.482  1.00  0.00     0.176 C 
ENDBRANCH   4  18
TORSDOF 5
