REMARK  5 active torsions:
REMARK  status: ('A' for Active; 'I' for Inactive)
REMARK    1  A    between atoms: C2_2  and  C3_3 
REMARK    2  A    between atoms: C2_2  and  C8_10 
REMARK    3  A    between atoms: C3_3  and  N1_4 
REMARK    4  A    between atoms: C8_10  and  N2_11 
REMARK       I    between atoms: N3_14  and  C11_15 
REMARK       I    between atoms: C11_15  and  N4_17 
REMARK    5  A    between atoms: N4_17  and  C12_19 
ROOT
HETATM    1  N2  UNL     1       1.067  -0.468  -0.727  1.00  0.00    -0.390 N 
HETATM    2  C9  UNL     1       0.750   0.864  -0.498  1.00  0.00     0.141 C 
HETATM    3  C10 UNL     1      -0.707   1.211  -0.821  1.00  0.00     0.147 C 
HETATM    4  N3  UNL     1      -1.572   0.293  -0.117  1.00  0.00    -0.331 N 
HETATM    5  C11 UNL     1      -2.961   0.627  -0.072  1.00  0.00     0.318 C 
HETATM    6  O2  UNL     1      -3.397   1.661  -0.634  1.00  0.00    -0.247 OA
HETATM    7  N4  UNL     1      -3.885  -0.203   0.610  1.00  0.00    -0.338 N 
ATOM      8  H4  UNL     1      -3.557  -1.049   1.076  1.00  0.00     0.164 HD
HETATM    9  C18 UNL     1      -1.016  -0.888   0.484  1.00  0.00     0.147 C 
HETATM   10  C19 UNL     1       0.119  -1.458  -0.354  1.00  0.00     0.141 C 
ENDROOT
BRANCH   1  11
HETATM   11  C8  UNL     1       2.153  -0.921  -1.446  1.00  0.00     0.064 C 
BRANCH  11  12
HETATM   12  C2  UNL     1       3.551  -0.814  -0.905  1.00  0.00     0.038 C 
HETATM   13  C1  UNL     1       4.446  -1.432  -1.988  1.00  0.00     0.017 C 
BRANCH  12  14
HETATM   14  C3  UNL     1       3.916   0.580  -0.564  1.00  0.00     0.136 C 
BRANCH  14  15
HETATM   15  N1  UNL     1       5.225   0.819  -0.070  1.00  0.00    -0.369 N 
HETATM   16  C4  UNL     1       6.334   0.706  -0.897  1.00  0.00     0.089 C 
HETATM   17  C5  UNL     1       7.552   1.487  -0.451  1.00  0.00     0.212 C 
HETATM   18  O1  UNL     1       7.575   1.607   0.954  1.00  0.00    -0.381 OA
HETATM   19  C6  UNL     1       6.506   2.447   1.264  1.00  0.00     0.212 C 
HETATM   20  C7  UNL     1       5.242   1.671   1.044  1.00  0.00     0.089 C 
ENDBRANCH  14  15
ENDBRANCH  12  14
ENDBRANCH  11  12
ENDBRANCH   1  11
BRANCH   7  21
HETATM   21  C12 UNL     1      -5.291   0.141   0.650  1.00  0.00     0.086 C 
HETATM   22  C13 UNL     1      -5.797   0.402   2.051  1.00  0.00     0.025 C 
HETATM   23  C14 UNL     1      -7.178  -0.151   2.274  1.00  0.00     0.002 C 
HETATM   24  C15 UNL     1      -8.073  -0.057   1.080  1.00  0.00     0.000 C 
HETATM   25  C16 UNL     1      -7.474  -0.505  -0.206  1.00  0.00     0.002 C 
HETATM   26  C17 UNL     1      -6.054  -0.957  -0.032  1.00  0.00     0.025 C 
ENDBRANCH   7  21
TORSDOF 5
