REMARK  5 active torsions:
REMARK  status: ('A' for Active; 'I' for Inactive)
REMARK    1  A    between atoms: C2_2  and  O1_3 
REMARK    2  A    between atoms: O1_3  and  C3_4 
REMARK       I    between atoms: C3_4  and  N1_6 
REMARK    3  A    between atoms: C9_13  and  N2_14 
REMARK       I    between atoms: N2_14  and  C10_16 
REMARK    4  A    between atoms: C10_16  and  C11_18 
REMARK    5  A    between atoms: C11_18  and  N3_19 
ROOT
HETATM    1  C3  UNL     1      -3.307   1.135  -0.125  1.00  0.00     0.364 C 
HETATM    2  O2  UNL     1      -2.674   2.066  -0.711  1.00  0.00    -0.238 OA
HETATM    3  N1  UNL     1      -2.833  -0.198  -0.104  1.00  0.00    -0.305 N 
HETATM    4  C4  UNL     1      -3.502  -1.316   0.527  1.00  0.00     0.136 C 
HETATM    5  C5  UNL     1      -2.455  -2.406   0.632  1.00  0.00     0.022 C 
HETATM    6  C6  UNL     1      -3.051  -3.777   0.581  1.00  0.00     0.017 C 
HETATM    7  C7  UNL     1      -3.846  -3.938  -0.671  1.00  0.00     0.075 C 
HETATM    8  S1  UNL     1      -2.999  -2.787  -1.829  1.00  0.00    -0.160 SA
HETATM    9  C8  UNL     1      -1.722  -2.176  -0.687  1.00  0.00     0.095 C 
HETATM   10  C9  UNL     1      -1.612  -0.662  -0.694  1.00  0.00     0.205 C 
ENDROOT
BRANCH  10  11
HETATM   11  N2  UNL     1      -0.554  -0.379   0.290  1.00  0.00    -0.337 N 
HETATM   12  C10 UNL     1       0.724   0.101  -0.077  1.00  0.00     0.247 C 
HETATM   13  O3  UNL     1       0.962   0.289  -1.293  1.00  0.00    -0.272 OA
ATOM     14  H2  UNL     1      -0.752  -0.536   1.278  1.00  0.00     0.164 HD
BRANCH  12  15
HETATM   15  C11 UNL     1       1.775   0.383   0.927  1.00  0.00     0.374 C 
BRANCH  15  16
HETATM   16  N3  UNL     1       3.019   0.818   0.391  1.00  0.00     0.097 N 
HETATM   17  C12 UNL     1       3.636  -0.298  -0.278  1.00  0.00     0.273 C 
HETATM   18  C13 UNL     1       4.474   0.053  -1.459  1.00  0.00     0.030 C 
HETATM   19  C14 UNL     1       5.739   0.782  -1.147  1.00  0.00     0.002 C 
HETATM   20  C15 UNL     1       5.994   0.955   0.335  1.00  0.00     0.002 C 
HETATM   21  C16 UNL     1       5.042   1.964   0.954  1.00  0.00     0.030 C 
HETATM   22  C17 UNL     1       3.878   1.190   1.509  1.00  0.00     0.273 C 
ENDBRANCH  15  16
ENDBRANCH  12  15
ENDBRANCH  10  11
BRANCH   1  23
HETATM   23  O1  UNL     1      -4.497   1.512   0.498  1.00  0.00    -0.304 OA
BRANCH  23  24
HETATM   24  C2  UNL     1      -5.015   2.821   0.502  1.00  0.00     0.176 C 
HETATM   25  C1  UNL     1      -5.339   3.382  -0.838  1.00  0.00     0.034 C 
ENDBRANCH  23  24
ENDBRANCH   1  23
TORSDOF 5
