REMARK  5 active torsions:
REMARK  status: ('A' for Active; 'I' for Inactive)
REMARK    1  A    between atoms: C6_7  and  C7_8 
REMARK       I    between atoms: C7_8  and  N1_10 
REMARK    2  A    between atoms: N1_10  and  C8_12 
REMARK    3  A    between atoms: N2_19  and  C14_20 
REMARK    4  A    between atoms: C14_20  and  C15_21 
REMARK    5  A    between atoms: C15_21  and  N3_22 
ROOT
HETATM    1  O1  UNL     1      -1.684  -2.472  -1.808  1.00  0.00    -0.273 OA
HETATM    2  C1  UNL     1      -0.778  -1.842  -1.209  1.00  0.00     0.225 C 
HETATM    3  C2  UNL     1       0.636  -1.824  -1.645  1.00  0.00     0.097 C 
HETATM    4  C3  UNL     1       1.060  -3.271  -1.832  1.00  0.00     0.015 C 
HETATM    5  C4  UNL     1       1.274  -3.770  -0.403  1.00  0.00     0.002 C 
HETATM    6  C5  UNL     1       1.749  -2.551   0.339  1.00  0.00     0.022 C 
HETATM    7  C6  UNL     1       1.344  -1.341  -0.418  1.00  0.00     0.069 C 
HETATM    8  C13 UNL     1       0.329  -0.490   0.335  1.00  0.00     0.146 C 
HETATM    9  N2  UNL     1      -0.946  -1.054  -0.037  1.00  0.00    -0.349 N 
ENDROOT
BRANCH   7  10
HETATM   10  C7  UNL     1       2.513  -0.517  -0.827  1.00  0.00     0.229 C 
HETATM   11  O2  UNL     1       2.735  -0.351  -2.052  1.00  0.00    -0.273 OA
HETATM   12  N1  UNL     1       3.351   0.064   0.166  1.00  0.00    -0.356 N 
ATOM     13  H1  UNL     1       3.144  -0.088   1.153  1.00  0.00     0.162 HD
BRANCH  12  14
HETATM   14  C8  UNL     1       4.493   0.868  -0.210  1.00  0.00     0.088 C 
HETATM   15  C9  UNL     1       5.784   0.401   0.386  1.00  0.00     0.051 C 
HETATM   16  C10 UNL     1       6.324   1.480   1.298  1.00  0.00     0.169 C 
HETATM   17  O3  UNL     1       6.528   2.688   0.652  1.00  0.00    -0.391 OA
HETATM   18  C11 UNL     1       5.423   3.116  -0.039  1.00  0.00     0.169 C 
HETATM   19  C12 UNL     1       4.204   2.292   0.226  1.00  0.00     0.051 C 
ENDBRANCH  12  14
ENDBRANCH   7  10
BRANCH   9  20
HETATM   20  C14 UNL     1      -2.183  -0.839   0.692  1.00  0.00     0.156 C 
BRANCH  20  21
HETATM   21  C15 UNL     1      -2.851   0.357   0.110  1.00  0.00     0.292 C 
BRANCH  21  22
HETATM   22  N3  UNL     1      -4.107   0.723   0.718  1.00  0.00     0.090 N 
HETATM   23  C16 UNL     1      -5.067  -0.315   0.389  1.00  0.00     0.272 C 
HETATM   24  C17 UNL     1      -6.466   0.019   0.854  1.00  0.00     0.030 C 
HETATM   25  C18 UNL     1      -6.473   1.420   1.404  1.00  0.00     0.003 C 
HETATM   26  C19 UNL     1      -5.943   2.323   0.300  1.00  0.00     0.030 C 
HETATM   27  C20 UNL     1      -4.528   1.944   0.024  1.00  0.00     0.272 C 
ENDBRANCH  21  22
ENDBRANCH  20  21
ENDBRANCH   9  20
TORSDOF 5
