REMARK  7 active torsions:
REMARK  status: ('A' for Active; 'I' for Inactive)
REMARK    1  A    between atoms: C4_4  and  C5_5 
REMARK    2  A    between atoms: C5_5  and  O1_6 
REMARK    3  A    between atoms: O1_6  and  C6_7 
REMARK    4  A    between atoms: C6_7  and  O3_9 
REMARK    5  A    between atoms: O3_9  and  C7_10 
REMARK    6  A    between atoms: C10_13  and  N1_15 
REMARK    7  A    between atoms: C18_22  and  O4_24 
ROOT
HETATM    1  C7  UNL     1       0.804   0.346   0.147  1.00  0.00     0.145 C 
HETATM    2  C8  UNL     1       0.246  -0.558  -0.923  1.00  0.00     0.036 C 
HETATM    3  C9  UNL     1      -1.183  -0.897  -0.769  1.00  0.00     0.044 C 
HETATM    4  C10 UNL     1      -1.946  -0.173   0.309  1.00  0.00     0.157 C 
HETATM    5  C11 UNL     1      -1.757  -1.052   1.566  1.00  0.00     0.050 C 
HETATM    6  C18 UNL     1      -1.516   1.173   0.656  1.00  0.00     0.097 C 
HETATM    7  C19 UNL     1      -2.290   2.379   0.202  1.00  0.00     0.049 C 
HETATM    8  C20 UNL     1      -0.088   1.523   0.203  1.00  0.00     0.012 C 
HETATM    9  C21 UNL     1       0.538   2.553   1.120  1.00  0.00     0.020 C 
HETATM   10  C22 UNL     1      -0.110   2.164  -1.171  1.00  0.00     0.020 C 
ENDROOT
BRANCH   1  11
HETATM   11  O3  UNL     1       2.061   0.789  -0.362  1.00  0.00    -0.292 OA
BRANCH  11  12
HETATM   12  C6  UNL     1       3.267   0.547   0.275  1.00  0.00     0.407 C 
HETATM   13  O2  UNL     1       3.260  -0.084   1.339  1.00  0.00    -0.229 OA
BRANCH  12  14
HETATM   14  O1  UNL     1       4.462   0.989  -0.247  1.00  0.00    -0.294 OA
BRANCH  14  15
HETATM   15  C5  UNL     1       5.702   0.760   0.375  1.00  0.00     0.209 C 
BRANCH  15  16
HETATM   16  C4  UNL     1       6.016  -0.683   0.539  1.00  0.00     0.002 C 
HETATM   17  C2  UNL     1       7.096  -1.216  -0.020  1.00  0.00    -0.089 C 
HETATM   18  C1  UNL     1       7.416  -2.658   0.141  1.00  0.00     0.042 C 
HETATM   19  C3  UNL     1       8.008  -0.361  -0.822  1.00  0.00     0.042 C 
ENDBRANCH  15  16
ENDBRANCH  14  15
ENDBRANCH  12  14
ENDBRANCH  11  12
ENDBRANCH   1  11
BRANCH   6  20
HETATM   20  O4  UNL     1      -1.410   1.342   2.066  1.00  0.00    -0.387 OA
ATOM     21  H4  UNL     1      -1.129   2.221   2.293  1.00  0.00     0.210 HD
ENDBRANCH   6  20
BRANCH   4  22
HETATM   22  N1  UNL     1      -3.367  -0.336  -0.011  1.00  0.00    -0.059 N 
HETATM   23  C12 UNL     1      -4.222   0.050   1.072  1.00  0.00     0.273 C 
HETATM   24  C13 UNL     1      -3.606  -1.776  -0.215  1.00  0.00     0.238 C 
HETATM   25  C14 UNL     1      -5.046  -2.137  -0.331  1.00  0.00     0.028 C 
HETATM   26  C15 UNL     1      -5.815  -1.158  -1.216  1.00  0.00     0.003 C 
HETATM   27  C16 UNL     1      -4.753  -0.521  -2.067  1.00  0.00     0.028 C 
HETATM   28  C17 UNL     1      -3.796   0.315  -1.203  1.00  0.00     0.238 C 
ENDBRANCH   4  22
TORSDOF 7
