REMARK  7 active torsions:
REMARK  status: ('A' for Active; 'I' for Inactive)
REMARK    1  A    between atoms: C3_3  and  C4_4 
REMARK    2  A    between atoms: C4_4  and  N1_5 
REMARK    3  A    between atoms: C4_4  and  C20_28 
REMARK    4  A    between atoms: N1_5  and  C5_7 
REMARK    5  A    between atoms: C6_10  and  C7_11 
REMARK    6  A    between atoms: C7_11  and  C8_12 
REMARK    7  A    between atoms: C14_20  and  O1_21 
ROOT
HETATM    1  C1  UNL     1       3.690  -3.640   2.809  1.00  0.00     0.012 C 
HETATM    2  C2  UNL     1       3.250  -2.581   2.408  1.00  0.00    -0.115 C 
HETATM    3  C3  UNL     1       2.719  -1.316   1.979  1.00  0.00     0.118 C 
ENDROOT
BRANCH   3   4
HETATM    4  C4  UNL     1       2.290  -1.236   0.584  1.00  0.00     0.101 C 
BRANCH   4   5
HETATM    5  N1  UNL     1       1.760   0.135   0.393  1.00  0.00    -0.369 N 
ATOM      6  H1  UNL     1       2.369   0.927   0.598  1.00  0.00     0.161 HD
BRANCH   5   7
HETATM    7  C5  UNL     1       0.574   0.365  -0.017  1.00  0.00     0.115 A 
HETATM    8  N2  UNL     1      -0.323  -0.577  -0.320  1.00  0.00    -0.332 N 
HETATM    9  C6  UNL     1      -1.572  -0.289  -0.752  1.00  0.00     0.083 A 
ATOM     10  H2  UNL     1      -0.055  -1.556  -0.221  1.00  0.00     0.168 HD
HETATM   11  N3  UNL     1      -1.964   0.993  -0.895  1.00  0.00    -0.345 N 
HETATM   12  C12 UNL     1      -1.075   1.968  -0.594  1.00  0.00     0.050 A 
ATOM     13  H3  UNL     1      -2.903   1.221  -1.221  1.00  0.00     0.167 HD
HETATM   14  C13 UNL     1      -1.473   3.300  -0.740  1.00  0.00     0.068 A 
HETATM   15  C19 UNL     1       0.198   1.698  -0.154  1.00  0.00     0.036 A 
HETATM   16  C14 UNL     1      -0.588   4.312  -0.440  1.00  0.00     0.091 A 
HETATM   17  C16 UNL     1       0.688   4.021   0.001  1.00  0.00     0.079 A 
HETATM   18  C17 UNL     1       1.568   5.130   0.298  1.00  0.00     0.102 C 
HETATM   19  C18 UNL     1       1.068   2.717   0.139  1.00  0.00     0.043 A 
HETATM   20  N4  UNL     1       2.285   6.010   0.528  1.00  0.00    -0.191 NA
BRANCH   9  21
HETATM   21  C7  UNL     1      -2.561  -1.344  -1.087  1.00  0.00     0.084 C 
BRANCH  21  22
HETATM   22  C8  UNL     1      -3.365  -1.699   0.144  1.00  0.00    -0.045 C 
HETATM   23  C9  UNL     1      -2.472  -2.212   1.247  1.00  0.00     0.015 C 
HETATM   24  C10 UNL     1      -4.309  -2.841  -0.227  1.00  0.00     0.015 C 
HETATM   25  C11 UNL     1      -4.238  -0.553   0.606  1.00  0.00     0.015 C 
ENDBRANCH  21  22
ENDBRANCH   9  21
BRANCH  16  26
HETATM   26  O1  UNL     1      -0.964   5.642  -0.578  1.00  0.00    -0.354 OA
HETATM   27  C15 UNL     1      -2.247   6.023  -1.022  1.00  0.00     0.210 C 
ENDBRANCH  16  26
ENDBRANCH   5   7
ENDBRANCH   4   5
BRANCH   4  28
HETATM   28  C20 UNL     1       3.227  -1.509  -0.518  1.00  0.00    -0.030 C 
HETATM   29  C21 UNL     1       3.790  -2.901  -0.505  1.00  0.00     0.016 C 
HETATM   30  C22 UNL     1       4.360  -0.505  -0.619  1.00  0.00     0.016 C 
HETATM   31  C23 UNL     1       2.497  -1.388  -1.871  1.00  0.00     0.016 C 
ENDBRANCH   4  28
ENDBRANCH   3   4
TORSDOF 7
