REMARK  6 active torsions:
REMARK  status: ('A' for Active; 'I' for Inactive)
REMARK    1  A    between atoms: C2_2  and  C3_3 
REMARK    2  A    between atoms: C3_3  and  C4_4 
REMARK    3  A    between atoms: C4_4  and  O1_5 
REMARK    4  A    between atoms: O1_5  and  C5_6 
REMARK    5  A    between atoms: C14_16  and  O3_17 
REMARK    6  A    between atoms: C20_24  and  C22_26 
ROOT
HETATM    1  C22 UNL     1      -3.783   1.914  -0.549  1.00  0.00     0.134 C 
HETATM    2  C23 UNL     1      -5.200   1.777  -0.882  1.00  0.00     0.059 C 
HETATM    3  N1  UNL     1      -6.318   1.663  -1.161  1.00  0.00    -0.197 NA
ENDROOT
BRANCH   1   4
HETATM    4  C20 UNL     1      -3.273   0.743   0.220  1.00  0.00    -0.021 C 
HETATM    5  C15 UNL     1      -3.383  -0.569  -0.484  1.00  0.00     0.028 C 
HETATM    6  C14 UNL     1      -2.722  -0.549  -1.825  1.00  0.00     0.123 C 
HETATM    7  C16 UNL     1      -2.515  -1.475   0.403  1.00  0.00    -0.006 C 
HETATM    8  C13 UNL     1      -1.476   0.226  -1.934  1.00  0.00     0.037 C 
HETATM    9  C12 UNL     1      -0.950   0.904  -0.754  1.00  0.00    -0.003 C 
HETATM   10  C10 UNL     1       0.324   0.395  -0.186  1.00  0.00    -0.004 C 
HETATM   11  C19 UNL     1      -1.820   0.832   0.499  1.00  0.00     0.004 C 
HETATM   12  C9  UNL     1      -0.145  -0.907   0.480  1.00  0.00    -0.005 C 
HETATM   13  C11 UNL     1       1.432   0.060  -1.081  1.00  0.00     0.021 C 
HETATM   14  C8  UNL     1       0.919  -1.269   1.451  1.00  0.00     0.006 C 
HETATM   15  C18 UNL     1      -1.481  -0.568   1.036  1.00  0.00    -0.001 C 
HETATM   16  C7  UNL     1       2.203  -0.504   1.240  1.00  0.00     0.016 C 
HETATM   17  C3  UNL     1       2.618  -0.338  -0.182  1.00  0.00    -0.001 C 
HETATM   18  C17 UNL     1      -3.327  -2.237   1.399  1.00  0.00     0.011 C 
HETATM   19  C21 UNL     1      -4.000   0.705   1.543  1.00  0.00     0.017 C 
BRANCH   6  20
HETATM   20  O3  UNL     1      -3.692  -0.159  -2.779  1.00  0.00    -0.395 OA
ATOM     21  H3  UNL     1      -4.496  -0.659  -2.709  1.00  0.00     0.210 HD
ENDBRANCH   6  20
BRANCH  17  22
HETATM   22  C2  UNL     1       3.322  -1.510  -0.729  1.00  0.00    -0.025 C 
HETATM   23  C1  UNL     1       4.313  -2.090  -0.117  1.00  0.00     0.008 C 
ENDBRANCH  17  22
BRANCH  17  24
HETATM   24  C4  UNL     1       3.543   0.883  -0.238  1.00  0.00     0.192 C 
BRANCH  24  25
HETATM   25  O1  UNL     1       4.712   0.699   0.500  1.00  0.00    -0.321 OA
BRANCH  25  26
HETATM   26  C5  UNL     1       5.649   1.719   0.546  1.00  0.00     0.254 C 
HETATM   27  C6  UNL     1       6.910   1.618   1.297  1.00  0.00     0.126 C 
HETATM   28  O2  UNL     1       5.429   2.804  -0.084  1.00  0.00    -0.266 OA
ENDBRANCH  25  26
ENDBRANCH  24  25
ENDBRANCH  17  24
ENDBRANCH   1   4
TORSDOF 6
