REMARK  5 active torsions:
REMARK  status: ('A' for Active; 'I' for Inactive)
REMARK    1  A    between atoms: C4_4  and  C5_5 
REMARK    2  A    between atoms: C5_5  and  C7_7 
REMARK    3  A    between atoms: C8_8  and  C9_9 
REMARK    4  A    between atoms: C21_23  and  C22_24 
REMARK    5  A    between atoms: C22_24  and  O3_25 
ROOT
HETATM    1  C1  UNL     1      -0.980   1.155  -1.976  1.00  0.00     0.014 C 
HETATM    2  C2  UNL     1      -1.002  -0.061  -1.445  1.00  0.00    -0.088 C 
HETATM    3  C3  UNL     1      -2.105  -0.181  -0.449  1.00  0.00     0.038 C 
HETATM    4  C4  UNL     1      -1.703   0.195   0.936  1.00  0.00    -0.003 C 
HETATM    5  C11 UNL     1      -0.664  -0.767   1.453  1.00  0.00     0.005 C 
HETATM    6  C12 UNL     1       0.735  -0.402   1.022  1.00  0.00     0.001 C 
HETATM    7  C13 UNL     1       1.321  -1.390   0.041  1.00  0.00     0.013 C 
HETATM    8  C14 UNL     1       1.387  -0.809  -1.351  1.00  0.00     0.001 C 
HETATM    9  C15 UNL     1       0.051  -0.959  -1.973  1.00  0.00     0.046 C 
HETATM   10  C16 UNL     1       2.520  -1.415  -2.198  1.00  0.00     0.137 C 
HETATM   11  C17 UNL     1       2.478  -0.106  -2.957  1.00  0.00     0.046 C 
HETATM   12  C18 UNL     1       2.177   0.429  -1.541  1.00  0.00     0.093 C 
HETATM   13  C19 UNL     1       3.511   0.079  -0.941  1.00  0.00     0.287 C 
HETATM   14  O2  UNL     1       4.569   0.716  -1.586  1.00  0.00    -0.330 OA
HETATM   15  C20 UNL     1       5.643   0.379  -0.740  1.00  0.00     0.208 C 
HETATM   16  C21 UNL     1       5.030   0.050   0.583  1.00  0.00     0.175 C 
HETATM   17  O4  UNL     1       3.674   0.301   0.378  1.00  0.00    -0.323 OA
HETATM   18  O5  UNL     1       3.588  -1.281  -1.337  1.00  0.00    -0.326 OA
ENDROOT
BRANCH   4  19
HETATM   19  C5  UNL     1      -2.911   0.093   1.837  1.00  0.00     0.008 C 
HETATM   20  C6  UNL     1      -3.499  -1.277   1.888  1.00  0.00     0.014 C 
BRANCH  19  21
HETATM   21  C7  UNL     1      -3.972   1.044   1.422  1.00  0.00    -0.019 C 
HETATM   22  C8  UNL     1      -5.211   0.690   1.155  1.00  0.00     0.046 C 
BRANCH  22  23
HETATM   23  C9  UNL     1      -6.204   1.688   0.750  1.00  0.00     0.145 C 
HETATM   24  C10 UNL     1      -7.593   1.304   0.448  1.00  0.00     0.096 C 
HETATM   25  O1  UNL     1      -5.881   2.897   0.655  1.00  0.00    -0.294 OA
ENDBRANCH  22  23
ENDBRANCH  19  21
ENDBRANCH   4  19
BRANCH  16  26
HETATM   26  C22 UNL     1       5.602   0.860   1.721  1.00  0.00     0.198 C 
BRANCH  26  27
HETATM   27  O3  UNL     1       6.942   0.540   1.840  1.00  0.00    -0.398 OA
ATOM     28  H3  UNL     1       7.302   1.050   2.556  1.00  0.00     0.209 HD
ENDBRANCH  26  27
ENDBRANCH  16  26
TORSDOF 5
