REMARK  11 active torsions:
REMARK  status: ('A' for Active; 'I' for Inactive)
REMARK    1  A    between atoms: C2_2  and  O1_3 
REMARK    2  A    between atoms: O1_3  and  C3_4 
REMARK    3  A    between atoms: C3_4  and  C4_5 
REMARK    4  A    between atoms: C4_5  and  C5_6 
REMARK    5  A    between atoms: C5_6  and  C6_7 
REMARK    6  A    between atoms: C6_7  and  C7_8 
REMARK    7  A    between atoms: C7_8  and  N1_9 
REMARK    8  A    between atoms: N1_9  and  C8_11 
REMARK    9  A    between atoms: C8_11  and  O2_12 
REMARK   10  A    between atoms: C8_11  and  C9_14 
REMARK   11  A    between atoms: C10_17  and  O3_18 
ROOT
HETATM    1  C8  UNL     1      -1.888  -1.550  -1.228  1.00  0.00     0.164 C 
ENDROOT
BRANCH   1   2
HETATM    2  N1  UNL     1      -0.658  -1.112  -0.746  1.00  0.00    -0.369 N 
ATOM      3  H1  UNL     1      -0.601  -0.354  -0.066  1.00  0.00     0.161 HD
BRANCH   2   4
HETATM    4  C7  UNL     1       0.561  -1.774  -1.246  1.00  0.00     0.121 C 
BRANCH   4   5
HETATM    5  C6  UNL     1       1.808  -1.173  -0.628  1.00  0.00     0.020 C 
BRANCH   5   6
HETATM    6  C5  UNL     1       1.880   0.281  -0.994  1.00  0.00     0.004 C 
BRANCH   6   7
HETATM    7  C4  UNL     1       3.135   0.957  -0.412  1.00  0.00     0.026 C 
BRANCH   7   8
HETATM    8  C3  UNL     1       3.159   0.887   1.070  1.00  0.00     0.167 C 
BRANCH   8   9
HETATM    9  O1  UNL     1       4.183   1.488   1.679  1.00  0.00    -0.391 OA
BRANCH   9  10
HETATM   10  C2  UNL     1       5.471   1.171   1.506  1.00  0.00     0.163 C 
HETATM   11  C1  UNL     1       6.095   1.340   0.169  1.00  0.00     0.033 C 
ENDBRANCH   9  10
ENDBRANCH   8   9
ENDBRANCH   7   8
ENDBRANCH   6   7
ENDBRANCH   5   6
ENDBRANCH   4   5
ENDBRANCH   2   4
ENDBRANCH   1   2
BRANCH   1  12
HETATM   12  O2  UNL     1      -1.861  -2.521  -2.099  1.00  0.00    -0.345 OA
ATOM     13  H2  UNL     1      -2.701  -2.820  -2.428  1.00  0.00     0.219 HD
ENDBRANCH   1  12
BRANCH   1  14
HETATM   14  C9  UNL     1      -3.190  -1.039  -0.865  1.00  0.00     0.091 A 
HETATM   15  N2  UNL     1      -4.351  -1.435  -1.506  1.00  0.00    -0.333 N 
HETATM   16  C10 UNL     1      -5.375  -0.813  -0.949  1.00  0.00     0.147 A 
ATOM     17  H2  UNL     1      -4.407  -2.097  -2.280  1.00  0.00     0.168 HD
HETATM   18  C11 UNL     1      -4.904  -0.007   0.056  1.00  0.00    -0.003 A 
HETATM   19  C12 UNL     1      -5.686   0.874   0.949  1.00  0.00     0.053 C 
HETATM   20  C13 UNL     1      -3.504  -0.152   0.112  1.00  0.00    -0.021 A 
HETATM   21  C14 UNL     1      -2.637   0.554   1.084  1.00  0.00     0.051 C 
BRANCH  16  22
HETATM   22  O3  UNL     1      -6.731  -0.949  -1.320  1.00  0.00    -0.346 OA
ATOM     23  H3  UNL     1      -7.467  -0.502  -0.920  1.00  0.00     0.219 HD
ENDBRANCH  16  22
ENDBRANCH   1  14
TORSDOF 11
