REMARK  7 active torsions:
REMARK  status: ('A' for Active; 'I' for Inactive)
REMARK    1  A    between atoms: C3_4  and  C4_5 
REMARK    2  A    between atoms: C5_6  and  O1_7 
REMARK    3  A    between atoms: C5_6  and  C6_9 
REMARK    4  A    between atoms: C7_10  and  O2_11 
REMARK    5  A    between atoms: N2_14  and  C9_15 
REMARK    6  A    between atoms: C9_15  and  C11_17 
REMARK    7  A    between atoms: C11_17  and  O3_19 
ROOT
HETATM    1  C6  UNL     1       0.657  -0.396   0.431  1.00  0.00     0.136 C 
HETATM    2  C7  UNL     1      -0.245  -0.924   1.224  1.00  0.00     0.112 C 
HETATM    3  C8  UNL     1      -1.734  -1.129   1.104  1.00  0.00     0.099 C 
HETATM    4  N2  UNL     1      -2.155  -0.520  -0.089  1.00  0.00    -0.281 NA
HETATM    5  C13 UNL     1      -1.487  -1.191  -1.217  1.00  0.00     0.122 C 
HETATM    6  C14 UNL     1      -0.580  -0.106  -1.810  1.00  0.00     0.190 C 
HETATM    7  O4  UNL     1       0.418   0.151  -0.831  1.00  0.00    -0.344 OA
ENDROOT
BRANCH   1   8
HETATM    8  C5  UNL     1       2.037  -0.353   0.858  1.00  0.00     0.101 C 
HETATM    9  C4  UNL     1       2.955   0.167   0.089  1.00  0.00     0.041 C 
BRANCH   9  10
HETATM   10  C3  UNL     1       4.365   0.245   0.452  1.00  0.00     0.024 C 
HETATM   11  C2  UNL     1       5.268   0.768  -0.329  1.00  0.00     0.020 C 
HETATM   12  C1  UNL     1       6.684   0.822   0.088  1.00  0.00     0.065 C 
HETATM   13  N1  UNL     1       4.913   1.295  -1.592  1.00  0.00    -0.107 NA
ENDBRANCH   9  10
BRANCH   8  14
HETATM   14  O1  UNL     1       2.377  -0.867   2.088  1.00  0.00    -0.358 OA
ATOM     15  H1  UNL     1       1.709  -1.245   2.648  1.00  0.00     0.217 HD
ENDBRANCH   8  14
ENDBRANCH   1   8
BRANCH   2  16
HETATM   16  O2  UNL     1       0.247  -1.402   2.432  1.00  0.00    -0.357 OA
ATOM     17  H2  UNL     1      -0.406  -1.784   3.006  1.00  0.00     0.218 HD
ENDBRANCH   2  16
BRANCH   4  18
HETATM   18  C9  UNL     1      -3.516  -0.281  -0.339  1.00  0.00     0.087 C 
HETATM   19  C10 UNL     1      -4.381  -1.521  -0.384  1.00  0.00     0.029 C 
BRANCH  18  20
HETATM   20  C11 UNL     1      -4.118   0.823   0.480  1.00  0.00     0.131 C 
HETATM   21  C12 UNL     1      -3.475   2.169   0.146  1.00  0.00     0.041 C 
BRANCH  20  22
HETATM   22  O3  UNL     1      -4.085   0.641   1.840  1.00  0.00    -0.394 OA
ATOM     23  H3  UNL     1      -4.466   1.340   2.358  1.00  0.00     0.210 HD
ENDBRANCH  20  22
ENDBRANCH  18  20
ENDBRANCH   4  18
TORSDOF 7
