REMARK  5 active torsions:
REMARK  status: ('A' for Active; 'I' for Inactive)
REMARK       I    between atoms: C2_2  and  N1_4 
REMARK    1  A    between atoms: N1_4  and  C3_6 
REMARK    2  A    between atoms: C3_6  and  C4_7 
REMARK    3  A    between atoms: C6_9  and  N2_11 
REMARK       I    between atoms: N2_11  and  C8_13 
REMARK    4  A    between atoms: C8_13  and  C9_15 
REMARK    5  A    between atoms: C13_19  and  O3_20 
ROOT
HETATM    1  C4  UNL     1       2.080   0.032   0.447  1.00  0.00     0.141 C 
HETATM    2  C5  UNL     1       0.642   0.200   0.970  1.00  0.00     0.066 C 
HETATM    3  C6  UNL     1      -0.044   0.624  -0.305  1.00  0.00     0.053 C 
HETATM    4  C7  UNL     1       0.048   2.125  -0.460  1.00  0.00     0.041 C 
HETATM    5  C14 UNL     1       0.781  -0.091  -1.349  1.00  0.00     0.198 C 
HETATM    6  O4  UNL     1       1.796  -0.749  -0.699  1.00  0.00    -0.382 OA
ENDROOT
BRANCH   3   7
HETATM    7  N2  UNL     1      -1.398   0.206  -0.398  1.00  0.00    -0.346 N 
HETATM    8  C8  UNL     1      -2.388   0.606   0.559  1.00  0.00     0.254 C 
HETATM    9  O2  UNL     1      -2.054   1.359   1.525  1.00  0.00    -0.268 OA
ATOM     10  H2  UNL     1      -1.675  -0.399  -1.171  1.00  0.00     0.163 HD
BRANCH   8  11
HETATM   11  C9  UNL     1      -3.776   0.187   0.479  1.00  0.00     0.061 A 
HETATM   12  C10 UNL     1      -4.726   0.541   1.354  1.00  0.00    -0.003 A 
HETATM   13  C11 UNL     1      -6.027  -0.058   0.980  1.00  0.00     0.058 A 
HETATM   14  C12 UNL     1      -5.718  -0.819  -0.244  1.00  0.00     0.014 A 
HETATM   15  C13 UNL     1      -4.412  -0.662  -0.512  1.00  0.00     0.077 A 
BRANCH  15  16
HETATM   16  O3  UNL     1      -3.856  -1.281  -1.622  1.00  0.00    -0.360 OA
ATOM     17  H3  UNL     1      -4.272  -1.837  -2.271  1.00  0.00     0.217 HD
ENDBRANCH  15  16
ENDBRANCH   8  11
ENDBRANCH   3   7
BRANCH   1  18
HETATM   18  C3  UNL     1       2.927  -0.714   1.417  1.00  0.00     0.154 C 
BRANCH  18  19
HETATM   19  N1  UNL     1       4.171  -1.080   0.795  1.00  0.00    -0.359 N 
HETATM   20  C2  UNL     1       5.102  -0.166   0.279  1.00  0.00     0.213 C 
HETATM   21  C1  UNL     1       6.357  -0.639  -0.347  1.00  0.00     0.117 C 
HETATM   22  O1  UNL     1       4.890   1.063   0.336  1.00  0.00    -0.274 OA
ATOM     23  H1  UNL     1       4.392  -2.073   0.724  1.00  0.00     0.162 HD
ENDBRANCH  18  19
ENDBRANCH   1  18
TORSDOF 5
