REMARK  2 active torsions:
REMARK  status: ('A' for Active; 'I' for Inactive)
REMARK    1  A    between atoms: O1_1  and  C1_3 
REMARK    2  A    between atoms: C1_3  and  C2_4 
ROOT
HETATM    1  C2  UNL     1      -1.693   1.519   0.710  1.00  0.00     0.085 C 
HETATM    2  N1  UNL     1      -1.116   0.344   0.322  1.00  0.00    -0.379 N 
HETATM    3  C3  UNL     1      -1.403  -0.908   0.848  1.00  0.00     0.084 C 
HETATM    4  C4  UNL     1      -2.033  -1.784  -0.186  1.00  0.00     0.025 C 
HETATM    5  C5  UNL     1      -1.645  -1.541  -1.588  1.00  0.00     0.004 C 
HETATM    6  C6  UNL     1      -0.644  -0.498  -1.864  1.00  0.00     0.028 C 
HETATM    7  C7  UNL     1      -0.158   0.310  -0.720  1.00  0.00     0.118 C 
HETATM    8  C8  UNL     1       1.141  -0.190  -0.113  1.00  0.00     0.081 C 
HETATM    9  C9  UNL     1       2.321   0.036  -0.995  1.00  0.00     0.040 C 
HETATM   10  C10 UNL     1       2.863   1.440  -0.684  1.00  0.00     0.005 C 
HETATM   11  C11 UNL     1       3.546   1.346   0.680  1.00  0.00     0.026 C 
HETATM   12  C12 UNL     1       2.702   0.389   1.500  1.00  0.00     0.168 C 
HETATM   13  O2  UNL     1       1.379   0.520   1.080  1.00  0.00    -0.378 OA
HETATM   14  C13 UNL     1       0.937  -1.620   0.296  1.00  0.00     0.042 C 
HETATM   15  C14 UNL     1      -0.154  -1.656   1.350  1.00  0.00     0.028 C 
ENDROOT
BRANCH   1  16
HETATM   16  C1  UNL     1      -3.141   1.779   0.413  1.00  0.00     0.208 C 
BRANCH  16  17
HETATM   17  O1  UNL     1      -3.999   0.846   0.989  1.00  0.00    -0.396 OA
ATOM     18  H1  UNL     1      -4.916   1.011   0.801  1.00  0.00     0.209 HD
ENDBRANCH  16  17
ENDBRANCH   1  16
TORSDOF 2
