REMARK  3 active torsions:
REMARK  status: ('A' for Active; 'I' for Inactive)
REMARK    1  A    between atoms: N1_2  and  N2_3 
REMARK    2  A    between atoms: N1_2  and  C2_6 
REMARK    3  A    between atoms: C7_11  and  C8_12 
ROOT
HETATM    1  C2  UNL     1       1.545   0.047  -0.174  1.00  0.00     0.083 C 
HETATM    2  C3  UNL     1       2.909  -0.491   0.160  1.00  0.00     0.022 C 
HETATM    3  C4  UNL     1       3.064  -1.968   0.015  1.00  0.00     0.002 C 
HETATM    4  C5  UNL     1       1.889  -2.765   0.510  1.00  0.00     0.001 C 
HETATM    5  C6  UNL     1       0.690  -2.257  -0.279  1.00  0.00     0.007 C 
HETATM    6  C7  UNL     1       0.446  -0.831   0.250  1.00  0.00     0.012 C 
ENDROOT
BRANCH   6   7
HETATM    7  C8  UNL     1      -0.931  -0.505  -0.016  1.00  0.00     0.027 C 
HETATM    8  C9  UNL     1      -1.517  -0.383  -1.375  1.00  0.00     0.128 C 
HETATM    9  C10 UNL     1      -1.283   1.131  -1.346  1.00  0.00     0.040 C 
HETATM   10  O1  UNL     1      -2.903  -0.356  -1.072  1.00  0.00    -0.375 OA
HETATM   11  C11 UNL     1      -1.477   0.882   0.128  1.00  0.00     0.029 C 
HETATM   12  C12 UNL     1      -2.982   0.530   0.037  1.00  0.00     0.058 C 
HETATM   13  C13 UNL     1      -3.435  -0.237   1.241  1.00  0.00     0.046 C 
HETATM   14  C14 UNL     1      -3.813   1.732  -0.259  1.00  0.00     0.046 C 
ENDBRANCH   6   7
BRANCH   1  15
HETATM   15  N1  UNL     1       1.438   1.279   0.631  1.00  0.00    -0.237 NA
HETATM   16  C1  UNL     1       2.346   2.297   0.217  1.00  0.00     0.136 C 
BRANCH  15  17
HETATM   17  N2  UNL     1       1.590   0.914   1.971  1.00  0.00    -0.363 NA
ATOM     18  H22 UNL     1       1.516   1.766   2.527  1.00  0.00     0.171 HD
ATOM     19  H21 UNL     1       0.940   0.186   2.267  1.00  0.00     0.171 HD
ENDBRANCH  15  17
ENDBRANCH   1  15
TORSDOF 3
