REMARK  1 active torsions:
REMARK  status: ('A' for Active; 'I' for Inactive)
REMARK    1  A    between atoms: C1_2  and  N1_3 
ROOT
HETATM    1  N1  UNL     1      -2.419  -0.136   0.667  1.00  0.00    -0.326 N 
ATOM      2  H1  UNL     1      -3.138  -0.827   0.880  1.00  0.00     0.168 HD
HETATM    3  C2  UNL     1      -1.390  -0.525   0.015  1.00  0.00     0.141 C 
HETATM    4  C3  UNL     1      -0.195   0.164  -0.453  1.00  0.00     0.080 C 
HETATM    5  C4  UNL     1       0.414   1.167   0.450  1.00  0.00     0.014 C 
HETATM    6  C5  UNL     1       1.903   1.086   0.088  1.00  0.00     0.004 C 
HETATM    7  C6  UNL     1       2.065  -0.207  -0.723  1.00  0.00     0.034 C 
HETATM    8  C7  UNL     1       0.855  -0.960  -0.337  1.00  0.00     0.153 C 
HETATM    9  O2  UNL     1       0.439  -1.973  -1.146  1.00  0.00    -0.265 OA
HETATM   10  S1  UNL     1      -1.148  -2.177  -0.532  1.00  0.00     0.310 S 
HETATM   11  O3  UNL     1      -2.093  -2.564  -1.603  1.00  0.00    -0.192 OA
HETATM   12  O4  UNL     1      -1.129  -3.141   0.622  1.00  0.00    -0.192 OA
ENDROOT
BRANCH   1  13
HETATM   13  C1  UNL     1      -2.624   1.191   1.112  1.00  0.00     0.353 C 
HETATM   14  O1  UNL     1      -2.870   2.081   0.249  1.00  0.00    -0.283 OA
ENDBRANCH   1  13
TORSDOF 1
