REMARK  11 active torsions:
REMARK  status: ('A' for Active; 'I' for Inactive)
REMARK    1  A    between atoms: O1_2  and  C2_3 
REMARK    2  A    between atoms: C2_3  and  C3_5 
REMARK    3  A    between atoms: C4_7  and  O4_8 
REMARK    4  A    between atoms: C4_7  and  C5_10 
REMARK    5  A    between atoms: C5_10  and  N1_11 
REMARK       I    between atoms: N1_11  and  C6_13 
REMARK       I    between atoms: C6_13  and  N2_15 
REMARK    6  A    between atoms: N2_15  and  N3_17 
REMARK    7  A    between atoms: C7_19  and  C9_21 
REMARK    8  A    between atoms: C11_24  and  N4_25 
REMARK    9  A    between atoms: C12_29  and  C13_30 
REMARK   10  A    between atoms: C13_30  and  O6_31 
REMARK   11  A    between atoms: C15_39  and  N10_40 
ROOT
HETATM    1  N1  UNL     1       1.596   0.205   1.813  1.00  0.00    -0.335 N 
ATOM      2  H1  UNL     1       1.465   0.559   2.760  1.00  0.00     0.164 HD
HETATM    3  C6  UNL     1       0.550   0.475   0.920  1.00  0.00     0.335 C 
HETATM    4  O5  UNL     1       0.524   0.111  -0.268  1.00  0.00    -0.246 OA
HETATM    5  N2  UNL     1      -0.619   1.226   1.340  1.00  0.00    -0.252 N 
ATOM      6  H2  UNL     1      -0.660   1.554   2.305  1.00  0.00     0.191 HD
ENDROOT
BRANCH   1   7
HETATM    7  C5  UNL     1       2.804  -0.487   1.588  1.00  0.00     0.218 C 
BRANCH   7   8
HETATM    8  C4  UNL     1       3.784   0.110   0.628  1.00  0.00     0.263 C 
HETATM    9  O3  UNL     1       4.896  -0.784   0.645  1.00  0.00    -0.314 OA
HETATM   10  C3  UNL     1       6.073  -0.156   0.308  1.00  0.00     0.292 C 
HETATM   11  C16 UNL     1       6.096  -0.073  -1.185  1.00  0.00     0.113 C 
HETATM   12  N11 UNL     1       5.161   0.676  -1.951  1.00  0.00    -0.334 N 
HETATM   13  N12 UNL     1       6.998  -0.707  -1.843  1.00  0.00    -0.387 N 
HETATM   14  C15 UNL     1       3.863   1.223  -1.525  1.00  0.00     0.387 C 
ATOM     15  H11 UNL     1       5.424   0.857  -2.920  1.00  0.00     0.164 HD
HETATM   16  N9  UNL     1       3.260   0.247  -0.670  1.00  0.00    -0.325 N 
ATOM     17  H9  UNL     1       2.480  -0.327  -0.990  1.00  0.00     0.162 HD
ATOM     18 2H12 UNL     1       7.669  -1.244  -1.294  1.00  0.00     0.157 HD
ATOM     19 1H12 UNL     1       7.014  -0.650  -2.861  1.00  0.00     0.157 HD
BRANCH  10  20
HETATM   20  C2  UNL     1       7.257  -0.819   0.871  1.00  0.00     0.295 C 
HETATM   21  O2  UNL     1       7.078  -1.854   1.562  1.00  0.00    -0.262 OA
BRANCH  20  22
HETATM   22  O1  UNL     1       8.556  -0.382   0.693  1.00  0.00    -0.324 OA
HETATM   23  C1  UNL     1       9.643  -1.106   1.289  1.00  0.00     0.213 C 
ENDBRANCH  20  22
ENDBRANCH  10  20
BRANCH  14  24
HETATM   24  N10 UNL     1       3.983   2.528  -0.954  1.00  0.00    -0.041 N 
ATOM     25 3H10 UNL     1       3.074   2.856  -0.629  1.00  0.00     0.279 HD
ATOM     26 2H10 UNL     1       4.482   2.480  -0.065  1.00  0.00     0.279 HD
ATOM     27 1H10 UNL     1       4.413   3.224  -1.564  1.00  0.00     0.279 HD
ENDBRANCH  14  24
BRANCH   8  28
HETATM   28  O4  UNL     1       4.221   1.308   1.197  1.00  0.00    -0.347 OA
ATOM     29  H4  UNL     1       3.481   1.903   1.186  1.00  0.00     0.215 HD
ENDBRANCH   8  28
ENDBRANCH   7   8
ENDBRANCH   1   7
BRANCH   5  30
HETATM   30  N3  UNL     1      -1.671   1.519   0.511  1.00  0.00    -0.299 N 
HETATM   31  C7  UNL     1      -2.825   0.994   0.668  1.00  0.00     0.049 C 
HETATM   32  C8  UNL     1      -3.013   0.040   1.788  1.00  0.00     0.072 C 
ATOM     33  H3  UNL     1      -1.528   2.177  -0.255  1.00  0.00     0.186 HD
BRANCH  31  34
HETATM   34  C9  UNL     1      -3.925   1.354  -0.266  1.00  0.00     0.064 A 
HETATM   35  C10 UNL     1      -3.730   2.241  -1.299  1.00  0.00     0.084 A 
HETATM   36  S1  UNL     1      -5.276   2.280  -2.024  1.00  0.00    -0.062 SA
HETATM   37  C11 UNL     1      -6.070   1.176  -0.980  1.00  0.00     0.170 A 
HETATM   38  N8  UNL     1      -5.115   0.845  -0.145  1.00  0.00    -0.333 N 
ATOM     39  H8  UNL     1      -5.307   0.182   0.606  1.00  0.00     0.168 HD
BRANCH  37  40
HETATM   40  N4  UNL     1      -7.449   0.725  -1.014  1.00  0.00    -0.202 N 
HETATM   41  N5  UNL     1      -8.520   1.497  -1.014  1.00  0.00    -0.012 NA
HETATM   42  N6  UNL     1      -9.625   0.765  -1.050  1.00  0.00    -0.282 N 
HETATM   43  C12 UNL     1      -9.285  -0.543  -1.075  1.00  0.00     0.090 A 
ATOM     44  H6  UNL     1     -10.577   1.130  -1.058  1.00  0.00     0.184 HD
HETATM   45  C14 UNL     1      -7.901  -0.541  -1.051  1.00  0.00     0.164 A 
HETATM   46  N7  UNL     1      -7.051  -1.666  -1.062  1.00  0.00    -0.079 NA
BRANCH  43  47
HETATM   47  C13 UNL     1     -10.196  -1.730  -1.118  1.00  0.00     0.226 C 
BRANCH  47  48
HETATM   48  O6  UNL     1     -11.498  -1.275  -1.130  1.00  0.00    -0.395 OA
ATOM     49  H6  UNL     1     -12.076  -2.028  -1.157  1.00  0.00     0.209 HD
ENDBRANCH  47  48
ENDBRANCH  43  47
ENDBRANCH  37  40
ENDBRANCH  31  34
ENDBRANCH   5  30
TORSDOF 11
