REMARK  13 active torsions:
REMARK  status: ('A' for Active; 'I' for Inactive)
REMARK       I    between atoms: C2_2  and  N1_4 
REMARK    1  A    between atoms: N1_4  and  C3_6 
REMARK    2  A    between atoms: C3_6  and  S1_9 
REMARK    3  A    between atoms: S1_9  and  C5_10 
REMARK    4  A    between atoms: C5_10  and  C6_11 
REMARK    5  A    between atoms: C7_12  and  C8_13 
REMARK    6  A    between atoms: N3_14  and  O2_16 
REMARK    7  A    between atoms: C9_20  and  N5_21 
REMARK    8  A    between atoms: N5_21  and  N6_23 
REMARK    9  A    between atoms: C10_28  and  N8_29 
REMARK   10  A    between atoms: N8_29  and  C11_31 
REMARK   11  A    between atoms: C12_35  and  S2_36 
REMARK   12  A    between atoms: S2_36  and  C13_37 
REMARK   13  A    between atoms: C14_42  and  N13_43 
ROOT
HETATM    1  C3  UNL     1      -3.767   1.936   1.511  1.00  0.00     0.255 C 
HETATM    2  C4  UNL     1      -3.979   3.382   1.266  1.00  0.00     0.095 C 
HETATM    3  N2  UNL     1      -4.179   4.488   1.041  1.00  0.00    -0.194 NA
ENDROOT
BRANCH   1   4
HETATM    4  N1  UNL     1      -4.759   1.446   2.450  1.00  0.00    -0.336 N 
HETATM    5  C2  UNL     1      -4.309   0.803   3.661  1.00  0.00     0.215 C 
HETATM    6  C1  UNL     1      -5.454   0.315   4.514  1.00  0.00     0.117 C 
HETATM    7  O1  UNL     1      -3.120   0.688   3.894  1.00  0.00    -0.274 OA
ATOM      8  H1  UNL     1      -5.755   1.554   2.258  1.00  0.00     0.164 HD
ENDBRANCH   1   4
BRANCH   1   9
HETATM    9  S1  UNL     1      -4.080   1.119  -0.060  1.00  0.00    -0.124 SA
BRANCH   9  10
HETATM   10  C5  UNL     1      -3.493  -0.550  -0.162  1.00  0.00     0.122 C 
BRANCH  10  11
HETATM   11  C6  UNL     1      -2.384  -0.701  -1.109  1.00  0.00     0.024 A 
HETATM   12  C7  UNL     1      -2.750  -1.200  -2.392  1.00  0.00     0.077 A 
HETATM   13  N4  UNL     1      -1.745  -1.389  -3.249  1.00  0.00    -0.188 N 
HETATM   14  C9  UNL     1      -0.486  -1.154  -2.989  1.00  0.00     0.698 A 
ATOM     15  H4  UNL     1      -1.977  -1.744  -4.177  1.00  0.00     0.184 HD
HETATM   16  N7  UNL     1      -0.115  -0.681  -1.749  1.00  0.00    -0.175 N 
HETATM   17  C10 UNL     1      -1.058  -0.448  -0.797  1.00  0.00     0.128 A 
ATOM     18  H7  UNL     1       0.869  -0.505  -1.545  1.00  0.00     0.186 HD
BRANCH  12  19
HETATM   19  C8  UNL     1      -4.138  -1.444  -2.667  1.00  0.00     0.144 C 
HETATM   20  N3  UNL     1      -4.643  -1.962  -3.672  1.00  0.00    -0.278 N 
ATOM     21  H3  UNL     1      -5.656  -1.987  -3.557  1.00  0.00     0.193 HD
BRANCH  20  22
HETATM   22  O2  UNL     1      -4.333  -2.491  -4.834  1.00  0.00    -0.290 OA
ATOM     23  H2  UNL     1      -4.720  -2.888  -5.605  1.00  0.00     0.244 HD
ENDBRANCH  20  22
ENDBRANCH  12  19
BRANCH  14  24
HETATM   24  N5  UNL     1       0.446  -1.264  -3.872  1.00  0.00    -0.138 N 
ATOM     25  H5  UNL     1       1.418  -1.060  -3.638  1.00  0.00     0.205 HD
BRANCH  24  26
HETATM   26  N6  UNL     1       0.081  -1.677  -5.179  1.00  0.00    -0.331 N 
ATOM     27  H62 UNL     1      -0.895  -1.877  -5.397  1.00  0.00     0.177 HD
ATOM     28  H61 UNL     1       0.819  -1.764  -5.878  1.00  0.00     0.177 HD
ENDBRANCH  24  26
ENDBRANCH  14  24
BRANCH  17  29
HETATM   29  N8  UNL     1      -0.738  -0.167   0.368  1.00  0.00    -0.340 N 
ATOM     30  H8  UNL     1      -1.588  -0.160   0.932  1.00  0.00     0.164 HD
BRANCH  29  31
HETATM   31  C11 UNL     1       0.285   0.129   1.168  1.00  0.00     0.354 C 
HETATM   32  N9  UNL     1       1.650   0.252   0.539  1.00  0.00    -0.023 N 
HETATM   33  C12 UNL     1       2.060   0.743   1.861  1.00  0.00     0.319 C 
ATOM     34  H92 UNL     1       2.113  -0.532   0.079  1.00  0.00     0.283 HD
ATOM     35  H91 UNL     1       1.812   0.783  -0.316  1.00  0.00     0.283 HD
HETATM   36  S3  UNL     1       0.599   1.847   1.751  1.00  0.00    -0.072 SA
BRANCH  33  37
HETATM   37  S2  UNL     1       3.659   1.549   1.822  1.00  0.00    -0.072 SA
BRANCH  37  38
HETATM   38  C13 UNL     1       4.884   0.223   1.369  1.00  0.00     0.305 C 
HETATM   39  N10 UNL     1       4.586  -0.231   0.029  1.00  0.00    -0.285 N 
HETATM   40  N11 UNL     1       5.650  -0.681  -0.705  1.00  0.00    -0.029 NA
ATOM     41  H10 UNL     1       3.638  -0.217  -0.347  1.00  0.00     0.180 HD
HETATM   42  N12 UNL     1       6.837   0.002  -0.451  1.00  0.00    -0.066 NA
HETATM   43  C14 UNL     1       7.084  -0.051   0.990  1.00  0.00     0.436 C 
HETATM   44  O3  UNL     1       6.119   0.765   1.575  1.00  0.00    -0.311 OA
BRANCH  43  45
HETATM   45  N13 UNL     1       8.440   0.462   1.153  1.00  0.00    -0.037 N 
ATOM     46 3H13 UNL     1       9.139  -0.028   0.594  1.00  0.00     0.279 HD
ATOM     47 2H13 UNL     1       8.587   1.383   0.740  1.00  0.00     0.279 HD
ATOM     48 1H13 UNL     1       8.612   0.425   2.158  1.00  0.00     0.279 HD
ENDBRANCH  43  45
ENDBRANCH  37  38
ENDBRANCH  33  37
ENDBRANCH  29  31
ENDBRANCH  17  29
ENDBRANCH  10  11
ENDBRANCH   9  10
ENDBRANCH   1   9
TORSDOF 13
