REMARK  12 active torsions:
REMARK  status: ('A' for Active; 'I' for Inactive)
REMARK    1  A    between atoms: C2_2  and  C3_3 
REMARK    2  A    between atoms: C2_2  and  C26_31 
REMARK    3  A    between atoms: C3_3  and  C4_4 
REMARK    4  A    between atoms: C4_4  and  O1_5 
REMARK    5  A    between atoms: C4_4  and  C5_7 
REMARK    6  A    between atoms: C5_7  and  C6_9 
REMARK    7  A    between atoms: C26_31  and  O5_32 
REMARK    8  A    between atoms: C26_31  and  C27_34 
REMARK    9  A    between atoms: C27_34  and  O6_35 
REMARK   10  A    between atoms: C27_34  and  C28_37 
REMARK   11  A    between atoms: C28_37  and  C30_39 
REMARK   12  A    between atoms: C30_39  and  O7_40 
ROOT
HETATM    1  C6  UNL     1       0.361   0.667   1.424  1.00  0.00     0.067 C 
HETATM    2  C7  UNL     1       0.295   0.348   2.930  1.00  0.00     0.013 C 
HETATM    3  C8  UNL     1      -0.931  -0.601   2.817  1.00  0.00     0.007 C 
HETATM    4  C9  UNL     1      -1.862   0.322   2.103  1.00  0.00     0.003 C 
HETATM    5  C10 UNL     1      -1.054   1.099   1.101  1.00  0.00    -0.029 C 
HETATM    6  C11 UNL     1      -1.136   2.589   1.443  1.00  0.00     0.016 C 
HETATM    7  C12 UNL     1      -1.339   0.841  -0.332  1.00  0.00     0.011 C 
HETATM    8  C13 UNL     1      -2.325  -0.331  -0.555  1.00  0.00     0.012 C 
HETATM    9  C14 UNL     1      -3.509   0.148   0.271  1.00  0.00    -0.020 A 
HETATM   10  C15 UNL     1      -4.133   1.194  -0.318  1.00  0.00     0.026 A 
HETATM   11  C16 UNL     1      -4.886   0.024   0.129  1.00  0.00     0.017 A 
HETATM   12  C17 UNL     1      -6.242   0.461  -0.161  1.00  0.00     0.184 C 
HETATM   13  O3  UNL     1      -6.400   0.325  -1.562  1.00  0.00    -0.355 OA
HETATM   14  C18 UNL     1      -6.096  -0.898  -2.052  1.00  0.00     0.157 C 
HETATM   15  C19 UNL     1      -5.951  -0.762  -3.568  1.00  0.00     0.078 C 
HETATM   16  C20 UNL     1      -7.219  -1.922  -1.850  1.00  0.00     0.078 C 
HETATM   17  O4  UNL     1      -4.866  -1.450  -1.620  1.00  0.00    -0.350 OA
HETATM   18  C21 UNL     1      -4.940  -1.412  -0.223  1.00  0.00     0.136 C 
HETATM   19  C22 UNL     1      -4.048  -2.334   0.507  1.00  0.00     0.034 C 
HETATM   20  C23 UNL     1      -3.208  -1.769   1.621  1.00  0.00     0.013 C 
HETATM   21  C24 UNL     1      -3.142  -0.250   1.653  1.00  0.00    -0.031 C 
HETATM   22  C25 UNL     1      -4.308   0.187   2.561  1.00  0.00     0.016 C 
ENDROOT
BRANCH   1  23
HETATM   23  C5  UNL     1       1.430   1.544   1.029  1.00  0.00     0.160 C 
HETATM   24  O2  UNL     1       1.296   2.641   0.530  1.00  0.00    -0.295 OA
BRANCH  23  25
HETATM   25  C4  UNL     1       2.864   1.112   1.232  1.00  0.00     0.192 C 
BRANCH  25  26
HETATM   26  C3  UNL     1       3.658   1.305  -0.015  1.00  0.00     0.075 C 
BRANCH  26  27
HETATM   27  C2  UNL     1       5.119   1.057   0.137  1.00  0.00    -0.056 C 
HETATM   28  C1  UNL     1       5.611   0.798   1.319  1.00  0.00     0.017 C 
BRANCH  27  29
HETATM   29  C26 UNL     1       6.008   1.170  -1.063  1.00  0.00     0.175 C 
BRANCH  29  30
HETATM   30  O5  UNL     1       6.244   2.613  -1.059  1.00  0.00    -0.389 OA
ATOM     31  H5  UNL     1       6.808   2.685  -1.820  1.00  0.00     0.210 HD
ENDBRANCH  29  30
BRANCH  29  32
HETATM   32  C27 UNL     1       7.367   0.611  -0.933  1.00  0.00     0.156 C 
BRANCH  32  33
HETATM   33  O6  UNL     1       8.197   1.228  -1.971  1.00  0.00    -0.392 OA
ATOM     34  H6  UNL     1       9.072   0.868  -1.887  1.00  0.00     0.210 HD
ENDBRANCH  32  33
BRANCH  32  35
HETATM   35  C28 UNL     1       7.513  -0.861  -1.204  1.00  0.00     0.037 C 
HETATM   36  C29 UNL     1       6.748  -1.810  -0.382  1.00  0.00     0.015 C 
BRANCH  35  37
HETATM   37  C30 UNL     1       7.315  -1.214  -2.665  1.00  0.00     0.170 C 
BRANCH  37  38
HETATM   38  O7  UNL     1       8.237  -0.576  -3.491  1.00  0.00    -0.400 OA
ATOM     39  H7  UNL     1       8.113  -0.797  -4.407  1.00  0.00     0.209 HD
ENDBRANCH  37  38
ENDBRANCH  35  37
ENDBRANCH  32  35
ENDBRANCH  29  32
ENDBRANCH  27  29
ENDBRANCH  26  27
ENDBRANCH  25  26
BRANCH  25  40
HETATM   40  O1  UNL     1       2.956  -0.178   1.695  1.00  0.00    -0.388 OA
ATOM     41  H1  UNL     1       2.450  -0.301   2.490  1.00  0.00     0.210 HD
ENDBRANCH  25  40
ENDBRANCH  23  25
ENDBRANCH   1  23
TORSDOF 12
