REMARK  12 active torsions:
REMARK  status: ('A' for Active; 'I' for Inactive)
REMARK    1  A    between atoms: C2_2  and  C3_3 
REMARK    2  A    between atoms: C2_2  and  O5_38 
REMARK    3  A    between atoms: C3_3  and  C4_4 
REMARK    4  A    between atoms: C4_4  and  N1_5 
REMARK    5  A    between atoms: C4_4  and  C5_9 
REMARK    6  A    between atoms: C5_9  and  O2_11 
REMARK    7  A    between atoms: O2_11  and  C6_12 
REMARK    8  A    between atoms: C9_15  and  O3_16 
REMARK    9  A    between atoms: C23_31  and  O4_32 
REMARK   10  A    between atoms: O5_38  and  C28_39 
REMARK   11  A    between atoms: C28_39  and  C29_40 
REMARK   12  A    between atoms: C29_40  and  O6_41 
ROOT
HETATM    1  C6  UNL     1       1.601   1.263  -0.666  1.00  0.00     0.139 C 
HETATM    2  C7  UNL     1       0.578   2.311  -0.222  1.00  0.00     0.036 C 
HETATM    3  C8  UNL     1      -0.590   1.946  -1.149  1.00  0.00     0.041 C 
HETATM    4  C9  UNL     1      -0.476   0.465  -1.386  1.00  0.00     0.068 C 
HETATM    5  C10 UNL     1       0.720   0.009  -0.636  1.00  0.00     0.050 C 
HETATM    6  C11 UNL     1       0.497  -0.457   0.749  1.00  0.00     0.010 C 
HETATM    7  C12 UNL     1      -0.814  -1.134   1.006  1.00  0.00     0.006 C 
HETATM    8  C13 UNL     1      -1.903  -0.257   0.438  1.00  0.00    -0.003 C 
HETATM    9  C14 UNL     1      -1.730  -0.291  -1.062  1.00  0.00     0.025 C 
HETATM   10  C15 UNL     1      -2.935   0.309  -1.686  1.00  0.00     0.009 C 
HETATM   11  C16 UNL     1      -4.105  -0.617  -1.452  1.00  0.00     0.011 C 
HETATM   12  C17 UNL     1      -4.208  -1.154  -0.078  1.00  0.00    -0.029 C 
HETATM   13  C18 UNL     1      -4.058  -2.664  -0.006  1.00  0.00     0.016 C 
HETATM   14  C19 UNL     1      -3.262  -0.540   0.921  1.00  0.00     0.003 C 
HETATM   15  C20 UNL     1      -3.971   0.747   1.367  1.00  0.00     0.040 C 
HETATM   16  C21 UNL     1      -5.345   0.648   0.801  1.00  0.00    -0.072 C 
HETATM   17  C22 UNL     1      -6.235   1.579   0.538  1.00  0.00     0.008 C 
HETATM   18  C23 UNL     1      -7.550   1.214  -0.032  1.00  0.00     0.141 C 
HETATM   19  C24 UNL     1      -7.898  -0.228   0.138  1.00  0.00     0.037 C 
HETATM   20  C25 UNL     1      -6.732  -1.155  -0.235  1.00  0.00     0.017 C 
HETATM   21  C26 UNL     1      -5.546  -0.813   0.567  1.00  0.00    -0.013 C 
HETATM   22  C27 UNL     1      -5.642  -1.479   1.916  1.00  0.00     0.021 C 
ENDROOT
BRANCH   1  23
HETATM   23  O2  UNL     1       2.696   1.180   0.187  1.00  0.00    -0.314 OA
BRANCH  23  24
HETATM   24  C5  UNL     1       3.971   1.396  -0.348  1.00  0.00     0.290 C 
HETATM   25  O1  UNL     1       4.083   1.651  -1.554  1.00  0.00    -0.263 OA
BRANCH  24  26
HETATM   26  C4  UNL     1       5.204   1.329   0.485  1.00  0.00     0.284 C 
BRANCH  26  27
HETATM   27  C3  UNL     1       6.084   0.274  -0.099  1.00  0.00     0.074 C 
BRANCH  27  28
HETATM   28  C2  UNL     1       7.366   0.016   0.608  1.00  0.00     0.119 C 
HETATM   29  C1  UNL     1       7.153  -0.432   2.018  1.00  0.00     0.039 C 
BRANCH  28  30
HETATM   30  O5  UNL     1       8.033  -0.988  -0.128  1.00  0.00    -0.384 OA
BRANCH  30  31
HETATM   31  C28 UNL     1       9.259  -0.549  -0.555  1.00  0.00     0.194 C 
BRANCH  31  32
HETATM   32  C29 UNL     1      10.021  -1.572  -1.344  1.00  0.00     0.190 C 
BRANCH  32  33
HETATM   33  O6  UNL     1      11.247  -0.983  -1.710  1.00  0.00    -0.399 OA
ATOM     34  H6  UNL     1      11.730  -1.631  -2.210  1.00  0.00     0.209 HD
ENDBRANCH  32  33
ENDBRANCH  31  32
ENDBRANCH  30  31
ENDBRANCH  28  30
ENDBRANCH  27  28
ENDBRANCH  26  27
BRANCH  26  35
HETATM   35  N1  UNL     1       4.802   1.019   1.834  1.00  0.00    -0.066 N 
ATOM     36  H13 UNL     1       4.361   0.101   1.885  1.00  0.00     0.275 HD
ATOM     37  H12 UNL     1       5.612   0.843   2.429  1.00  0.00     0.275 HD
ATOM     38  H11 UNL     1       4.201   1.740   2.233  1.00  0.00     0.275 HD
ENDBRANCH  26  35
ENDBRANCH  24  26
ENDBRANCH  23  24
ENDBRANCH   1  23
BRANCH   4  39
HETATM   39  O3  UNL     1      -0.225   0.281  -2.762  1.00  0.00    -0.389 OA
ATOM     40  H3  UNL     1      -0.153  -0.654  -2.912  1.00  0.00     0.210 HD
ENDBRANCH   4  39
BRANCH  18  41
HETATM   41  O4  UNL     1      -7.560   1.551  -1.405  1.00  0.00    -0.392 OA
ATOM     42  H4  UNL     1      -8.405   1.317  -1.771  1.00  0.00     0.210 HD
ENDBRANCH  18  41
TORSDOF 12
