REMARK  10 active torsions:
REMARK  status: ('A' for Active; 'I' for Inactive)
REMARK    1  A    between atoms: C1_1  and  C25_44 
REMARK    2  A    between atoms: N1_2  and  N2_4 
REMARK    3  A    between atoms: N2_4  and  C2_6 
REMARK    4  A    between atoms: C3_9  and  N4_10 
REMARK    5  A    between atoms: N4_10  and  C4_12 
REMARK    6  A    between atoms: C4_12  and  C5_13 
REMARK    7  A    between atoms: C10_18  and  C11_19 
REMARK    8  A    between atoms: C11_19  and  C12_20 
REMARK    9  A    between atoms: N8_34  and  C20_36 
REMARK   10  A    between atoms: C20_36  and  C21_37 
ROOT
HETATM    1  C2  UNL     1      -3.793  -0.801  -0.311  1.00  0.00     0.260 A 
HETATM    2  N3  UNL     1      -2.458  -0.705  -0.181  1.00  0.00    -0.153 N 
ATOM      3  H3  UNL     1      -1.869  -1.474  -0.500  1.00  0.00     0.188 HD
HETATM    4  C3  UNL     1      -1.888   0.375   0.357  1.00  0.00     0.684 A 
HETATM    5  N7  UNL     1      -2.712   1.381   0.773  1.00  0.00    -0.154 N 
ATOM      6  H7  UNL     1      -2.313   2.222   1.189  1.00  0.00     0.188 HD
HETATM    7  C19 UNL     1      -4.039   1.272   0.639  1.00  0.00     0.245 A 
HETATM    8  N8  UNL     1      -4.841   2.188   1.018  1.00  0.00    -0.331 N 
ATOM      9  H8  UNL     1      -5.837   2.019   0.874  1.00  0.00     0.168 HD
HETATM   10  O1  UNL     1      -4.563   0.170   0.092  1.00  0.00    -0.244 OA
ENDROOT
BRANCH   4  11
HETATM   11  N4  UNL     1      -0.650   0.560   0.528  1.00  0.00    -0.222 N 
ATOM     12  H4  UNL     1      -0.404   1.452   0.957  1.00  0.00     0.178 HD
BRANCH  11  13
HETATM   13  C4  UNL     1       0.453  -0.279   0.217  1.00  0.00     0.179 C 
BRANCH  13  14
HETATM   14  C5  UNL     1       1.702   0.568   0.163  1.00  0.00    -0.011 A 
HETATM   15  C6  UNL     1       1.619   1.938   0.384  1.00  0.00     0.011 A 
HETATM   16  C7  UNL     1       2.754   2.715   0.333  1.00  0.00     0.002 A 
HETATM   17  C8  UNL     1       3.987   2.160   0.066  1.00  0.00     0.016 A 
HETATM   18  C9  UNL     1       4.048   0.801  -0.149  1.00  0.00     0.017 A 
HETATM   19  C10 UNL     1       5.114  -0.067  -0.430  1.00  0.00     0.042 A 
HETATM   20  C18 UNL     1       2.924   0.005  -0.103  1.00  0.00     0.068 A 
HETATM   21  N5  UNL     1       4.637  -1.317  -0.545  1.00  0.00    -0.303 N 
HETATM   22  N6  UNL     1       3.334  -1.262  -0.348  1.00  0.00    -0.299 N 
ATOM     23  H5  UNL     1       5.182  -2.155  -0.747  1.00  0.00     0.186 HD
ATOM     24  H6  UNL     1       2.714  -2.071  -0.377  1.00  0.00     0.187 HD
BRANCH  19  25
HETATM   25  C11 UNL     1       6.513   0.392  -0.568  1.00  0.00     0.098 C 
BRANCH  25  26
HETATM   26  C12 UNL     1       7.412  -0.814  -0.599  1.00  0.00    -0.052 A 
HETATM   27  C13 UNL     1       7.762  -1.455  -1.761  1.00  0.00     0.007 A 
HETATM   28  C14 UNL     1       8.583  -2.555  -1.777  1.00  0.00     0.001 A 
HETATM   29  C15 UNL     1       9.068  -3.025  -0.565  1.00  0.00     0.000 A 
HETATM   30  C16 UNL     1       8.748  -2.421   0.628  1.00  0.00     0.001 A 
HETATM   31  C17 UNL     1       7.925  -1.324   0.594  1.00  0.00     0.007 A 
ENDBRANCH  25  26
ENDBRANCH  19  25
ENDBRANCH  13  14
ENDBRANCH  11  13
ENDBRANCH   4  11
BRANCH   1  32
HETATM   32  N2  UNL     1      -4.295  -1.871  -0.839  1.00  0.00    -0.265 N 
ATOM     33  H2  UNL     1      -5.305  -1.965  -0.947  1.00  0.00     0.190 HD
BRANCH  32  34
HETATM   34  N1  UNL     1      -3.456  -2.883  -1.254  1.00  0.00    -0.308 N 
HETATM   35  C1  UNL     1      -3.788  -4.105  -1.094  1.00  0.00     0.126 C 
ATOM     36  H1  UNL     1      -2.564  -2.654  -1.692  1.00  0.00     0.186 HD
BRANCH  35  37
HETATM   37  C25 UNL     1      -5.084  -4.405  -0.459  1.00  0.00     0.021 A 
HETATM   38  C26 UNL     1      -5.617  -5.642  -0.179  1.00  0.00     0.021 A 
HETATM   39  C27 UNL     1      -6.822  -5.674   0.397  1.00  0.00     0.008 A 
HETATM   40  C28 UNL     1      -7.431  -4.480   0.663  1.00  0.00     0.050 A 
HETATM   41  S1  UNL     1      -6.300  -3.341   0.099  1.00  0.00    -0.101 SA
ENDBRANCH  35  37
ENDBRANCH  32  34
ENDBRANCH   1  32
BRANCH   8  42
HETATM   42  C20 UNL     1      -4.484   3.405   1.613  1.00  0.00     0.104 C 
BRANCH  42  43
HETATM   43  C21 UNL     1      -4.890   4.512   0.672  1.00  0.00    -0.004 A 
HETATM   44  C22 UNL     1      -4.134   5.248  -0.194  1.00  0.00     0.031 A 
HETATM   45  C23 UNL     1      -4.976   6.142  -0.835  1.00  0.00     0.088 A 
HETATM   46  N9  UNL     1      -6.218   5.935  -0.354  1.00  0.00    -0.374 N 
HETATM   47  C24 UNL     1      -6.187   4.947   0.565  1.00  0.00     0.100 A 
ATOM     48  H9  UNL     1      -7.053   6.446  -0.640  1.00  0.00     0.164 HD
ENDBRANCH  42  43
ENDBRANCH   8  42
TORSDOF 10
