REMARK  9 active torsions:
REMARK  status: ('A' for Active; 'I' for Inactive)
REMARK    1  A    between atoms: C2_2  and  N1_3 
REMARK    2  A    between atoms: N1_3  and  C3_6 
REMARK    3  A    between atoms: C3_6  and  C4_7 
REMARK    4  A    between atoms: C5_9  and  O2_10 
REMARK    5  A    between atoms: C6_12  and  N2_13 
REMARK       I    between atoms: N2_13  and  C7_15 
REMARK    6  A    between atoms: C7_15  and  C8_17 
REMARK    7  A    between atoms: C19_30  and  O6_31 
REMARK    8  A    between atoms: O6_31  and  C20_32 
REMARK       I    between atoms: C20_32  and  N3_34 
REMARK    9  A    between atoms: N3_34  and  C21_36 
ROOT
HETATM    1  C4  UNL     1       0.130   0.961   1.000  1.00  0.00     0.179 C 
HETATM    2  O1  UNL     1       1.505   0.981   0.761  1.00  0.00    -0.350 OA
HETATM    3  C5  UNL     1       1.918   2.073   0.035  1.00  0.00     0.280 C 
HETATM    4  C6  UNL     1       2.546   1.650  -1.302  1.00  0.00     0.146 C 
HETATM    5  C9  UNL     1       3.864   0.965  -1.078  1.00  0.00     0.108 C 
HETATM    6  C10 UNL     1       3.910  -0.309  -1.850  1.00  0.00     0.129 C 
HETATM    7  O5  UNL     1       3.017  -0.663  -2.601  1.00  0.00    -0.298 OA
HETATM    8  C11 UNL     1       5.080  -1.225  -1.732  1.00  0.00     0.078 C 
HETATM    9  C12 UNL     1       4.942  -2.189  -0.579  1.00  0.00     0.007 C 
HETATM   10  C13 UNL     1       3.833  -3.193  -0.800  1.00  0.00     0.000 C 
HETATM   11  C14 UNL     1       3.542  -3.859   0.509  1.00  0.00     0.000 C 
HETATM   12  C15 UNL     1       2.110  -4.339   0.616  1.00  0.00     0.000 C 
HETATM   13  C16 UNL     1       1.402  -3.450   1.605  1.00  0.00     0.000 C 
HETATM   14  C17 UNL     1       0.234  -2.722   1.044  1.00  0.00     0.002 C 
HETATM   15  C18 UNL     1       0.586  -1.410   0.393  1.00  0.00     0.035 C 
HETATM   16  C19 UNL     1      -0.477  -0.391   0.685  1.00  0.00     0.164 C 
ENDROOT
BRANCH  16  17
HETATM   17  O6  UNL     1      -1.362  -0.190  -0.406  1.00  0.00    -0.296 OA
BRANCH  17  18
HETATM   18  C20 UNL     1      -2.705  -0.402  -0.248  1.00  0.00     0.365 C 
HETATM   19  O7  UNL     1      -3.111  -0.771   0.868  1.00  0.00    -0.238 OA
HETATM   20  N3  UNL     1      -3.665  -0.225  -1.288  1.00  0.00    -0.302 N 
ATOM     21  H3  UNL     1      -3.350   0.077  -2.210  1.00  0.00     0.171 HD
BRANCH  20  22
HETATM   22  C21 UNL     1      -5.049  -0.460  -1.070  1.00  0.00     0.049 A 
HETATM   23  C22 UNL     1      -5.879   0.553  -0.638  1.00  0.00    -0.032 A 
HETATM   24  C23 UNL     1      -5.348   1.931  -0.385  1.00  0.00     0.050 C 
HETATM   25  C24 UNL     1      -7.220   0.323  -0.427  1.00  0.00     0.051 A 
HETATM   26  C25 UNL     1      -7.731  -0.934  -0.652  1.00  0.00     0.117 A 
HETATM   27  F1  UNL     1      -9.056  -1.113  -0.431  1.00  0.00    -0.206 F 
HETATM   28  C26 UNL     1      -6.914  -1.970  -1.087  1.00  0.00     0.051 A 
HETATM   29  C27 UNL     1      -5.582  -1.713  -1.289  1.00  0.00    -0.032 A 
HETATM   30  C28 UNL     1      -4.699  -2.838  -1.760  1.00  0.00     0.050 C 
ENDBRANCH  20  22
ENDBRANCH  17  18
ENDBRANCH  16  17
BRANCH   1  31
HETATM   31  C3  UNL     1      -0.198   1.377   2.429  1.00  0.00     0.266 C 
BRANCH  31  32
HETATM   32  N1  UNL     1       0.271   2.700   2.680  1.00  0.00    -0.073 N 
ATOM     33  H12 UNL     1      -0.078   3.383   2.007  1.00  0.00     0.277 HD
ATOM     34  H11 UNL     1       1.265   2.817   2.482  1.00  0.00     0.277 HD
BRANCH  32  35
HETATM   35  C2  UNL     1      -0.083   3.025   4.070  1.00  0.00     0.228 C 
HETATM   36  C1  UNL     1       0.368   4.410   4.447  1.00  0.00     0.034 C 
ENDBRANCH  32  35
ENDBRANCH  31  32
ENDBRANCH   1  31
BRANCH   3  37
HETATM   37  O2  UNL     1       2.886   2.836   0.685  1.00  0.00    -0.369 OA
ATOM     38  H2  UNL     1       3.171   3.591   0.183  1.00  0.00     0.212 HD
ENDBRANCH   3  37
BRANCH   4  39
HETATM   39  N2  UNL     1       2.770   2.821  -2.127  1.00  0.00    -0.345 N 
HETATM   40  C7  UNL     1       2.134   2.983  -3.394  1.00  0.00     0.279 C 
HETATM   41  O3  UNL     1       1.365   2.064  -3.773  1.00  0.00    -0.265 OA
ATOM     42  H2  UNL     1       3.400   3.550  -1.792  1.00  0.00     0.163 HD
BRANCH  40  43
HETATM   43  C8  UNL     1       2.335   4.132  -4.236  1.00  0.00     0.332 C 
HETATM   44  O4  UNL     1       3.095   5.083  -3.907  1.00  0.00    -0.297 OA
ENDBRANCH  40  43
ENDBRANCH   4  39
TORSDOF 9
