REMARK  14 active torsions:
REMARK  status: ('A' for Active; 'I' for Inactive)
REMARK    1  A    between atoms: C2_2  and  C3_3 
REMARK    2  A    between atoms: C3_3  and  O2_5 
REMARK    3  A    between atoms: O2_5  and  C4_6 
REMARK    4  A    between atoms: C6_8  and  O3_9 
REMARK    5  A    between atoms: C11_15  and  O4_16 
REMARK    6  A    between atoms: C18_24  and  O5_25 
REMARK    7  A    between atoms: C19_27  and  O6_28 
REMARK    8  A    between atoms: C23_33  and  C24_34 
REMARK    9  A    between atoms: C24_34  and  C25_35 
REMARK   10  A    between atoms: C25_35  and  C26_36 
REMARK   11  A    between atoms: C26_36  and  O7_38 
REMARK   12  A    between atoms: C26_36  and  C28_40 
REMARK   13  A    between atoms: C28_40  and  C29_41 
REMARK   14  A    between atoms: C29_41  and  C30_42 
ROOT
HETATM    1  C4  UNL     1      -5.301  -0.756   0.236  1.00  0.00     0.139 C 
HETATM    2  C5  UNL     1      -4.885   0.342  -0.693  1.00  0.00     0.065 C 
HETATM    3  C6  UNL     1      -3.805   1.030   0.162  1.00  0.00     0.130 C 
HETATM    4  C7  UNL     1      -3.156  -0.073   0.897  1.00  0.00    -0.004 C 
HETATM    5  C8  UNL     1      -3.331   0.174   2.408  1.00  0.00     0.019 C 
HETATM    6  C9  UNL     1      -3.921  -1.328   0.612  1.00  0.00     0.029 C 
HETATM    7  C10 UNL     1      -3.473  -2.171  -0.499  1.00  0.00     0.040 C 
HETATM    8  C11 UNL     1      -2.032  -2.146  -0.855  1.00  0.00     0.123 C 
HETATM    9  C12 UNL     1      -1.519  -0.748  -0.732  1.00  0.00     0.028 C 
HETATM   10  C13 UNL     1      -0.055  -0.580  -0.971  1.00  0.00     0.006 C 
HETATM   11  C14 UNL     1       0.165  -0.468  -2.428  1.00  0.00     0.033 C 
HETATM   12  C15 UNL     1       1.241   0.436  -2.842  1.00  0.00    -0.023 C 
HETATM   13  C16 UNL     1       1.571   1.516  -2.143  1.00  0.00    -0.072 C 
HETATM   14  C17 UNL     1       2.655   2.354  -2.636  1.00  0.00     0.069 C 
HETATM   15  C18 UNL     1       3.060   3.523  -1.830  1.00  0.00     0.151 C 
HETATM   16  C19 UNL     1       1.979   3.995  -0.885  1.00  0.00     0.148 C 
HETATM   17  C20 UNL     1       1.621   2.747  -0.065  1.00  0.00     0.049 C 
HETATM   18  C21 UNL     1       0.803   1.801  -0.911  1.00  0.00    -0.010 C 
HETATM   19  C22 UNL     1      -0.380   2.631  -1.389  1.00  0.00     0.021 C 
HETATM   20  C23 UNL     1       0.423   0.580  -0.139  1.00  0.00    -0.024 C 
HETATM   21  C32 UNL     1      -0.808   0.889   0.732  1.00  0.00     0.021 C 
HETATM   22  C33 UNL     1      -1.705  -0.303   0.688  1.00  0.00    -0.027 C 
HETATM   23  C34 UNL     1      -1.317  -1.374   1.686  1.00  0.00     0.016 C 
ENDROOT
BRANCH  20  24
HETATM   24  C24 UNL     1       1.502   0.154   0.820  1.00  0.00     0.014 C 
BRANCH  24  25
HETATM   25  C25 UNL     1       2.733  -0.435   0.198  1.00  0.00     0.038 C 
BRANCH  25  26
HETATM   26  C26 UNL     1       3.663  -0.816   1.334  1.00  0.00     0.054 C 
HETATM   27  C27 UNL     1       4.056   0.394   2.183  1.00  0.00     0.045 C 
BRANCH  26  28
HETATM   28  O7  UNL     1       3.019  -1.710   2.209  1.00  0.00    -0.390 OA
ATOM     29  H7  UNL     1       3.601  -1.949   2.921  1.00  0.00     0.210 HD
ENDBRANCH  26  28
BRANCH  26  30
HETATM   30  C28 UNL     1       4.922  -1.493   0.868  1.00  0.00     0.043 C 
BRANCH  30  31
HETATM   31  C29 UNL     1       5.709  -0.606  -0.045  1.00  0.00     0.081 C 
BRANCH  31  32
HETATM   32  C30 UNL     1       6.995  -1.326  -0.485  1.00  0.00     0.240 C 
HETATM   33  C31 UNL     1       7.816  -1.653   0.731  1.00  0.00     0.090 C 
HETATM   34  F1  UNL     1       7.699  -0.441  -1.275  1.00  0.00    -0.207 F 
HETATM   35  F2  UNL     1       6.637  -2.465  -1.156  1.00  0.00    -0.207 F 
ENDBRANCH  31  32
ENDBRANCH  30  31
ENDBRANCH  26  30
ENDBRANCH  25  26
ENDBRANCH  24  25
ENDBRANCH  20  24
BRANCH   8  36
HETATM   36  O4  UNL     1      -1.908  -2.492  -2.223  1.00  0.00    -0.395 OA
ATOM     37  H4  UNL     1      -0.986  -2.476  -2.451  1.00  0.00     0.210 HD
ENDBRANCH   8  36
BRANCH  16  38
HETATM   38  O6  UNL     1       2.513   4.888   0.053  1.00  0.00    -0.393 OA
ATOM     39  H6  UNL     1       1.834   5.185   0.647  1.00  0.00     0.210 HD
ENDBRANCH  16  38
BRANCH  15  40
HETATM   40  O5  UNL     1       3.489   4.551  -2.671  1.00  0.00    -0.393 OA
ATOM     41  H5  UNL     1       3.750   5.303  -2.152  1.00  0.00     0.210 HD
ENDBRANCH  15  40
BRANCH   3  42
HETATM   42  O3  UNL     1      -4.563   1.902   0.987  1.00  0.00    -0.395 OA
ATOM     43  H3  UNL     1      -3.897   2.326   1.515  1.00  0.00     0.210 HD
ENDBRANCH   3  42
BRANCH   1  44
HETATM   44  O2  UNL     1      -5.978  -1.817  -0.413  1.00  0.00    -0.312 OA
BRANCH  44  45
HETATM   45  C3  UNL     1      -7.205  -2.286   0.077  1.00  0.00     0.282 C 
HETATM   46  O1  UNL     1      -7.638  -1.707   1.106  1.00  0.00    -0.260 OA
BRANCH  45  47
HETATM   47  C2  UNL     1      -7.925  -3.374  -0.567  1.00  0.00     0.072 C 
HETATM   48  C1  UNL     1      -9.073  -3.749  -0.034  1.00  0.00     0.017 C 
ENDBRANCH  45  47
ENDBRANCH  44  45
ENDBRANCH   1  44
TORSDOF 14
