REMARK  12 active torsions:
REMARK  status: ('A' for Active; 'I' for Inactive)
REMARK    1  A    between atoms: C2_2  and  C3_3 
REMARK    2  A    between atoms: C3_3  and  S1_4 
REMARK    3  A    between atoms: S1_4  and  C4_5 
REMARK    4  A    between atoms: C9_11  and  O1_12 
REMARK    5  A    between atoms: C13_17  and  O2_18 
REMARK    6  A    between atoms: C23_29  and  O3_30 
REMARK    7  A    between atoms: O3_30  and  C24_31 
REMARK    8  A    between atoms: C24_31  and  C25_33 
REMARK    9  A    between atoms: C25_33  and  N1_34 
REMARK   10  A    between atoms: N1_34  and  C26_36 
REMARK   11  A    between atoms: C26_36  and  C27_37 
REMARK   12  A    between atoms: C27_37  and  O5_38 
ROOT
HETATM    1  C4  UNL     1       0.780  -1.597  -0.407  1.00  0.00     0.048 C 
HETATM    2  C5  UNL     1      -0.239  -2.541   0.055  1.00  0.00     0.037 C 
HETATM    3  C6  UNL     1      -0.951  -2.368   1.292  1.00  0.00     0.111 C 
HETATM    4  F1  UNL     1      -0.544  -2.994   2.460  1.00  0.00    -0.207 F 
HETATM    5  C7  UNL     1      -2.028  -1.645   1.436  1.00  0.00     0.023 C 
HETATM    6  C8  UNL     1      -2.676  -0.893   0.330  1.00  0.00     0.045 C 
HETATM    7  C9  UNL     1      -4.038  -1.455   0.015  1.00  0.00     0.126 C 
HETATM    8  C10 UNL     1      -5.126  -0.778   0.799  1.00  0.00     0.038 C 
HETATM    9  C11 UNL     1      -5.115   0.664   0.285  1.00  0.00    -0.001 C 
HETATM   10  C12 UNL     1      -6.294   1.419   0.795  1.00  0.00     0.037 C 
HETATM   11  C13 UNL     1      -6.339   2.783   0.170  1.00  0.00     0.118 C 
HETATM   12  C14 UNL     1      -5.053   3.524   0.223  1.00  0.00     0.032 C 
HETATM   13  C15 UNL     1      -3.822   2.687  -0.009  1.00  0.00     0.012 C 
HETATM   14  C16 UNL     1      -3.857   1.349   0.713  1.00  0.00    -0.036 C 
HETATM   15  C17 UNL     1      -4.071   1.707   2.195  1.00  0.00     0.016 C 
HETATM   16  C18 UNL     1      -2.617   0.586   0.564  1.00  0.00     0.004 C 
HETATM   17  C19 UNL     1      -1.632   1.134  -0.479  1.00  0.00     0.006 C 
HETATM   18  C20 UNL     1      -0.215   0.736  -0.050  1.00  0.00     0.007 C 
HETATM   19  C21 UNL     1       0.397  -0.268  -0.919  1.00  0.00     0.012 C 
HETATM   20  C22 UNL     1       1.772   0.242  -1.370  1.00  0.00     0.040 C 
HETATM   21  C23 UNL     1       2.765  -0.361  -0.386  1.00  0.00     0.148 C 
HETATM   22  C28 UNL     1       2.050  -1.463   0.357  1.00  0.00     0.110 C 
HETATM   23 BR1  UNL     1       1.882  -0.930   2.175  1.00  0.00    -0.086 Br
ENDROOT
BRANCH  21  24
HETATM   24  O3  UNL     1       3.250   0.627   0.499  1.00  0.00    -0.310 OA
BRANCH  24  25
HETATM   25  C24 UNL     1       4.609   0.997   0.373  1.00  0.00     0.298 C 
HETATM   26  O4  UNL     1       5.296   0.456  -0.505  1.00  0.00    -0.259 OA
BRANCH  25  27
HETATM   27  C25 UNL     1       5.163   2.015   1.279  1.00  0.00     0.166 C 
BRANCH  27  28
HETATM   28  N1  UNL     1       6.317   2.663   0.812  1.00  0.00    -0.392 N 
ATOM     29  H1  UNL     1       6.308   3.638   0.512  1.00  0.00     0.159 HD
BRANCH  28  30
HETATM   30  C26 UNL     1       7.491   1.881   0.784  1.00  0.00     0.145 C 
BRANCH  30  31
HETATM   31  C27 UNL     1       8.626   2.789   0.263  1.00  0.00     0.183 C 
BRANCH  31  32
HETATM   32  O5  UNL     1       8.762   3.872   1.131  1.00  0.00    -0.399 OA
ATOM     33  H5  UNL     1       9.460   4.431   0.810  1.00  0.00     0.209 HD
ENDBRANCH  31  32
ENDBRANCH  30  31
ENDBRANCH  28  30
ENDBRANCH  27  28
ENDBRANCH  25  27
ENDBRANCH  24  25
ENDBRANCH  21  24
BRANCH   1  34
HETATM   34  S1  UNL     1       1.388  -2.417  -1.976  1.00  0.00    -0.153 SA
BRANCH  34  35
HETATM   35  C3  UNL     1       2.241  -3.952  -1.564  1.00  0.00     0.075 C 
BRANCH  35  36
HETATM   36  C2  UNL     1       2.680  -4.583  -2.893  1.00  0.00     0.006 C 
HETATM   37  C1  UNL     1       3.400  -5.863  -2.568  1.00  0.00     0.006 C 
ENDBRANCH  35  36
ENDBRANCH  34  35
ENDBRANCH   1  34
BRANCH   7  38
HETATM   38  O1  UNL     1      -3.975  -2.824   0.276  1.00  0.00    -0.395 OA
ATOM     39  H1  UNL     1      -4.834  -3.178   0.077  1.00  0.00     0.210 HD
ENDBRANCH   7  38
BRANCH  11  40
HETATM   40  O2  UNL     1      -6.850   2.661  -1.131  1.00  0.00    -0.396 OA
ATOM     41  H2  UNL     1      -6.878   3.524  -1.527  1.00  0.00     0.210 HD
ENDBRANCH  11  40
TORSDOF 12
