REMARK  12 active torsions:
REMARK  status: ('A' for Active; 'I' for Inactive)
REMARK    1  A    between atoms: C2_2  and  C3_3 
REMARK    2  A    between atoms: C2_2  and  C9_11 
REMARK    3  A    between atoms: C3_3  and  C4_4 
REMARK    4  A    between atoms: C4_4  and  C5_5 
REMARK    5  A    between atoms: C5_5  and  C6_6 
REMARK    6  A    between atoms: C6_6  and  O1_9 
REMARK    7  A    between atoms: C16_18  and  N1_19 
REMARK    8  A    between atoms: N1_19  and  O2_20 
REMARK    9  A    between atoms: O2_20  and  C17_21 
REMARK   10  A    between atoms: C17_21  and  C18_22 
REMARK   11  A    between atoms: C18_22  and  O3_23 
REMARK   12  A    between atoms: C23_37  and  O5_38 
ROOT
HETATM    1  C9  UNL     1      -3.129  -0.453  -0.546  1.00  0.00    -0.002 C 
HETATM    2  C10 UNL     1      -3.095  -0.036   0.863  1.00  0.00     0.006 C 
HETATM    3  C11 UNL     1      -1.656   0.300   1.140  1.00  0.00     0.006 C 
HETATM    4  C12 UNL     1      -0.880  -0.348  -0.021  1.00  0.00    -0.001 C 
HETATM    5  C13 UNL     1       0.433   0.316  -0.122  1.00  0.00     0.003 C 
HETATM    6  C14 UNL     1       1.649  -0.494   0.123  1.00  0.00     0.018 C 
HETATM    7  C15 UNL     1       2.736   0.239  -0.640  1.00  0.00     0.061 C 
HETATM    8  C16 UNL     1       3.909   0.579   0.214  1.00  0.00     0.136 C 
HETATM    9  C22 UNL     1       3.729   1.786   1.068  1.00  0.00     0.261 C 
HETATM   10  F1  UNL     1       4.787   2.067   1.869  1.00  0.00    -0.239 F 
HETATM   11  C23 UNL     1       3.474   2.934   0.096  1.00  0.00     0.159 C 
HETATM   12  C24 UNL     1       2.197   2.700  -0.670  1.00  0.00     0.045 C 
HETATM   13  C25 UNL     1       2.102   1.391  -1.331  1.00  0.00    -0.021 C 
HETATM   14  C26 UNL     1       2.711   1.522  -2.735  1.00  0.00     0.017 C 
HETATM   15  C27 UNL     1       0.712   0.850  -1.535  1.00  0.00     0.069 C 
HETATM   16  C28 UNL     1      -0.339   1.815  -1.793  1.00  0.00     0.133 C 
HETATM   17  O6  UNL     1      -0.208   2.974  -2.092  1.00  0.00    -0.298 OA
HETATM   18  C29 UNL     1      -1.757   1.320  -1.674  1.00  0.00     0.088 C 
HETATM   19  C30 UNL     1      -1.838  -0.094  -1.161  1.00  0.00    -0.029 C 
HETATM   20  C31 UNL     1      -1.580  -1.098  -2.283  1.00  0.00     0.016 C 
ENDROOT
BRANCH   8  21
HETATM   21  N1  UNL     1       4.926  -0.071   0.211  1.00  0.00    -0.287 NA
BRANCH  21  22
HETATM   22  O2  UNL     1       6.107  -0.458   0.496  1.00  0.00    -0.205 OA
BRANCH  22  23
HETATM   23  C17 UNL     1       6.589  -0.919   1.712  1.00  0.00     0.272 C 
BRANCH  23  24
HETATM   24  C18 UNL     1       8.049  -1.318   1.659  1.00  0.00     0.204 C 
HETATM   25  C19 UNL     1       8.948  -0.245   1.205  1.00  0.00     0.064 C 
HETATM   26  N2  UNL     1       8.748   1.002   1.298  1.00  0.00    -0.400 N 
HETATM   27  C20 UNL     1      10.133  -0.902   0.617  1.00  0.00     0.231 C 
ATOM     28  H22 UNL     1       7.930   1.456   1.704  1.00  0.00     0.155 HD
ATOM     29  H21 UNL     1       9.371   1.746   0.983  1.00  0.00     0.155 HD
HETATM   30 CL1  UNL     1      11.288  -1.292   1.888  1.00  0.00    -0.096 Cl
HETATM   31  N3  UNL     1       9.584  -2.170   0.125  1.00  0.00    -0.335 N 
HETATM   32  C21 UNL     1       8.293  -2.390   0.670  1.00  0.00     0.262 C 
ATOM     33  H3  UNL     1      10.062  -2.803  -0.517  1.00  0.00     0.164 HD
HETATM   34  O4  UNL     1       7.549  -3.347   0.323  1.00  0.00    -0.270 OA
BRANCH  24  35
HETATM   35  O3  UNL     1       8.399  -1.755   2.935  1.00  0.00    -0.372 OA
ATOM     36  H3  UNL     1       9.315  -2.005   2.902  1.00  0.00     0.211 HD
ENDBRANCH  24  35
ENDBRANCH  23  24
ENDBRANCH  22  23
ENDBRANCH  21  22
ENDBRANCH   8  21
BRANCH  11  37
HETATM   37  O5  UNL     1       4.517   3.020  -0.815  1.00  0.00    -0.392 OA
ATOM     38  H5  UNL     1       4.358   3.735  -1.420  1.00  0.00     0.210 HD
ENDBRANCH  11  37
BRANCH   1  39
HETATM   39  C2  UNL     1      -4.349  -0.159  -1.332  1.00  0.00    -0.014 C 
HETATM   40  C1  UNL     1      -4.808   1.221  -1.501  1.00  0.00     0.010 C 
BRANCH  39  41
HETATM   41  C3  UNL     1      -5.453  -1.104  -0.986  1.00  0.00     0.005 C 
BRANCH  41  42
HETATM   42  C4  UNL     1      -6.225  -0.828   0.246  1.00  0.00     0.003 C 
BRANCH  42  43
HETATM   43  C5  UNL     1      -7.322  -1.879   0.453  1.00  0.00     0.037 C 
BRANCH  43  44
HETATM   44  C6  UNL     1      -8.104  -1.589   1.714  1.00  0.00     0.051 C 
HETATM   45  C7  UNL     1      -8.739  -0.226   1.600  1.00  0.00     0.045 C 
HETATM   46  C8  UNL     1      -7.269  -1.667   2.947  1.00  0.00     0.045 C 
BRANCH  44  47
HETATM   47  O1  UNL     1      -9.141  -2.525   1.832  1.00  0.00    -0.391 OA
ATOM     48  H1  UNL     1      -9.632  -2.343   2.624  1.00  0.00     0.210 HD
ENDBRANCH  44  47
ENDBRANCH  43  44
ENDBRANCH  42  43
ENDBRANCH  41  42
ENDBRANCH  39  41
ENDBRANCH   1  39
TORSDOF 12
