REMARK  12 active torsions:
REMARK  status: ('A' for Active; 'I' for Inactive)
REMARK    1  A    between atoms: C2_2  and  C3_3 
REMARK    2  A    between atoms: C3_3  and  C4_4 
REMARK    3  A    between atoms: C4_4  and  N1_5 
REMARK    4  A    between atoms: C9_13  and  C10_14 
REMARK    5  A    between atoms: C16_21  and  O2_22 
REMARK    6  A    between atoms: O2_22  and  C17_23 
REMARK    7  A    between atoms: C19_25  and  O3_26 
REMARK    8  A    between atoms: C21_29  and  O4_30 
REMARK    9  A    between atoms: C22_32  and  O5_33 
REMARK   10  A    between atoms: C23_35  and  O6_36 
REMARK   11  A    between atoms: C24_38  and  C25_39 
REMARK   12  A    between atoms: C25_39  and  C26_40 
ROOT
HETATM    1  N1  UNL     1       1.907   2.252   0.605  1.00  0.00    -0.369 N 
HETATM    2  C5  UNL     1       0.724   1.483   0.569  1.00  0.00     0.170 C 
HETATM    3  C6  UNL     1       0.751   0.509  -0.581  1.00  0.00     0.018 A 
HETATM    4  C7  UNL     1       1.937   0.162  -1.165  1.00  0.00     0.032 A 
HETATM    5  N2  UNL     1       1.969  -0.667  -2.219  1.00  0.00    -0.325 N 
ATOM      6  H2  UNL     1       2.860  -0.918  -2.648  1.00  0.00     0.169 HD
HETATM    7  C8  UNL     1       0.830  -1.160  -2.702  1.00  0.00     0.259 A 
HETATM    8  O1  UNL     1       0.858  -1.948  -3.705  1.00  0.00    -0.267 OA
HETATM    9  C9  UNL     1      -0.409  -0.819  -2.117  1.00  0.00     0.076 A 
HETATM   10  C16 UNL     1      -0.478   0.026  -1.037  1.00  0.00     0.096 A 
HETATM   11  C24 UNL     1       3.232   0.675  -0.678  1.00  0.00     0.075 C 
HETATM   12  C32 UNL     1       3.128   1.583   0.528  1.00  0.00     0.074 C 
ENDROOT
BRANCH  10  13
HETATM   13  O2  UNL     1      -1.645   0.371  -0.463  1.00  0.00    -0.341 OA
BRANCH  13  14
HETATM   14  C17 UNL     1      -2.351  -0.055   0.653  1.00  0.00     0.162 C 
HETATM   15  C18 UNL     1      -3.393  -1.122   0.366  1.00  0.00     0.067 C 
HETATM   16  C19 UNL     1      -4.042  -1.629   1.636  1.00  0.00     0.123 C 
HETATM   17  C20 UNL     1      -5.357  -0.999   1.947  1.00  0.00     0.066 C 
HETATM   18  C21 UNL     1      -5.299   0.514   1.874  1.00  0.00     0.151 C 
HETATM   19  C22 UNL     1      -3.938   0.940   2.376  1.00  0.00     0.178 C 
HETATM   20  C23 UNL     1      -2.923   1.166   1.321  1.00  0.00     0.178 C 
BRANCH  16  21
HETATM   21  O3  UNL     1      -4.311  -3.015   1.471  1.00  0.00    -0.395 OA
ATOM     22  H3  UNL     1      -4.718  -3.333   2.268  1.00  0.00     0.210 HD
ENDBRANCH  16  21
BRANCH  18  23
HETATM   23  O4  UNL     1      -5.585   1.016   0.624  1.00  0.00    -0.393 OA
ATOM     24  H4  UNL     1      -5.549   1.964   0.578  1.00  0.00     0.210 HD
ENDBRANCH  18  23
BRANCH  19  25
HETATM   25  O5  UNL     1      -4.134   2.205   3.005  1.00  0.00    -0.390 OA
ATOM     26  H5  UNL     1      -3.279   2.473   3.320  1.00  0.00     0.210 HD
ENDBRANCH  19  25
BRANCH  20  27
HETATM   27  O6  UNL     1      -3.394   2.093   0.382  1.00  0.00    -0.390 OA
ATOM     28  H6  UNL     1      -3.755   2.864   0.804  1.00  0.00     0.210 HD
ENDBRANCH  20  27
ENDBRANCH  13  14
ENDBRANCH  10  13
BRANCH   9  29
HETATM   29  C10 UNL     1      -1.597  -1.349  -2.766  1.00  0.00    -0.018 A 
HETATM   30  C11 UNL     1      -1.794  -2.712  -2.780  1.00  0.00     0.014 A 
HETATM   31  C12 UNL     1      -2.918  -3.268  -3.394  1.00  0.00     0.024 A 
HETATM   32  C13 UNL     1      -3.826  -2.421  -3.985  1.00  0.00     0.034 A 
HETATM   33 CL1  UNL     1      -5.246  -3.103  -4.760  1.00  0.00    -0.084 Cl
HETATM   34  C14 UNL     1      -3.648  -1.056  -3.983  1.00  0.00     0.024 A 
HETATM   35  C15 UNL     1      -2.526  -0.544  -3.367  1.00  0.00     0.014 A 
ENDBRANCH   9  29
BRANCH   1  36
HETATM   36  C4  UNL     1       1.846   3.635   0.763  1.00  0.00     0.063 C 
BRANCH  36  37
HETATM   37  C3  UNL     1       1.261   4.409  -0.393  1.00  0.00     0.044 C 
BRANCH  37  38
HETATM   38  C2  UNL     1       1.288   5.876  -0.013  1.00  0.00     0.001 C 
HETATM   39  C1  UNL     1       0.446   6.061   1.254  1.00  0.00     0.005 C 
ENDBRANCH  37  38
ENDBRANCH  36  37
ENDBRANCH   1  36
BRANCH  11  40
HETATM   40  C25 UNL     1       4.299  -0.327  -0.550  1.00  0.00     0.021 C 
BRANCH  40  41
HETATM   41  C26 UNL     1       4.217  -1.470   0.353  1.00  0.00    -0.013 C 
HETATM   42  C27 UNL     1       5.547  -2.248   0.162  1.00  0.00     0.007 C 
HETATM   43  C28 UNL     1       5.698  -3.355   1.143  1.00  0.00     0.037 C 
HETATM   44  C29 UNL     1       4.515  -4.323   0.994  1.00  0.00     0.170 C 
HETATM   45  F1  UNL     1       4.509  -4.790  -0.302  1.00  0.00    -0.249 F 
HETATM   46  C30 UNL     1       3.295  -3.521   1.306  1.00  0.00     0.037 C 
HETATM   47  C31 UNL     1       3.131  -2.477   0.172  1.00  0.00     0.007 C 
ENDBRANCH  40  41
ENDBRANCH  11  40
TORSDOF 12
