REMARK  12 active torsions:
REMARK  status: ('A' for Active; 'I' for Inactive)
REMARK    1  A    between atoms: C2_2  and  N1_34 
REMARK    2  A    between atoms: C3_3  and  C4_4 
REMARK    3  A    between atoms: C4_4  and  O2_6 
REMARK    4  A    between atoms: O2_6  and  C5_7 
REMARK    5  A    between atoms: C7_9  and  O3_10 
REMARK    6  A    between atoms: O3_10  and  C8_11 
REMARK    7  A    between atoms: C13_16  and  O4_17 
REMARK    8  A    between atoms: O4_17  and  C14_18 
REMARK    9  A    between atoms: C20_25  and  O5_26 
REMARK   10  A    between atoms: C21_28  and  O6_29 
REMARK   11  A    between atoms: C22_31  and  O7_32 
REMARK       I    between atoms: N1_34  and  C23_36 
REMARK   12  A    between atoms: N3_38  and  C24_40 
ROOT
HETATM    1  C5  UNL     1       0.525   0.379   0.046  1.00  0.00     0.166 C 
HETATM    2  C6  UNL     1      -0.826  -0.221  -0.086  1.00  0.00     0.070 C 
HETATM    3  C7  UNL     1      -1.920   0.790  -0.349  1.00  0.00     0.163 C 
HETATM    4  C20 UNL     1      -1.400   2.022  -1.049  1.00  0.00     0.179 C 
HETATM    5  C21 UNL     1      -0.165   2.624  -0.535  1.00  0.00     0.180 C 
HETATM    6  C22 UNL     1       0.429   1.774   0.561  1.00  0.00     0.179 C 
ENDROOT
BRANCH   1   7
HETATM    7  O2  UNL     1       1.390  -0.439   0.792  1.00  0.00    -0.310 OA
BRANCH   7   8
HETATM    8  C4  UNL     1       2.555  -1.017   0.312  1.00  0.00     0.285 C 
HETATM    9  O1  UNL     1       2.862  -0.801  -0.858  1.00  0.00    -0.260 OA
BRANCH   8  10
HETATM   10  C3  UNL     1       3.347  -1.836   1.190  1.00  0.00     0.106 C 
HETATM   11  C2  UNL     1       4.451  -2.403   0.793  1.00  0.00     0.013 C 
HETATM   12  C1  UNL     1       5.232  -3.250   1.768  1.00  0.00     0.068 C 
BRANCH  11  13
HETATM   13  N1  UNL     1       4.930  -2.242  -0.519  1.00  0.00    -0.335 N 
HETATM   14  C23 UNL     1       6.180  -1.594  -0.748  1.00  0.00     0.190 C 
HETATM   15  N2  UNL     1       7.301  -2.054   0.025  1.00  0.00    -0.063 NA
HETATM   16  N3  UNL     1       6.300  -0.647  -1.605  1.00  0.00    -0.342 N 
ATOM     17  H3  UNL     1       5.481  -0.350  -2.135  1.00  0.00     0.164 HD
ATOM     18  H1  UNL     1       4.383  -2.589  -1.307  1.00  0.00     0.168 HD
BRANCH  16  19
HETATM   19  C24 UNL     1       7.554   0.004  -1.837  1.00  0.00     0.110 A 
HETATM   20 CL1  UNL     1       8.490  -0.667  -3.197  1.00  0.00    -0.096 Cl
HETATM   21  C25 UNL     1       8.294   0.439  -0.619  1.00  0.00     0.051 A 
HETATM   22  C26 UNL     1       7.704   1.440  -1.576  1.00  0.00     0.051 A 
ENDBRANCH  16  19
ENDBRANCH  11  13
ENDBRANCH   8  10
ENDBRANCH   7   8
ENDBRANCH   1   7
BRANCH   6  23
HETATM   23  O7  UNL     1       1.682   2.303   0.907  1.00  0.00    -0.390 OA
ATOM     24  H7  UNL     1       1.621   3.192   1.235  1.00  0.00     0.210 HD
ENDBRANCH   6  23
BRANCH   3  25
HETATM   25  O3  UNL     1      -2.484   1.162   0.823  1.00  0.00    -0.340 OA
BRANCH  25  26
HETATM   26  C8  UNL     1      -3.680   1.117   1.448  1.00  0.00     0.103 A 
HETATM   27  C9  UNL     1      -3.801   1.667   2.745  1.00  0.00     0.040 A 
HETATM   28  C10 UNL     1      -4.944   1.680   3.465  1.00  0.00     0.003 A 
HETATM   29  C11 UNL     1      -6.094   1.116   2.908  1.00  0.00     0.003 A 
HETATM   30  C12 UNL     1      -6.028   0.569   1.652  1.00  0.00     0.040 A 
HETATM   31  C13 UNL     1      -4.847   0.569   0.936  1.00  0.00     0.109 A 
BRANCH  31  32
HETATM   32  O4  UNL     1      -4.821  -0.002  -0.348  1.00  0.00    -0.308 OA
BRANCH  32  33
HETATM   33  C14 UNL     1      -5.942  -0.566  -0.917  1.00  0.00     0.076 A 
HETATM   34  C15 UNL     1      -6.207  -1.913  -0.722  1.00  0.00     0.038 A 
HETATM   35  C16 UNL     1      -7.323  -2.495  -1.282  1.00  0.00     0.022 A 
HETATM   36  C17 UNL     1      -8.219  -1.784  -2.052  1.00  0.00     0.011 A 
HETATM   37 BR1  UNL     1      -9.760  -2.617  -2.818  1.00  0.00    -0.051 Br
HETATM   38  C18 UNL     1      -7.956  -0.441  -2.248  1.00  0.00     0.022 A 
HETATM   39  C19 UNL     1      -6.838   0.144  -1.687  1.00  0.00     0.038 A 
ENDBRANCH  32  33
ENDBRANCH  31  32
ENDBRANCH  25  26
ENDBRANCH   3  25
BRANCH   5  40
HETATM   40  O6  UNL     1      -0.440   3.882   0.005  1.00  0.00    -0.390 OA
ATOM     41  H6  UNL     1       0.360   4.272   0.338  1.00  0.00     0.210 HD
ENDBRANCH   5  40
BRANCH   4  42
HETATM   42  O5  UNL     1      -1.195   1.633  -2.393  1.00  0.00    -0.390 OA
ATOM     43  H5  UNL     1      -0.868   2.408  -2.834  1.00  0.00     0.210 HD
ENDBRANCH   4  42
TORSDOF 12
