REMARK  10 active torsions:
REMARK  status: ('A' for Active; 'I' for Inactive)
REMARK    1  A    between atoms: N1_1  and  N2_4 
REMARK    2  A    between atoms: C1_6  and  C2_7 
REMARK    3  A    between atoms: C3_8  and  O1_9 
REMARK    4  A    between atoms: C4_13  and  N4_14 
REMARK    5  A    between atoms: N4_14  and  N5_16 
REMARK    6  A    between atoms: C5_18  and  C6_19 
REMARK    7  A    between atoms: C7_21  and  N6_22 
REMARK    8  A    between atoms: C9_26  and  O5_27 
REMARK    9  A    between atoms: N7_29  and  N8_30 
REMARK   10  A    between atoms: N9_34  and  N10_36 
ROOT
HETATM    1  C2  UNL     1      -3.094   0.069  -0.150  1.00  0.00     0.080 A 
HETATM    2  C3  UNL     1      -1.946   0.827  -0.138  1.00  0.00     0.171 A 
HETATM    3  N3  UNL     1      -0.724   0.237  -0.221  1.00  0.00    -0.166 N 
ATOM      4  H3  UNL     1       0.113   0.820  -0.209  1.00  0.00     0.186 HD
HETATM    5  C4  UNL     1      -0.594  -1.094  -0.318  1.00  0.00     0.721 A 
HETATM    6  N7  UNL     1      -1.689  -1.852  -0.332  1.00  0.00    -0.072 N 
HETATM    7  C10 UNL     1      -2.966  -1.332  -0.251  1.00  0.00     0.175 A 
HETATM    8  N9  UNL     1      -3.883  -2.153  -0.275  1.00  0.00    -0.289 N 
ATOM      9  H9  UNL     1      -3.419  -3.058  -0.353  1.00  0.00     0.188 HD
ENDROOT
BRANCH   5  10
HETATM   10  N4  UNL     1       0.588  -1.654  -0.398  1.00  0.00    -0.130 N 
ATOM     11  H4  UNL     1       0.691  -2.666  -0.471  1.00  0.00     0.205 HD
BRANCH  10  12
HETATM   12  N5  UNL     1       1.695  -0.814  -0.379  1.00  0.00    -0.295 N 
HETATM   13  C5  UNL     1       2.757  -1.090   0.292  1.00  0.00     0.147 C 
ATOM     14  H5  UNL     1       1.664   0.052  -0.916  1.00  0.00     0.186 HD
BRANCH  13  15
HETATM   15  C6  UNL     1       3.878  -0.154   0.260  1.00  0.00     0.128 A 
HETATM   16  O2  UNL     1       3.944   0.982  -0.393  1.00  0.00    -0.284 OA
HETATM   17  C7  UNL     1       5.073   1.585  -0.220  1.00  0.00     0.218 A 
HETATM   18  C8  UNL     1       5.837   0.789   0.622  1.00  0.00     0.102 A 
HETATM   19  C9  UNL     1       5.089  -0.303   0.925  1.00  0.00     0.105 A 
BRANCH  17  20
HETATM   20  N6  UNL     1       5.495   2.837  -0.775  1.00  0.00    -0.090 N 
HETATM   21  O3  UNL     1       4.711   3.449  -1.516  1.00  0.00    -0.530 OA
HETATM   22  O4  UNL     1       6.730   3.340  -0.492  1.00  0.00    -0.530 OA
ENDBRANCH  17  20
BRANCH  19  23
HETATM   23  O5  UNL     1       5.409  -1.403   1.740  1.00  0.00    -0.358 OA
ATOM     24  H5  UNL     1       6.237  -1.505   2.195  1.00  0.00     0.217 HD
ENDBRANCH  19  23
ENDBRANCH  13  15
ENDBRANCH  10  12
ENDBRANCH   5  10
BRANCH   6  25
HETATM   25  N8  UNL     1      -1.519  -3.233  -0.433  1.00  0.00    -0.322 N 
ATOM     26  H82 UNL     1      -0.576  -3.617  -0.493  1.00  0.00     0.178 HD
ATOM     27  H81 UNL     1      -2.358  -3.814  -0.444  1.00  0.00     0.178 HD
ENDBRANCH   6  25
BRANCH   2  28
HETATM   28  O1  UNL     1      -1.925   2.211  -0.043  1.00  0.00    -0.345 OA
ATOM     29  H1  UNL     1      -1.132   2.734  -0.035  1.00  0.00     0.219 HD
ENDBRANCH   2  28
BRANCH   1  30
HETATM   30  C1  UNL     1      -4.408   0.665  -0.063  1.00  0.00     0.126 C 
HETATM   31  N2  UNL     1      -4.811   1.819   0.031  1.00  0.00    -0.317 N 
ATOM     32  H2  UNL     1      -5.828   1.746   0.061  1.00  0.00     0.185 HD
BRANCH  31  33
HETATM   33  N1  UNL     1      -4.556   3.102   0.111  1.00  0.00    -0.345 N 
ATOM     34  H12 UNL     1      -3.537   3.138   0.078  1.00  0.00     0.176 HD
ATOM     35  H11 UNL     1      -4.891   4.062   0.189  1.00  0.00     0.176 HD
ENDBRANCH  31  33
ENDBRANCH   1  30
BRANCH   8  36
HETATM   36  N10 UNL     1      -5.160  -2.436  -0.250  1.00  0.00    -0.344 N 
ATOM     37 2H10 UNL     1      -5.590  -1.514  -0.173  1.00  0.00     0.176 HD
ATOM     38 1H10 UNL     1      -5.920  -3.116  -0.270  1.00  0.00     0.176 HD
ENDBRANCH   8  36
TORSDOF 10
