REMARK  3 active torsions:
REMARK  status: ('A' for Active; 'I' for Inactive)
REMARK    1  A    between atoms: C2_2  and  C3_3 
REMARK       I    between atoms: C3_3  and  N1_5 
REMARK    2  A    between atoms: N1_5  and  N2_7 
REMARK    3  A    between atoms: C5_16  and  O2_17 
ROOT
HETATM    1  C1  UNL     1      -0.223  -0.566  -1.961  1.00  0.00     0.074 C 
HETATM    2  C2  UNL     1       0.039  -0.239  -0.537  1.00  0.00     0.189 A 
HETATM    3  N3  UNL     1      -0.629   1.063  -0.245  1.00  0.00    -0.330 N 
ATOM      4  H3  UNL     1      -0.239   1.891  -0.696  1.00  0.00     0.165 HD
HETATM    5  C4  UNL     1      -1.628   1.242   0.505  1.00  0.00     0.193 A 
HETATM    6  N4  UNL     1      -2.084   2.589   0.620  1.00  0.00    -0.063 NA
HETATM    7  N5  UNL     1      -2.214   0.203   1.230  1.00  0.00    -0.297 N 
ATOM      8  H5  UNL     1      -3.023   0.361   1.831  1.00  0.00     0.172 HD
HETATM    9  C5  UNL     1      -1.630  -1.086   1.090  1.00  0.00     0.221 A 
HETATM   10  N6  UNL     1      -0.540  -1.312   0.303  1.00  0.00    -0.322 N 
ATOM     11  H6  UNL     1      -0.115  -2.239   0.293  1.00  0.00     0.166 HD
ENDROOT
BRANCH   2  12
HETATM   12  C3  UNL     1       1.443  -0.018  -0.152  1.00  0.00     0.284 C 
HETATM   13  O1  UNL     1       1.642   1.137   0.403  1.00  0.00    -0.267 OA
HETATM   14  N1  UNL     1       2.548  -0.865  -0.289  1.00  0.00    -0.273 N 
ATOM     15  H1  UNL     1       2.450  -1.801  -0.682  1.00  0.00     0.189 HD
BRANCH  14  16
HETATM   16  N2  UNL     1       3.770  -0.393   0.124  1.00  0.00    -0.342 N 
ATOM     17  H22 UNL     1       3.852   0.545   0.515  1.00  0.00     0.176 HD
ATOM     18  H21 UNL     1       4.576  -1.011   0.024  1.00  0.00     0.176 HD
ENDBRANCH  14  16
ENDBRANCH   2  12
BRANCH   9  19
HETATM   19  O2  UNL     1      -2.177  -2.093   1.766  1.00  0.00    -0.332 OA
ATOM     20  H2  UNL     1      -1.787  -2.954   1.672  1.00  0.00     0.220 HD
ENDBRANCH   9  19
TORSDOF 3
