REMARK  6 active torsions:
REMARK  status: ('A' for Active; 'I' for Inactive)
REMARK    1  A    between atoms: N1_1  and  C1_4 
REMARK    2  A    between atoms: N4_10  and  O1_11 
REMARK    3  A    between atoms: C3_13  and  C4_14 
REMARK    4  A    between atoms: C4_14  and  O2_15 
REMARK    5  A    between atoms: C4_14  and  N5_17 
REMARK    6  A    between atoms: N5_17  and  N6_19 
ROOT
HETATM    1  C1  UNL     1      -1.116   0.097  -0.584  1.00  0.00     0.135 A 
HETATM    2  N2  UNL     1      -2.469   0.273  -0.323  1.00  0.00    -0.336 N 
ATOM      3  H2  UNL     1      -3.076   0.701  -1.022  1.00  0.00     0.168 HD
HETATM    4  C2  UNL     1      -2.961  -0.117   0.834  1.00  0.00     0.201 A 
HETATM    5  N3  UNL     1      -2.160  -0.681   1.756  1.00  0.00    -0.270 N 
ATOM      6  H3  UNL     1      -2.554  -0.979   2.648  1.00  0.00     0.190 HD
HETATM    7  N4  UNL     1      -0.876  -0.854   1.525  1.00  0.00    -0.154 N 
HETATM    8  C3  UNL     1      -0.304  -0.466   0.339  1.00  0.00     0.176 A 
ENDROOT
BRANCH   8   9
HETATM    9  C4  UNL     1       1.117  -0.617   0.248  1.00  0.00     0.190 C 
BRANCH   9  10
HETATM   10  O2  UNL     1       1.620  -1.650   0.886  1.00  0.00    -0.343 OA
ATOM     11  H2  UNL     1       2.563  -1.750   0.826  1.00  0.00     0.219 HD
ENDBRANCH   9  10
BRANCH   9  12
HETATM   12  N5  UNL     1       2.067   0.161  -0.406  1.00  0.00    -0.285 N 
ATOM     13  H5  UNL     1       1.779   0.993  -0.920  1.00  0.00     0.188 HD
BRANCH  12  14
HETATM   14  N6  UNL     1       3.437  -0.204  -0.357  1.00  0.00    -0.343 N 
ATOM     15  H62 UNL     1       3.709  -1.039   0.162  1.00  0.00     0.176 HD
ATOM     16  H61 UNL     1       4.134   0.366  -0.836  1.00  0.00     0.176 HD
ENDBRANCH  12  14
ENDBRANCH   9  12
ENDBRANCH   8   9
BRANCH   1  17
HETATM   17  N1  UNL     1      -0.733   0.451  -1.747  1.00  0.00    -0.383 N 
ATOM     18  H12 UNL     1      -1.346   0.876  -2.443  1.00  0.00     0.157 HD
ATOM     19  H11 UNL     1       0.260   0.322  -1.939  1.00  0.00     0.157 HD
ENDBRANCH   1  17
BRANCH   7  20
HETATM   20  O1  UNL     1      -0.126  -1.437   2.516  1.00  0.00    -0.267 OA
ATOM     21  H1  UNL     1       0.801  -1.562   2.349  1.00  0.00     0.247 HD
ENDBRANCH   7  20
TORSDOF 6
