REMARK  2 active torsions:
REMARK  status: ('A' for Active; 'I' for Inactive)
REMARK    1  A    between atoms: N1_2  and  C2_4 
REMARK    2  A    between atoms: N4_12  and  N5_14 
ROOT
HETATM    1  C2  UNL     1       1.298  -0.557   0.294  1.00  0.00     0.684 C 
HETATM    2  N2  UNL     1       0.509  -1.286   1.112  1.00  0.00    -0.141 N 
ATOM      3  H2  UNL     1       0.971  -1.907   1.776  1.00  0.00     0.189 HD
HETATM    4  C3  UNL     1      -0.840  -1.261   1.124  1.00  0.00     0.340 C 
HETATM    5  O1  UNL     1      -1.368  -2.222   1.745  1.00  0.00    -0.246 OA
HETATM    6  N3  UNL     1      -1.674  -0.344   0.558  1.00  0.00    -0.288 N 
ATOM      7  H3  UNL     1      -2.622  -0.337   0.934  1.00  0.00     0.172 HD
HETATM    8  C4  UNL     1      -1.443   0.559  -0.424  1.00  0.00     0.193 C 
HETATM    9  N4  UNL     1      -2.459   1.238  -0.832  1.00  0.00    -0.287 N 
ATOM     10  H4  UNL     1      -2.362   1.936  -1.569  1.00  0.00     0.188 HD
HETATM   11  C5  UNL     1      -0.222   0.806  -1.015  1.00  0.00     0.305 C 
HETATM   12  O2  UNL     1      -0.257   1.649  -1.940  1.00  0.00    -0.263 OA
HETATM   13  N6  UNL     1       0.988   0.261  -0.725  1.00  0.00    -0.153 N 
ATOM     14  H6  UNL     1       1.752   0.502  -1.356  1.00  0.00     0.187 HD
ENDROOT
BRANCH   9  15
HETATM   15  N5  UNL     1      -3.694   0.991  -0.237  1.00  0.00    -0.343 N 
ATOM     16  H52 UNL     1      -3.775   0.290   0.499  1.00  0.00     0.176 HD
ATOM     17  H51 UNL     1      -4.498   1.529  -0.560  1.00  0.00     0.176 HD
ENDBRANCH   9  15
BRANCH   1  18
HETATM   18  N1  UNL     1       2.547  -0.678   0.545  1.00  0.00    -0.230 N 
HETATM   19  C1  UNL     1       3.510   0.035  -0.240  1.00  0.00     0.165 C 
ATOM     20  H1  UNL     1       2.857  -1.283   1.305  1.00  0.00     0.177 HD
ENDBRANCH   1  18
TORSDOF 2
