REMARK  4 active torsions:
REMARK  status: ('A' for Active; 'I' for Inactive)
REMARK    1  A    between atoms: N1_1  and  C1_5 
REMARK    2  A    between atoms: C1_5  and  C2_6 
REMARK    3  A    between atoms: C2_6  and  C3_7 
REMARK    4  A    between atoms: C3_7  and  N2_8 
ROOT
HETATM    1  N2  UNL     1      -1.160  -0.389   0.602  1.00  0.00     0.115 N 
HETATM    2  C4  UNL     1      -1.573   0.982   0.482  1.00  0.00     0.302 C 
HETATM    3  C5  UNL     1      -2.072   1.021  -0.965  1.00  0.00     0.264 C 
HETATM    4  N3  UNL     1      -1.993  -0.341  -1.462  1.00  0.00    -0.047 N 
ATOM      5  H31 UNL     1      -1.168  -0.561  -2.020  1.00  0.00     0.279 HD
ATOM      6  H32 UNL     1      -2.658  -0.583  -2.197  1.00  0.00     0.279 HD
HETATM    7  C6  UNL     1      -2.131  -1.089  -0.208  1.00  0.00     0.502 C 
ENDROOT
BRANCH   1   8
HETATM    8  C3  UNL     1       0.143  -0.595   0.044  1.00  0.00     0.276 C 
BRANCH   8   9
HETATM    9  C2  UNL     1       1.273   0.019   0.868  1.00  0.00     0.057 C 
BRANCH   9  10
HETATM   10  C1  UNL     1       2.586  -0.281   0.174  1.00  0.00     0.231 C 
BRANCH  10  11
HETATM   11  N1  UNL     1       3.730   0.214   0.853  1.00  0.00    -0.079 N 
ATOM     12  H13 UNL     1       3.638   1.215   1.024  1.00  0.00     0.274 HD
ATOM     13  H12 UNL     1       3.749  -0.126   1.815  1.00  0.00     0.274 HD
ATOM     14  H11 UNL     1       4.614   0.012   0.386  1.00  0.00     0.274 HD
ENDBRANCH  10  11
ENDBRANCH   9  10
ENDBRANCH   8   9
ENDBRANCH   1   8
TORSDOF 4
