REMARK  5 active torsions:
REMARK  status: ('A' for Active; 'I' for Inactive)
REMARK    1  A    between atoms: N1_1  and  C1_5 
REMARK    2  A    between atoms: C1_5  and  C2_6 
REMARK    3  A    between atoms: C2_6  and  C3_7 
REMARK    4  A    between atoms: C3_7  and  N2_8 
REMARK    5  A    between atoms: N2_8  and  C4_10 
ROOT
HETATM    1  N2  UNL     1       0.507   0.435   0.598  1.00  0.00    -0.225 N 
ATOM      2  H2  UNL     1       0.169   1.390   0.718  1.00  0.00     0.177 HD
ENDROOT
BRANCH   1   3
HETATM    3  C3  UNL     1      -0.345  -0.611   1.053  1.00  0.00     0.140 C 
BRANCH   3   4
HETATM    4  C2  UNL     1      -1.703  -0.561   0.363  1.00  0.00     0.047 C 
BRANCH   4   5
HETATM    5  C1  UNL     1      -2.355   0.769   0.667  1.00  0.00     0.231 C 
BRANCH   5   6
HETATM    6  N1  UNL     1      -3.651   0.809   0.005  1.00  0.00    -0.079 N 
ATOM      7  H13 UNL     1      -3.585   0.625  -0.996  1.00  0.00     0.274 HD
ATOM      8  H12 UNL     1      -4.243   0.017   0.254  1.00  0.00     0.274 HD
ATOM      9  H11 UNL     1      -4.091   1.706   0.210  1.00  0.00     0.274 HD
ENDBRANCH   5   6
ENDBRANCH   4   5
ENDBRANCH   3   4
ENDBRANCH   1   3
BRANCH   1  10
HETATM   10  C4  UNL     1       1.653   0.294   0.054  1.00  0.00     0.693 A 
HETATM   11  N3  UNL     1       2.398   1.359  -0.350  1.00  0.00    -0.185 N 
HETATM   12  C5  UNL     1       3.535   0.904  -0.876  1.00  0.00     0.215 A 
ATOM     13  H3  UNL     1       2.131   2.340  -0.265  1.00  0.00     0.185 HD
HETATM   14  N4  UNL     1       3.538  -0.422  -0.819  1.00  0.00    -0.281 N 
HETATM   15  N5  UNL     1       2.382  -0.775  -0.249  1.00  0.00    -0.131 N 
ATOM     16  H4  UNL     1       4.275  -1.047  -1.145  1.00  0.00     0.188 HD
ATOM     17  H5  UNL     1       2.097  -1.738  -0.070  1.00  0.00     0.205 HD
ENDBRANCH   1  10
TORSDOF 5
