REMARK  5 active torsions:
REMARK  status: ('A' for Active; 'I' for Inactive)
REMARK    1  A    between atoms: C2_2  and  N1_3 
REMARK    2  A    between atoms: C2_2  and  C3_7 
REMARK    3  A    between atoms: C2_2  and  N3_11 
REMARK    4  A    between atoms: C3_7  and  N2_8 
REMARK    5  A    between atoms: N3_11  and  C4_13 
ROOT
HETATM    1  C1  UNL     1      -1.673  -1.451   0.712  1.00  0.00     0.076 C 
HETATM    2  C2  UNL     1      -0.885  -0.463  -0.202  1.00  0.00     0.220 C 
ENDROOT
BRANCH   2   3
HETATM    3  N1  UNL     1      -1.524  -0.672  -1.539  1.00  0.00    -0.048 N 
ATOM      4  H13 UNL     1      -1.533  -1.639  -1.862  1.00  0.00     0.277 HD
ATOM      5  H12 UNL     1      -2.537  -0.552  -1.552  1.00  0.00     0.277 HD
ATOM      6  H11 UNL     1      -1.009  -0.026  -2.137  1.00  0.00     0.277 HD
ENDBRANCH   2   3
BRANCH   2   7
HETATM    7  C3  UNL     1      -1.151   0.904   0.257  1.00  0.00     0.113 C 
BRANCH   7   8
HETATM    8  N2  UNL     1      -0.623   2.007  -0.371  1.00  0.00    -0.408 N 
ATOM      9  H22 UNL     1      -0.027   1.851  -1.184  1.00  0.00     0.155 HD
ATOM     10  H21 UNL     1      -0.808   2.958  -0.052  1.00  0.00     0.155 HD
ENDBRANCH   7   8
ENDBRANCH   2   7
BRANCH   2  11
HETATM   11  N3  UNL     1       0.425  -0.903  -0.285  1.00  0.00    -0.383 N 
ATOM     12  H3  UNL     1       0.587  -1.908  -0.227  1.00  0.00     0.156 HD
BRANCH  11  13
HETATM   13  C4  UNL     1       1.525  -0.091  -0.439  1.00  0.00     0.079 A 
HETATM   14  C5  UNL     1       2.009   0.805   0.649  1.00  0.00     0.027 A 
HETATM   15  C6  UNL     1       2.882  -0.300   0.133  1.00  0.00     0.027 A 
ENDBRANCH  11  13
ENDBRANCH   2  11
TORSDOF 5
