REMARK  5 active torsions:
REMARK  status: ('A' for Active; 'I' for Inactive)
REMARK    1  A    between atoms: C2_2  and  C3_3 
REMARK    2  A    between atoms: C3_3  and  N1_4 
REMARK    3  A    between atoms: N1_4  and  C4_7 
REMARK    4  A    between atoms: C5_8  and  N2_9 
REMARK    5  A    between atoms: C6_13  and  N3_14 
ROOT
HETATM    1  C4  UNL     1       1.065  -0.539   0.545  1.00  0.00     0.250 A 
HETATM    2  C5  UNL     1       2.010   0.588   0.812  1.00  0.00     0.248 A 
HETATM    3  C6  UNL     1       2.478  -0.700   0.185  1.00  0.00     0.248 A 
ENDROOT
BRANCH   1   4
HETATM    4  N1  UNL     1       0.010  -0.194  -0.407  1.00  0.00    -0.067 N 
ATOM      5  H12 UNL     1       0.146  -0.637  -1.316  1.00  0.00     0.277 HD
ATOM      6  H11 UNL     1       0.065   0.777  -0.713  1.00  0.00     0.277 HD
BRANCH   4   7
HETATM    7  C3  UNL     1      -1.297  -0.523   0.189  1.00  0.00     0.232 C 
BRANCH   7   8
HETATM    8  C2  UNL     1      -2.430   0.162  -0.503  1.00  0.00     0.023 C 
HETATM    9  C1  UNL     1      -3.756  -0.132   0.146  1.00  0.00     0.007 C 
ENDBRANCH   7   8
ENDBRANCH   4   7
ENDBRANCH   1   4
BRANCH   2  10
HETATM   10  N2  UNL     1       2.062   1.726  -0.034  1.00  0.00    -0.071 N 
ATOM     11  H23 UNL     1       2.221   1.402  -0.988  1.00  0.00     0.274 HD
ATOM     12  H22 UNL     1       1.121   2.114  -0.098  1.00  0.00     0.274 HD
ATOM     13  H21 UNL     1       2.707   2.495   0.148  1.00  0.00     0.274 HD
ENDBRANCH   2  10
BRANCH   3  14
HETATM   14  N3  UNL     1       2.906  -0.674  -1.196  1.00  0.00    -0.071 N 
ATOM     15  H33 UNL     1       2.368  -1.374  -1.706  1.00  0.00     0.274 HD
ATOM     16  H32 UNL     1       2.570   0.194  -1.614  1.00  0.00     0.274 HD
ATOM     17  H31 UNL     1       3.888  -0.786  -1.446  1.00  0.00     0.274 HD
ENDBRANCH   3  14
TORSDOF 5
