REMARK  6 active torsions:
REMARK  status: ('A' for Active; 'I' for Inactive)
REMARK    1  A    between atoms: C3_4  and  S1_5 
REMARK    2  A    between atoms: S1_5  and  C4_6 
REMARK    3  A    between atoms: C4_6  and  C5_8 
REMARK    4  A    between atoms: C5_8  and  O4_10 
REMARK    5  A    between atoms: O4_10  and  N1_11 
REMARK    6  A    between atoms: N1_11  and  C6_13 
ROOT
HETATM    1  C5  UNL     1       1.343   1.390  -0.585  1.00  0.00     0.363 C 
HETATM    2  O3  UNL     1       0.700   0.461  -0.057  1.00  0.00    -0.253 OA
ENDROOT
BRANCH   1   3
HETATM    3  C4  UNL     1       0.768   2.273  -1.575  1.00  0.00     0.292 C 
HETATM    4  O2  UNL     1       1.471   3.207  -2.080  1.00  0.00    -0.273 OA
BRANCH   3   5
HETATM    5  S1  UNL     1      -0.902   2.113  -2.130  1.00  0.00    -0.016 SA
BRANCH   5   6
HETATM    6  C3  UNL     1      -1.681   0.747  -1.306  1.00  0.00     0.126 A 
HETATM    7  O1  UNL     1      -1.729  -0.518  -1.673  1.00  0.00    -0.307 OA
HETATM    8  C2  UNL     1      -2.398  -1.245  -0.810  1.00  0.00     0.057 A 
HETATM    9  C1  UNL     1      -2.649  -2.708  -0.907  1.00  0.00     0.077 C 
HETATM   10  C9  UNL     1      -2.831  -0.422   0.208  1.00  0.00    -0.023 A 
HETATM   11  C7  UNL     1      -2.371   0.835  -0.117  1.00  0.00    -0.013 A 
HETATM   12  C10 UNL     1      -3.628  -0.780   1.417  1.00  0.00     0.051 C 
HETATM   13  C8  UNL     1      -2.605   2.068   0.711  1.00  0.00     0.052 C 
ENDBRANCH   5   6
ENDBRANCH   3   5
ENDBRANCH   1   3
BRANCH   1  14
HETATM   14  O4  UNL     1       2.647   1.564  -0.197  1.00  0.00    -0.177 OA
BRANCH  14  15
HETATM   15  N1  UNL     1       3.286   0.786   0.730  1.00  0.00    -0.085 N 
ATOM     16  H1  UNL     1       2.896   0.715   1.670  1.00  0.00     0.214 HD
BRANCH  15  17
HETATM   17  C6  UNL     1       4.376   0.134   0.448  1.00  0.00     0.734 A 
HETATM   18  N2  UNL     1       5.063   0.073  -0.690  1.00  0.00    -0.113 N 
HETATM   19  N3  UNL     1       6.109  -0.716  -0.509  1.00  0.00    -0.213 N 
ATOM     20  H2  UNL     1       4.823   0.554  -1.557  1.00  0.00     0.207 HD
HETATM   21  N4  UNL     1       6.104  -1.164   0.732  1.00  0.00    -0.213 N 
ATOM     22  H3  UNL     1       6.808  -0.942  -1.216  1.00  0.00     0.210 HD
HETATM   23  N5  UNL     1       5.029  -0.638   1.331  1.00  0.00    -0.113 N 
ATOM     24  H4  UNL     1       6.789  -1.791   1.154  1.00  0.00     0.210 HD
ATOM     25  H5  UNL     1       4.751  -0.798   2.299  1.00  0.00     0.207 HD
ENDBRANCH  15  17
ENDBRANCH  14  15
ENDBRANCH   1  14
TORSDOF 6
