REMARK  4 active torsions:
REMARK  status: ('A' for Active; 'I' for Inactive)
REMARK    1  A    between atoms: C3_4  and  C4_5 
REMARK       I    between atoms: C4_5  and  N2_7 
REMARK    2  A    between atoms: N2_7  and  N3_9 
REMARK    3  A    between atoms: N6_19  and  C10_20 
REMARK    4  A    between atoms: C11_26  and  N9_27 
ROOT
HETATM    1  N1  UNL     1      -2.080  -1.219  -2.596  1.00  0.00    -0.190 NA
HETATM    2  C1  UNL     1      -2.117  -1.014  -1.475  1.00  0.00     0.122 C 
HETATM    3  C2  UNL     1      -2.162  -0.769  -0.054  1.00  0.00     0.170 A 
HETATM    4  C3  UNL     1      -1.105  -0.784   0.831  1.00  0.00     0.155 A 
HETATM    5  N4  UNL     1      -1.650  -0.499   2.028  1.00  0.00    -0.276 N 
ATOM      6  H4  UNL     1      -1.141  -0.430   2.909  1.00  0.00     0.184 HD
HETATM    7  N5  UNL     1      -2.954  -0.322   1.876  1.00  0.00    -0.012 NA
HETATM    8  N6  UNL     1      -3.309  -0.479   0.611  1.00  0.00    -0.206 N 
ENDROOT
BRANCH   4   9
HETATM    9  C4  UNL     1       0.292  -1.056   0.508  1.00  0.00     0.290 C 
HETATM   10  O1  UNL     1       0.615  -1.305  -0.678  1.00  0.00    -0.264 OA
HETATM   11  N2  UNL     1       1.294  -1.045   1.498  1.00  0.00    -0.265 N 
ATOM     12  H2  UNL     1       1.048  -0.844   2.467  1.00  0.00     0.190 HD
BRANCH  11  13
HETATM   13  N3  UNL     1       2.615  -1.307   1.161  1.00  0.00    -0.306 N 
HETATM   14  C5  UNL     1       3.373  -0.426   0.629  1.00  0.00     0.004 C 
HETATM   15  C6  UNL     1       4.785  -0.578   0.227  1.00  0.00     0.054 C 
HETATM   16  C9  UNL     1       2.979   0.958   0.302  1.00  0.00     0.054 C 
HETATM   17  C7  UNL     1       5.053   0.571  -0.741  1.00  0.00     0.006 C 
HETATM   18  C8  UNL     1       3.669   1.161  -1.044  1.00  0.00     0.006 C 
ATOM     19  H3  UNL     1       2.994  -2.236   1.345  1.00  0.00     0.186 HD
ENDBRANCH  11  13
ENDBRANCH   4   9
BRANCH   8  20
HETATM   20  C10 UNL     1      -4.614  -0.373   0.032  1.00  0.00     0.194 A 
HETATM   21  N7  UNL     1      -5.399  -1.360  -0.437  1.00  0.00    -0.221 N 
HETATM   22  O2  UNL     1      -6.498  -0.811  -0.871  1.00  0.00    -0.153 OA
ATOM     23  H7  UNL     1      -5.175  -2.355  -0.450  1.00  0.00     0.198 HD
HETATM   24  N8  UNL     1      -6.464   0.471  -0.708  1.00  0.00    -0.222 N 
HETATM   25  C11 UNL     1      -5.296   0.820  -0.139  1.00  0.00     0.169 A 
ATOM     26  H8  UNL     1      -7.208   1.118  -0.970  1.00  0.00     0.198 HD
BRANCH  25  27
HETATM   27  N9  UNL     1      -4.873   1.991   0.188  1.00  0.00    -0.381 N 
ATOM     28  H92 UNL     1      -3.987   2.256   0.619  1.00  0.00     0.157 HD
ATOM     29  H91 UNL     1      -5.375   2.870   0.062  1.00  0.00     0.157 HD
ENDBRANCH  25  27
ENDBRANCH   8  20
TORSDOF 4
