REMARK  4 active torsions:
REMARK  status: ('A' for Active; 'I' for Inactive)
REMARK    1  A    between atoms: N3_6  and  O1_7 
REMARK    2  A    between atoms: O1_7  and  C4_8 
REMARK    3  A    between atoms: C7_13  and  N5_14 
REMARK    4  A    between atoms: C10_19  and  N6_20 
ROOT
HETATM    1  N1  UNL     1      -1.820  -4.085  -0.269  1.00  0.00    -0.191 NA
HETATM    2  C1  UNL     1      -1.267  -3.043  -0.242  1.00  0.00     0.104 C 
HETATM    3  C2  UNL     1      -0.557  -1.804  -0.253  1.00  0.00     0.103 A 
HETATM    4  C3  UNL     1       0.762  -1.665  -0.739  1.00  0.00     0.167 A 
HETATM    5  N2  UNL     1       1.523  -2.778  -1.223  1.00  0.00    -0.079 NA
HETATM    6  N3  UNL     1       1.115  -0.390  -0.658  1.00  0.00    -0.196 N 
HETATM    7  C5  UNL     1       0.086   0.310  -0.141  1.00  0.00     0.081 A 
HETATM    8  C6  UNL     1      -0.071   1.650   0.123  1.00  0.00     0.062 A 
HETATM    9  C7  UNL     1      -1.237   2.157   0.637  1.00  0.00     0.038 A 
HETATM   10  C9  UNL     1      -2.248   1.292   0.885  1.00  0.00     0.066 A 
HETATM   11  C10 UNL     1      -2.170  -0.107   0.644  1.00  0.00     0.119 A 
HETATM   12  C11 UNL     1      -0.981  -0.563   0.125  1.00  0.00     0.051 A 
ENDROOT
BRANCH   6  13
HETATM   13  O1  UNL     1       2.302   0.179  -1.022  1.00  0.00    -0.174 OA
BRANCH  13  14
HETATM   14  C4  UNL     1       3.412   0.013  -0.204  1.00  0.00     0.395 C 
HETATM   15  N4  UNL     1       4.684   0.600  -0.554  1.00  0.00    -0.031 NA
HETATM   16  O2  UNL     1       3.265  -0.663   0.846  1.00  0.00    -0.240 OA
ENDBRANCH  13  14
ENDBRANCH   6  13
BRANCH  11  17
HETATM   17  N6  UNL     1      -3.303  -0.868   0.958  1.00  0.00    -0.115 N 
HETATM   18  O4  UNL     1      -3.412  -1.951   1.485  1.00  0.00    -0.532 OA
HETATM   19  O5  UNL     1      -4.540  -0.229   0.707  1.00  0.00    -0.532 OA
ENDBRANCH  11  17
BRANCH   9  20
HETATM   20  N5  UNL     1      -1.370   3.549   0.896  1.00  0.00    -0.334 N 
HETATM   21  C8  UNL     1      -2.320   4.258   0.506  1.00  0.00     0.353 C 
HETATM   22  O3  UNL     1      -3.306   4.958   0.271  1.00  0.00    -0.283 OA
ATOM     23  H5  UNL     1      -0.635   4.001   1.440  1.00  0.00     0.168 HD
ENDBRANCH   9  20
TORSDOF 4
