REMARK  13 active torsions:
REMARK  status: ('A' for Active; 'I' for Inactive)
REMARK    1  A    between atoms: C2_2  and  C3_3 
REMARK    2  A    between atoms: C4_5  and  C5_6 
REMARK    3  A    between atoms: C5_6  and  O2_7 
REMARK    4  A    between atoms: O2_7  and  C6_8 
REMARK    5  A    between atoms: C9_11  and  O3_12 
REMARK    6  A    between atoms: C10_14  and  O4_15 
REMARK    7  A    between atoms: C11_17  and  O5_18 
REMARK    8  A    between atoms: C12_20  and  C13_21 
REMARK    9  A    between atoms: C13_21  and  O6_22 
REMARK   10  A    between atoms: C17_27  and  O7_28 
REMARK   11  A    between atoms: O7_28  and  C18_29 
REMARK   12  A    between atoms: C21_35  and  C22_36 
REMARK   13  A    between atoms: C22_36  and  O8_37 
ROOT
HETATM    1  C3  UNL     1      -0.726   0.916  -2.547  1.00  0.00     0.150 C 
HETATM    2  O1  UNL     1       0.530   0.585  -2.042  1.00  0.00    -0.373 OA
HETATM    3  C4  UNL     1       0.394  -0.497  -1.195  1.00  0.00     0.159 C 
HETATM    4  C12 UNL     1      -0.439  -0.066  -0.012  1.00  0.00     0.036 C 
HETATM    5  C14 UNL     1      -0.112   1.373   0.352  1.00  0.00     0.017 C 
HETATM    6  C15 UNL     1      -1.050   2.239  -0.460  1.00  0.00     0.011 C 
HETATM    7  C16 UNL     1      -1.667   1.268  -1.444  1.00  0.00     0.048 C 
HETATM    8  C17 UNL     1      -1.852   0.047  -0.495  1.00  0.00     0.144 C 
ENDROOT
BRANCH   3   9
HETATM    9  C5  UNL     1       1.741  -1.053  -0.828  1.00  0.00     0.201 C 
BRANCH   9  10
HETATM   10  O2  UNL     1       2.549  -0.140  -0.189  1.00  0.00    -0.381 OA
BRANCH  10  11
HETATM   11  C6  UNL     1       3.783  -0.590   0.170  1.00  0.00     0.153 C 
HETATM   12  C7  UNL     1       4.022  -0.569   1.639  1.00  0.00     0.037 C 
HETATM   13  C8  UNL     1       5.430  -0.466   2.076  1.00  0.00     0.037 C 
HETATM   14  C9  UNL     1       6.496  -0.792   1.108  1.00  0.00     0.149 C 
HETATM   15  C10 UNL     1       6.121  -0.839  -0.333  1.00  0.00     0.178 C 
HETATM   16  C11 UNL     1       4.933   0.090  -0.523  1.00  0.00     0.178 C 
BRANCH  14  17
HETATM   17  O3  UNL     1       7.013  -2.069   1.434  1.00  0.00    -0.393 OA
ATOM     18  H3  UNL     1       7.699  -2.279   0.811  1.00  0.00     0.210 HD
ENDBRANCH  14  17
BRANCH  15  19
HETATM   19  O4  UNL     1       7.186  -0.407  -1.115  1.00  0.00    -0.390 OA
ATOM     20  H4  UNL     1       6.947  -0.437  -2.034  1.00  0.00     0.210 HD
ENDBRANCH  15  19
BRANCH  16  21
HETATM   21  O5  UNL     1       5.312   1.291   0.073  1.00  0.00    -0.390 OA
ATOM     22  H5  UNL     1       6.038   1.720  -0.364  1.00  0.00     0.210 HD
ENDBRANCH  16  21
ENDBRANCH  10  11
ENDBRANCH   9  10
ENDBRANCH   3   9
BRANCH   4  23
HETATM   23  C13 UNL     1      -0.261  -0.948   1.174  1.00  0.00     0.178 C 
BRANCH  23  24
HETATM   24  O6  UNL     1      -0.624  -2.246   0.889  1.00  0.00    -0.400 OA
ATOM     25  H6  UNL     1      -0.510  -2.809   1.646  1.00  0.00     0.209 HD
ENDBRANCH  23  24
ENDBRANCH   4  23
BRANCH   1  26
HETATM   26  C2  UNL     1      -0.575   2.052  -3.463  1.00  0.00    -0.005 C 
HETATM   27  C1  UNL     1       0.616   2.570  -3.776  1.00  0.00     0.009 C 
ENDBRANCH   1  26
BRANCH   8  28
HETATM   28  O7  UNL     1      -2.679   0.436   0.526  1.00  0.00    -0.354 OA
BRANCH  28  29
HETATM   29  C18 UNL     1      -3.884  -0.269   0.599  1.00  0.00     0.264 C 
HETATM   30  C19 UNL     1      -3.988  -0.895   1.958  1.00  0.00     0.088 C 
HETATM   31  C20 UNL     1      -5.321  -1.625   2.134  1.00  0.00     0.240 C 
HETATM   32  N1  UNL     1      -6.224  -1.207   1.070  1.00  0.00    -0.046 N 
HETATM   33  C21 UNL     1      -6.151   0.210   0.840  1.00  0.00     0.346 C 
ATOM     34  H12 UNL     1      -6.057  -1.733   0.212  1.00  0.00     0.280 HD
ATOM     35  H11 UNL     1      -7.182  -1.505   1.255  1.00  0.00     0.280 HD
HETATM   36  O9  UNL     1      -4.935   0.627   0.356  1.00  0.00    -0.327 OA
BRANCH  33  37
HETATM   37  C22 UNL     1      -7.204   0.536  -0.221  1.00  0.00     0.225 C 
BRANCH  37  38
HETATM   38  O8  UNL     1      -7.185   1.914  -0.493  1.00  0.00    -0.397 OA
ATOM     39  H8  UNL     1      -7.839   2.116  -1.152  1.00  0.00     0.209 HD
ENDBRANCH  37  38
ENDBRANCH  33  37
ENDBRANCH  28  29
ENDBRANCH   8  28
TORSDOF 13
