REMARK  12 active torsions:
REMARK  status: ('A' for Active; 'I' for Inactive)
REMARK       I    between atoms: C2_2  and  N1_4 
REMARK    1  A    between atoms: N1_4  and  C3_6 
REMARK    2  A    between atoms: C4_7  and  N2_8 
REMARK    3  A    between atoms: C6_13  and  N3_14 
REMARK    4  A    between atoms: C7_18  and  O2_19 
REMARK    5  A    between atoms: O2_19  and  C8_20 
REMARK    6  A    between atoms: C11_24  and  O4_25 
REMARK    7  A    between atoms: O4_25  and  C12_26 
REMARK    8  A    between atoms: C12_26  and  C13_27 
REMARK    9  A    between atoms: C13_27  and  C14_28 
REMARK   10  A    between atoms: C20_34  and  O5_35 
REMARK   11  A    between atoms: C21_37  and  N4_38 
REMARK   12  A    between atoms: C22_42  and  O6_43 
ROOT
HETATM    1  C8  UNL     1      -1.041   0.445   0.053  1.00  0.00     0.293 C 
HETATM    2  O3  UNL     1      -0.210   1.194   0.937  1.00  0.00    -0.351 OA
HETATM    3  C9  UNL     1       1.060   0.654   1.027  1.00  0.00     0.152 C 
HETATM    4  C10 UNL     1       1.114  -0.721   1.604  1.00  0.00     0.042 C 
HETATM    5  C11 UNL     1       1.844   0.745  -0.277  1.00  0.00     0.180 C 
HETATM    6  C20 UNL     1       0.809   1.068  -1.352  1.00  0.00     0.184 C 
HETATM    7  C21 UNL     1      -0.276  -0.000  -1.142  1.00  0.00     0.269 C 
ENDROOT
BRANCH   1   8
HETATM    8  O2  UNL     1      -2.170   1.179  -0.175  1.00  0.00    -0.349 OA
BRANCH   8   9
HETATM    9  C7  UNL     1      -3.328   0.705   0.443  1.00  0.00     0.185 C 
HETATM   10  C6  UNL     1      -3.679   1.742   1.527  1.00  0.00     0.217 C 
HETATM   11  C5  UNL     1      -4.894   1.278   2.284  1.00  0.00     0.070 C 
HETATM   12  C4  UNL     1      -6.050   1.260   1.336  1.00  0.00     0.210 C 
HETATM   13  C3  UNL     1      -5.828   0.457   0.102  1.00  0.00     0.146 C 
HETATM   14  C22 UNL     1      -4.467   0.473  -0.482  1.00  0.00     0.174 C 
BRANCH  10  15
HETATM   15  N3  UNL     1      -3.879   3.026   0.932  1.00  0.00    -0.072 N 
ATOM     16  H33 UNL     1      -4.710   3.035   0.340  1.00  0.00     0.274 HD
ATOM     17  H32 UNL     1      -4.169   3.715   1.626  1.00  0.00     0.274 HD
ATOM     18  H31 UNL     1      -3.055   3.341   0.419  1.00  0.00     0.274 HD
ENDBRANCH  10  15
BRANCH  12  19
HETATM   19  N2  UNL     1      -6.439   2.628   1.054  1.00  0.00    -0.073 N 
ATOM     20  H23 UNL     1      -5.762   3.081   0.440  1.00  0.00     0.274 HD
ATOM     21  H22 UNL     1      -7.258   2.657   0.447  1.00  0.00     0.274 HD
ATOM     22  H21 UNL     1      -6.591   3.178   1.899  1.00  0.00     0.274 HD
ENDBRANCH  12  19
BRANCH  13  23
HETATM   23  N1  UNL     1      -6.147  -0.946   0.397  1.00  0.00    -0.352 N 
HETATM   24  C2  UNL     1      -7.171  -1.655  -0.277  1.00  0.00     0.214 C 
HETATM   25  C1  UNL     1      -7.503  -3.066   0.010  1.00  0.00     0.117 C 
HETATM   26  O1  UNL     1      -7.848  -1.076  -1.171  1.00  0.00    -0.274 OA
ATOM     27  H1  UNL     1      -5.609  -1.429   1.116  1.00  0.00     0.163 HD
ENDBRANCH  13  23
BRANCH  14  28
HETATM   28  O6  UNL     1      -4.315  -0.699  -1.233  1.00  0.00    -0.391 OA
ATOM     29  H6  UNL     1      -3.442  -0.689  -1.608  1.00  0.00     0.210 HD
ENDBRANCH  14  28
ENDBRANCH   8   9
ENDBRANCH   1   8
BRANCH   7  30
HETATM   30  N4  UNL     1      -1.034  -0.210  -2.338  1.00  0.00    -0.068 N 
ATOM     31  H43 UNL     1      -1.795  -0.864  -2.153  1.00  0.00     0.275 HD
ATOM     32  H42 UNL     1      -1.564   0.632  -2.562  1.00  0.00     0.275 HD
ATOM     33  H41 UNL     1      -0.509  -0.515  -3.158  1.00  0.00     0.275 HD
ENDBRANCH   7  30
BRANCH   6  34
HETATM   34  O5  UNL     1       1.324   1.052  -2.614  1.00  0.00    -0.391 OA
ATOM     35  H5  UNL     1       0.680   1.253  -3.283  1.00  0.00     0.210 HD
ENDBRANCH   6  34
BRANCH   5  36
HETATM   36  O4  UNL     1       2.854   1.653  -0.232  1.00  0.00    -0.381 OA
BRANCH  36  37
HETATM   37  C12 UNL     1       4.110   1.157  -0.516  1.00  0.00     0.168 C 
BRANCH  37  38
HETATM   38  C13 UNL     1       4.608   0.089   0.405  1.00  0.00     0.031 C 
BRANCH  38  39
HETATM   39  C14 UNL     1       6.009  -0.291  -0.085  1.00  0.00    -0.013 C 
HETATM   40  C15 UNL     1       6.529  -1.361   0.818  1.00  0.00     0.005 C 
HETATM   41  C16 UNL     1       7.882  -1.881   0.400  1.00  0.00     0.000 C 
HETATM   42  C17 UNL     1       8.351  -1.260  -0.899  1.00  0.00     0.000 C 
HETATM   43  C18 UNL     1       7.256  -1.405  -1.933  1.00  0.00     0.000 C 
HETATM   44  C19 UNL     1       6.010  -0.662  -1.536  1.00  0.00     0.005 C 
ENDBRANCH  38  39
ENDBRANCH  37  38
ENDBRANCH  36  37
ENDBRANCH   5  36
TORSDOF 12
