REMARK  10 active torsions:
REMARK  status: ('A' for Active; 'I' for Inactive)
REMARK    1  A    between atoms: C2_2  and  N1_3 
REMARK       I    between atoms: N1_3  and  C3_5 
REMARK       I    between atoms: C3_5  and  N2_7 
REMARK    2  A    between atoms: N2_7  and  S1_9 
REMARK    3  A    between atoms: S1_9  and  O4_12 
REMARK    4  A    between atoms: O4_12  and  C4_13 
REMARK    5  A    between atoms: C4_13  and  C5_14 
REMARK    6  A    between atoms: C6_16  and  N3_17 
REMARK    7  A    between atoms: C13_24  and  N4_25 
REMARK    8  A    between atoms: C14_29  and  C15_30 
REMARK    9  A    between atoms: C14_29  and  O6_32 
REMARK   10  A    between atoms: O6_32  and  C17_33 
ROOT
HETATM    1  C5  UNL     1       0.102  -0.807  -0.741  1.00  0.00     0.186 C 
HETATM    2  O5  UNL     1      -1.057  -1.140  -0.094  1.00  0.00    -0.345 OA
HETATM    3  C6  UNL     1      -2.152  -0.721  -0.805  1.00  0.00     0.393 C 
HETATM    4  C13 UNL     1      -1.622  -0.079  -2.086  1.00  0.00     0.280 C 
HETATM    5  C14 UNL     1      -0.304   0.434  -1.570  1.00  0.00     0.130 C 
ENDROOT
BRANCH   1   6
HETATM    6  C4  UNL     1       1.114  -0.281   0.289  1.00  0.00     0.227 C 
BRANCH   6   7
HETATM    7  O4  UNL     1       1.373  -1.272   1.246  1.00  0.00    -0.257 OA
BRANCH   7   8
HETATM    8  S1  UNL     1       2.439  -0.768   2.407  1.00  0.00     0.365 S 
HETATM    9  O2  UNL     1       2.332   0.715   2.678  1.00  0.00    -0.175 OA
HETATM   10  O3  UNL     1       2.037  -1.457   3.705  1.00  0.00    -0.175 OA
BRANCH   8  11
HETATM   11  N2  UNL     1       4.074  -1.148   2.106  1.00  0.00    -0.213 N 
HETATM   12  C3  UNL     1       5.155  -0.311   2.474  1.00  0.00     0.331 C 
HETATM   13  N1  UNL     1       6.514  -0.621   2.231  1.00  0.00    -0.343 N 
HETATM   14  O1  UNL     1       4.850   0.785   3.060  1.00  0.00    -0.246 OA
ATOM     15  H1  UNL     1       6.747  -1.497   1.764  1.00  0.00     0.164 HD
ATOM     16  H2  UNL     1       4.285  -2.028   1.634  1.00  0.00     0.185 HD
BRANCH  13  17
HETATM   17  C2  UNL     1       7.586   0.273   2.628  1.00  0.00     0.120 C 
HETATM   18  C1  UNL     1       8.919  -0.323   2.240  1.00  0.00     0.026 C 
ENDBRANCH  13  17
ENDBRANCH   8  11
ENDBRANCH   7   8
ENDBRANCH   6   7
ENDBRANCH   1   6
BRANCH   5  19
HETATM   19  C15 UNL     1       0.713   0.789  -2.572  1.00  0.00     0.039 C 
HETATM   20  C16 UNL     1       1.059  -0.220  -3.607  1.00  0.00     0.008 C 
ENDBRANCH   5  19
BRANCH   5  21
HETATM   21  O6  UNL     1      -0.513   1.424  -0.589  1.00  0.00    -0.308 OA
BRANCH  21  22
HETATM   22  C17 UNL     1      -0.877   2.720  -0.848  1.00  0.00     0.226 C 
HETATM   23  N5  UNL     1      -1.434   2.998  -1.969  1.00  0.00    -0.368 N 
ATOM     24  H52 UNL     1      -1.615   2.284  -2.675  1.00  0.00     0.159 HD
ATOM     25  H51 UNL     1      -1.705   3.962  -2.162  1.00  0.00     0.159 HD
HETATM   26  N6  UNL     1      -0.627   3.706   0.127  1.00  0.00    -0.057 NA
ENDBRANCH  21  22
ENDBRANCH   5  21
BRANCH   3  27
HETATM   27  N3  UNL     1      -2.899   0.211  -0.046  1.00  0.00     0.119 N 
HETATM   28  C7  UNL     1      -3.154  -0.258   1.302  1.00  0.00     0.276 C 
HETATM   29  C8  UNL     1      -4.170  -1.380   1.338  1.00  0.00     0.030 C 
HETATM   30  C9  UNL     1      -5.569  -0.846   1.456  1.00  0.00     0.002 C 
HETATM   31  C10 UNL     1      -6.160  -0.689   0.090  1.00  0.00     0.002 C 
HETATM   32  C11 UNL     1      -5.108  -0.405  -0.986  1.00  0.00     0.030 C 
HETATM   33  C12 UNL     1      -4.143   0.658  -0.580  1.00  0.00     0.276 C 
ENDBRANCH   3  27
BRANCH   4  34
HETATM   34  N4  UNL     1      -1.466  -1.198  -3.010  1.00  0.00    -0.068 N 
ATOM     35  H43 UNL     1      -0.887  -1.958  -2.653  1.00  0.00     0.275 HD
ATOM     36  H42 UNL     1      -2.311  -1.754  -3.140  1.00  0.00     0.275 HD
ATOM     37  H41 UNL     1      -1.112  -0.769  -3.865  1.00  0.00     0.275 HD
ENDBRANCH   4  34
TORSDOF 10
