REMARK  6 active torsions:
REMARK  status: ('A' for Active; 'I' for Inactive)
REMARK    1  A    between atoms: C2_2  and  C3_3 
REMARK    2  A    between atoms: C3_3  and  C4_4 
REMARK    3  A    between atoms: C4_4  and  C5_5 
REMARK    4  A    between atoms: C5_5  and  N1_6 
REMARK    5  A    between atoms: C5_5  and  C6_10 
REMARK       I    between atoms: C6_10  and  N2_12 
REMARK    6  A    between atoms: N2_12  and  C7_14 
ROOT
HETATM    1  C5  UNL     1       0.209  -0.613   0.621  1.00  0.00     0.275 C 
ENDROOT
BRANCH   1   2
HETATM    2  C4  UNL     1      -0.939   0.341   0.431  1.00  0.00     0.052 C 
BRANCH   2   3
HETATM    3  C3  UNL     1      -2.302  -0.216   0.605  1.00  0.00    -0.031 C 
HETATM    4  C12 UNL     1      -2.579  -1.284  -0.423  1.00  0.00     0.015 C 
HETATM    5  C13 UNL     1      -3.984  -1.050  -0.950  1.00  0.00    -0.013 C 
HETATM    6  C14 UNL     1      -3.829   0.024  -2.020  1.00  0.00     0.005 C 
HETATM    7  C18 UNL     1      -4.578  -0.192   0.153  1.00  0.00     0.014 C 
HETATM    8  C15 UNL     1      -3.332   1.187  -1.187  1.00  0.00     0.010 C 
HETATM    9  C16 UNL     1      -3.396   0.762   0.256  1.00  0.00    -0.036 C 
HETATM   10  C17 UNL     1      -3.698   1.835   1.201  1.00  0.00     0.016 C 
BRANCH   3  11
HETATM   11  C2  UNL     1      -2.423  -0.795   1.958  1.00  0.00     0.006 C 
HETATM   12  C1  UNL     1      -2.205   0.088   3.128  1.00  0.00     0.006 C 
ENDBRANCH   3  11
ENDBRANCH   2   3
ENDBRANCH   1   2
BRANCH   1  13
HETATM   13  N1  UNL     1       0.222  -1.743  -0.277  1.00  0.00    -0.066 N 
ATOM     14  H13 UNL     1      -0.664  -2.245  -0.223  1.00  0.00     0.275 HD
ATOM     15  H12 UNL     1       0.188  -1.423  -1.245  1.00  0.00     0.275 HD
ATOM     16  H11 UNL     1       1.000  -2.390  -0.148  1.00  0.00     0.275 HD
ENDBRANCH   1  13
BRANCH   1  17
HETATM   17  C6  UNL     1       1.514   0.078   0.486  1.00  0.00     0.248 C 
HETATM   18  O1  UNL     1       1.699   1.133   1.120  1.00  0.00    -0.271 OA
HETATM   19  N2  UNL     1       2.519  -0.443  -0.334  1.00  0.00    -0.355 N 
ATOM     20  H2  UNL     1       2.333  -1.311  -0.837  1.00  0.00     0.162 HD
BRANCH  19  21
HETATM   21  C7  UNL     1       3.821   0.192  -0.507  1.00  0.00     0.087 C 
HETATM   22  C8  UNL     1       4.028   0.505  -1.966  1.00  0.00     0.052 C 
HETATM   23  C9  UNL     1       5.375   1.141  -2.177  1.00  0.00     0.234 C 
HETATM   24  N3  UNL     1       6.329   0.769  -1.136  1.00  0.00    -0.075 N 
HETATM   25  C10 UNL     1       6.130  -0.645  -0.864  1.00  0.00     0.234 C 
ATOM     26  H32 UNL     1       7.293   0.999  -1.375  1.00  0.00     0.277 HD
ATOM     27  H31 UNL     1       6.259   1.351  -0.302  1.00  0.00     0.277 HD
HETATM   28  C11 UNL     1       4.881  -0.758  -0.021  1.00  0.00     0.052 C 
ENDBRANCH  19  21
ENDBRANCH   1  17
TORSDOF 6
