REMARK  6 active torsions:
REMARK  status: ('A' for Active; 'I' for Inactive)
REMARK       I    between atoms: N1_2  and  C2_4 
REMARK       I    between atoms: C2_4  and  N2_5 
REMARK    1  A    between atoms: C3_7  and  N3_8 
REMARK    2  A    between atoms: N4_14  and  C9_16 
REMARK    3  A    between atoms: C9_16  and  C10_17 
REMARK    4  A    between atoms: C10_17  and  C11_18 
REMARK    5  A    between atoms: C11_18  and  C12_19 
REMARK    6  A    between atoms: C14_23  and  N6_24 
ROOT
HETATM    1  C1  UNL     1      -0.559  -2.586  -3.157  1.00  0.00     0.165 C 
HETATM    2  N1  UNL     1      -0.164  -1.911  -1.930  1.00  0.00    -0.231 N 
ATOM      3  H1  UNL     1       0.342  -2.444  -1.223  1.00  0.00     0.177 HD
HETATM    4  C2  UNL     1      -0.450  -0.547  -1.671  1.00  0.00     0.674 C 
HETATM    5  N2  UNL     1      -1.653  -0.163  -1.022  1.00  0.00    -0.188 N 
ATOM      6  H2  UNL     1      -2.542  -0.582  -1.294  1.00  0.00     0.185 HD
HETATM    7  C3  UNL     1      -1.608   0.722  -0.084  1.00  0.00     0.196 C 
HETATM    8  N4  UNL     1       0.371   0.382  -2.016  1.00  0.00    -0.226 N 
ATOM      9  H4  UNL     1       0.122   1.349  -1.809  1.00  0.00     0.177 HD
ENDROOT
BRANCH   8  10
HETATM   10  C9  UNL     1       1.622   0.126  -2.679  1.00  0.00     0.138 C 
BRANCH  10  11
HETATM   11  C10 UNL     1       2.773   0.396  -1.752  1.00  0.00     0.025 C 
BRANCH  11  12
HETATM   12  C11 UNL     1       2.712  -0.485  -0.516  1.00  0.00     0.049 C 
BRANCH  12  13
HETATM   13  C12 UNL     1       3.889  -0.169   0.372  1.00  0.00     0.002 A 
HETATM   14  C13 UNL     1       5.131  -0.746   0.359  1.00  0.00     0.104 A 
HETATM   15  N5  UNL     1       6.009  -0.320   1.219  1.00  0.00    -0.346 N 
HETATM   16  C14 UNL     1       5.668   0.647   2.066  1.00  0.00     0.142 A 
ATOM     17  H5  UNL     1       6.946  -0.722   1.243  1.00  0.00     0.167 HD
HETATM   18  S1  UNL     1       4.040   0.971   1.631  1.00  0.00    -0.058 SA
BRANCH  16  19
HETATM   19  N6  UNL     1       6.396   1.216   3.004  1.00  0.00    -0.380 N 
ATOM     20  H62 UNL     1       7.364   1.023   3.263  1.00  0.00     0.158 HD
ATOM     21  H61 UNL     1       6.134   1.958   3.654  1.00  0.00     0.158 HD
ENDBRANCH  16  19
ENDBRANCH  12  13
ENDBRANCH  11  12
ENDBRANCH  10  11
ENDBRANCH   8  10
BRANCH   7  22
HETATM   22  N3  UNL     1      -2.789   1.135   0.591  1.00  0.00    -0.377 N 
HETATM   23  C4  UNL     1      -2.824   1.562   1.964  1.00  0.00     0.123 C 
HETATM   24  C5  UNL     1      -4.223   1.352   2.501  1.00  0.00     0.020 C 
HETATM   25  C6  UNL     1      -4.767   0.041   1.982  1.00  0.00     0.003 C 
HETATM   26  C7  UNL     1      -4.899   0.036   0.483  1.00  0.00     0.020 C 
HETATM   27  C8  UNL     1      -4.044   1.129  -0.144  1.00  0.00     0.123 C 
ENDBRANCH   7  22
TORSDOF 6
