REMARK  7 active torsions:
REMARK  status: ('A' for Active; 'I' for Inactive)
REMARK    1  A    between atoms: C2_2  and  C4_4 
REMARK    2  A    between atoms: N1_7  and  C7_8 
REMARK    3  A    between atoms: C8_11  and  N3_12 
REMARK    4  A    between atoms: N3_12  and  C9_14 
REMARK    5  A    between atoms: N4_16  and  S1_17 
REMARK    6  A    between atoms: S1_17  and  C11_20 
REMARK    7  A    between atoms: C16_27  and  C17_28 
ROOT
HETATM    1  C7  UNL     1      -0.724  -0.082  -0.261  1.00  0.00     0.682 A 
HETATM    2  N2  UNL     1       0.574  -0.333  -0.505  1.00  0.00    -0.177 N 
ATOM      3  H2  UNL     1       0.889  -1.303  -0.474  1.00  0.00     0.185 HD
HETATM    4  C8  UNL     1       1.478   0.612  -0.786  1.00  0.00     0.119 A 
HETATM    5  C15 UNL     1       1.072   1.930  -0.834  1.00  0.00     0.074 A 
HETATM    6  C16 UNL     1      -0.250   2.223  -0.590  1.00  0.00     0.034 A 
HETATM    7  N6  UNL     1      -1.097   1.215  -0.314  1.00  0.00    -0.195 N 
ATOM      8  H6  UNL     1      -2.075   1.443  -0.135  1.00  0.00     0.184 HD
ENDROOT
BRANCH   4   9
HETATM    9  N3  UNL     1       2.713   0.373  -1.018  1.00  0.00    -0.370 N 
ATOM     10  H3  UNL     1       3.308   1.176  -1.222  1.00  0.00     0.161 HD
BRANCH   9  11
HETATM   11  C9  UNL     1       3.338  -0.911  -1.019  1.00  0.00     0.102 C 
HETATM   12  C10 UNL     1       3.719  -1.301   0.408  1.00  0.00     0.133 C 
HETATM   13  N4  UNL     1       4.992  -0.717   0.645  1.00  0.00    -0.204 NA
HETATM   14  C12 UNL     1       5.713  -0.670  -0.581  1.00  0.00     0.113 C 
HETATM   15  C13 UNL     1       4.690  -0.798  -1.697  1.00  0.00     0.019 C 
HETATM   16  C14 UNL     1       4.757   0.328  -2.677  1.00  0.00     0.013 C 
BRANCH  13  17
HETATM   17  S1  UNL     1       5.830  -1.204   2.020  1.00  0.00     0.273 S 
HETATM   18  O1  UNL     1       7.115  -0.459   2.237  1.00  0.00    -0.205 OA
HETATM   19  O2  UNL     1       4.949  -0.899   3.229  1.00  0.00    -0.205 OA
BRANCH  17  20
HETATM   20  C11 UNL     1       6.204  -2.916   2.008  1.00  0.00     0.488 C 
HETATM   21  F1  UNL     1       7.063  -3.239   0.980  1.00  0.00    -0.196 F 
HETATM   22  F2  UNL     1       5.092  -3.736   1.989  1.00  0.00    -0.196 F 
ENDBRANCH  17  20
ENDBRANCH  13  17
ENDBRANCH   9  11
ENDBRANCH   4   9
BRANCH   1  23
HETATM   23  N1  UNL     1      -1.647  -1.123   0.034  1.00  0.00    -0.217 N 
HETATM   24  C6  UNL     1      -1.281  -2.523   0.099  1.00  0.00     0.141 C 
HETATM   25  C5  UNL     1      -2.580  -3.283   0.112  1.00  0.00     0.027 C 
HETATM   26  C4  UNL     1      -3.488  -2.331   0.878  1.00  0.00     0.009 C 
HETATM   27  C22 UNL     1      -3.064  -0.994   0.312  1.00  0.00     0.146 C 
BRANCH  26  28
HETATM   28  C2  UNL     1      -4.946  -2.619   0.591  1.00  0.00    -0.017 C 
HETATM   29  C1  UNL     1      -5.333  -4.017   0.982  1.00  0.00     0.010 C 
HETATM   30  C3  UNL     1      -5.761  -1.665   1.451  1.00  0.00     0.010 C 
ENDBRANCH  26  28
ENDBRANCH   1  23
BRANCH   6  31
HETATM   31  C17 UNL     1      -0.687   3.641  -0.641  1.00  0.00     0.039 C 
HETATM   32  C18 UNL     1      -1.140   4.030   0.735  1.00  0.00     0.038 C 
HETATM   33  C19 UNL     1      -2.621   4.350   0.746  1.00  0.00     0.233 C 
HETATM   34  N5  UNL     1      -2.753   5.496  -0.169  1.00  0.00    -0.075 N 
HETATM   35  C20 UNL     1      -2.666   4.972  -1.494  1.00  0.00     0.233 C 
ATOM     36  H52 UNL     1      -3.597   6.046  -0.007  1.00  0.00     0.277 HD
ATOM     37  H51 UNL     1      -2.079   6.239   0.016  1.00  0.00     0.277 HD
HETATM   38  C21 UNL     1      -1.700   3.884  -1.713  1.00  0.00     0.038 C 
ENDBRANCH   6  31
TORSDOF 7
