REMARK  8 active torsions:
REMARK  status: ('A' for Active; 'I' for Inactive)
REMARK    1  A    between atoms: O1_2  and  N1_3 
REMARK    2  A    between atoms: C3_5  and  N2_6 
REMARK    3  A    between atoms: N2_6  and  C4_8 
REMARK    4  A    between atoms: C7_13  and  C8_14 
REMARK    5  A    between atoms: N5_24  and  C14_26 
REMARK    6  A    between atoms: C14_26  and  C15_27 
REMARK    7  A    between atoms: C15_27  and  C16_28 
REMARK    8  A    between atoms: C16_28  and  N6_29 
ROOT
HETATM    1  C4  UNL     1      -1.473   0.697  -0.402  1.00  0.00     0.146 A 
HETATM    2  N3  UNL     1      -1.778   1.826  -0.272  1.00  0.00    -0.338 N 
ATOM      3  H3  UNL     1      -2.792   1.841  -0.161  1.00  0.00     0.167 HD
HETATM    4  C5  UNL     1      -1.372   3.090  -0.207  1.00  0.00     0.061 A 
HETATM    5  C6  UNL     1      -2.217   4.137  -0.105  1.00  0.00     0.045 A 
HETATM    6  C7  UNL     1      -1.734   5.443  -0.109  1.00  0.00     0.015 A 
HETATM    7  C10 UNL     1      -0.408   5.678  -0.204  1.00  0.00     0.015 A 
HETATM    8  C11 UNL     1       0.490   4.596  -0.304  1.00  0.00     0.032 A 
HETATM    9  C12 UNL     1      -0.002   3.325  -0.315  1.00  0.00     0.060 A 
HETATM   10  N4  UNL     1       0.677   2.184  -0.481  1.00  0.00    -0.338 N 
ATOM     11  H4  UNL     1       1.689   2.264  -0.576  1.00  0.00     0.167 HD
HETATM   12  C13 UNL     1       0.182   0.989  -0.533  1.00  0.00     0.146 A 
HETATM   13  N5  UNL     1       0.810   0.003  -0.654  1.00  0.00    -0.373 N 
ATOM     14  H5  UNL     1       0.084  -0.713  -0.653  1.00  0.00     0.161 HD
ENDROOT
BRANCH   1  15
HETATM   15  N2  UNL     1      -1.122  -0.561  -0.555  1.00  0.00    -0.367 N 
ATOM     16  H2  UNL     1      -0.323  -0.856  -1.116  1.00  0.00     0.161 HD
BRANCH  15  17
HETATM   17  C3  UNL     1      -1.986  -1.490   0.155  1.00  0.00     0.098 C 
HETATM   18  C2  UNL     1      -1.975  -2.831  -0.479  1.00  0.00     0.146 C 
HETATM   19  N1  UNL     1      -3.121  -3.670  -0.112  1.00  0.00    -0.191 NA
HETATM   20  C23 UNL     1      -3.749  -3.075   1.026  1.00  0.00     0.082 C 
HETATM   21  C22 UNL     1      -4.467  -1.805   0.522  1.00  0.00     0.024 C 
HETATM   22  C24 UNL     1      -4.762  -3.935   1.732  1.00  0.00     0.028 C 
HETATM   23  C21 UNL     1      -3.367  -0.840   0.219  1.00  0.00     0.028 C 
BRANCH  19  24
HETATM   24  O1  UNL     1      -3.965  -3.685  -1.163  1.00  0.00    -0.308 OA
HETATM   25  C1  UNL     1      -4.672  -4.868  -1.289  1.00  0.00     0.229 C 
ENDBRANCH  19  24
ENDBRANCH  15  17
ENDBRANCH   1  15
BRANCH  13  26
HETATM   26  C14 UNL     1       1.942  -0.741  -0.795  1.00  0.00     0.123 C 
BRANCH  26  27
HETATM   27  C15 UNL     1       2.972  -0.490   0.319  1.00  0.00     0.050 C 
BRANCH  27  28
HETATM   28  C16 UNL     1       4.342  -0.772  -0.313  1.00  0.00     0.274 C 
BRANCH  28  29
HETATM   29  N6  UNL     1       5.444  -0.700   0.531  1.00  0.00     0.092 N 
HETATM   30  C17 UNL     1       5.648  -1.782   1.463  1.00  0.00     0.298 C 
HETATM   31  C18 UNL     1       6.350  -2.946   0.742  1.00  0.00     0.198 C 
HETATM   32  O2  UNL     1       7.629  -2.547   0.465  1.00  0.00    -0.388 OA
HETATM   33  C19 UNL     1       7.837  -1.171   0.473  1.00  0.00     0.198 C 
HETATM   34  C20 UNL     1       6.698  -0.395  -0.131  1.00  0.00     0.298 C 
ENDBRANCH  28  29
ENDBRANCH  27  28
ENDBRANCH  26  27
ENDBRANCH  13  26
BRANCH   6  35
HETATM   35  C8  UNL     1      -2.692   6.588  -0.074  1.00  0.00     0.267 C 
HETATM   36  C9  UNL     1      -3.770   6.347  -1.146  1.00  0.00     0.096 C 
HETATM   37  F1  UNL     1      -2.048   7.787  -0.401  1.00  0.00    -0.201 F 
HETATM   38  F2  UNL     1      -3.266   6.728   1.128  1.00  0.00    -0.201 F 
ENDBRANCH   6  35
TORSDOF 8
