REMARK  4 active torsions:
REMARK  status: ('A' for Active; 'I' for Inactive)
REMARK    1  A    between atoms: C2_2  and  C3_3 
REMARK    2  A    between atoms: C3_3  and  N1_4 
REMARK    3  A    between atoms: N1_4  and  C4_6 
REMARK    4  A    between atoms: C6_12  and  N4_13 
ROOT
HETATM    1  C4  UNL     1       0.941  -1.096  -0.084  1.00  0.00     0.694 A 
HETATM    2  N2  UNL     1       0.171  -0.053  -0.421  1.00  0.00    -0.172 N 
ATOM      3  H2  UNL     1       0.585   0.772  -0.856  1.00  0.00     0.186 HD
HETATM    4  C5  UNL     1      -1.155  -0.100  -0.182  1.00  0.00     0.170 A 
HETATM    5  N3  UNL     1      -1.974   0.920  -0.501  1.00  0.00    -0.174 N 
ATOM      6  H3  UNL     1      -1.608   1.766  -0.938  1.00  0.00     0.186 HD
HETATM    7  C6  UNL     1      -3.277   0.798  -0.232  1.00  0.00     0.680 A 
HETATM    8  N5  UNL     1      -3.819  -0.303   0.347  1.00  0.00    -0.154 N 
ATOM      9  H5  UNL     1      -4.820  -0.355   0.535  1.00  0.00     0.187 HD
HETATM   10  C7  UNL     1      -3.017  -1.308   0.662  1.00  0.00     0.291 A 
HETATM   11  O1  UNL     1      -3.483  -2.356   1.205  1.00  0.00    -0.265 OA
HETATM   12  C8  UNL     1      -1.674  -1.224   0.404  1.00  0.00     0.162 A 
HETATM   13  N6  UNL     1      -0.877  -2.259   0.733  1.00  0.00    -0.278 N 
ATOM     14  H6  UNL     1      -1.271  -3.093   1.168  1.00  0.00     0.188 HD
HETATM   15  N7  UNL     1       0.403  -2.187   0.491  1.00  0.00    -0.132 N 
ATOM     16  H7  UNL     1       1.006  -2.971   0.742  1.00  0.00     0.205 HD
ENDROOT
BRANCH   1  17
HETATM   17  N1  UNL     1       2.232  -1.087  -0.300  1.00  0.00    -0.221 N 
ATOM     18  H1  UNL     1       2.812  -1.885  -0.040  1.00  0.00     0.178 HD
BRANCH  17  19
HETATM   19  C3  UNL     1       2.813   0.083  -0.916  1.00  0.00     0.164 C 
BRANCH  19  20
HETATM   20  C2  UNL     1       3.945   0.521  -0.071  1.00  0.00    -0.017 C 
HETATM   21  C1  UNL     1       3.974   1.717   0.481  1.00  0.00     0.008 C 
ENDBRANCH  19  20
ENDBRANCH  17  19
ENDBRANCH   1  17
BRANCH   7  22
HETATM   22  N4  UNL     1      -4.082   1.781  -0.537  1.00  0.00    -0.234 N 
ATOM     23  H42 UNL     1      -3.675   2.609  -0.972  1.00  0.00     0.174 HD
ATOM     24  H41 UNL     1      -5.077   1.688  -0.332  1.00  0.00     0.174 HD
ENDBRANCH   7  22
TORSDOF 4
