REMARK  3 active torsions:
REMARK  status: ('A' for Active; 'I' for Inactive)
REMARK    1  A    between atoms: N1_1  and  C1_4 
REMARK    2  A    between atoms: C2_7  and  N3_8 
REMARK    3  A    between atoms: C3_10  and  C4_11 
ROOT
HETATM    1  C1  UNL     1      -0.751   2.510  -0.223  1.00  0.00     0.679 A 
HETATM    2  N2  UNL     1       0.391   1.836  -0.211  1.00  0.00    -0.174 N 
ATOM      3  H2  UNL     1       1.255   2.369  -0.308  1.00  0.00     0.186 HD
HETATM    4  C2  UNL     1       0.496   0.470  -0.077  1.00  0.00     0.151 A 
HETATM    5  C5  UNL     1      -0.720  -0.200   0.051  1.00  0.00     0.125 A 
HETATM    6  N4  UNL     1      -0.747  -1.547   0.189  1.00  0.00    -0.316 N 
ATOM      7  H4  UNL     1       0.112  -2.097   0.203  1.00  0.00     0.169 HD
HETATM    8  C6  UNL     1      -1.965  -2.134   0.308  1.00  0.00     0.261 A 
HETATM    9  O2  UNL     1      -1.944  -3.403   0.436  1.00  0.00    -0.267 OA
HETATM   10  C7  UNL     1      -3.153  -1.449   0.297  1.00  0.00     0.164 A 
HETATM   11  N5  UNL     1      -3.083  -0.121   0.158  1.00  0.00    -0.345 N 
ATOM     12  H5  UNL     1      -3.948   0.420   0.145  1.00  0.00     0.167 HD
HETATM   13  C8  UNL     1      -1.901   0.530   0.034  1.00  0.00     0.151 A 
HETATM   14  N6  UNL     1      -1.922   1.868  -0.101  1.00  0.00    -0.174 N 
ATOM     15  H6  UNL     1      -2.804   2.380  -0.110  1.00  0.00     0.186 HD
ENDROOT
BRANCH   4  16
HETATM   16  N3  UNL     1       1.584  -0.076  -0.075  1.00  0.00    -0.347 N 
HETATM   17  C3  UNL     1       2.426  -1.124  -0.009  1.00  0.00     0.131 C 
ATOM     18  H3  UNL     1       2.223   0.711  -0.188  1.00  0.00     0.167 HD
BRANCH  17  19
HETATM   19  C4  UNL     1       3.893  -0.811  -0.050  1.00  0.00     0.275 C 
HETATM   20  O1  UNL     1       4.704  -1.711   0.005  1.00  0.00    -0.301 OA
ENDBRANCH  17  19
ENDBRANCH   4  16
BRANCH   1  21
HETATM   21  N1  UNL     1      -0.785   3.817  -0.354  1.00  0.00    -0.234 N 
ATOM     22  H12 UNL     1       0.106   4.305  -0.447  1.00  0.00     0.174 HD
ATOM     23  H11 UNL     1      -1.663   4.335  -0.363  1.00  0.00     0.174 HD
ENDBRANCH   1  21
TORSDOF 3
