REMARK  5 active torsions:
REMARK  status: ('A' for Active; 'I' for Inactive)
REMARK    1  A    between atoms: N1_1  and  C1_4 
REMARK    2  A    between atoms: N3_7  and  C2_8 
REMARK    3  A    between atoms: C2_8  and  O1_9 
REMARK    4  A    between atoms: O1_9  and  C3_10 
REMARK    5  A    between atoms: C3_10  and  N4_11 
ROOT
HETATM    1  C1  UNL     1       1.615   1.874  -0.488  1.00  0.00     0.143 A 
HETATM    2  N2  UNL     1       0.346   1.671  -0.845  1.00  0.00    -0.279 N 
ATOM      3  H2  UNL     1      -0.260   2.392  -1.237  1.00  0.00     0.189 HD
HETATM    4  N3  UNL     1      -0.035   0.413  -0.628  1.00  0.00    -0.259 N 
HETATM    5  C4  UNL     1       1.046  -0.227  -0.104  1.00  0.00     0.152 A 
HETATM    6  C5  UNL     1       1.229  -1.522   0.306  1.00  0.00     0.280 A 
HETATM    7  O2  UNL     1       0.282  -2.326   0.216  1.00  0.00    -0.265 OA
HETATM    8  N5  UNL     1       2.414  -1.901   0.793  1.00  0.00    -0.273 N 
ATOM      9  H5  UNL     1       2.553  -2.864   1.099  1.00  0.00     0.173 HD
HETATM   10  C6  UNL     1       3.439  -1.005   0.883  1.00  0.00     0.327 A 
HETATM   11  O3  UNL     1       4.559  -1.398   1.353  1.00  0.00    -0.247 OA
HETATM   12  N6  UNL     1       3.260   0.243   0.487  1.00  0.00    -0.303 N 
ATOM     13  H6  UNL     1       4.040   0.896   0.563  1.00  0.00     0.171 HD
HETATM   14  C7  UNL     1       2.101   0.684  -0.008  1.00  0.00     0.116 A 
ENDROOT
BRANCH   4  15
HETATM   15  C2  UNL     1      -1.340  -0.172  -0.895  1.00  0.00     0.319 C 
BRANCH  15  16
HETATM   16  O1  UNL     1      -2.180  -0.056   0.205  1.00  0.00    -0.344 OA
BRANCH  16  17
HETATM   17  C3  UNL     1      -3.424  -0.595  -0.002  1.00  0.00     0.398 C 
BRANCH  17  18
HETATM   18  N4  UNL     1      -4.196  -0.408   1.219  1.00  0.00    -0.058 N 
ATOM     19  H43 UNL     1      -3.732  -0.788   2.044  1.00  0.00     0.276 HD
ATOM     20  H42 UNL     1      -4.231   0.566   1.521  1.00  0.00     0.276 HD
ATOM     21  H41 UNL     1      -5.121  -0.809   1.065  1.00  0.00     0.276 HD
ENDBRANCH  17  18
ENDBRANCH  16  17
ENDBRANCH  15  16
ENDBRANCH   4  15
BRANCH   1  22
HETATM   22  N1  UNL     1       2.284   2.984  -0.571  1.00  0.00    -0.383 N 
ATOM     23  H12 UNL     1       1.923   3.869  -0.928  1.00  0.00     0.157 HD
ATOM     24  H11 UNL     1       3.254   3.139  -0.298  1.00  0.00     0.157 HD
ENDBRANCH   1  22
TORSDOF 5
