REMARK  2 active torsions:
REMARK  status: ('A' for Active; 'I' for Inactive)
REMARK    1  A    between atoms: N3_7  and  N4_8 
REMARK    2  A    between atoms: N4_8  and  C3_10 
ROOT
HETATM    1  C1  UNL     1       3.586   0.270  -0.151  1.00  0.00     0.165 C 
HETATM    2  N1  UNL     1       2.155   0.053  -0.251  1.00  0.00    -0.268 N 
HETATM    3  C2  UNL     1       1.681  -1.242  -0.591  1.00  0.00     0.345 C 
HETATM    4  O1  UNL     1       2.609  -2.017  -0.957  1.00  0.00    -0.245 OA
HETATM    5  N2  UNL     1       0.360  -1.789  -0.585  1.00  0.00    -0.228 N 
ATOM      6  H2  UNL     1       0.251  -2.750  -0.910  1.00  0.00     0.194 HD
HETATM    7  N3  UNL     1      -0.799  -1.115  -0.170  1.00  0.00    -0.171 N 
HETATM    8  C4  UNL     1      -1.039   0.289  -0.102  1.00  0.00     0.193 A 
HETATM    9  N5  UNL     1      -2.271   0.831  -0.104  1.00  0.00    -0.171 N 
ATOM     10  H5  UNL     1      -3.157   0.328  -0.152  1.00  0.00     0.186 HD
HETATM   11  C5  UNL     1      -2.107   2.165  -0.030  1.00  0.00     0.678 A 
HETATM   12  N6  UNL     1      -3.099   3.001  -0.011  1.00  0.00    -0.234 N 
ATOM     13  H61 UNL     1      -2.975   4.012   0.045  1.00  0.00     0.174 HD
ATOM     14  H62 UNL     1      -4.089   2.759  -0.049  1.00  0.00     0.174 HD
HETATM   15  N7  UNL     1      -0.800   2.485   0.020  1.00  0.00    -0.183 N 
ATOM     16  H7  UNL     1      -0.402   3.422   0.080  1.00  0.00     0.184 HD
HETATM   17  C6  UNL     1      -0.125   1.326  -0.024  1.00  0.00     0.165 A 
HETATM   18  C7  UNL     1       1.337   1.185   0.006  1.00  0.00     0.282 C 
HETATM   19  O3  UNL     1       1.966   2.244   0.310  1.00  0.00    -0.265 OA
ENDROOT
BRANCH   7  20
HETATM   20  N4  UNL     1      -1.862  -1.930   0.231  1.00  0.00    -0.254 N 
ATOM     21  H4  UNL     1      -2.818  -1.714  -0.051  1.00  0.00     0.191 HD
BRANCH  20  22
HETATM   22  C3  UNL     1      -1.583  -3.065   1.040  1.00  0.00     0.370 C 
HETATM   23  O2  UNL     1      -0.411  -3.341   1.395  1.00  0.00    -0.282 OA
ENDBRANCH  20  22
ENDBRANCH   7  20
TORSDOF 2
