REMARK  4 active torsions:
REMARK  status: ('A' for Active; 'I' for Inactive)
REMARK    1  A    between atoms: C4_8  and  N4_9 
REMARK    2  A    between atoms: C5_14  and  N6_15 
REMARK    3  A    between atoms: N6_15  and  N7_17 
REMARK    4  A    between atoms: C6_19  and  C7_20 
ROOT
HETATM    1  N1  UNL     1      -1.530   2.227  -2.896  1.00  0.00    -0.191 NA
HETATM    2  C1  UNL     1      -1.531   1.518  -1.980  1.00  0.00     0.107 C 
HETATM    3  C2  UNL     1      -1.516   0.627  -0.833  1.00  0.00     0.132 A 
HETATM    4  C3  UNL     1      -2.700   0.244  -0.218  1.00  0.00     0.156 A 
HETATM    5  N2  UNL     1      -3.937   0.727  -0.715  1.00  0.00    -0.080 NA
HETATM    6  N3  UNL     1      -2.713  -0.589   0.856  1.00  0.00    -0.177 N 
ATOM      7  H3  UNL     1      -3.589  -0.865   1.300  1.00  0.00     0.185 HD
HETATM    8  C4  UNL     1      -1.532  -1.036   1.312  1.00  0.00     0.678 A 
HETATM    9  N5  UNL     1      -0.359  -0.683   0.737  1.00  0.00    -0.174 N 
ATOM     10  H5  UNL     1       0.516  -1.046   1.115  1.00  0.00     0.186 HD
HETATM   11  C5  UNL     1      -0.332   0.138  -0.324  1.00  0.00     0.159 A 
ENDROOT
BRANCH  11  12
HETATM   12  N6  UNL     1       0.753   0.506  -0.907  1.00  0.00    -0.284 N 
ATOM     13  H6  UNL     1       0.663   1.135  -1.705  1.00  0.00     0.188 HD
BRANCH  12  14
HETATM   14  N7  UNL     1       2.026   0.124  -0.546  1.00  0.00    -0.305 N 
HETATM   15  C6  UNL     1       3.035   0.920  -0.453  1.00  0.00     0.177 C 
ATOM     16  H7  UNL     1       2.182  -0.862  -0.337  1.00  0.00     0.186 HD
BRANCH  15  17
HETATM   17  C7  UNL     1       4.312   0.362  -0.060  1.00  0.00     0.271 C 
HETATM   18  N8  UNL     1       4.469  -1.017   0.219  1.00  0.00    -0.057 NA
HETATM   19  O1  UNL     1       5.304   1.119   0.036  1.00  0.00    -0.270 OA
ENDBRANCH  15  17
ENDBRANCH  12  14
ENDBRANCH  11  12
BRANCH   8  20
HETATM   20  N4  UNL     1      -1.505  -1.833   2.335  1.00  0.00    -0.234 N 
ATOM     21  H42 UNL     1      -2.389  -2.099   2.768  1.00  0.00     0.174 HD
ATOM     22  H41 UNL     1      -0.608  -2.173   2.681  1.00  0.00     0.174 HD
ENDBRANCH   8  20
TORSDOF 4
