REMARK  5 active torsions:
REMARK  status: ('A' for Active; 'I' for Inactive)
REMARK    1  A    between atoms: N1_1  and  C1_4 
REMARK    2  A    between atoms: N3_9  and  C3_10 
REMARK    3  A    between atoms: C3_10  and  C4_11 
REMARK    4  A    between atoms: C4_11  and  C5_12 
REMARK    5  A    between atoms: C5_12  and  N4_13 
ROOT
HETATM    1  C1  UNL     1       3.066   1.065  -0.251  1.00  0.00     0.173 A 
HETATM    2  N2  UNL     1       2.222   1.630   0.632  1.00  0.00    -0.289 N 
ATOM      3  H2  UNL     1       2.441   2.549   1.016  1.00  0.00     0.172 HD
HETATM    4  C2  UNL     1       1.078   0.996   1.024  1.00  0.00     0.342 A 
HETATM    5  O1  UNL     1       0.386   1.638   1.856  1.00  0.00    -0.245 OA
HETATM    6  N3  UNL     1       0.754  -0.214   0.543  1.00  0.00    -0.237 N 
HETATM    7  N6  UNL     1       1.610  -0.754  -0.331  1.00  0.00    -0.257 N 
ATOM      8  H6  UNL     1       1.386  -1.674  -0.710  1.00  0.00     0.190 HD
HETATM    9  C7  UNL     1       2.726  -0.175  -0.737  1.00  0.00     0.303 A 
HETATM   10  O2  UNL     1       3.501  -0.715  -1.558  1.00  0.00    -0.263 OA
ENDROOT
BRANCH   6  11
HETATM   11  C3  UNL     1      -0.445  -0.865   0.918  1.00  0.00     0.196 C 
BRANCH  11  12
HETATM   12  C4  UNL     1      -1.648  -0.778   0.068  1.00  0.00     0.190 A 
HETATM   13  C6  UNL     1      -2.722  -1.800   0.485  1.00  0.00     0.275 A 
HETATM   14  N5  UNL     1      -2.083  -1.824  -0.793  1.00  0.00    -0.059 N 
ATOM     15  H52 UNL     1      -2.456  -1.816  -1.742  1.00  0.00     0.278 HD
ATOM     16  H51 UNL     1      -1.574  -2.557  -1.288  1.00  0.00     0.278 HD
BRANCH  12  17
HETATM   17  C5  UNL     1      -2.276   0.551  -0.274  1.00  0.00     0.271 C 
BRANCH  17  18
HETATM   18  N4  UNL     1      -1.492   1.472  -0.990  1.00  0.00    -0.077 N 
ATOM     19  H43 UNL     1      -0.617   1.630  -0.491  1.00  0.00     0.274 HD
ATOM     20  H42 UNL     1      -1.148   1.031  -1.843  1.00  0.00     0.274 HD
ATOM     21  H41 UNL     1      -1.916   2.370  -1.221  1.00  0.00     0.274 HD
ENDBRANCH  17  18
ENDBRANCH  12  17
ENDBRANCH  11  12
ENDBRANCH   6  11
BRANCH   1  22
HETATM   22  N1  UNL     1       4.161   1.671  -0.627  1.00  0.00    -0.381 N 
ATOM     23  H12 UNL     1       4.413   2.591  -0.266  1.00  0.00     0.157 HD
ATOM     24  H11 UNL     1       4.801   1.243  -1.296  1.00  0.00     0.157 HD
ENDBRANCH   1  22
TORSDOF 5
