REMARK  3 active torsions:
REMARK  status: ('A' for Active; 'I' for Inactive)
REMARK    1  A    between atoms: C6_6  and  N1_7 
REMARK    2  A    between atoms: C9_11  and  C10_12 
REMARK    3  A    between atoms: C14_16  and  O1_17 
ROOT
HETATM    1  N1  UNL     1      -0.792  -0.363  -0.088  1.00  0.00    -0.380 N 
HETATM    2  C7  UNL     1       0.086   0.658   0.342  1.00  0.00     0.139 C 
HETATM    3  C8  UNL     1       1.314   0.570  -0.602  1.00  0.00     0.141 C 
HETATM    4  N2  UNL     1       2.031  -0.506  -0.176  1.00  0.00    -0.387 N 
HETATM    5  C9  UNL     1       3.340  -0.840  -0.271  1.00  0.00     0.063 C 
HETATM    6  C13 UNL     1       1.247  -1.712  -0.538  1.00  0.00     0.175 C 
HETATM    7  C14 UNL     1      -0.213  -1.567  -0.470  1.00  0.00     0.234 C 
ENDROOT
BRANCH   1   8
HETATM    8  C6  UNL     1      -2.005   0.087  -0.566  1.00  0.00     0.085 C 
HETATM    9  C2  UNL     1      -2.766   0.791   0.543  1.00  0.00     0.004 C 
HETATM   10  C1  UNL     1      -3.118   2.215   0.221  1.00  0.00     0.012 C 
HETATM   11  C3  UNL     1      -4.063  -0.024   0.626  1.00  0.00     0.006 C 
HETATM   12  C4  UNL     1      -4.301  -0.272  -0.872  1.00  0.00     0.002 C 
HETATM   13  C5  UNL     1      -2.932  -0.861  -1.231  1.00  0.00     0.025 C 
ENDBRANCH   1   8
BRANCH   7  14
HETATM   14  O1  UNL     1      -0.684  -2.554   0.444  1.00  0.00    -0.375 OA
ATOM     15  H1  UNL     1      -0.288  -3.377   0.183  1.00  0.00     0.212 HD
ENDBRANCH   7  14
BRANCH   5  16
HETATM   16  C10 UNL     1       4.508  -0.249   0.347  1.00  0.00     0.024 A 
HETATM   17  C11 UNL     1       4.747   1.229  -0.016  1.00  0.00     0.010 A 
HETATM   18  C12 UNL     1       4.696   0.712   1.393  1.00  0.00     0.010 A 
ENDBRANCH   5  16
TORSDOF 3
