REMARK  4 active torsions:
REMARK  status: ('A' for Active; 'I' for Inactive)
REMARK    1  A    between atoms: C2_2  and  N1_3 
REMARK    2  A    between atoms: C6_7  and  C7_8 
REMARK    3  A    between atoms: C7_8  and  O1_10 
REMARK    4  A    between atoms: C7_8  and  C9_12 
ROOT
HETATM    1  C7  UNL     1      -0.574  -1.241   0.416  1.00  0.00     0.065 C 
HETATM    2  C8  UNL     1      -0.976  -1.608   1.874  1.00  0.00     0.047 C 
ENDROOT
BRANCH   1   3
HETATM    3  C6  UNL     1       0.476  -0.264   0.460  1.00  0.00     0.048 C 
HETATM    4  C5  UNL     1       0.295   1.057   1.099  1.00  0.00     0.011 C 
HETATM    5  C4  UNL     1       1.675   1.598   1.444  1.00  0.00     0.031 C 
HETATM    6  C3  UNL     1       2.442   1.774   0.179  1.00  0.00     0.272 C 
HETATM    7  N1  UNL     1       2.440   0.638  -0.691  1.00  0.00     0.088 N 
HETATM    8  C14 UNL     1       1.139   0.040  -0.873  1.00  0.00     0.280 C 
BRANCH   7   9
HETATM    9  C2  UNL     1       3.466  -0.332  -0.408  1.00  0.00     0.268 C 
HETATM   10  C1  UNL     1       4.856   0.142  -0.694  1.00  0.00     0.037 C 
ENDBRANCH   7   9
ENDBRANCH   1   3
BRANCH   1  11
HETATM   11  O1  UNL     1      -0.015  -2.461  -0.056  1.00  0.00    -0.389 OA
ATOM     12  H1  UNL     1      -0.710  -3.108  -0.085  1.00  0.00     0.210 HD
ENDBRANCH   1  11
BRANCH   1  13
HETATM   13  C9  UNL     1      -1.878  -1.073  -0.241  1.00  0.00     0.046 C 
HETATM   14  C10 UNL     1      -1.951  -0.815  -1.689  1.00  0.00     0.011 C 
HETATM   15  C11 UNL     1      -2.516   0.522  -2.089  1.00  0.00     0.028 C 
HETATM   16  C12 UNL     1      -3.640   0.989  -1.209  1.00  0.00     0.232 C 
HETATM   17  N2  UNL     1      -4.034  -0.065  -0.291  1.00  0.00    -0.075 N 
HETATM   18  C13 UNL     1      -2.864  -0.239   0.580  1.00  0.00     0.239 C 
ATOM     19  H22 UNL     1      -4.904   0.119   0.209  1.00  0.00     0.277 HD
ATOM     20  H21 UNL     1      -4.347  -0.922  -0.747  1.00  0.00     0.277 HD
ENDBRANCH   1  13
TORSDOF 4
