REMARK  3 active torsions:
REMARK  status: ('A' for Active; 'I' for Inactive)
REMARK    1  A    between atoms: C1_2  and  C2_4 
REMARK    2  A    between atoms: C7_12  and  C8_13 
REMARK    3  A    between atoms: C8_13  and  N2_14 
ROOT
HETATM    1  C2  UNL     1      -1.663   0.268  -0.847  1.00  0.00     0.125 C 
HETATM    2  C3  UNL     1      -3.016  -0.439  -0.857  1.00  0.00     0.201 C 
HETATM    3  C4  UNL     1      -3.625  -0.256   0.512  1.00  0.00     0.036 C 
HETATM    4  C5  UNL     1      -2.686  -1.102   1.370  1.00  0.00     0.035 C 
HETATM    5  C6  UNL     1      -1.755  -1.722   0.392  1.00  0.00     0.193 C 
HETATM    6  N1  UNL     1      -2.651  -1.866  -0.775  1.00  0.00    -0.065 N 
ATOM      7  H11 UNL     1      -2.269  -2.305  -1.613  1.00  0.00     0.278 HD
ATOM      8  H12 UNL     1      -3.410  -2.544  -0.707  1.00  0.00     0.278 HD
HETATM    9  C7  UNL     1      -0.775  -0.732  -0.239  1.00  0.00     0.061 C 
ENDROOT
BRANCH   9  10
HETATM   10  C8  UNL     1       0.301  -0.299   0.647  1.00  0.00     0.280 C 
BRANCH  10  11
HETATM   11  N2  UNL     1       1.228   0.580  -0.042  1.00  0.00     0.088 N 
HETATM   12  C9  UNL     1       2.177   1.169   0.917  1.00  0.00     0.272 C 
HETATM   13  C10 UNL     1       3.361   1.677   0.148  1.00  0.00     0.030 C 
HETATM   14  C11 UNL     1       4.254   0.441  -0.058  1.00  0.00     0.003 C 
HETATM   15  C12 UNL     1       3.305  -0.735  -0.232  1.00  0.00     0.030 C 
HETATM   16  C13 UNL     1       2.074  -0.191  -0.964  1.00  0.00     0.272 C 
ENDBRANCH  10  11
ENDBRANCH   9  10
BRANCH   1  17
HETATM   17  C1  UNL     1      -1.858   1.544  -0.200  1.00  0.00     0.179 C 
HETATM   18  O1  UNL     1      -1.363   1.976   0.869  1.00  0.00    -0.648 OA
HETATM   19  O2  UNL     1      -2.709   2.449  -0.816  1.00  0.00    -0.648 OA
ENDBRANCH   1  17
TORSDOF 3
