REMARK  3 active torsions:
REMARK  status: ('A' for Active; 'I' for Inactive)
REMARK    1  A    between atoms: N1_2  and  C3_4 
REMARK    2  A    between atoms: C3_4  and  C4_5 
REMARK    3  A    between atoms: C9_12  and  C10_13 
ROOT
HETATM    1  C4  UNL     1       1.449   1.036  -0.041  1.00  0.00     0.122 C 
HETATM    2  C5  UNL     1       1.895   2.412  -0.320  1.00  0.00     0.145 C 
HETATM    3  N2  UNL     1       1.057   3.535   0.193  1.00  0.00    -0.400 N 
ATOM      4  H2  UNL     1       1.342   4.494   0.389  1.00  0.00     0.158 HD
HETATM    5  C6  UNL     1      -0.164   2.986   0.337  1.00  0.00     0.055 C 
HETATM    6  C7  UNL     1      -1.526   2.910   0.665  1.00  0.00     0.046 C 
HETATM    7  C8  UNL     1      -1.823   1.379   0.534  1.00  0.00     0.030 C 
HETATM    8  C9  UNL     1      -1.003   0.622  -0.381  1.00  0.00     0.081 C 
HETATM    9  N3  UNL     1       0.350   0.357  -0.401  1.00  0.00    -0.409 N 
ATOM     10  H3  UNL     1       0.564  -0.567  -0.775  1.00  0.00     0.154 HD
ENDROOT
BRANCH   8  11
HETATM   11  C10 UNL     1      -1.620  -0.773  -0.453  1.00  0.00     0.008 C 
HETATM   12  C11 UNL     1      -1.669  -1.459   0.904  1.00  0.00     0.007 C 
HETATM   13  C12 UNL     1      -2.436  -2.726   0.535  1.00  0.00     0.000 C 
HETATM   14  C13 UNL     1      -3.289  -2.363  -0.677  1.00  0.00     0.000 C 
HETATM   15  C14 UNL     1      -3.036  -0.851  -0.854  1.00  0.00     0.007 C 
ENDBRANCH   8  11
BRANCH   1  16
HETATM   16  C3  UNL     1       2.670   0.240  -0.608  1.00  0.00     0.297 C 
BRANCH  16  17
HETATM   17  N1  UNL     1       2.491  -1.150  -0.471  1.00  0.00     0.082 N 
HETATM   18  C1  UNL     1       2.537  -1.588   0.903  1.00  0.00     0.309 C 
HETATM   19  C2  UNL     1       3.412  -1.960  -1.234  1.00  0.00     0.309 C 
ENDBRANCH  16  17
ENDBRANCH   1  16
TORSDOF 3
