REMARK  5 active torsions:
REMARK  status: ('A' for Active; 'I' for Inactive)
REMARK    1  A    between atoms: C5_5  and  O1_6 
REMARK    2  A    between atoms: C10_12  and  C11_13 
REMARK    3  A    between atoms: C12_14  and  C13_15 
REMARK    4  A    between atoms: C13_15  and  C14_17 
REMARK    5  A    between atoms: C14_17  and  O3_18 
ROOT
HETATM    1  C1  UNL     1      -0.046  -0.630   1.248  1.00  0.00     0.016 C 
HETATM    2  C2  UNL     1      -0.584   0.036   0.004  1.00  0.00    -0.033 C 
HETATM    3  C3  UNL     1      -0.911   1.466   0.243  1.00  0.00     0.012 C 
HETATM    4  C4  UNL     1      -2.405   1.744   0.190  1.00  0.00     0.032 C 
HETATM    5  C5  UNL     1      -3.135   0.773   1.110  1.00  0.00     0.118 C 
HETATM    6  C6  UNL     1      -2.939  -0.640   0.638  1.00  0.00     0.037 C 
HETATM    7  C7  UNL     1      -1.898  -0.678  -0.410  1.00  0.00    -0.003 C 
HETATM    8  C8  UNL     1      -1.371  -2.033  -0.740  1.00  0.00     0.006 C 
HETATM    9  C9  UNL     1      -0.128  -1.724  -1.545  1.00  0.00     0.010 C 
HETATM   10  C10 UNL     1       0.188  -0.247  -1.241  1.00  0.00     0.017 C 
ENDROOT
BRANCH  10  11
HETATM   11  C11 UNL     1       1.621  -0.081  -1.229  1.00  0.00    -0.018 C 
HETATM   12  C12 UNL     1       2.428   0.336  -0.300  1.00  0.00     0.049 C 
BRANCH  12  13
HETATM   13  C13 UNL     1       3.873   0.398  -0.582  1.00  0.00     0.172 C 
HETATM   14  O2  UNL     1       4.323   0.049  -1.718  1.00  0.00    -0.291 OA
BRANCH  13  15
HETATM   15  C14 UNL     1       4.859   0.858   0.413  1.00  0.00     0.246 C 
BRANCH  15  16
HETATM   16  O3  UNL     1       6.147   0.837  -0.057  1.00  0.00    -0.393 OA
ATOM     17  H3  UNL     1       6.782   1.133   0.584  1.00  0.00     0.209 HD
ENDBRANCH  15  16
ENDBRANCH  13  15
ENDBRANCH  12  13
ENDBRANCH  10  11
BRANCH   5  18
HETATM   18  O1  UNL     1      -4.480   1.146   1.158  1.00  0.00    -0.396 OA
ATOM     19  H1  UNL     1      -4.935   0.541   1.732  1.00  0.00     0.210 HD
ENDBRANCH   5  18
TORSDOF 5
