REMARK  6 active torsions:
REMARK  status: ('A' for Active; 'I' for Inactive)
REMARK    1  A    between atoms: C3_3  and  O1_4 
REMARK    2  A    between atoms: C3_3  and  C4_6 
REMARK    3  A    between atoms: C5_7  and  C6_8 
REMARK    4  A    between atoms: C6_8  and  C7_9 
REMARK    5  A    between atoms: C6_8  and  C11_16 
REMARK       I    between atoms: C7_9  and  N1_11 
REMARK    6  A    between atoms: N1_11  and  C8_13 
ROOT
HETATM    1  C1  UNL     1      -2.257   4.547  -0.852  1.00  0.00     0.015 C 
HETATM    2  C2  UNL     1      -1.320   4.071  -0.255  1.00  0.00    -0.073 C 
HETATM    3  C3  UNL     1      -0.183   3.478   0.453  1.00  0.00     0.276 C 
ENDROOT
BRANCH   3   4
HETATM    4  O1  UNL     1       0.984   4.191   0.217  1.00  0.00    -0.372 OA
ATOM      5  H1  UNL     1       1.721   3.806   0.676  1.00  0.00     0.212 HD
ENDBRANCH   3   4
BRANCH   3   6
HETATM    6  C4  UNL     1      -0.071   2.092  -0.038  1.00  0.00    -0.061 C 
HETATM    7  C5  UNL     1       0.033   0.956  -0.440  1.00  0.00    -0.086 C 
BRANCH   7   8
HETATM    8  C6  UNL     1       0.179  -0.421  -0.922  1.00  0.00     0.187 C 
BRANCH   8   9
HETATM    9  C7  UNL     1       1.282  -1.034  -0.133  1.00  0.00     0.236 C 
HETATM   10  O2  UNL     1       1.002  -2.062   0.561  1.00  0.00    -0.272 OA
HETATM   11  N1  UNL     1       2.597  -0.493  -0.153  1.00  0.00    -0.356 N 
ATOM     12  H1  UNL     1       2.814   0.332  -0.712  1.00  0.00     0.162 HD
BRANCH  11  13
HETATM   13  C8  UNL     1       3.616  -1.140   0.636  1.00  0.00     0.076 C 
HETATM   14  C9  UNL     1       4.203  -0.212   1.678  1.00  0.00     0.032 C 
HETATM   15  C10 UNL     1       4.729  -1.560  -0.299  1.00  0.00     0.032 C 
ENDBRANCH  11  13
ENDBRANCH   8   9
BRANCH   8  16
HETATM   16  C11 UNL     1      -1.092  -1.167  -0.751  1.00  0.00     0.174 C 
HETATM   17  C12 UNL     1      -2.265  -0.614  -1.467  1.00  0.00     0.305 C 
HETATM   18  N2  UNL     1      -3.476  -0.645  -0.670  1.00  0.00     0.088 N 
HETATM   19  C13 UNL     1      -3.625   0.482   0.193  1.00  0.00     0.310 C 
HETATM   20  C14 UNL     1      -3.557  -1.914  -0.006  1.00  0.00     0.298 C 
HETATM   21  C15 UNL     1      -2.380  -2.139   0.911  1.00  0.00     0.198 C 
HETATM   22  O3  UNL     1      -1.309  -1.327   0.633  1.00  0.00    -0.381 OA
ENDBRANCH   8  16
ENDBRANCH   7   8
ENDBRANCH   3   6
TORSDOF 6
