REMARK  8 active torsions:
REMARK  status: ('A' for Active; 'I' for Inactive)
REMARK    1  A    between atoms: N1_2  and  C3_4 
REMARK    2  A    between atoms: C3_4  and  C4_5 
REMARK    3  A    between atoms: C4_5  and  C5_6 
REMARK    4  A    between atoms: C5_6  and  N2_7 
REMARK       I    between atoms: N2_7  and  C6_9 
REMARK    5  A    between atoms: C6_9  and  C7_11 
REMARK    6  A    between atoms: C7_11  and  C8_12 
REMARK    7  A    between atoms: C11_15  and  O2_16 
REMARK    8  A    between atoms: C11_15  and  C12_18 
ROOT
HETATM    1  C8  UNL     1       0.270   0.858   0.055  1.00  0.00     0.169 C 
HETATM    2  C9  UNL     1      -0.091  -0.250   0.988  1.00  0.00     0.041 C 
HETATM    3  C10 UNL     1      -1.596  -0.094   1.275  1.00  0.00     0.075 C 
HETATM    4  C11 UNL     1      -2.259   0.184  -0.044  1.00  0.00     0.203 C 
HETATM    5  O3  UNL     1      -1.840   1.436  -0.496  1.00  0.00    -0.200 OA
HETATM    6  O4  UNL     1      -0.748   1.805   0.127  1.00  0.00    -0.232 OA
ENDROOT
BRANCH   4   7
HETATM    7  O2  UNL     1      -1.800  -0.724  -1.033  1.00  0.00    -0.363 OA
ATOM      8  H2  UNL     1      -2.219  -0.548  -1.867  1.00  0.00     0.213 HD
ENDBRANCH   4   7
BRANCH   4   9
HETATM    9  C12 UNL     1      -3.741   0.051  -0.023  1.00  0.00     0.020 C 
HETATM   10  C13 UNL     1      -4.127  -1.365   0.309  1.00  0.00     0.019 C 
HETATM   11  C14 UNL     1      -5.634  -1.586   0.200  1.00  0.00    -0.013 C 
HETATM   12  C15 UNL     1      -6.250  -0.630   1.210  1.00  0.00     0.009 C 
HETATM   13  C19 UNL     1      -6.044  -1.292  -1.212  1.00  0.00     0.009 C 
HETATM   14  C16 UNL     1      -5.895   0.779   0.856  1.00  0.00    -0.013 C 
HETATM   15  C17 UNL     1      -6.412   1.103  -0.537  1.00  0.00     0.009 C 
HETATM   16  C21 UNL     1      -4.415   1.022   0.920  1.00  0.00     0.019 C 
HETATM   17  C18 UNL     1      -5.743   0.166  -1.502  1.00  0.00    -0.013 C 
HETATM   18  C20 UNL     1      -4.263   0.380  -1.415  1.00  0.00     0.019 C 
ENDBRANCH   4   9
BRANCH   1  19
HETATM   19  C7  UNL     1       1.555   1.556   0.443  1.00  0.00     0.137 C 
BRANCH  19  20
HETATM   20  C6  UNL     1       2.700   0.617   0.455  1.00  0.00     0.220 C 
HETATM   21  N2  UNL     1       3.981   1.079   0.778  1.00  0.00    -0.361 N 
ATOM     22  H2  UNL     1       4.085   2.068   1.003  1.00  0.00     0.162 HD
HETATM   23  O1  UNL     1       2.495  -0.577   0.175  1.00  0.00    -0.274 OA
BRANCH  21  24
HETATM   24  C5  UNL     1       5.170   0.251   0.816  1.00  0.00     0.127 C 
BRANCH  24  25
HETATM   25  C4  UNL     1       5.488  -0.348  -0.505  1.00  0.00     0.064 C 
BRANCH  25  26
HETATM   26  C3  UNL     1       6.672  -1.227  -0.602  1.00  0.00     0.058 C 
BRANCH  26  27
HETATM   27  N1  UNL     1       7.950  -0.735  -0.308  1.00  0.00    -0.402 N 
HETATM   28  C1  UNL     1       8.292  -0.415   1.026  1.00  0.00     0.148 C 
HETATM   29  C2  UNL     1       8.490   0.194  -1.275  1.00  0.00     0.148 C 
ENDBRANCH  26  27
ENDBRANCH  25  26
ENDBRANCH  24  25
ENDBRANCH  21  24
ENDBRANCH  19  20
ENDBRANCH   1  19
TORSDOF 8
