REMARK  8 active torsions:
REMARK  status: ('A' for Active; 'I' for Inactive)
REMARK    1  A    between atoms: C2_2  and  C3_3 
REMARK    2  A    between atoms: C5_5  and  C6_6 
REMARK    3  A    between atoms: C6_6  and  N1_7 
REMARK    4  A    between atoms: N1_7  and  S1_9 
REMARK    5  A    between atoms: S1_9  and  C7_12 
REMARK    6  A    between atoms: C8_15  and  C9_16 
REMARK    7  A    between atoms: C10_17  and  C11_18 
REMARK    8  A    between atoms: C16_23  and  O3_24 
ROOT
HETATM    1  C7  UNL     1       1.366   2.456   0.801  1.00  0.00     0.267 A 
HETATM    2  N2  UNL     1       0.143   1.941   0.599  1.00  0.00    -0.324 N 
ATOM      3  H2  UNL     1      -0.128   1.346  -0.184  1.00  0.00     0.169 HD
HETATM    4  C8  UNL     1      -0.661   2.333   1.589  1.00  0.00     0.057 A 
HETATM    5  C19 UNL     1       0.159   3.121   2.408  1.00  0.00     0.174 A 
HETATM    6  O4  UNL     1       1.362   3.168   1.901  1.00  0.00    -0.293 OA
ENDROOT
BRANCH   4   7
HETATM    7  C9  UNL     1      -2.056   2.083   1.879  1.00  0.00     0.028 C 
HETATM    8  C10 UNL     1      -2.885   1.369   1.186  1.00  0.00    -0.015 C 
BRANCH   8   9
HETATM    9  C11 UNL     1      -2.717   0.616  -0.048  1.00  0.00     0.042 C 
HETATM   10  C12 UNL     1      -3.619   1.023  -1.138  1.00  0.00    -0.079 C 
HETATM   11  C13 UNL     1      -4.156   2.419  -1.256  1.00  0.00     0.044 C 
HETATM   12  C14 UNL     1      -3.971   0.131  -2.047  1.00  0.00    -0.021 C 
HETATM   13  C15 UNL     1      -3.557  -1.280  -2.109  1.00  0.00     0.059 C 
HETATM   14  C16 UNL     1      -2.576  -1.580  -1.036  1.00  0.00     0.126 C 
HETATM   15  C17 UNL     1      -3.039  -0.847   0.231  1.00  0.00     0.022 C 
HETATM   16  C18 UNL     1      -2.258  -1.410   1.366  1.00  0.00     0.014 C 
BRANCH  14  17
HETATM   17  O3  UNL     1      -2.587  -2.945  -0.783  1.00  0.00    -0.395 OA
ATOM     18  H3  UNL     1      -1.959  -3.137  -0.096  1.00  0.00     0.210 HD
ENDBRANCH  14  17
ENDBRANCH   8   9
ENDBRANCH   4   7
BRANCH   1  19
HETATM   19  S1  UNL     1       2.792   2.252  -0.200  1.00  0.00     0.298 S 
HETATM   20  O1  UNL     1       2.306   2.082  -1.615  1.00  0.00    -0.197 OA
HETATM   21  O2  UNL     1       3.631   3.487  -0.083  1.00  0.00    -0.197 OA
BRANCH  19  22
HETATM   22  N1  UNL     1       3.632   0.872   0.361  1.00  0.00    -0.312 N 
ATOM     23  H1  UNL     1       4.582   0.902   0.731  1.00  0.00     0.172 HD
BRANCH  22  24
HETATM   24  C6  UNL     1       2.860  -0.330   0.257  1.00  0.00     0.137 C 
BRANCH  24  25
HETATM   25  C5  UNL     1       3.602  -1.541   0.752  1.00  0.00     0.012 A 
HETATM   26  C3  UNL     1       4.895  -1.954   0.108  1.00  0.00     0.013 A 
HETATM   27  C4  UNL     1       3.659  -2.756  -0.083  1.00  0.00     0.015 A 
BRANCH  26  28
HETATM   28  C2  UNL     1       5.388  -1.229  -1.099  1.00  0.00    -0.032 C 
HETATM   29  C1  UNL     1       5.583  -1.856  -2.254  1.00  0.00     0.007 C 
ENDBRANCH  26  28
ENDBRANCH  24  25
ENDBRANCH  22  24
ENDBRANCH  19  22
ENDBRANCH   1  19
TORSDOF 8
