REMARK  2 active torsions:
REMARK  status: ('A' for Active; 'I' for Inactive)
REMARK    1  A    between atoms: C2_2  and  C3_3 
REMARK    2  A    between atoms: N2_11  and  N3_12 
ROOT
HETATM    1  C3  UNL     1      -0.829   0.183  -0.218  1.00  0.00     0.058 A 
HETATM    2  C4  UNL     1      -0.398   1.253   0.510  1.00  0.00    -0.034 A 
HETATM    3  C5  UNL     1      -1.237   2.321   1.070  1.00  0.00     0.050 C 
HETATM    4  C6  UNL     1       0.981   1.326   0.746  1.00  0.00     0.035 A 
HETATM    5  C7  UNL     1       1.796   0.349   0.249  1.00  0.00     0.026 A 
HETATM    6  C8  UNL     1       3.280   0.404   0.480  1.00  0.00     0.070 C 
HETATM    7  N1  UNL     1       1.293  -0.684  -0.465  1.00  0.00    -0.281 N 
HETATM    8  C9  UNL     1       2.161  -1.744  -0.996  1.00  0.00     0.179 C 
HETATM    9  N2  UNL     1      -0.001  -0.775  -0.701  1.00  0.00    -0.205 N 
ENDROOT
BRANCH   9  10
HETATM   10  N3  UNL     1      -0.536  -1.846  -1.450  1.00  0.00    -0.324 N 
ATOM     11  H32 UNL     1      -1.537  -1.916  -1.633  1.00  0.00     0.178 HD
ATOM     12  H31 UNL     1       0.087  -2.567  -1.814  1.00  0.00     0.178 HD
ENDBRANCH   9  10
BRANCH   1  13
HETATM   13  C2  UNL     1      -2.283   0.044  -0.507  1.00  0.00     0.057 C 
HETATM   14  C1  UNL     1      -3.055  -0.432   0.692  1.00  0.00     0.011 C 
ENDBRANCH   1  13
TORSDOF 2
