REMARK  3 active torsions:
REMARK  status: ('A' for Active; 'I' for Inactive)
REMARK    1  A    between atoms: C2_2  and  C3_3 
REMARK    2  A    between atoms: C4_4  and  C5_5 
REMARK    3  A    between atoms: C5_5  and  N1_6 
ROOT
HETATM    1  C3  UNL     1       1.454  -0.254   0.350  1.00  0.00    -0.063 C 
HETATM    2  C4  UNL     1       0.296  -0.578   0.483  1.00  0.00    -0.075 C 
ENDROOT
BRANCH   1   3
HETATM    3  C2  UNL     1       2.876   0.118   0.188  1.00  0.00     0.174 A 
HETATM    4  C1  UNL     1       3.913  -0.839   0.782  1.00  0.00     0.064 C 
HETATM    5  N2  UNL     1       3.158   1.553   0.368  1.00  0.00    -0.330 N 
HETATM    6  C9  UNL     1       3.197   0.884  -0.963  1.00  0.00     0.260 A 
ATOM      7  H2  UNL     1       3.254   2.380   0.958  1.00  0.00     0.164 HD
HETATM    8  O1  UNL     1       3.416   1.135  -2.167  1.00  0.00    -0.270 OA
ENDBRANCH   1   3
BRANCH   2   9
HETATM    9  C5  UNL     1      -1.098  -0.995   0.648  1.00  0.00     0.329 C 
BRANCH   9  10
HETATM   10  N1  UNL     1      -1.918  -0.124  -0.130  1.00  0.00    -0.069 N 
HETATM   11  C6  UNL     1      -3.168  -0.842  -0.411  1.00  0.00     0.272 C 
HETATM   12  C7  UNL     1      -1.341   0.314  -1.360  1.00  0.00     0.272 C 
HETATM   13  C8  UNL     1      -2.323   1.052   0.652  1.00  0.00     0.272 C 
ENDBRANCH   9  10
ENDBRANCH   2   9
TORSDOF 3
