REMARK  3 active torsions:
REMARK  status: ('A' for Active; 'I' for Inactive)
REMARK    1  A    between atoms: C1_1  and  C7_13 
REMARK    2  A    between atoms: N1_2  and  N2_4 
REMARK    3  A    between atoms: N2_4  and  C2_6 
ROOT
HETATM    1  N2  UNL     1      -0.183   0.016   0.102  1.00  0.00    -0.286 N 
ATOM      2  H2  UNL     1       0.414   0.556  -0.524  1.00  0.00     0.188 HD
ENDROOT
BRANCH   1   3
HETATM    3  N1  UNL     1       0.359  -0.801   1.040  1.00  0.00    -0.308 N 
HETATM    4  C1  UNL     1       1.565  -1.103   1.241  1.00  0.00     0.144 C 
ATOM      5  H1  UNL     1      -0.309  -1.235   1.677  1.00  0.00     0.186 HD
BRANCH   4   6
HETATM    6  C7  UNL     1       2.723  -0.638   0.496  1.00  0.00     0.091 A 
HETATM    7  C8  UNL     1       2.758   0.220  -0.574  1.00  0.00     0.040 A 
HETATM    8  C9  UNL     1       4.092   0.390  -0.977  1.00  0.00     0.027 A 
HETATM    9  C10 UNL     1       4.798  -0.398  -0.100  1.00  0.00     0.142 A 
HETATM   10  O1  UNL     1       3.992  -0.972   0.729  1.00  0.00    -0.321 OA
ENDBRANCH   4   6
ENDBRANCH   1   3
BRANCH   1  11
HETATM   11  C2  UNL     1      -1.483   0.097   0.017  1.00  0.00     0.119 A 
HETATM   12  C3  UNL     1      -2.104   0.903  -0.907  1.00  0.00     0.050 A 
HETATM   13  C4  UNL     1      -3.477   1.013  -1.025  1.00  0.00     0.005 A 
HETATM   14  C5  UNL     1      -4.250   0.267  -0.162  1.00  0.00     0.017 A 
HETATM   15  C6  UNL     1      -3.623  -0.539   0.762  1.00  0.00     0.089 A 
HETATM   16  N3  UNL     1      -2.290  -0.618   0.845  1.00  0.00    -0.351 N 
ATOM     17  H3  UNL     1      -1.870  -1.229   1.546  1.00  0.00     0.166 HD
ENDBRANCH   1  11
TORSDOF 3
