REMARK  3 active torsions:
REMARK  status: ('A' for Active; 'I' for Inactive)
REMARK       I    between atoms: C2_2  and  N1_4 
REMARK    1  A    between atoms: C3_6  and  S1_8 
REMARK    2  A    between atoms: S1_8  and  C4_9 
REMARK    3  A    between atoms: C4_9  and  C6_11 
ROOT
HETATM    1  C1  UNL     1       4.617  -0.775   0.293  1.00  0.00     0.117 C 
HETATM    2  C2  UNL     1       3.677   0.375   0.261  1.00  0.00     0.219 C 
HETATM    3  O1  UNL     1       4.002   1.432  -0.303  1.00  0.00    -0.274 OA
HETATM    4  N1  UNL     1       2.413   0.218   0.891  1.00  0.00    -0.310 N 
ATOM      5  H1  UNL     1       2.378  -0.011   1.884  1.00  0.00     0.170 HD
HETATM    6  C3  UNL     1       1.294   0.360   0.230  1.00  0.00     0.157 C 
HETATM    7  N2  UNL     1       1.255   0.674  -1.142  1.00  0.00    -0.075 NA
ENDROOT
BRANCH   6   8
HETATM    8  S1  UNL     1      -0.199   0.128   1.187  1.00  0.00    -0.085 SA
BRANCH   8   9
HETATM    9  C4  UNL     1      -1.679   0.347   0.211  1.00  0.00     0.120 C 
HETATM   10  C5  UNL     1      -1.754  -0.772  -0.829  1.00  0.00     0.030 C 
BRANCH   9  11
HETATM   11  C6  UNL     1      -2.856   0.224   1.114  1.00  0.00     0.136 C 
HETATM   12  C7  UNL     1      -4.258   0.309   0.613  1.00  0.00     0.092 C 
HETATM   13  O2  UNL     1      -2.716   0.048   2.311  1.00  0.00    -0.297 OA
ENDBRANCH   9  11
ENDBRANCH   8   9
ENDBRANCH   6   8
TORSDOF 3
