REMARK  3 active torsions:
REMARK  status: ('A' for Active; 'I' for Inactive)
REMARK    1  A    between atoms: C1_1  and  C6_14 
REMARK    2  A    between atoms: N1_2  and  N2_4 
REMARK    3  A    between atoms: N2_4  and  C2_6 
ROOT
HETATM    1  C1  UNL     1      -0.990   1.013   0.080  1.00  0.00     0.118 C 
HETATM    2  N1  UNL     1      -0.105   0.461   0.838  1.00  0.00    -0.309 N 
ATOM      3  H1  UNL     1      -0.313  -0.456   1.234  1.00  0.00     0.186 HD
ENDROOT
BRANCH   2   4
HETATM    4  N2  UNL     1       1.105   1.042   1.142  1.00  0.00    -0.285 N 
ATOM      5  H2  UNL     1       1.093   1.898   1.697  1.00  0.00     0.188 HD
BRANCH   4   6
HETATM    6  C2  UNL     1       2.251   0.583   0.776  1.00  0.00     0.135 A 
HETATM    7  C3  UNL     1       3.399   1.245   1.137  1.00  0.00     0.137 A 
HETATM    8  N3  UNL     1       4.625   0.781   0.763  1.00  0.00    -0.371 N 
HETATM    9  C4  UNL     1       4.747  -0.339   0.029  1.00  0.00     0.104 A 
ATOM     10  H3  UNL     1       5.462   1.291   1.044  1.00  0.00     0.164 HD
HETATM   11  C5  UNL     1       3.586  -0.993  -0.326  1.00  0.00     0.106 A 
HETATM   12  N4  UNL     1       2.353  -0.538   0.043  1.00  0.00    -0.349 N 
ATOM     13  H4  UNL     1       1.514  -1.046  -0.236  1.00  0.00     0.167 HD
ENDBRANCH   4   6
ENDBRANCH   2   4
BRANCH   1  14
HETATM   14  C6  UNL     1      -2.245   0.335  -0.194  1.00  0.00    -0.017 A 
HETATM   15  C7  UNL     1      -3.217   0.871  -0.989  1.00  0.00     0.030 A 
HETATM   16  C8  UNL     1      -4.372   0.140  -1.182  1.00  0.00     0.088 A 
HETATM   17  N5  UNL     1      -4.600  -1.058  -0.643  1.00  0.00    -0.375 N 
HETATM   18  C9  UNL     1      -3.649  -1.593   0.140  1.00  0.00     0.088 A 
ATOM     19  H5  UNL     1      -5.473  -1.555  -0.821  1.00  0.00     0.164 HD
HETATM   20  C10 UNL     1      -2.493  -0.910   0.360  1.00  0.00     0.030 A 
ENDBRANCH   1  14
TORSDOF 3
