REMARK  2 active torsions:
REMARK  status: ('A' for Active; 'I' for Inactive)
REMARK       I    between atoms: C2_2  and  N1_4 
REMARK    1  A    between atoms: C3_6  and  C4_7 
REMARK    2  A    between atoms: C3_6  and  N3_18 
ROOT
HETATM    1  C4  UNL     1       0.496  -0.631   0.352  1.00  0.00     0.080 C 
HETATM    2  C5  UNL     1       0.699  -0.951  -1.105  1.00  0.00     0.244 C 
HETATM    3  N2  UNL     1       1.917  -1.632  -1.390  1.00  0.00    -0.074 N 
ATOM      4  H21 UNL     1       2.367  -1.260  -2.227  1.00  0.00     0.277 HD
ATOM      5  H22 UNL     1       1.747  -2.584  -1.714  1.00  0.00     0.277 HD
HETATM    6  C6  UNL     1       2.806  -1.610  -0.258  1.00  0.00     0.241 C 
HETATM    7  C7  UNL     1       2.897  -0.203   0.245  1.00  0.00    -0.016 C 
HETATM    8  C8  UNL     1       4.170   0.169   0.942  1.00  0.00     0.011 C 
HETATM    9  C9  UNL     1       4.154   1.483   0.203  1.00  0.00     0.002 C 
HETATM   10  C10 UNL     1       3.209   0.839  -0.802  1.00  0.00     0.011 C 
HETATM   11  C11 UNL     1       1.626   0.130   0.965  1.00  0.00     0.025 C 
ENDROOT
BRANCH   1  12
HETATM   12  C3  UNL     1      -0.812   0.083   0.475  1.00  0.00     0.087 C 
HETATM   13  N1  UNL     1      -0.812   1.254   0.952  1.00  0.00    -0.317 N 
HETATM   14  C2  UNL     1      -1.888   2.105   1.160  1.00  0.00     0.218 C 
ATOM     15  H1  UNL     1       0.101   1.622   1.220  1.00  0.00     0.170 HD
HETATM   16  C1  UNL     1      -2.064   3.333   0.349  1.00  0.00     0.117 C 
HETATM   17  O1  UNL     1      -2.745   1.860   2.042  1.00  0.00    -0.274 OA
BRANCH  12  18
HETATM   18  N3  UNL     1      -1.962  -0.631   0.037  1.00  0.00    -0.370 N 
HETATM   19  C12 UNL     1      -2.448  -1.924   0.541  1.00  0.00     0.124 C 
HETATM   20  C13 UNL     1      -3.954  -1.762   0.575  1.00  0.00     0.021 C 
HETATM   21  C14 UNL     1      -4.233  -0.574  -0.300  1.00  0.00     0.021 C 
HETATM   22  C15 UNL     1      -2.921  -0.271  -0.992  1.00  0.00     0.124 C 
ENDBRANCH  12  18
ENDBRANCH   1  12
TORSDOF 2
