REMARK  4 active torsions:
REMARK  status: ('A' for Active; 'I' for Inactive)
REMARK    1  A    between atoms: C6_6  and  C7_7 
REMARK    2  A    between atoms: C8_10  and  C9_11 
REMARK    3  A    between atoms: C9_11  and  C10_12 
REMARK    4  A    between atoms: C13_18  and  C14_19 
ROOT
HETATM    1  C7  UNL     1      -0.108   0.208   0.286  1.00  0.00     0.020 A 
HETATM    2  N1  UNL     1       0.621  -0.725   0.958  1.00  0.00    -0.360 N 
ATOM      3  H1  UNL     1       0.284  -1.688   0.966  1.00  0.00     0.165 HD
HETATM    4  C8  UNL     1       1.760  -0.445   1.610  1.00  0.00     0.041 A 
HETATM    5  C11 UNL     1       2.194   0.877   1.580  1.00  0.00     0.057 A 
HETATM    6 CL1  UNL     1       3.672   1.255   2.424  1.00  0.00    -0.082 Cl
HETATM    7  C12 UNL     1       1.462   1.836   0.901  1.00  0.00     0.035 A 
HETATM    8  C13 UNL     1       0.295   1.532   0.236  1.00  0.00    -0.029 A 
ENDROOT
BRANCH   1   9
HETATM    9  C6  UNL     1      -1.388  -0.170  -0.382  1.00  0.00     0.040 C 
HETATM   10  C2  UNL     1      -1.399  -1.675  -0.529  1.00  0.00    -0.009 C 
HETATM   11  C1  UNL     1      -0.535  -2.132  -1.682  1.00  0.00     0.011 C 
HETATM   12  C3  UNL     1      -2.855  -1.994  -0.759  1.00  0.00     0.005 C 
HETATM   13  C4  UNL     1      -3.606  -0.943  -0.016  1.00  0.00     0.001 C 
HETATM   14  C5  UNL     1      -2.556  -0.012   0.586  1.00  0.00     0.011 C 
ENDBRANCH   1   9
BRANCH   8  15
HETATM   15  C14 UNL     1      -0.460   2.580  -0.505  1.00  0.00     0.021 A 
HETATM   16  C15 UNL     1      -0.075   3.989  -0.476  1.00  0.00     0.010 A 
HETATM   17  C16 UNL     1       0.217   3.225  -1.691  1.00  0.00     0.010 A 
ENDBRANCH   8  15
BRANCH   4  18
HETATM   18  C9  UNL     1       2.565  -1.463   2.354  1.00  0.00     0.172 C 
BRANCH  18  19
HETATM   19  C10 UNL     1       3.751  -1.866   1.555  1.00  0.00     0.178 C 
HETATM   20  O1  UNL     1       3.970  -1.422   0.384  1.00  0.00    -0.648 OA
HETATM   21  O2  UNL     1       4.676  -2.753   2.065  1.00  0.00    -0.648 OA
ENDBRANCH  18  19
ENDBRANCH   4  18
TORSDOF 4
