REMARK  4 active torsions:
REMARK  status: ('A' for Active; 'I' for Inactive)
REMARK       I    between atoms: C1_2  and  N1_3 
REMARK    1  A    between atoms: C1_2  and  C13_18 
REMARK    2  A    between atoms: N1_3  and  C2_5 
REMARK    3  A    between atoms: C7_11  and  O2_12 
REMARK    4  A    between atoms: O2_12  and  C8_13 
ROOT
HETATM    1  C2  UNL     1       0.509  -2.159  -0.055  1.00  0.00     0.068 A 
HETATM    2  C3  UNL     1       0.281  -3.490   0.136  1.00  0.00     0.035 A 
HETATM    3  C4  UNL     1       1.270  -4.466   0.172  1.00  0.00     0.044 A 
HETATM    4  C5  UNL     1       2.552  -4.067   0.006  1.00  0.00     0.119 A 
HETATM    5  F1  UNL     1       3.554  -4.986   0.034  1.00  0.00    -0.206 F 
HETATM    6  C6  UNL     1       2.849  -2.763  -0.187  1.00  0.00     0.081 A 
HETATM    7  C7  UNL     1       1.864  -1.752  -0.228  1.00  0.00     0.099 A 
ENDROOT
BRANCH   1   8
HETATM    8  N1  UNL     1      -0.443  -1.128  -0.100  1.00  0.00    -0.324 N 
HETATM    9  C1  UNL     1      -1.827  -1.286   0.044  1.00  0.00     0.226 C 
HETATM   10  O1  UNL     1      -2.386  -2.372   0.230  1.00  0.00    -0.273 OA
ATOM     11  H1  UNL     1      -0.096  -0.181  -0.251  1.00  0.00     0.169 HD
BRANCH   9  12
HETATM   12  C13 UNL     1      -2.753  -0.094  -0.023  1.00  0.00     0.078 C 
HETATM   13  C14 UNL     1      -2.355   0.881   1.093  1.00  0.00     0.014 C 
HETATM   14  C15 UNL     1      -3.131   2.159   0.882  1.00  0.00     0.001 C 
HETATM   15  C16 UNL     1      -4.621   1.927   0.848  1.00  0.00     0.000 C 
HETATM   16  C17 UNL     1      -5.029   0.743   0.037  1.00  0.00     0.001 C 
HETATM   17  C18 UNL     1      -4.184  -0.482   0.273  1.00  0.00     0.014 C 
ENDBRANCH   9  12
ENDBRANCH   1   8
BRANCH   7  18
HETATM   18  O2  UNL     1       2.201  -0.510  -0.417  1.00  0.00    -0.344 OA
BRANCH  18  19
HETATM   19  C8  UNL     1       2.535   0.724  -0.604  1.00  0.00     0.129 C 
HETATM   20  C9  UNL     1       3.315   0.987  -1.916  1.00  0.00     0.032 C 
HETATM   21  C10 UNL     1       4.165   2.177  -1.617  1.00  0.00     0.002 C 
HETATM   22  C11 UNL     1       3.862   2.622  -0.209  1.00  0.00     0.002 C 
HETATM   23  C12 UNL     1       3.470   1.342   0.456  1.00  0.00     0.032 C 
ENDBRANCH  18  19
ENDBRANCH   7  18
TORSDOF 4
