REMARK  4 active torsions:
REMARK  status: ('A' for Active; 'I' for Inactive)
REMARK    1  A    between atoms: C4_5  and  C5_6 
REMARK    2  A    between atoms: C6_7  and  C7_8 
REMARK    3  A    between atoms: C11_14  and  C12_15 
REMARK       I    between atoms: C12_15  and  N2_17 
REMARK    4  A    between atoms: N2_17  and  C13_19 
ROOT
HETATM    1  C1  UNL     1       7.158   1.489  -0.581  1.00  0.00     0.019 C 
HETATM    2  C2  UNL     1       5.999   1.442  -0.917  1.00  0.00    -0.065 C 
HETATM    3  C3  UNL     1       4.618   1.396  -1.292  1.00  0.00     0.086 C 
HETATM    4 CL1  UNL     1       4.041   2.523  -2.491  1.00  0.00    -0.074 Cl
HETATM    5  C4  UNL     1       3.774   0.502  -0.733  1.00  0.00     0.033 C 
ENDROOT
BRANCH   5   6
HETATM    6  C5  UNL     1       2.393   0.467  -1.119  1.00  0.00     0.005 C 
HETATM    7  C6  UNL     1       1.428  -0.299  -0.710  1.00  0.00     0.030 C 
BRANCH   7   8
HETATM    8  C7  UNL     1       1.500  -1.358   0.275  1.00  0.00     0.047 A 
HETATM    9  N1  UNL     1       2.696  -1.806   0.725  1.00  0.00    -0.365 N 
HETATM   10  C8  UNL     1       2.814  -2.799   1.602  1.00  0.00     0.088 A 
ATOM     11  H1  UNL     1       3.545  -1.362   0.376  1.00  0.00     0.165 HD
HETATM   12  C9  UNL     1       1.704  -3.439   2.110  1.00  0.00     0.018 A 
HETATM   13  C10 UNL     1       0.475  -3.027   1.693  1.00  0.00     0.021 A 
HETATM   14  C11 UNL     1       0.361  -1.973   0.766  1.00  0.00     0.058 A 
BRANCH  14  15
HETATM   15  C12 UNL     1      -0.980  -1.508   0.473  1.00  0.00     0.254 C 
HETATM   16  O1  UNL     1      -1.847  -2.454   0.365  1.00  0.00    -0.268 OA
HETATM   17  N2  UNL     1      -1.462  -0.222   0.304  1.00  0.00    -0.352 N 
ATOM     18  H2  UNL     1      -0.810   0.557   0.392  1.00  0.00     0.163 HD
BRANCH  17  19
HETATM   19  C13 UNL     1      -2.846   0.068   0.009  1.00  0.00     0.084 C 
HETATM   20  C14 UNL     1      -3.369   1.146   0.925  1.00  0.00     0.025 C 
HETATM   21  C15 UNL     1      -4.731   1.421   0.270  1.00  0.00     0.002 C 
HETATM   22  C16 UNL     1      -4.524   1.117  -1.217  1.00  0.00     0.002 C 
HETATM   23  C17 UNL     1      -3.045   0.728  -1.342  1.00  0.00     0.025 C 
ENDBRANCH  17  19
ENDBRANCH  14  15
ENDBRANCH   7   8
ENDBRANCH   5   6
TORSDOF 4
