REMARK  7 active torsions:
REMARK  status: ('A' for Active; 'I' for Inactive)
REMARK       I    between atoms: N1_2  and  C2_4 
REMARK    1  A    between atoms: C2_4  and  C3_6 
REMARK    2  A    between atoms: C4_8  and  O3_9 
REMARK    3  A    between atoms: C6_12  and  C7_13 
REMARK    4  A    between atoms: C7_13  and  N2_14 
REMARK    5  A    between atoms: C7_13  and  C13_27 
REMARK       I    between atoms: N2_14  and  C8_16 
REMARK    6  A    between atoms: C8_16  and  C9_18 
REMARK    7  A    between atoms: C11_20  and  N3_21 
ROOT
HETATM    1  C7  UNL     1       0.403  -0.517   0.146  1.00  0.00     0.120 C 
ENDROOT
BRANCH   1   2
HETATM    2  C6  UNL     1       1.332   0.199  -0.733  1.00  0.00     0.188 C 
HETATM    3  C3  UNL     1       1.691   1.604  -0.407  1.00  0.00     0.249 C 
HETATM    4  O2  UNL     1       2.791   1.756  -1.298  1.00  0.00    -0.321 OA
HETATM    5  C4  UNL     1       3.297   0.475  -1.506  1.00  0.00     0.413 C 
HETATM    6  O4  UNL     1       2.623  -0.376  -0.593  1.00  0.00    -0.328 OA
BRANCH   3   7
HETATM    7  C2  UNL     1       2.212   1.806   0.948  1.00  0.00     0.249 C 
HETATM    8  N1  UNL     1       3.580   2.094   1.149  1.00  0.00    -0.363 N 
HETATM    9  C1  UNL     1       4.121   2.299   2.500  1.00  0.00     0.149 C 
ATOM     10  H1  UNL     1       4.202   2.161   0.344  1.00  0.00     0.162 HD
HETATM   11  O1  UNL     1       1.464   1.730   1.945  1.00  0.00    -0.271 OA
ENDBRANCH   3   7
BRANCH   5  12
HETATM   12  O3  UNL     1       3.008  -0.023  -2.764  1.00  0.00    -0.344 OA
HETATM   13  C5  UNL     1       4.138  -0.446  -3.452  1.00  0.00     0.207 C 
ENDBRANCH   5  12
ENDBRANCH   1   2
BRANCH   1  14
HETATM   14  N2  UNL     1      -0.955  -0.073   0.124  1.00  0.00    -0.351 N 
HETATM   15  C8  UNL     1      -1.796   0.191   1.222  1.00  0.00     0.247 C 
HETATM   16  O5  UNL     1      -1.408   0.049   2.404  1.00  0.00    -0.271 OA
ATOM     17  H2  UNL     1      -1.365   0.070  -0.799  1.00  0.00     0.163 HD
BRANCH  15  18
HETATM   18  C9  UNL     1      -3.195   0.653   1.052  1.00  0.00     0.215 C 
HETATM   19  C10 UNL     1      -4.152  -0.371   1.648  1.00  0.00     0.076 C 
HETATM   20  C11 UNL     1      -5.363  -0.221   0.770  1.00  0.00     0.210 C 
HETATM   21  C12 UNL     1      -4.969   0.926  -0.144  1.00  0.00     0.201 C 
HETATM   22  O6  UNL     1      -3.579   0.794  -0.255  1.00  0.00    -0.374 OA
BRANCH  20  23
HETATM   23  N3  UNL     1      -6.546   0.146   1.503  1.00  0.00    -0.073 N 
ATOM     24  H33 UNL     1      -6.725  -0.513   2.260  1.00  0.00     0.274 HD
ATOM     25  H32 UNL     1      -6.387   0.991   2.052  1.00  0.00     0.274 HD
ATOM     26  H31 UNL     1      -7.368   0.248   0.907  1.00  0.00     0.274 HD
ENDBRANCH  20  23
ENDBRANCH  15  18
ENDBRANCH   1  14
BRANCH   1  27
HETATM   27  C13 UNL     1       0.385  -2.013  -0.202  1.00  0.00     0.003 C 
HETATM   28  C14 UNL     1      -0.042  -2.263  -1.606  1.00  0.00     0.011 C 
HETATM   29  C15 UNL     1       1.675  -2.687   0.124  1.00  0.00     0.011 C 
ENDBRANCH   1  27
TORSDOF 7
