REMARK  9 active torsions:
REMARK  status: ('A' for Active; 'I' for Inactive)
REMARK    1  A    between atoms: C5_6  and  N1_7 
REMARK    2  A    between atoms: N1_7  and  C7_9 
REMARK    3  A    between atoms: C7_9  and  C8_10 
REMARK    4  A    between atoms: C8_10  and  C9_11 
REMARK    5  A    between atoms: C9_11  and  O2_12 
REMARK    6  A    between atoms: O2_12  and  C10_13 
REMARK    7  A    between atoms: C12_15  and  O3_16 
REMARK    8  A    between atoms: C16_22  and  O5_23 
REMARK    9  A    between atoms: C17_25  and  O6_26 
ROOT
HETATM    1  C9  UNL     1       1.057  -1.172   1.254  1.00  0.00     0.169 C 
ENDROOT
BRANCH   1   2
HETATM    2  C8  UNL     1       0.236   0.041   0.846  1.00  0.00     0.046 C 
BRANCH   2   3
HETATM    3  C7  UNL     1      -1.162  -0.453   0.579  1.00  0.00     0.119 C 
BRANCH   3   4
HETATM    4  N1  UNL     1      -2.107   0.578   0.190  1.00  0.00    -0.407 N 
HETATM    5  C6  UNL     1      -2.121   1.675   1.094  1.00  0.00     0.143 C 
BRANCH   4   6
HETATM    6  C5  UNL     1      -3.302   0.069  -0.325  1.00  0.00     0.138 C 
HETATM    7  C3  UNL     1      -4.296  -0.595   0.508  1.00  0.00     0.143 C 
HETATM    8  O1  UNL     1      -5.572  -0.257   0.023  1.00  0.00    -0.377 OA
HETATM    9  C4  UNL     1      -4.336  -0.432   1.967  1.00  0.00     0.042 C 
HETATM   10  C2  UNL     1      -5.434   0.269  -1.233  1.00  0.00     0.148 C 
HETATM   11  C1  UNL     1      -5.549  -0.685  -2.370  1.00  0.00     0.042 C 
HETATM   12  C17 UNL     1      -4.087   0.987  -1.218  1.00  0.00     0.171 C 
BRANCH  12  13
HETATM   13  O6  UNL     1      -4.313   2.246  -0.742  1.00  0.00    -0.391 OA
ATOM     14  H6  UNL     1      -3.475   2.693  -0.733  1.00  0.00     0.210 HD
ENDBRANCH  12  13
ENDBRANCH   4   6
ENDBRANCH   3   4
ENDBRANCH   2   3
ENDBRANCH   1   2
BRANCH   1  15
HETATM   15  O2  UNL     1       2.383  -0.942   1.474  1.00  0.00    -0.385 OA
BRANCH  15  16
HETATM   16  C10 UNL     1       3.106  -0.525   0.381  1.00  0.00     0.132 C 
HETATM   17  C11 UNL     1       4.114  -1.623   0.021  1.00  0.00     0.067 C 
HETATM   18  C12 UNL     1       5.056  -1.162  -1.045  1.00  0.00     0.152 C 
HETATM   19  C13 UNL     1       5.628   0.213  -0.747  1.00  0.00     0.179 C 
HETATM   20  O4  UNL     1       6.155   0.278   0.512  1.00  0.00    -0.380 OA
HETATM   21  C16 UNL     1       4.454   1.194  -0.658  1.00  0.00     0.158 C 
HETATM   22  C14 UNL     1       5.165   0.446   1.444  1.00  0.00     0.178 C 
HETATM   23  C15 UNL     1       3.877   0.728   0.691  1.00  0.00     0.070 C 
BRANCH  18  24
HETATM   24  O3  UNL     1       4.465  -1.125  -2.288  1.00  0.00    -0.393 OA
ATOM     25  H3  UNL     1       5.063  -0.832  -2.965  1.00  0.00     0.210 HD
ENDBRANCH  18  24
BRANCH  21  26
HETATM   26  O5  UNL     1       4.971   2.458  -0.554  1.00  0.00    -0.392 OA
ATOM     27  H5  UNL     1       4.243   3.066  -0.499  1.00  0.00     0.210 HD
ENDBRANCH  21  26
ENDBRANCH  15  16
ENDBRANCH   1  15
TORSDOF 9
