REMARK  13 active torsions:
REMARK  status: ('A' for Active; 'I' for Inactive)
REMARK    1  A    between atoms: C2_2  and  C3_4 
REMARK    2  A    between atoms: C3_4  and  C4_5 
REMARK    3  A    between atoms: N2_9  and  C7_10 
REMARK    4  A    between atoms: C7_10  and  O1_11 
REMARK    5  A    between atoms: C7_10  and  C8_13 
REMARK    6  A    between atoms: C8_13  and  N3_14 
REMARK    7  A    between atoms: C8_13  and  S1_19 
REMARK    8  A    between atoms: N3_14  and  N4_16 
REMARK    9  A    between atoms: S1_19  and  C9_20 
REMARK   10  A    between atoms: C9_20  and  C10_21 
REMARK   11  A    between atoms: C10_21  and  O2_22 
REMARK   12  A    between atoms: C10_21  and  C11_24 
REMARK   13  A    between atoms: C11_24  and  O3_25 
ROOT
HETATM    1  C4  UNL     1      -2.993   0.366   0.316  1.00  0.00     0.115 C 
HETATM    2  C5  UNL     1      -3.266   1.386   1.320  1.00  0.00     0.082 C 
HETATM    3  N1  UNL     1      -3.457   2.216   2.110  1.00  0.00    -0.196 NA
HETATM    4  C6  UNL     1      -1.936  -0.550   0.866  1.00  0.00     0.161 C 
HETATM    5  N2  UNL     1      -0.650  -0.337   0.156  1.00  0.00    -0.356 N 
HETATM    6  C12 UNL     1      -0.603  -0.909  -1.155  1.00  0.00     0.135 C 
HETATM    7  C13 UNL     1      -1.274   0.067  -2.124  1.00  0.00     0.095 C 
HETATM    8  S2  UNL     1      -2.263   1.207  -1.166  1.00  0.00    -0.140 SA
ENDROOT
BRANCH   1   9
HETATM    9  C3  UNL     1      -4.166  -0.376  -0.184  1.00  0.00     0.074 C 
BRANCH   9  10
HETATM   10  C2  UNL     1      -4.996  -1.161   0.746  1.00  0.00     0.168 C 
HETATM   11  C1  UNL     1      -5.615  -0.332   1.818  1.00  0.00     0.045 C 
HETATM   12  F1  UNL     1      -4.425  -2.322   1.232  1.00  0.00    -0.250 F 
ENDBRANCH   9  10
ENDBRANCH   1   9
BRANCH   5  13
HETATM   13  C7  UNL     1       0.338   0.385   0.850  1.00  0.00     0.174 C 
BRANCH  13  14
HETATM   14  O1  UNL     1       0.077   0.790   2.060  1.00  0.00    -0.344 OA
ATOM     15  H1  UNL     1       0.744   1.278   2.529  1.00  0.00     0.219 HD
ENDBRANCH  13  14
BRANCH  13  16
HETATM   16  C8  UNL     1       1.655   0.757   0.394  1.00  0.00     0.135 C 
BRANCH  16  17
HETATM   17  N3  UNL     1       2.456   1.418   1.155  1.00  0.00    -0.297 N 
ATOM     18  H3  UNL     1       3.370   1.644   0.762  1.00  0.00     0.187 HD
BRANCH  17  19
HETATM   19  N4  UNL     1       2.222   1.851   2.428  1.00  0.00    -0.344 N 
ATOM     20  H42 UNL     1       1.303   1.616   2.804  1.00  0.00     0.176 HD
ATOM     21  H41 UNL     1       2.857   2.375   3.031  1.00  0.00     0.176 HD
ENDBRANCH  17  19
ENDBRANCH  16  17
BRANCH  16  22
HETATM   22  S1  UNL     1       2.294   0.371  -1.225  1.00  0.00    -0.104 SA
BRANCH  22  23
HETATM   23  C9  UNL     1       3.947   0.967  -1.494  1.00  0.00     0.114 C 
BRANCH  23  24
HETATM   24  C10 UNL     1       4.995   0.321  -0.653  1.00  0.00     0.151 C 
BRANCH  24  25
HETATM   25  O2  UNL     1       6.226   0.903  -0.991  1.00  0.00    -0.393 OA
ATOM     26  H2  UNL     1       6.894   0.491  -0.455  1.00  0.00     0.210 HD
ENDBRANCH  24  25
BRANCH  24  27
HETATM   27  C11 UNL     1       5.134  -1.159  -0.885  1.00  0.00     0.196 C 
BRANCH  27  28
HETATM   28  O3  UNL     1       6.178  -1.619  -0.053  1.00  0.00    -0.398 OA
ATOM     29  H3  UNL     1       6.266  -2.554  -0.199  1.00  0.00     0.209 HD
ENDBRANCH  27  28
ENDBRANCH  24  27
ENDBRANCH  23  24
ENDBRANCH  22  23
ENDBRANCH  16  22
ENDBRANCH  13  16
ENDBRANCH   5  13
TORSDOF 13
