REMARK  9 active torsions:
REMARK  status: ('A' for Active; 'I' for Inactive)
REMARK    1  A    between atoms: N1_2  and  C2_4 
REMARK    2  A    between atoms: C3_5  and  O1_6 
REMARK    3  A    between atoms: C7_13  and  C8_15 
REMARK    4  A    between atoms: C8_15  and  C9_16 
REMARK    5  A    between atoms: C8_15  and  O3_20 
REMARK    6  A    between atoms: C9_16  and  N3_17 
REMARK    7  A    between atoms: O3_20  and  C12_21 
REMARK    8  A    between atoms: C12_21  and  C13_23 
REMARK    9  A    between atoms: C13_23  and  N4_24 
ROOT
HETATM    1  C8  UNL     1      -0.620   1.035  -0.544  1.00  0.00     0.219 C 
ENDROOT
BRANCH   1   2
HETATM    2  C7  UNL     1      -1.661  -0.101  -0.666  1.00  0.00     0.231 C 
HETATM    3  C2  UNL     1      -1.853  -0.755   0.660  1.00  0.00     0.165 C 
HETATM    4  C3  UNL     1      -2.006  -2.230   0.617  1.00  0.00     0.146 C 
HETATM    5  C4  UNL     1      -2.703  -2.609  -0.679  1.00  0.00     0.058 C 
HETATM    6  C5  UNL     1      -1.780  -2.240  -1.786  1.00  0.00     0.118 C 
HETATM    7  C6  UNL     1      -2.440  -1.870  -3.095  1.00  0.00     0.216 C 
HETATM    8  N2  UNL     1      -1.236  -0.929  -1.722  1.00  0.00    -0.146 NA
HETATM    9  O2  UNL     1      -1.716  -0.672  -2.958  1.00  0.00    -0.298 OA
HETATM   10  F1  UNL     1      -2.842   0.521  -1.022  1.00  0.00    -0.218 F 
BRANCH   3  11
HETATM   11  N1  UNL     1      -2.937  -0.148   1.400  1.00  0.00    -0.415 N 
HETATM   12  C1  UNL     1      -3.003  -0.513   2.780  1.00  0.00     0.140 C 
ATOM     13  H1  UNL     1      -3.604   0.492   0.969  1.00  0.00     0.153 HD
ENDBRANCH   3  11
BRANCH   4  14
HETATM   14  O1  UNL     1      -2.760  -2.768   1.645  1.00  0.00    -0.393 OA
ATOM     15  H1  UNL     1      -2.858  -3.713   1.617  1.00  0.00     0.210 HD
ENDBRANCH   4  14
ENDBRANCH   1   2
BRANCH   1  16
HETATM   16  C9  UNL     1      -0.998   1.976   0.562  1.00  0.00     0.308 C 
BRANCH  16  17
HETATM   17  N3  UNL     1      -0.029   3.062   0.580  1.00  0.00     0.082 N 
HETATM   18  C10 UNL     1      -0.276   3.922   1.748  1.00  0.00     0.309 C 
HETATM   19  C11 UNL     1      -0.207   3.912  -0.603  1.00  0.00     0.309 C 
ENDBRANCH  16  17
ENDBRANCH   1  16
BRANCH   1  20
HETATM   20  O3  UNL     1       0.648   0.510  -0.275  1.00  0.00    -0.307 OA
BRANCH  20  21
HETATM   21  C12 UNL     1       1.774   0.593  -1.042  1.00  0.00     0.295 C 
HETATM   22  O4  UNL     1       1.708   1.203  -2.135  1.00  0.00    -0.262 OA
BRANCH  21  23
HETATM   23  C13 UNL     1       3.083   0.004  -0.666  1.00  0.00     0.210 C 
HETATM   24  C14 UNL     1       3.525   0.333   0.719  1.00  0.00     0.049 C 
HETATM   25  C15 UNL     1       4.361  -0.863   1.152  1.00  0.00     0.003 C 
HETATM   26  C16 UNL     1       4.206  -1.909   0.077  1.00  0.00     0.003 C 
HETATM   27  C17 UNL     1       2.893  -1.506  -0.586  1.00  0.00     0.049 C 
BRANCH  23  28
HETATM   28  N4  UNL     1       4.105   0.331  -1.643  1.00  0.00    -0.061 N 
ATOM     29  H43 UNL     1       3.826   0.055  -2.584  1.00  0.00     0.275 HD
ATOM     30  H42 UNL     1       4.175   1.338  -1.790  1.00  0.00     0.275 HD
ATOM     31  H41 UNL     1       5.005  -0.074  -1.385  1.00  0.00     0.275 HD
ENDBRANCH  23  28
ENDBRANCH  21  23
ENDBRANCH  20  21
ENDBRANCH   1  20
TORSDOF 9
