REMARK  10 active torsions:
REMARK  status: ('A' for Active; 'I' for Inactive)
REMARK    1  A    between atoms: O1_2  and  C2_3 
REMARK    2  A    between atoms: C2_3  and  C3_5 
REMARK    3  A    between atoms: C4_6  and  C5_7 
REMARK    4  A    between atoms: C6_8  and  C7_9 
REMARK    5  A    between atoms: C7_9  and  O3_10 
REMARK    6  A    between atoms: O3_10  and  S1_11 
REMARK    7  A    between atoms: C9_15  and  O6_16 
REMARK    8  A    between atoms: C10_18  and  O7_19 
REMARK    9  A    between atoms: C11_21  and  O8_22 
REMARK   10  A    between atoms: C12_24  and  C13_25 
ROOT
HETATM    1  C3  UNL     1      -2.051   0.233   0.755  1.00  0.00     0.126 C 
HETATM    2  C4  UNL     1      -0.581   0.073   0.471  1.00  0.00    -0.035 C 
HETATM    3  C9  UNL     1      -0.137  -1.305   0.285  1.00  0.00     0.179 C 
HETATM    4  C10 UNL     1      -1.179  -2.350   0.631  1.00  0.00     0.180 C 
HETATM    5  C11 UNL     1      -2.563  -2.084   0.231  1.00  0.00     0.157 C 
HETATM    6  C12 UNL     1      -2.864  -0.639  -0.122  1.00  0.00     0.063 C 
ENDROOT
BRANCH   2   7
HETATM    7  C5  UNL     1       0.181   1.113   0.482  1.00  0.00     0.004 C 
HETATM    8  C6  UNL     1       1.571   1.432   0.274  1.00  0.00     0.001 C 
BRANCH   8   9
HETATM    9  C7  UNL     1       2.555   0.419  -0.168  1.00  0.00     0.217 C 
BRANCH   9  10
HETATM   10  O3  UNL     1       3.860   1.018  -0.266  1.00  0.00    -0.272 OA
BRANCH  10  11
HETATM   11  S1  UNL     1       4.937  -0.150  -0.765  1.00  0.00     0.261 S 
HETATM   12  C8  UNL     1       6.598   0.205  -0.253  1.00  0.00     0.194 C 
HETATM   13  O4  UNL     1       4.531  -1.447  -0.104  1.00  0.00    -0.199 OA
HETATM   14  O5  UNL     1       4.829  -0.295  -2.251  1.00  0.00    -0.199 OA
ENDBRANCH  10  11
ENDBRANCH   9  10
ENDBRANCH   8   9
ENDBRANCH   2   7
BRANCH   1  15
HETATM   15  C2  UNL     1      -2.528   1.588   0.905  1.00  0.00     0.267 C 
HETATM   16  O2  UNL     1      -3.050   1.958   2.006  1.00  0.00    -0.265 OA
BRANCH  15  17
HETATM   17  O1  UNL     1      -2.457   2.529  -0.079  1.00  0.00    -0.326 OA
HETATM   18  C1  UNL     1      -2.915   3.861   0.041  1.00  0.00     0.213 C 
ENDBRANCH  15  17
ENDBRANCH   1  15
BRANCH   3  19
HETATM   19  O6  UNL     1       0.387  -1.658  -0.921  1.00  0.00    -0.389 OA
ATOM     20  H6  UNL     1       0.676  -2.555  -1.042  1.00  0.00     0.210 HD
ENDBRANCH   3  19
BRANCH   6  21
HETATM   21  C13 UNL     1      -2.870  -0.414  -1.587  1.00  0.00     0.230 C 
HETATM   22  F1  UNL     1      -3.344   0.808  -1.963  1.00  0.00    -0.255 F 
ENDBRANCH   6  21
BRANCH   4  23
HETATM   23  O7  UNL     1      -1.123  -2.503   2.038  1.00  0.00    -0.390 OA
ATOM     24  H7  UNL     1      -1.776  -3.158   2.255  1.00  0.00     0.210 HD
ENDBRANCH   4  23
BRANCH   5  25
HETATM   25  O8  UNL     1      -3.508  -2.489   1.181  1.00  0.00    -0.392 OA
ATOM     26  H8  UNL     1      -4.405  -2.317   0.922  1.00  0.00     0.210 HD
ENDBRANCH   5  25
TORSDOF 10
