REMARK  10 active torsions:
REMARK  status: ('A' for Active; 'I' for Inactive)
REMARK    1  A    between atoms: C2_2  and  C3_3 
REMARK    2  A    between atoms: C3_3  and  C4_4 
REMARK    3  A    between atoms: C4_4  and  C5_5 
REMARK       I    between atoms: C5_5  and  N1_7 
REMARK    4  A    between atoms: N1_7  and  C6_9 
REMARK    5  A    between atoms: C8_12  and  C9_13 
REMARK    6  A    between atoms: C9_13  and  O3_15 
REMARK    7  A    between atoms: C11_17  and  O4_18 
REMARK    8  A    between atoms: C12_20  and  O5_21 
REMARK    9  A    between atoms: C13_23  and  O6_24 
REMARK   10  A    between atoms: O6_24  and  C14_25 
ROOT
HETATM    1  C6  UNL     1       0.004  -0.475  -0.299  1.00  0.00     0.148 C 
HETATM    2  C7  UNL     1      -0.742  -0.347  -1.634  1.00  0.00     0.301 C 
HETATM    3  N2  UNL     1      -1.305   0.886  -1.093  1.00  0.00     0.117 N 
HETATM    4  C8  UNL     1      -2.685   1.014  -1.373  1.00  0.00     0.353 C 
HETATM    5  C11 UNL     1      -3.373   1.563  -0.125  1.00  0.00     0.193 C 
HETATM    6  C12 UNL     1      -3.394   0.386   0.835  1.00  0.00     0.180 C 
HETATM    7  C13 UNL     1      -1.977  -0.014   1.112  1.00  0.00     0.189 C 
HETATM    8  C15 UNL     1      -0.950   0.597   0.250  1.00  0.00     0.279 C 
ENDROOT
BRANCH   1   9
HETATM    9  N1  UNL     1       1.350  -0.034  -0.465  1.00  0.00    -0.353 N 
HETATM   10  C5  UNL     1       2.499  -0.794  -0.066  1.00  0.00     0.217 C 
HETATM   11  O1  UNL     1       2.248  -1.907   0.455  1.00  0.00    -0.274 OA
ATOM     12  H1  UNL     1       1.505   0.878  -0.894  1.00  0.00     0.163 HD
BRANCH  10  13
HETATM   13  C4  UNL     1       3.858  -0.299  -0.258  1.00  0.00     0.103 C 
BRANCH  13  14
HETATM   14  C3  UNL     1       4.955  -1.148   0.270  1.00  0.00     0.009 C 
BRANCH  14  15
HETATM   15  C2  UNL     1       4.904  -1.353   1.759  1.00  0.00    -0.004 C 
HETATM   16  C1  UNL     1       6.078  -2.232   2.197  1.00  0.00     0.005 C 
ENDBRANCH  14  15
ENDBRANCH  13  14
ENDBRANCH  10  13
ENDBRANCH   1   9
BRANCH   7  17
HETATM   17  O6  UNL     1      -1.912  -1.404   1.100  1.00  0.00    -0.366 OA
BRANCH  17  18
HETATM   18  C14 UNL     1      -1.628  -1.944   2.347  1.00  0.00     0.282 C 
HETATM   19 CL1  UNL     1      -2.854  -1.517   3.562  1.00  0.00    -0.102 Cl
ENDBRANCH  17  18
ENDBRANCH   7  17
BRANCH   4  20
HETATM   20  C9  UNL     1      -2.974   1.933  -2.488  1.00  0.00     0.295 C 
HETATM   21  O2  UNL     1      -4.204   2.089  -2.787  1.00  0.00    -0.263 OA
BRANCH  20  22
HETATM   22  O3  UNL     1      -2.009   2.611  -3.198  1.00  0.00    -0.325 OA
HETATM   23  C10 UNL     1      -2.445   3.466  -4.250  1.00  0.00     0.213 C 
ENDBRANCH  20  22
ENDBRANCH   4  20
BRANCH   6  24
HETATM   24  O5  UNL     1      -4.037  -0.659   0.150  1.00  0.00    -0.390 OA
ATOM     25  H5  UNL     1      -4.050  -1.395   0.750  1.00  0.00     0.210 HD
ENDBRANCH   6  24
BRANCH   5  26
HETATM   26  O4  UNL     1      -4.643   2.026  -0.389  1.00  0.00    -0.390 OA
ATOM     27  H4  UNL     1      -5.071   2.368   0.387  1.00  0.00     0.210 HD
ENDBRANCH   5  26
TORSDOF 10
