REMARK  5 active torsions:
REMARK  status: ('A' for Active; 'I' for Inactive)
REMARK    1  A    between atoms: C2_2  and  O1_5 
REMARK    2  A    between atoms: O1_5  and  C5_6 
REMARK       I    between atoms: C5_6  and  N1_8 
REMARK    3  A    between atoms: C6_11  and  C7_12 
REMARK    4  A    between atoms: N3_15  and  C10_16 
REMARK    5  A    between atoms: C10_16  and  C11_17 
ROOT
HETATM    1  C5  UNL     1      -2.963   0.237   0.564  1.00  0.00     0.387 C 
HETATM    2  O2  UNL     1      -3.576   1.300   0.337  1.00  0.00    -0.236 OA
HETATM    3  N1  UNL     1      -1.574   0.215   0.216  1.00  0.00    -0.203 N 
HETATM    4  N2  UNL     1      -0.813  -0.820   0.385  1.00  0.00    -0.291 N 
ATOM      5  H2  UNL     1      -1.108  -1.688   0.831  1.00  0.00     0.187 HD
HETATM    6  C6  UNL     1       0.431  -0.592  -0.113  1.00  0.00     0.070 A 
HETATM    7  C14 UNL     1       0.412   0.701  -0.623  1.00  0.00     0.023 A 
HETATM    8  C15 UNL     1      -0.865   1.187  -0.401  1.00  0.00     0.052 A 
HETATM    9  C16 UNL     1      -1.267   2.558  -0.803  1.00  0.00     0.093 C 
HETATM   10  C17 UNL     1      -0.056   3.264  -1.400  1.00  0.00     0.192 C 
HETATM   11  C18 UNL     1       0.908   3.635  -0.316  1.00  0.00     0.036 C 
HETATM   12  C19 UNL     1       1.996   2.616  -0.408  1.00  0.00     0.040 C 
HETATM   13  C20 UNL     1       1.409   1.548  -1.295  1.00  0.00     0.223 C 
HETATM   14  N4  UNL     1       0.692   2.387  -2.275  1.00  0.00    -0.062 N 
ATOM     15  H41 UNL     1       1.281   2.855  -2.964  1.00  0.00     0.278 HD
ATOM     16  H42 UNL     1       0.137   1.878  -2.963  1.00  0.00     0.278 HD
ENDROOT
BRANCH   6  17
HETATM   17  C7  UNL     1       1.536  -1.540  -0.182  1.00  0.00     0.276 C 
HETATM   18  C8  UNL     1       1.575  -2.658   0.788  1.00  0.00     0.072 C 
HETATM   19  C9  UNL     1       2.864  -2.005   1.266  1.00  0.00     0.276 C 
HETATM   20  N3  UNL     1       2.880  -1.082   0.114  1.00  0.00     0.099 N 
BRANCH  20  21
HETATM   21  C10 UNL     1       3.745  -1.491  -0.953  1.00  0.00     0.278 C 
BRANCH  21  22
HETATM   22  C11 UNL     1       5.121  -1.009  -1.011  1.00  0.00     0.014 A 
HETATM   23  C12 UNL     1       6.056  -1.322   0.145  1.00  0.00     0.007 A 
HETATM   24  C13 UNL     1       5.741   0.102  -0.293  1.00  0.00     0.007 A 
ENDBRANCH  21  22
ENDBRANCH  20  21
ENDBRANCH   6  17
BRANCH   1  25
HETATM   25  O1  UNL     1      -3.649  -0.803   1.107  1.00  0.00    -0.292 OA
BRANCH  25  26
HETATM   26  C2  UNL     1      -5.016  -0.869   1.422  1.00  0.00     0.061 C 
HETATM   27  C1  UNL     1      -5.294  -2.253   2.016  1.00  0.00     0.046 C 
HETATM   28  C3  UNL     1      -5.542   0.162   2.353  1.00  0.00     0.046 C 
HETATM   29  C4  UNL     1      -5.847  -0.823   0.143  1.00  0.00     0.046 C 
ENDBRANCH  25  26
ENDBRANCH   1  25
TORSDOF 5
