REMARK  4 active torsions:
REMARK  status: ('A' for Active; 'I' for Inactive)
REMARK    1  A    between atoms: C2_2  and  O1_3 
REMARK    2  A    between atoms: O1_3  and  N1_4 
REMARK    3  A    between atoms: C3_6  and  O2_7 
REMARK    4  A    between atoms: C3_6  and  C5_9 
ROOT
HETATM    1  C5  UNL     1      -1.472  -0.851   0.761  1.00  0.00     0.089 C 
HETATM    2  C6  UNL     1      -1.099   0.480   0.155  1.00  0.00     0.042 C 
HETATM    3  C7  UNL     1      -1.133   1.526   1.215  1.00  0.00    -0.030 C 
HETATM    4  C8  UNL     1      -0.487   2.682   1.164  1.00  0.00    -0.031 C 
HETATM    5  C9  UNL     1       0.378   3.100   0.013  1.00  0.00     0.027 C 
HETATM    6  C10 UNL     1       1.729   2.474   0.020  1.00  0.00     0.004 C 
HETATM    7  C11 UNL     1       2.145   1.913   1.364  1.00  0.00     0.000 C 
HETATM    8  C12 UNL     1       3.671   1.886   1.421  1.00  0.00     0.002 C 
HETATM    9  C13 UNL     1       4.269   1.107   0.283  1.00  0.00     0.027 C 
HETATM   10  C14 UNL     1       4.020  -0.368   0.369  1.00  0.00     0.232 C 
HETATM   11  N2  UNL     1       4.005  -0.912  -0.975  1.00  0.00    -0.073 N 
ATOM     12  H21 UNL     1       4.945  -0.955  -1.369  1.00  0.00     0.277 HD
ATOM     13  H22 UNL     1       3.585  -0.259  -1.636  1.00  0.00     0.277 HD
HETATM   14  C15 UNL     1       3.345  -2.220  -1.024  1.00  0.00     0.258 C 
HETATM   15  C16 UNL     1       2.654  -2.291  -2.367  1.00  0.00     0.195 C 
HETATM   16  O3  UNL     1       1.842  -3.384  -2.529  1.00  0.00    -0.387 OA
HETATM   17  C17 UNL     1       0.710  -3.415  -1.756  1.00  0.00     0.193 C 
HETATM   18  C18 UNL     1      -0.279  -2.336  -2.108  1.00  0.00     0.193 C 
HETATM   19  O4  UNL     1      -1.309  -2.312  -1.169  1.00  0.00    -0.388 OA
HETATM   20  C19 UNL     1      -0.759  -1.997   0.050  1.00  0.00     0.180 C 
ENDROOT
BRANCH   1  21
HETATM   21  C3  UNL     1      -2.920  -1.080   0.894  1.00  0.00     0.143 C 
HETATM   22  N1  UNL     1      -3.879  -0.321   0.611  1.00  0.00    -0.248 N 
ATOM     23  H1  UNL     1      -4.792  -0.733   0.805  1.00  0.00     0.196 HD
BRANCH  22  24
HETATM   24  O1  UNL     1      -3.952   0.911   0.110  1.00  0.00    -0.279 OA
BRANCH  24  25
HETATM   25  C2  UNL     1      -4.926   1.883   0.436  1.00  0.00     0.197 C 
HETATM   26  C1  UNL     1      -4.727   3.169  -0.305  1.00  0.00     0.036 C 
ENDBRANCH  24  25
ENDBRANCH  22  24
BRANCH  21  27
HETATM   27  O2  UNL     1      -3.263  -2.345   1.420  1.00  0.00    -0.342 OA
HETATM   28  C4  UNL     1      -4.601  -2.805   1.319  1.00  0.00     0.211 C 
ENDBRANCH  21  27
ENDBRANCH   1  21
TORSDOF 4
