REMARK  6 active torsions:
REMARK  status: ('A' for Active; 'I' for Inactive)
REMARK    1  A    between atoms: C2_2  and  C3_3 
REMARK    2  A    between atoms: N1_9  and  O1_11 
REMARK    3  A    between atoms: O1_11  and  C9_12 
REMARK    4  A    between atoms: C11_15  and  O3_17 
REMARK    5  A    between atoms: N3_21  and  C14_22 
REMARK    6  A    between atoms: C14_22  and  C15_23 
ROOT
HETATM    1  C3  UNL     1      -2.194  -1.502  -0.234  1.00  0.00     0.252 C 
HETATM    2  C4  UNL     1      -1.250  -1.635   0.913  1.00  0.00     0.115 C 
HETATM    3  C5  UNL     1      -0.452  -0.601   0.089  1.00  0.00     0.360 C 
HETATM    4  C6  UNL     1       0.371   0.290   0.887  1.00  0.00     0.082 C 
HETATM    5  C7  UNL     1       1.758   0.567   0.409  1.00  0.00     0.064 C 
HETATM    6  C8  UNL     1       2.336  -0.426  -0.492  1.00  0.00     0.075 C 
HETATM    7  N1  UNL     1       3.488  -0.204  -1.007  1.00  0.00    -0.261 N 
ATOM      8  H1  UNL     1       3.895  -0.896  -1.636  1.00  0.00     0.194 HD
HETATM    9  C11 UNL     1       1.558  -1.657  -0.759  1.00  0.00     0.299 C 
HETATM   10  C12 UNL     1       1.817  -2.612   0.380  1.00  0.00     0.089 C 
HETATM   11  N2  UNL     1       0.212  -1.307  -0.979  1.00  0.00     0.165 N 
HETATM   12  C13 UNL     1       0.067  -0.669  -2.253  1.00  0.00     0.318 C 
HETATM   13  N3  UNL     1      -1.735  -0.118  -0.364  1.00  0.00     0.137 N 
ENDROOT
BRANCH  13  14
HETATM   14  C14 UNL     1      -2.465   0.775   0.476  1.00  0.00     0.280 C 
BRANCH  14  15
HETATM   15  C15 UNL     1      -2.373   2.235   0.088  1.00  0.00     0.006 C 
HETATM   16  C16 UNL     1      -3.164   3.102   1.047  1.00  0.00     0.011 C 
HETATM   17  C17 UNL     1      -3.115   2.413  -1.270  1.00  0.00     0.011 C 
ENDBRANCH  14  15
ENDBRANCH  13  14
BRANCH   1  18
HETATM   18  C2  UNL     1      -3.615  -1.703   0.045  1.00  0.00    -0.002 C 
HETATM   19  C1  UNL     1      -3.997  -2.690   0.826  1.00  0.00     0.009 C 
ENDBRANCH   1  18
BRANCH   9  20
HETATM   20  O3  UNL     1       2.105  -2.241  -1.899  1.00  0.00    -0.358 OA
ATOM     21  H3  UNL     1       1.606  -3.031  -2.070  1.00  0.00     0.213 HD
ENDBRANCH   9  20
BRANCH   7  22
HETATM   22  O1  UNL     1       4.188   0.946  -0.731  1.00  0.00    -0.200 OA
BRANCH  22  23
HETATM   23  C9  UNL     1       5.571   0.812  -0.508  1.00  0.00     0.277 C 
HETATM   24  C10 UNL     1       6.447   1.971  -0.198  1.00  0.00     0.128 C 
HETATM   25  O2  UNL     1       6.095  -0.332  -0.570  1.00  0.00    -0.264 OA
ENDBRANCH  22  23
ENDBRANCH   7  22
TORSDOF 6
