REMARK  3 active torsions:
REMARK  status: ('A' for Active; 'I' for Inactive)
REMARK    1  A    between atoms: C5_6  and  C7_8 
REMARK       I    between atoms: C7_8  and  N2_10 
REMARK    2  A    between atoms: N2_10  and  C8_12 
REMARK    3  A    between atoms: C12_16  and  C13_17 
ROOT
HETATM    1  C8  UNL     1       0.970  -1.350   0.130  1.00  0.00     0.157 C 
HETATM    2  C9  UNL     1       1.725  -1.632  -1.222  1.00  0.00     0.116 C 
HETATM    3  C10 UNL     1       3.067  -1.255  -0.982  1.00  0.00    -0.179 C 
HETATM    4  C11 UNL     1       4.258  -0.807  -0.366  1.00  0.00     0.101 C 
HETATM    5  C12 UNL     1       3.837  -0.411   1.098  1.00  0.00     0.111 C 
HETATM    6  S2  UNL     1       2.072  -0.592   1.335  1.00  0.00    -0.131 SA
ENDROOT
BRANCH   1   7
HETATM    7  N2  UNL     1      -0.187  -0.545  -0.135  1.00  0.00    -0.345 N 
HETATM    8  C7  UNL     1      -1.478  -1.070   0.118  1.00  0.00     0.257 C 
HETATM    9  O1  UNL     1      -1.622  -2.250   0.580  1.00  0.00    -0.271 OA
ATOM     10  H2  UNL     1      -0.081   0.400  -0.504  1.00  0.00     0.163 HD
BRANCH   8  11
HETATM   11  C5  UNL     1      -2.729  -0.315  -0.125  1.00  0.00     0.235 C 
HETATM   12  N1  UNL     1      -2.518   0.992  -0.640  1.00  0.00     0.102 N 
HETATM   13  C1  UNL     1      -2.192   1.985   0.344  1.00  0.00     0.311 C 
HETATM   14  C2  UNL     1      -3.771   1.376  -1.263  1.00  0.00     0.273 C 
HETATM   15  C3  UNL     1      -4.369   0.096  -1.757  1.00  0.00     0.033 C 
HETATM   16  C4  UNL     1      -3.485  -1.019  -1.232  1.00  0.00     0.053 C 
HETATM   17  C6  UNL     1      -3.594  -0.349   1.113  1.00  0.00     0.060 C 
ENDBRANCH   8  11
ENDBRANCH   1   7
BRANCH   5  18
HETATM   18  C13 UNL     1       4.293   1.016   1.331  1.00  0.00     0.047 A 
HETATM   19  C14 UNL     1       5.187   1.390   2.258  1.00  0.00     0.123 A 
HETATM   20  N3  UNL     1       5.480   2.690   2.333  1.00  0.00    -0.321 N 
HETATM   21  S1  UNL     1       4.525   3.377   1.134  1.00  0.00     0.067 SA
ATOM     22  H3  UNL     1       6.129   3.155   2.967  1.00  0.00     0.175 HD
HETATM   23  N4  UNL     1       3.777   1.985   0.568  1.00  0.00    -0.314 N 
ATOM     24  H4  UNL     1       3.091   1.899  -0.181  1.00  0.00     0.175 HD
ENDBRANCH   5  18
TORSDOF 3
