REMARK  5 active torsions:
REMARK  status: ('A' for Active; 'I' for Inactive)
REMARK    1  A    between atoms: C4_4  and  N1_5 
REMARK    2  A    between atoms: N1_5  and  C5_7 
REMARK    3  A    between atoms: C5_7  and  C6_8 
REMARK    4  A    between atoms: C6_8  and  C7_9 
REMARK    5  A    between atoms: C7_9  and  N2_10 
ROOT
HETATM    1  C5  UNL     1      -0.392  -0.258   1.681  1.00  0.00     0.057 C 
ENDROOT
BRANCH   1   2
HETATM    2  N1  UNL     1      -1.279   0.588   1.038  1.00  0.00    -0.398 N 
ATOM      3  H1  UNL     1      -0.971   1.548   0.887  1.00  0.00     0.159 HD
BRANCH   2   4
HETATM    4  C4  UNL     1      -2.546   0.258   0.579  1.00  0.00     0.080 C 
HETATM    5  C3  UNL     1      -2.743  -0.752  -0.484  1.00  0.00     0.025 C 
HETATM    6  C2  UNL     1      -4.254  -1.069  -0.556  1.00  0.00     0.002 C 
HETATM    7  C1  UNL     1      -5.094   0.141  -0.265  1.00  0.00     0.000 C 
HETATM    8  C15 UNL     1      -4.336   1.334  -0.839  1.00  0.00     0.002 C 
HETATM    9  C14 UNL     1      -3.179   1.581   0.071  1.00  0.00     0.025 C 
ENDBRANCH   2   4
ENDBRANCH   1   2
BRANCH   1  10
HETATM   10  C6  UNL     1       0.287  -1.353   0.938  1.00  0.00     0.074 C 
BRANCH  10  11
HETATM   11  C7  UNL     1       1.109  -0.834  -0.229  1.00  0.00     0.278 C 
BRANCH  11  12
HETATM   12  N2  UNL     1       2.130   0.063   0.176  1.00  0.00     0.093 N 
HETATM   13  C8  UNL     1       3.222  -0.527   0.920  1.00  0.00     0.277 C 
HETATM   14  C9  UNL     1       4.478   0.135   0.376  1.00  0.00     0.016 C 
HETATM   15  C10 UNL     1       4.794  -0.514  -0.931  1.00  0.00     0.008 C 
HETATM   16  C13 UNL     1       3.870   1.461  -0.127  1.00  0.00     0.042 C 
HETATM   17  C11 UNL     1       3.568  -0.143  -1.770  1.00  0.00     0.036 C 
HETATM   18  C12 UNL     1       2.725   0.759  -0.901  1.00  0.00     0.223 C 
ENDBRANCH  11  12
ENDBRANCH  10  11
ENDBRANCH   1  10
TORSDOF 5
