REMARK  5 active torsions:
REMARK  status: ('A' for Active; 'I' for Inactive)
REMARK    1  A    between atoms: C2_2  and  C3_3 
REMARK    2  A    between atoms: C3_3  and  N1_4 
REMARK    3  A    between atoms: C7_8  and  C8_9 
REMARK    4  A    between atoms: C8_9  and  N2_10 
REMARK    5  A    between atoms: N2_10  and  C9_12 
ROOT
HETATM    1  C8  UNL     1      -0.448  -0.029  -0.746  1.00  0.00     0.134 C 
ENDROOT
BRANCH   1   2
HETATM    2  C7  UNL     1      -1.485  -0.618   0.175  1.00  0.00     0.079 C 
HETATM    3  N1  UNL     1      -2.712   0.065   0.247  1.00  0.00    -0.287 NA
HETATM    4  C4  UNL     1      -3.778  -0.899   0.171  1.00  0.00     0.095 C 
HETATM    5  C5  UNL     1      -3.165  -2.000  -0.664  1.00  0.00     0.017 C 
HETATM    6  C6  UNL     1      -1.760  -2.071  -0.109  1.00  0.00     0.023 C 
BRANCH   3   7
HETATM    7  C3  UNL     1      -2.957   1.155  -0.612  1.00  0.00     0.059 C 
BRANCH   7   8
HETATM    8  C2  UNL     1      -4.046   2.007  -0.112  1.00  0.00     0.001 C 
HETATM    9  C1  UNL     1      -4.672   1.810   1.008  1.00  0.00     0.012 C 
ENDBRANCH   7   8
ENDBRANCH   3   7
ENDBRANCH   1   2
BRANCH   1  10
HETATM   10  N2  UNL     1       0.772  -0.787  -0.764  1.00  0.00    -0.416 N 
ATOM     11  H2  UNL     1       1.073  -1.310  -1.587  1.00  0.00     0.153 HD
BRANCH  10  12
HETATM   12  C9  UNL     1       1.534  -0.764   0.434  1.00  0.00     0.077 C 
HETATM   13  C10 UNL     1       2.715  -1.698   0.316  1.00  0.00     0.024 C 
HETATM   14  C11 UNL     1       3.832  -1.151  -0.509  1.00  0.00     0.002 C 
HETATM   15  C12 UNL     1       4.304   0.181   0.028  1.00  0.00     0.004 C 
HETATM   16  C13 UNL     1       3.117   1.117  -0.065  1.00  0.00    -0.017 C 
HETATM   17  C14 UNL     1       3.530   2.482   0.383  1.00  0.00     0.010 C 
HETATM   18  C15 UNL     1       2.026   0.595   0.842  1.00  0.00     0.029 C 
ENDBRANCH  10  12
ENDBRANCH   1  10
TORSDOF 5
