REMARK  3 active torsions:
REMARK  status: ('A' for Active; 'I' for Inactive)
REMARK    1  A    between atoms: C2_2  and  C3_3 
REMARK    2  A    between atoms: C5_7  and  C6_8 
REMARK    3  A    between atoms: C9_11  and  C10_12 
ROOT
HETATM    1  C6  UNL     1      -0.252   1.131  -0.254  1.00  0.00     0.244 C 
HETATM    2  C7  UNL     1       0.259   1.040   1.142  1.00  0.00     0.040 C 
HETATM    3  C8  UNL     1       1.764   0.768   1.096  1.00  0.00     0.009 C 
HETATM    4  C9  UNL     1       1.949  -0.618   0.584  1.00  0.00     0.014 C 
HETATM    5  C13 UNL     1       0.979  -0.880  -0.546  1.00  0.00     0.238 C 
HETATM    6  N2  UNL     1       0.630   0.395  -1.135  1.00  0.00    -0.065 N 
ATOM      7  H21 UNL     1       1.457   0.937  -1.385  1.00  0.00     0.278 HD
ATOM      8  H22 UNL     1       0.232   0.287  -2.068  1.00  0.00     0.278 HD
ENDROOT
BRANCH   1   9
HETATM    9  C5  UNL     1      -1.620   0.578  -0.415  1.00  0.00     0.101 A 
HETATM   10  C4  UNL     1      -2.193   0.297  -1.637  1.00  0.00     0.124 A 
HETATM   11  N1  UNL     1      -3.422  -0.181  -1.342  1.00  0.00    -0.348 N 
HETATM   12  C3  UNL     1      -3.593  -0.192  -0.021  1.00  0.00     0.123 A 
ATOM     13  H1  UNL     1      -4.113  -0.487  -2.027  1.00  0.00     0.167 HD
HETATM   14  O1  UNL     1      -2.474   0.278   0.507  1.00  0.00    -0.299 OA
BRANCH  12  15
HETATM   15  C2  UNL     1      -4.814  -0.648   0.696  1.00  0.00     0.080 C 
HETATM   16  C1  UNL     1      -5.776   0.491   0.899  1.00  0.00     0.013 C 
ENDBRANCH  12  15
ENDBRANCH   1   9
BRANCH   4  17
HETATM   17  C10 UNL     1       3.353  -0.921   0.129  1.00  0.00    -0.017 C 
HETATM   18  C11 UNL     1       3.835  -0.046  -0.977  1.00  0.00     0.010 C 
HETATM   19  C12 UNL     1       4.348  -0.843   1.266  1.00  0.00     0.010 C 
ENDBRANCH   4  17
TORSDOF 3
