REMARK  5 active torsions:
REMARK  status: ('A' for Active; 'I' for Inactive)
REMARK    1  A    between atoms: C2_2  and  C3_3 
REMARK    2  A    between atoms: C3_3  and  C4_4 
REMARK    3  A    between atoms: N1_6  and  N2_8 
REMARK    4  A    between atoms: N2_8  and  C6_10 
REMARK    5  A    between atoms: C7_13  and  O1_14 
ROOT
HETATM    1  C6  UNL     1       1.812   0.883   0.865  1.00  0.00     0.166 A 
HETATM    2  N3  UNL     1       2.071  -0.335   0.399  1.00  0.00    -0.315 N 
ATOM      3  H3  UNL     1       1.311  -0.960   0.132  1.00  0.00     0.170 HD
HETATM    4  C7  UNL     1       3.314  -0.717   0.289  1.00  0.00     0.170 A 
HETATM    5  C8  UNL     1       4.290   0.167   0.663  1.00  0.00     0.139 A 
HETATM    6  C9  UNL     1       5.736  -0.002   0.642  1.00  0.00     0.111 C 
HETATM    7  N4  UNL     1       6.886  -0.122   0.625  1.00  0.00    -0.191 NA
HETATM    8  S1  UNL     1       3.368   1.516   1.160  1.00  0.00    -0.037 SA
ENDROOT
BRANCH   4   9
HETATM    9  O1  UNL     1       3.700  -1.998  -0.198  1.00  0.00    -0.344 OA
ATOM     10  H1  UNL     1       4.605  -2.276  -0.278  1.00  0.00     0.219 HD
ENDBRANCH   4   9
BRANCH   1  11
HETATM   11  N2  UNL     1       0.676   1.491   1.067  1.00  0.00    -0.280 N 
ATOM     12  H2  UNL     1       0.701   2.441   1.439  1.00  0.00     0.189 HD
BRANCH  11  13
HETATM   13  N1  UNL     1      -0.550   0.933   0.811  1.00  0.00    -0.307 N 
HETATM   14  C4  UNL     1      -1.085   0.765  -0.342  1.00  0.00    -0.000 C 
HETATM   15  C5  UNL     1      -0.345   1.199  -1.539  1.00  0.00     0.065 C 
ATOM     16  H1  UNL     1      -1.090   0.621   1.618  1.00  0.00     0.186 HD
BRANCH  14  17
HETATM   17  C3  UNL     1      -2.419   0.145  -0.443  1.00  0.00     0.053 C 
BRANCH  17  18
HETATM   18  C2  UNL     1      -2.991  -0.221   0.898  1.00  0.00     0.001 C 
HETATM   19  C1  UNL     1      -4.355  -0.845   0.654  1.00  0.00     0.005 C 
ENDBRANCH  17  18
ENDBRANCH  14  17
ENDBRANCH  11  13
ENDBRANCH   1  11
TORSDOF 5
