REMARK  4 active torsions:
REMARK  status: ('A' for Active; 'I' for Inactive)
REMARK    1  A    between atoms: C2_2  and  N1_3 
REMARK    2  A    between atoms: C3_4  and  C4_5 
REMARK    3  A    between atoms: C4_5  and  O1_7 
REMARK    4  A    between atoms: C6_9  and  C7_10 
ROOT
HETATM    1  N1  UNL     1      -1.164  -0.904   0.652  1.00  0.00    -0.320 N 
HETATM    2  C3  UNL     1      -0.220  -0.016   0.322  1.00  0.00     0.090 A 
HETATM    3  C6  UNL     1       1.039  -0.653   0.387  1.00  0.00     0.064 A 
HETATM    4  N2  UNL     1       0.738  -1.900   0.772  1.00  0.00    -0.333 N 
ATOM      5  H2  UNL     1       1.431  -2.633   0.926  1.00  0.00     0.168 HD
HETATM    6  C10 UNL     1      -0.530  -2.064   0.925  1.00  0.00     0.179 A 
HETATM    7  S1  UNL     1      -1.302  -3.456   1.440  1.00  0.00    -0.040 SA
ENDROOT
BRANCH   2   8
HETATM    8  C4  UNL     1      -0.360   1.432   0.206  1.00  0.00     0.068 C 
HETATM    9  C5  UNL     1      -1.243   2.066  -0.807  1.00  0.00     0.078 C 
BRANCH   8  10
HETATM   10  O1  UNL     1       0.545   2.242   0.872  1.00  0.00    -0.363 OA
ATOM     11  H1  UNL     1       0.454   3.185   0.796  1.00  0.00     0.217 HD
ENDBRANCH   8  10
ENDBRANCH   2   8
BRANCH   1  12
HETATM   12  C2  UNL     1      -2.596  -0.746   0.717  1.00  0.00     0.127 C 
HETATM   13  C1  UNL     1      -3.288  -1.205  -0.584  1.00  0.00     0.027 C 
ENDBRANCH   1  12
BRANCH   3  14
HETATM   14  C7  UNL     1       2.355  -0.242  -0.049  1.00  0.00     0.074 C 
HETATM   15  C8  UNL     1       2.276  -0.010  -1.614  1.00  0.00     0.039 C 
HETATM   16  C9  UNL     1       3.126   0.856   0.511  1.00  0.00     0.039 C 
HETATM   17 CL1  UNL     1       3.449  -1.662   0.063  1.00  0.00    -0.113 Cl
ENDBRANCH   3  14
TORSDOF 4
