REMARK  1 active torsions:
REMARK  status: ('A' for Active; 'I' for Inactive)
REMARK    1  A    between atoms: C8_10  and  C9_11 
ROOT
HETATM    1  N1  UNL     1      -2.478  -3.844   0.790  1.00  0.00    -0.195 NA
HETATM    2  C1  UNL     1      -2.152  -2.810   0.363  1.00  0.00     0.093 C 
HETATM    3  C2  UNL     1      -1.719  -1.502  -0.160  1.00  0.00     0.297 C 
HETATM    4  C3  UNL     1      -2.243  -0.410   0.747  1.00  0.00     0.089 C 
HETATM    5  C4  UNL     1      -1.751   0.890   0.236  1.00  0.00    -0.021 A 
HETATM    6  C5  UNL     1      -2.227   2.123  -0.098  1.00  0.00     0.034 A 
HETATM    7  C6  UNL     1      -1.160   2.898  -0.527  1.00  0.00     0.143 A 
HETATM    8  O1  UNL     1      -0.095   2.140  -0.445  1.00  0.00    -0.324 OA
HETATM    9  C7  UNL     1      -0.368   0.948  -0.004  1.00  0.00     0.096 A 
HETATM   10  C8  UNL     1       0.331  -0.325   0.307  1.00  0.00     0.301 C 
HETATM   11  N2  UNL     1      -0.306  -1.450  -0.372  1.00  0.00    -0.042 N 
ATOM     12  H21 UNL     1      -0.087  -1.446  -1.368  1.00  0.00     0.280 HD
ATOM     13  H22 UNL     1       0.135  -2.331  -0.109  1.00  0.00     0.280 HD
ENDROOT
BRANCH  10  14
HETATM   14  C9  UNL     1       1.770  -0.311   0.098  1.00  0.00     0.089 A 
HETATM   15  C10 UNL     1       2.550   0.763  -0.201  1.00  0.00     0.037 A 
HETATM   16  C11 UNL     1       3.865   0.288  -0.308  1.00  0.00     0.027 A 
HETATM   17  C12 UNL     1       3.757  -1.062  -0.058  1.00  0.00     0.142 A 
HETATM   18  O2  UNL     1       2.523  -1.367   0.173  1.00  0.00    -0.325 OA
ENDBRANCH  10  14
TORSDOF 1
