REMARK  1 active torsions:
REMARK  status: ('A' for Active; 'I' for Inactive)
REMARK    1  A    between atoms: C5_5  and  C6_6 
ROOT
HETATM    1  C1  UNL     1      -2.831  -1.638  -0.805  1.00  0.00     0.046 C 
HETATM    2  C2  UNL     1      -2.237  -0.318  -0.344  1.00  0.00     0.062 C 
HETATM    3  C3  UNL     1      -3.236   0.242   0.677  1.00  0.00     0.046 C 
HETATM    4  C4  UNL     1      -0.931  -0.624   0.316  1.00  0.00     0.094 C 
HETATM    5  C5  UNL     1       0.125   0.351   0.051  1.00  0.00     0.036 C 
HETATM    6  N2  UNL     1      -0.091   1.323  -0.717  1.00  0.00    -0.358 N 
ATOM      7  H2  UNL     1       0.669   1.983  -0.879  1.00  0.00     0.162 HD
HETATM    8  C10 UNL     1      -1.339   1.559  -1.377  1.00  0.00     0.297 C 
HETATM    9  S1  UNL     1      -2.053   3.072  -0.679  1.00  0.00    -0.040 SA
HETATM   10  O2  UNL     1      -2.188   0.509  -1.414  1.00  0.00    -0.346 OA
ENDROOT
BRANCH   5  11
HETATM   11  C6  UNL     1       1.461   0.201   0.686  1.00  0.00     0.267 C 
HETATM   12  N1  UNL     1       2.365   1.222   0.330  1.00  0.00    -0.372 N 
HETATM   13  C7  UNL     1       3.559   1.070  -0.054  1.00  0.00     0.060 C 
ATOM     14  H1  UNL     1       2.021   2.180   0.388  1.00  0.00     0.161 HD
HETATM   15  C8  UNL     1       4.123  -0.293  -0.160  1.00  0.00     0.070 C 
HETATM   16  C9  UNL     1       3.286  -1.209   0.698  1.00  0.00     0.175 C 
HETATM   17  O1  UNL     1       1.956  -1.039   0.334  1.00  0.00    -0.361 OA
ENDBRANCH   5  11
TORSDOF 1
