REMARK  3 active torsions:
REMARK  status: ('A' for Active; 'I' for Inactive)
REMARK    1  A    between atoms: O1_1  and  C1_3 
REMARK    2  A    between atoms: C5_8  and  O3_9 
REMARK    3  A    between atoms: C6_11  and  C7_12 
ROOT
HETATM    1  C1  UNL     1       4.196  -0.407  -0.161  1.00  0.00     0.194 A 
HETATM    2  O2  UNL     1       4.685   0.662   0.422  1.00  0.00    -0.297 OA
HETATM    3  C2  UNL     1       3.726   1.512   0.704  1.00  0.00     0.182 A 
HETATM    4  C3  UNL     1       2.529   0.967   0.279  1.00  0.00     0.105 A 
HETATM    5  C4  UNL     1       2.851  -0.257  -0.270  1.00  0.00     0.066 A 
HETATM    6  C5  UNL     1       1.522  -0.829  -0.729  1.00  0.00     0.188 C 
HETATM    7  C6  UNL     1       0.622  -0.179   0.253  1.00  0.00     0.166 C 
HETATM    8  O4  UNL     1       1.130   1.168   0.188  1.00  0.00    -0.340 OA
ENDROOT
BRANCH   7   9
HETATM    9  C7  UNL     1      -0.828  -0.299   0.091  1.00  0.00     0.018 C 
HETATM   10  C8  UNL     1      -1.453   0.250  -1.140  1.00  0.00     0.007 C 
HETATM   11  C9  UNL     1      -2.889  -0.310  -1.193  1.00  0.00     0.000 C 
HETATM   12  C10 UNL     1      -3.631   0.406  -0.084  1.00  0.00     0.000 C 
HETATM   13  C11 UNL     1      -3.035  -0.008   1.246  1.00  0.00     0.000 C 
HETATM   14  C12 UNL     1      -1.566   0.217   1.321  1.00  0.00     0.007 C 
ENDBRANCH   7   9
BRANCH   6  15
HETATM   15  O3  UNL     1       1.404  -0.351  -2.029  1.00  0.00    -0.388 OA
ATOM     16  H3  UNL     1       0.572  -0.709  -2.316  1.00  0.00     0.210 HD
ENDBRANCH   6  15
BRANCH   1  17
HETATM   17  O1  UNL     1       4.885  -1.533  -0.613  1.00  0.00    -0.340 OA
ATOM     18  H1  UNL     1       4.531  -2.307  -1.035  1.00  0.00     0.220 HD
ENDBRANCH   1  17
TORSDOF 3
