REMARK  3 active torsions:
REMARK  status: ('A' for Active; 'I' for Inactive)
REMARK    1  A    between atoms: O1_1  and  C1_3 
REMARK    2  A    between atoms: C3_6  and  N1_7 
REMARK    3  A    between atoms: N1_7  and  N2_9 
ROOT
HETATM    1  N1  UNL     1       1.390  -0.972   1.341  1.00  0.00    -0.280 N 
ATOM      2  H1  UNL     1       1.812  -1.898   1.264  1.00  0.00     0.189 HD
ENDROOT
BRANCH   1   3
HETATM    3  C3  UNL     1       2.088   0.094   0.998  1.00  0.00     0.165 A 
HETATM    4  S1  UNL     1       1.638   1.740   1.025  1.00  0.00    -0.060 SA
HETATM    5  C2  UNL     1       3.099   2.403   0.437  1.00  0.00     0.109 A 
HETATM    6  C1  UNL     1       3.868   1.281   0.251  1.00  0.00     0.148 A 
HETATM    7  N3  UNL     1       3.336   0.131   0.540  1.00  0.00    -0.316 N 
ATOM      8  H3  UNL     1       3.868  -0.731   0.417  1.00  0.00     0.170 HD
BRANCH   6   9
HETATM    9  O1  UNL     1       5.195   1.452  -0.248  1.00  0.00    -0.346 OA
ATOM     10  H1  UNL     1       5.727   0.676  -0.377  1.00  0.00     0.219 HD
ENDBRANCH   6   9
ENDBRANCH   1   3
BRANCH   1  11
HETATM   11  N2  UNL     1       0.100  -0.848   1.801  1.00  0.00    -0.307 N 
HETATM   12  C4  UNL     1      -0.863  -0.706   0.967  1.00  0.00     0.004 C 
HETATM   13  C5  UNL     1      -0.570  -0.678  -0.486  1.00  0.00     0.054 C 
HETATM   14  C9  UNL     1      -2.288  -0.565   1.373  1.00  0.00     0.054 C 
HETATM   15  C6  UNL     1      -1.750  -1.346  -1.180  1.00  0.00     0.006 C 
HETATM   16  C7  UNL     1      -2.926  -0.401  -1.049  1.00  0.00     0.001 C 
HETATM   17  C8  UNL     1      -3.016   0.210   0.313  1.00  0.00     0.006 C 
ATOM     18  H2  UNL     1      -0.090  -0.869   2.803  1.00  0.00     0.186 HD
ENDBRANCH   1  11
TORSDOF 3
