REMARK  3 active torsions:
REMARK  status: ('A' for Active; 'I' for Inactive)
REMARK    1  A    between atoms: C2_2  and  C3_3 
REMARK    2  A    between atoms: N3_8  and  C5_9 
REMARK    3  A    between atoms: C12_16  and  N4_17 
ROOT
HETATM    1  C3  UNL     1       3.605   0.065  -0.011  1.00  0.00     0.122 A 
HETATM    2  N1  UNL     1       2.956  -1.086   0.087  1.00  0.00    -0.316 N 
ATOM      3  H1  UNL     1       3.478  -1.944   0.263  1.00  0.00     0.170 HD
HETATM    4  C4  UNL     1       1.617  -1.138  -0.043  1.00  0.00     0.211 A 
HETATM    5  N2  UNL     1       0.982  -2.373   0.069  1.00  0.00    -0.062 NA
HETATM    6  N3  UNL     1       0.876  -0.037  -0.277  1.00  0.00    -0.150 N 
HETATM    7  C12 UNL     1       1.564   1.118  -0.372  1.00  0.00     0.682 A 
HETATM    8  N5  UNL     1       2.897   1.185  -0.244  1.00  0.00    -0.177 N 
ATOM      9  H5  UNL     1       3.373   2.083  -0.323  1.00  0.00     0.186 HD
ENDROOT
BRANCH   6  10
HETATM   10  C5  UNL     1      -0.531   0.003  -0.427  1.00  0.00     0.111 C 
HETATM   11  C6  UNL     1      -1.197  -1.177  -1.024  1.00  0.00     0.026 C 
HETATM   12  C7  UNL     1      -2.537  -0.674  -1.598  1.00  0.00     0.002 C 
HETATM   13  C8  UNL     1      -3.282  -0.004  -0.488  1.00  0.00     0.004 C 
HETATM   14  C9  UNL     1      -2.667  -0.184   0.861  1.00  0.00    -0.017 C 
HETATM   15  C10 UNL     1      -3.459   0.700   1.834  1.00  0.00     0.010 C 
HETATM   16  C11 UNL     1      -1.250   0.327   0.887  1.00  0.00     0.030 C 
ENDBRANCH   6  10
BRANCH   7  17
HETATM   17  N4  UNL     1       0.931   2.239  -0.598  1.00  0.00    -0.234 N 
ATOM     18  H42 UNL     1      -0.083   2.188  -0.695  1.00  0.00     0.174 HD
ATOM     19  H41 UNL     1       1.452   3.113  -0.670  1.00  0.00     0.174 HD
ENDBRANCH   7  17
BRANCH   1  20
HETATM   20  C2  UNL     1       5.065   0.126   0.131  1.00  0.00     0.039 C 
HETATM   21  C1  UNL     1       5.710   1.267   0.034  1.00  0.00     0.015 C 
ENDBRANCH   1  20
TORSDOF 3
