REMARK  2 active torsions:
REMARK  status: ('A' for Active; 'I' for Inactive)
REMARK    1  A    between atoms: C2_2  and  N1_4 
REMARK    2  A    between atoms: C4_6  and  C5_8 
ROOT
HETATM    1  N1  UNL     1       1.330   0.198   0.749  1.00  0.00    -0.380 N 
ATOM      2  H1  UNL     1       0.986   0.412   1.685  1.00  0.00     0.160 HD
HETATM    3  C4  UNL     1       0.447   0.007  -0.128  1.00  0.00     0.080 C 
HETATM    4 CL1  UNL     1       0.917  -0.364  -1.767  1.00  0.00    -0.069 Cl
ENDROOT
BRANCH   3   5
HETATM    5  C5  UNL     1      -0.983   0.110   0.284  1.00  0.00     0.051 C 
HETATM    6  C6  UNL     1      -1.707  -1.213   0.033  1.00  0.00     0.038 C 
HETATM    7  C7  UNL     1      -3.196  -1.009   0.057  1.00  0.00     0.168 C 
HETATM    8  O1  UNL     1      -3.580   0.160   0.688  1.00  0.00    -0.391 OA
HETATM    9  C8  UNL     1      -3.094   1.305   0.124  1.00  0.00     0.168 C 
HETATM   10  C9  UNL     1      -1.732   1.158  -0.504  1.00  0.00     0.038 C 
ENDBRANCH   3   5
BRANCH   1  11
HETATM   11  C2  UNL     1       2.733   0.155   0.606  1.00  0.00     0.074 C 
HETATM   12  C1  UNL     1       3.280   0.961  -0.525  1.00  0.00     0.031 C 
HETATM   13  C3  UNL     1       3.184  -1.299   0.508  1.00  0.00     0.031 C 
ENDBRANCH   1  11
TORSDOF 2
