REMARK  5 active torsions:
REMARK  status: ('A' for Active; 'I' for Inactive)
REMARK    1  A    between atoms: N1_4  and  C4_5 
REMARK    2  A    between atoms: C4_5  and  C5_6 
REMARK    3  A    between atoms: C5_6  and  C6_7 
REMARK    4  A    between atoms: C6_7  and  N2_8 
REMARK    5  A    between atoms: C9_12  and  N3_13 
ROOT
HETATM    1  C5  UNL     1      -0.907  -0.201   0.150  1.00  0.00     0.040 C 
ENDROOT
BRANCH   1   2
HETATM    2  C4  UNL     1       0.294  -0.849   0.775  1.00  0.00     0.130 C 
BRANCH   2   3
HETATM    3  N1  UNL     1       1.521  -0.502   0.101  1.00  0.00    -0.359 N 
HETATM    4  C3  UNL     1       2.104  -1.138  -0.923  1.00  0.00     0.099 A 
HETATM    5  C2  UNL     1       3.268  -0.504  -1.295  1.00  0.00    -0.027 A 
HETATM    6  C1  UNL     1       4.234  -0.851  -2.370  1.00  0.00     0.051 C 
HETATM    7  C12 UNL     1       3.390   0.576  -0.443  1.00  0.00     0.040 A 
HETATM    8  C10 UNL     1       2.294   0.542   0.401  1.00  0.00     0.025 A 
HETATM    9 BR1  UNL     1       4.814   1.843  -0.467  1.00  0.00    -0.048 Br
HETATM   10  C11 UNL     1       2.086   1.572   1.472  1.00  0.00     0.070 C 
ENDBRANCH   2   3
ENDBRANCH   1   2
BRANCH   1  11
HETATM   11  C6  UNL     1      -2.128  -0.609   0.902  1.00  0.00     0.132 C 
BRANCH  11  12
HETATM   12  N2  UNL     1      -3.357   0.005   0.326  1.00  0.00    -0.337 N 
HETATM   13  C7  UNL     1      -4.055  -0.595  -0.600  1.00  0.00     0.100 A 
HETATM   14  C8  UNL     1      -5.178   0.044  -1.067  1.00  0.00     0.070 A 
HETATM   15  S1  UNL     1      -5.182   1.481  -0.154  1.00  0.00    -0.065 SA
HETATM   16  C9  UNL     1      -3.772   1.196   0.762  1.00  0.00     0.144 A 
BRANCH  16  17
HETATM   17  N3  UNL     1      -3.210   1.956   1.680  1.00  0.00    -0.379 N 
ATOM     18  H32 UNL     1      -2.367   1.786   2.228  1.00  0.00     0.158 HD
ATOM     19  H31 UNL     1      -3.527   2.866   2.013  1.00  0.00     0.158 HD
ENDBRANCH  16  17
ENDBRANCH  11  12
ENDBRANCH   1  11
TORSDOF 5
