REMARK  4 active torsions:
REMARK  status: ('A' for Active; 'I' for Inactive)
REMARK    1  A    between atoms: N2_4  and  C2_5 
REMARK    2  A    between atoms: C13_19  and  C14_20 
REMARK    3  A    between atoms: C14_20  and  N5_21 
REMARK    4  A    between atoms: N5_21  and  C15_24 
ROOT
HETATM    1  C1  UNL     1       1.805  -0.664  -1.755  1.00  0.00     0.137 A 
HETATM    2  N1  UNL     1       0.528  -0.900  -1.423  1.00  0.00    -0.291 N 
ATOM      3  H1  UNL     1      -0.146  -1.442  -1.963  1.00  0.00     0.188 HD
HETATM    4  N2  UNL     1       0.300  -0.294  -0.254  1.00  0.00    -0.193 N 
HETATM    5  N4  UNL     1       1.415   0.303   0.126  1.00  0.00    -0.283 N 
ATOM      6  H4  UNL     1       1.521   0.841   0.986  1.00  0.00     0.188 HD
HETATM    7  C13 UNL     1       2.390   0.104  -0.776  1.00  0.00     0.070 A 
ENDROOT
BRANCH   4   8
HETATM    8  C2  UNL     1      -0.930  -0.266   0.500  1.00  0.00     0.267 C 
HETATM    9  C3  UNL     1      -1.630  -1.581   0.427  1.00  0.00     0.069 C 
HETATM   10  C4  UNL     1      -3.011  -1.600   0.947  1.00  0.00     0.011 C 
HETATM   11  C5  UNL     1      -3.625  -0.296   1.270  1.00  0.00     0.019 C 
HETATM   12  C6  UNL     1      -4.855   0.031   0.440  1.00  0.00     0.007 C 
HETATM   13  C10 UNL     1      -2.707   0.886   1.204  1.00  0.00     0.230 C 
HETATM   14  C7  UNL     1      -4.578   0.037  -1.030  1.00  0.00     0.002 C 
HETATM   15  C8  UNL     1      -3.694   1.245  -1.351  1.00  0.00     0.030 C 
HETATM   16  C9  UNL     1      -2.279   0.808  -1.178  1.00  0.00     0.276 C 
HETATM   17  N3  UNL     1      -1.767   0.857   0.145  1.00  0.00     0.126 N 
HETATM   18  C11 UNL     1      -1.827   0.842   2.447  1.00  0.00     0.041 C 
HETATM   19  C12 UNL     1      -0.618   0.043   1.947  1.00  0.00     0.070 C 
ENDBRANCH   4   8
BRANCH   7  20
HETATM   20  C14 UNL     1       3.783   0.616  -0.705  1.00  0.00     0.292 C 
BRANCH  20  21
HETATM   21  N5  UNL     1       4.667  -0.328  -0.059  1.00  0.00    -0.066 N 
ATOM     22  H52 UNL     1       4.338  -0.602   0.867  1.00  0.00     0.278 HD
ATOM     23  H51 UNL     1       4.641  -1.250  -0.495  1.00  0.00     0.278 HD
BRANCH  21  24
HETATM   24  C15 UNL     1       6.011   0.240  -0.030  1.00  0.00     0.186 A 
HETATM   25  C16 UNL     1       6.703   0.527  -1.319  1.00  0.00     0.035 A 
HETATM   26  C17 UNL     1       7.089  -0.643  -0.487  1.00  0.00     0.035 A 
ENDBRANCH  21  24
ENDBRANCH  20  21
ENDBRANCH   7  20
TORSDOF 4
