REMARK  7 active torsions:
REMARK  status: ('A' for Active; 'I' for Inactive)
REMARK    1  A    between atoms: O1_2  and  C2_3 
REMARK    2  A    between atoms: N2_7  and  C4_9 
REMARK    3  A    between atoms: C5_11  and  C6_12 
REMARK    4  A    between atoms: C6_12  and  C7_13 
REMARK    5  A    between atoms: C7_13  and  C8_14 
REMARK    6  A    between atoms: C12_18  and  S1_19 
REMARK    7  A    between atoms: S1_19  and  C13_20 
ROOT
HETATM    1  C2  UNL     1      -3.145   1.711  -0.275  1.00  0.00     0.225 A 
HETATM    2  N1  UNL     1      -2.342   2.349   0.577  1.00  0.00    -0.307 N 
ATOM      3  H1  UNL     1      -2.730   3.116   1.126  1.00  0.00     0.171 HD
HETATM    4  C3  UNL     1      -1.029   2.029   0.751  1.00  0.00     0.131 A 
HETATM    5  N2  UNL     1      -0.382   2.702   1.581  1.00  0.00    -0.328 N 
ATOM      6  H2  UNL     1      -0.978   3.411   2.009  1.00  0.00     0.169 HD
HETATM    7  C5  UNL     1      -0.529   0.978  -0.013  1.00  0.00     0.095 A 
HETATM    8  C12 UNL     1      -1.352   0.324  -0.884  1.00  0.00     0.096 A 
HETATM    9  N3  UNL     1      -2.625   0.703  -0.992  1.00  0.00    -0.315 N 
ATOM     10  H3  UNL     1      -3.229   0.206  -1.647  1.00  0.00     0.170 HD
ENDROOT
BRANCH   7  11
HETATM   11  C6  UNL     1       0.848   0.584   0.084  1.00  0.00    -0.060 C 
BRANCH  11  12
HETATM   12  C7  UNL     1       2.003   0.245   0.138  1.00  0.00    -0.096 C 
BRANCH  12  13
HETATM   13  C8  UNL     1       3.409  -0.140   0.196  1.00  0.00     0.065 C 
HETATM   14  C9  UNL     1       3.591  -1.568  -0.220  1.00  0.00     0.017 C 
HETATM   15  C10 UNL     1       4.865  -1.125  -0.954  1.00  0.00     0.002 C 
HETATM   16  C11 UNL     1       4.207   0.257  -1.047  1.00  0.00     0.017 C 
ENDBRANCH  12  13
ENDBRANCH  11  12
ENDBRANCH   7  11
BRANCH   8  17
HETATM   17  S1  UNL     1      -0.725  -1.005  -1.865  1.00  0.00    -0.106 SA
BRANCH  17  18
HETATM   18  C13 UNL     1      -0.997  -2.633  -1.184  1.00  0.00     0.045 C 
HETATM   19  C14 UNL     1      -0.256  -2.905   0.100  1.00  0.00     0.021 C 
HETATM   20  C15 UNL     1      -2.465  -2.915  -0.917  1.00  0.00     0.021 C 
ENDBRANCH  17  18
ENDBRANCH   8  17
BRANCH   5  21
HETATM   21  C4  UNL     1       0.908   2.773   2.096  1.00  0.00     0.282 C 
HETATM   22  F1  UNL     1       0.914   3.743   3.117  1.00  0.00    -0.201 F 
ENDBRANCH   5  21
BRANCH   1  23
HETATM   23  O1  UNL     1      -4.463   2.133  -0.361  1.00  0.00    -0.327 OA
HETATM   24  C1  UNL     1      -5.002   3.178   0.384  1.00  0.00     0.213 C 
ENDBRANCH   1  23
TORSDOF 7
