REMARK  8 active torsions:
REMARK  status: ('A' for Active; 'I' for Inactive)
REMARK    1  A    between atoms: C1_2  and  C2_3 
REMARK       I    between atoms: C1_2  and  N4_22 
REMARK    2  A    between atoms: C2_3  and  C3_4 
REMARK    3  A    between atoms: C3_4  and  C4_5 
REMARK    4  A    between atoms: C5_11  and  N3_12 
REMARK    5  A    between atoms: N3_12  and  C6_14 
REMARK    6  A    between atoms: C6_14  and  C7_15 
REMARK    7  A    between atoms: N5_25  and  C15_26 
REMARK    8  A    between atoms: C15_26  and  C16_27 
ROOT
HETATM    1  C4  UNL     1      -1.563   1.200  -2.362  1.00  0.00     0.080 A 
HETATM    2  N1  UNL     1      -1.107   2.112  -3.263  1.00  0.00    -0.242 N 
ATOM      3  H1  UNL     1      -0.479   1.921  -4.044  1.00  0.00     0.196 HD
HETATM    4  O2  UNL     1      -1.604   3.254  -2.959  1.00  0.00    -0.155 OA
HETATM    5  N2  UNL     1      -2.363   3.218  -1.929  1.00  0.00    -0.224 N 
ATOM      6  H2  UNL     1      -2.862   4.002  -1.508  1.00  0.00     0.198 HD
HETATM    7  C5  UNL     1      -2.371   1.906  -1.503  1.00  0.00     0.148 A 
ENDROOT
BRANCH   1   8
HETATM    8  C3  UNL     1      -1.234  -0.212  -2.346  1.00  0.00     0.072 C 
BRANCH   8   9
HETATM    9  C2  UNL     1      -0.201  -0.573  -1.346  1.00  0.00     0.109 C 
BRANCH   9  10
HETATM   10  C1  UNL     1       1.101   0.099  -1.665  1.00  0.00     0.220 C 
HETATM   11  O1  UNL     1       1.331   0.676  -2.756  1.00  0.00    -0.273 OA
HETATM   12  N4  UNL     1       2.154   0.103  -0.716  1.00  0.00    -0.349 N 
HETATM   13  C13 UNL     1       3.403   0.741  -1.011  1.00  0.00     0.156 C 
HETATM   14  C21 UNL     1       1.963  -0.544   0.554  1.00  0.00     0.156 C 
HETATM   15  C14 UNL     1       4.286   0.569   0.233  1.00  0.00     0.292 C 
HETATM   16  N5  UNL     1       4.380  -0.833   0.484  1.00  0.00     0.097 N 
HETATM   17  C20 UNL     1       3.142  -1.507   0.720  1.00  0.00     0.292 C 
BRANCH  16  18
HETATM   18  C15 UNL     1       5.302  -1.211   1.521  1.00  0.00     0.337 C 
BRANCH  18  19
HETATM   19  C16 UNL     1       6.714  -0.790   1.231  1.00  0.00     0.080 A 
HETATM   20  C17 UNL     1       7.318   0.365   1.654  1.00  0.00     0.036 A 
HETATM   21  C18 UNL     1       8.600   0.363   1.175  1.00  0.00     0.027 A 
HETATM   22  C19 UNL     1       8.744  -0.813   0.462  1.00  0.00     0.142 A 
HETATM   23  O3  UNL     1       7.603  -1.452   0.529  1.00  0.00    -0.325 OA
ENDBRANCH  18  19
ENDBRANCH  16  18
ENDBRANCH   9  10
ENDBRANCH   8   9
ENDBRANCH   1   8
BRANCH   7  24
HETATM   24  N3  UNL     1      -3.069   1.572  -0.517  1.00  0.00    -0.373 N 
ATOM     25  H3  UNL     1      -3.540   2.385  -0.120  1.00  0.00     0.161 HD
BRANCH  24  26
HETATM   26  C6  UNL     1      -3.392   0.427   0.195  1.00  0.00     0.127 C 
BRANCH  26  27
HETATM   27  C7  UNL     1      -4.593   0.631   1.144  1.00  0.00     0.022 C 
HETATM   28  C8  UNL     1      -5.788   1.027   0.315  1.00  0.00     0.007 C 
HETATM   29  C9  UNL     1      -6.330  -0.153  -0.471  1.00  0.00     0.001 C 
HETATM   30  C10 UNL     1      -6.756  -1.190   0.525  1.00  0.00     0.002 C 
HETATM   31  C11 UNL     1      -5.576  -1.672   1.329  1.00  0.00     0.020 C 
HETATM   32  C12 UNL     1      -4.826  -0.558   2.002  1.00  0.00     0.088 C 
HETATM   33 CL1  UNL     1      -5.650  -0.110   3.526  1.00  0.00    -0.125 Cl
ENDBRANCH  26  27
ENDBRANCH  24  26
ENDBRANCH   7  24
TORSDOF 8
