REMARK  7 active torsions:
REMARK  status: ('A' for Active; 'I' for Inactive)
REMARK    1  A    between atoms: C3_3  and  C4_4 
REMARK    2  A    between atoms: C4_4  and  C5_5 
REMARK    3  A    between atoms: C5_5  and  C6_6 
REMARK       I    between atoms: C6_6  and  N1_8 
REMARK       I    between atoms: N1_8  and  C7_10 
REMARK    4  A    between atoms: C7_10  and  C8_12 
REMARK    5  A    between atoms: C8_12  and  O3_13 
REMARK    6  A    between atoms: O3_13  and  C9_14 
REMARK    7  A    between atoms: C9_14  and  C10_16 
ROOT
HETATM    1  C1  UNL     1       9.329   1.575  -0.292  1.00  0.00     0.012 C 
HETATM    2  C2  UNL     1       8.394   0.900   0.052  1.00  0.00    -0.117 C 
HETATM    3  C3  UNL     1       7.253   0.059   0.497  1.00  0.00     0.093 C 
ENDROOT
BRANCH   3   4
HETATM    4  C4  UNL     1       6.990  -0.951  -0.562  1.00  0.00     0.021 C 
BRANCH   4   5
HETATM    5  C5  UNL     1       5.869  -1.863  -0.215  1.00  0.00     0.104 C 
BRANCH   5   6
HETATM    6  C6  UNL     1       4.560  -1.157  -0.081  1.00  0.00     0.224 C 
HETATM    7  O1  UNL     1       4.449   0.052  -0.399  1.00  0.00    -0.273 OA
HETATM    8  N1  UNL     1       3.422  -1.839   0.407  1.00  0.00    -0.296 N 
HETATM    9  C7  UNL     1       2.169  -1.257   0.562  1.00  0.00     0.248 C 
ATOM     10  H1  UNL     1       3.527  -2.821   0.662  1.00  0.00     0.171 HD
HETATM   11  O2  UNL     1       1.211  -1.981   1.036  1.00  0.00    -0.271 OA
BRANCH   9  12
HETATM   12  C8  UNL     1       1.908   0.152   0.203  1.00  0.00     0.282 C 
BRANCH  12  13
HETATM   13  O3  UNL     1       0.530   0.502   0.421  1.00  0.00    -0.308 OA
BRANCH  13  14
HETATM   14  C9  UNL     1      -0.425  -0.122  -0.322  1.00  0.00     0.295 C 
HETATM   15  O4  UNL     1      -0.148  -0.984  -1.194  1.00  0.00    -0.259 OA
BRANCH  14  16
HETATM   16  C10 UNL     1      -1.870   0.172  -0.155  1.00  0.00     0.060 A 
HETATM   17  C11 UNL     1      -2.824  -0.466  -0.913  1.00  0.00     0.058 A 
HETATM   18  C12 UNL     1      -4.154  -0.172  -0.734  1.00  0.00     0.103 A 
HETATM   19  C13 UNL     1      -4.545   0.766   0.207  1.00  0.00     0.109 A 
HETATM   20  O6  UNL     1      -5.012  -0.905  -1.581  1.00  0.00    -0.348 OA
HETATM   21  C14 UNL     1      -3.596   1.426   0.988  1.00  0.00    -0.007 A 
HETATM   22  O5  UNL     1      -5.857   1.138   0.468  1.00  0.00    -0.348 OA
HETATM   23  C15 UNL     1      -4.050   2.408   1.970  1.00  0.00     0.052 C 
HETATM   24  C16 UNL     1      -2.285   1.103   0.778  1.00  0.00     0.036 A 
HETATM   25 BR1  UNL     1      -0.945   1.971   1.813  1.00  0.00    -0.049 Br
HETATM   26  C17 UNL     1      -6.912   1.111  -0.452  1.00  0.00     0.178 C 
HETATM   27  C18 UNL     1      -7.292  -0.157  -1.058  1.00  0.00     0.053 C 
HETATM   28  C19 UNL     1      -6.330  -1.251  -1.235  1.00  0.00     0.178 C 
ENDBRANCH  14  16
ENDBRANCH  13  14
ENDBRANCH  12  13
ENDBRANCH   9  12
ENDBRANCH   5   6
ENDBRANCH   4   5
ENDBRANCH   3   4
TORSDOF 7
