REMARK  11 active torsions:
REMARK  status: ('A' for Active; 'I' for Inactive)
REMARK    1  A    between atoms: N1_5  and  C5_6 
REMARK    2  A    between atoms: C5_6  and  O1_7 
REMARK    3  A    between atoms: C5_6  and  C6_9 
REMARK    4  A    between atoms: C6_9  and  O2_10 
REMARK    5  A    between atoms: O2_10  and  C7_11 
REMARK    6  A    between atoms: C7_11  and  C8_13 
REMARK    7  A    between atoms: C8_13  and  C9_14 
REMARK    8  A    between atoms: C9_14  and  C10_15 
REMARK    9  A    between atoms: C10_15  and  C11_16 
REMARK       I    between atoms: C11_16  and  N2_18 
REMARK   10  A    between atoms: N2_18  and  C12_20 
REMARK   11  A    between atoms: C13_25  and  C14_26 
ROOT
HETATM    1  C10 UNL     1      -0.942  -0.855  -2.514  1.00  0.00     0.103 C 
ENDROOT
BRANCH   1   2
HETATM    2  C9  UNL     1       0.321  -1.401  -1.938  1.00  0.00     0.019 C 
BRANCH   2   3
HETATM    3  C8  UNL     1       0.235  -1.872  -0.526  1.00  0.00     0.112 C 
BRANCH   3   4
HETATM    4  C7  UNL     1       1.584  -2.376  -0.129  1.00  0.00     0.263 C 
HETATM    5  O3  UNL     1       1.789  -2.843   1.012  1.00  0.00    -0.265 OA
BRANCH   4   6
HETATM    6  O2  UNL     1       2.659  -2.339  -1.026  1.00  0.00    -0.287 OA
BRANCH   6   7
HETATM    7  C6  UNL     1       3.944  -2.777  -0.753  1.00  0.00     0.201 C 
BRANCH   7   8
HETATM    8  C5  UNL     1       4.750  -2.075   0.225  1.00  0.00     0.161 C 
BRANCH   8   9
HETATM    9  N1  UNL     1       4.603  -0.805   0.721  1.00  0.00    -0.360 N 
HETATM   10  C4  UNL     1       5.505  -0.316   1.781  1.00  0.00     0.125 C 
HETATM   11  C3  UNL     1       6.428   0.691   1.188  1.00  0.00     0.024 C 
HETATM   12  C2  UNL     1       5.770   1.371   0.018  1.00  0.00    -0.015 C 
HETATM   13  C1  UNL     1       6.441   2.709  -0.228  1.00  0.00     0.010 C 
HETATM   14  C20 UNL     1       4.314   1.561   0.288  1.00  0.00     0.024 C 
HETATM   15  C19 UNL     1       3.652   0.166   0.251  1.00  0.00     0.125 C 
ENDBRANCH   8   9
BRANCH   8  16
HETATM   16  O1  UNL     1       5.761  -2.752   0.693  1.00  0.00    -0.345 OA
ATOM     17  H1  UNL     1       5.863  -3.632   0.349  1.00  0.00     0.219 HD
ENDBRANCH   8  16
ENDBRANCH   7   8
ENDBRANCH   6   7
ENDBRANCH   4   6
ENDBRANCH   3   4
ENDBRANCH   2   3
ENDBRANCH   1   2
BRANCH   1  18
HETATM   18  C11 UNL     1      -2.062  -1.807  -2.576  1.00  0.00     0.223 C 
HETATM   19  O4  UNL     1      -1.884  -3.010  -2.287  1.00  0.00    -0.273 OA
HETATM   20  N2  UNL     1      -3.335  -1.375  -2.961  1.00  0.00    -0.306 N 
ATOM     21  H2  UNL     1      -3.676  -1.528  -3.910  1.00  0.00     0.171 HD
BRANCH  20  22
HETATM   22  C12 UNL     1      -4.079  -0.766  -2.066  1.00  0.00     0.167 A 
HETATM   23  N3  UNL     1      -3.784  -0.490  -0.793  1.00  0.00    -0.279 N 
HETATM   24  N4  UNL     1      -4.645   0.111  -0.082  1.00  0.00    -0.295 N 
ATOM     25  H3  UNL     1      -2.882  -0.758  -0.400  1.00  0.00     0.189 HD
HETATM   26  C13 UNL     1      -5.808   0.459  -0.581  1.00  0.00     0.076 A 
ATOM     27  H4  UNL     1      -4.431   0.327   0.892  1.00  0.00     0.187 HD
HETATM   28  S1  UNL     1      -5.657  -0.122  -2.202  1.00  0.00    -0.037 SA
BRANCH  26  29
HETATM   29  C14 UNL     1      -6.974   1.169   0.052  1.00  0.00     0.078 C 
HETATM   30  C15 UNL     1      -6.514   2.453   0.633  1.00  0.00     0.014 C 
HETATM   31  C16 UNL     1      -6.422   2.297   2.120  1.00  0.00     0.004 C 
HETATM   32  C17 UNL     1      -6.527   0.805   2.359  1.00  0.00     0.038 C 
HETATM   33  C18 UNL     1      -7.399   0.338   1.232  1.00  0.00     0.180 C 
HETATM   34  F1  UNL     1      -7.114  -0.983   0.944  1.00  0.00    -0.249 F 
ENDBRANCH  26  29
ENDBRANCH  20  22
ENDBRANCH   1  18
TORSDOF 11
