REMARK  8 active torsions:
REMARK  status: ('A' for Active; 'I' for Inactive)
REMARK    1  A    between atoms: C2_2  and  N1_3 
REMARK    2  A    between atoms: C4_5  and  C5_6 
REMARK       I    between atoms: C5_6  and  N2_8 
REMARK    3  A    between atoms: N2_8  and  C6_10 
REMARK    4  A    between atoms: C16_21  and  O2_22 
REMARK    5  A    between atoms: C18_24  and  O3_25 
REMARK    6  A    between atoms: O3_25  and  C19_26 
REMARK    7  A    between atoms: C19_26  and  C20_27 
REMARK    8  A    between atoms: C20_27  and  N4_28 
ROOT
HETATM    1  N1  UNL     1      -1.364   2.144  -0.622  1.00  0.00    -0.353 N 
HETATM    2  C3  UNL     1      -2.632   1.803  -0.225  1.00  0.00     0.112 A 
HETATM    3  C4  UNL     1      -2.968   0.535   0.131  1.00  0.00     0.089 A 
HETATM    4  C12 UNL     1      -2.022  -0.495   0.108  1.00  0.00     0.135 A 
HETATM    5  N3  UNL     1      -2.245  -1.629   0.405  1.00  0.00    -0.427 NA
HETATM    6  C13 UNL     1      -2.382  -2.917   0.712  1.00  0.00     0.229 C 
HETATM    7  C14 UNL     1      -0.720  -0.115  -0.304  1.00  0.00     0.038 A 
HETATM    8  C15 UNL     1       0.261  -1.084  -0.329  1.00  0.00     0.057 A 
HETATM    9  C16 UNL     1       1.578  -0.802  -0.703  1.00  0.00     0.105 A 
HETATM   10  C18 UNL     1       1.893   0.476  -1.054  1.00  0.00     0.143 A 
HETATM   11  C27 UNL     1       0.890   1.445  -1.025  1.00  0.00     0.180 A 
HETATM   12  F1  UNL     1       1.227   2.715  -1.364  1.00  0.00    -0.201 F 
HETATM   13  C28 UNL     1      -0.409   1.179  -0.658  1.00  0.00     0.090 A 
ENDROOT
BRANCH   3  14
HETATM   14  C5  UNL     1      -4.346   0.312   0.500  1.00  0.00     0.256 C 
HETATM   15  O1  UNL     1      -4.643   0.389   1.735  1.00  0.00    -0.267 OA
HETATM   16  N2  UNL     1      -5.411   0.022  -0.402  1.00  0.00    -0.352 N 
ATOM     17  H2  UNL     1      -5.225  -0.051  -1.402  1.00  0.00     0.163 HD
BRANCH  16  18
HETATM   18  C6  UNL     1      -6.772  -0.172   0.103  1.00  0.00     0.084 C 
HETATM   19  C7  UNL     1      -7.445  -1.196  -0.732  1.00  0.00     0.025 C 
HETATM   20  C8  UNL     1      -8.833  -1.516  -0.207  1.00  0.00     0.002 C 
HETATM   21  C9  UNL     1      -9.372  -0.402   0.671  1.00  0.00     0.000 C 
HETATM   22  C10 UNL     1      -8.997   0.977   0.139  1.00  0.00     0.002 C 
HETATM   23  C11 UNL     1      -7.507   1.169   0.124  1.00  0.00     0.025 C 
ENDBRANCH  16  18
ENDBRANCH   3  14
BRANCH   1  24
HETATM   24  C2  UNL     1      -1.144   3.501  -0.985  1.00  0.00     0.124 C 
HETATM   25  C1  UNL     1      -0.723   4.273   0.248  1.00  0.00     0.027 C 
ENDBRANCH   1  24
BRANCH   9  26
HETATM   26  O2  UNL     1       2.530  -1.803  -0.710  1.00  0.00    -0.353 OA
HETATM   27  C17 UNL     1       2.196  -3.114  -0.321  1.00  0.00     0.210 C 
ENDBRANCH   9  26
BRANCH  10  28
HETATM   28  O3  UNL     1       3.146   0.936  -1.448  1.00  0.00    -0.344 OA
BRANCH  28  29
HETATM   29  C19 UNL     1       4.119   1.503  -0.648  1.00  0.00     0.206 C 
BRANCH  29  30
HETATM   30  C20 UNL     1       4.742   0.708   0.427  1.00  0.00     0.299 C 
BRANCH  30  31
HETATM   31  N4  UNL     1       5.505  -0.444  -0.007  1.00  0.00     0.090 N 
HETATM   32  C21 UNL     1       5.944  -1.146   1.194  1.00  0.00     0.273 C 
HETATM   33  C22 UNL     1       7.366  -1.662   1.073  1.00  0.00     0.034 C 
HETATM   34  C23 UNL     1       8.366  -0.561   0.943  1.00  0.00    -0.015 C 
HETATM   35  C24 UNL     1       9.660  -1.126   0.368  1.00  0.00     0.010 C 
HETATM   36  C25 UNL     1       7.796   0.489   0.042  1.00  0.00     0.034 C 
HETATM   37  C26 UNL     1       6.677  -0.100  -0.772  1.00  0.00     0.273 C 
ENDBRANCH  30  31
ENDBRANCH  29  30
ENDBRANCH  28  29
ENDBRANCH  10  28
TORSDOF 8
