REMARK  9 active torsions:
REMARK  status: ('A' for Active; 'I' for Inactive)
REMARK    1  A    between atoms: C2_2  and  O1_3 
REMARK    2  A    between atoms: O1_3  and  C3_4 
REMARK    3  A    between atoms: C3_4  and  C4_6 
REMARK    4  A    between atoms: N1_9  and  C7_10 
REMARK    5  A    between atoms: C7_10  and  C8_11 
REMARK    6  A    between atoms: C9_12  and  C10_13 
REMARK    7  A    between atoms: C14_20  and  C16_22 
REMARK       I    between atoms: C16_22  and  N3_24 
REMARK    8  A    between atoms: N3_24  and  C17_26 
REMARK    9  A    between atoms: C17_26  and  C18_27 
ROOT
HETATM    1  C4  UNL     1      -0.667   1.725   0.684  1.00  0.00     0.128 C 
HETATM    2  C5  UNL     1      -1.952   2.123   1.365  1.00  0.00     0.062 C 
HETATM    3  C6  UNL     1      -2.905   1.012   0.943  1.00  0.00     0.066 C 
HETATM    4  N1  UNL     1      -2.242   0.061   0.180  1.00  0.00    -0.350 N 
HETATM    5  C14 UNL     1      -1.049   0.633  -0.304  1.00  0.00     0.126 C 
HETATM    6  C15 UNL     1      -1.468   1.361  -1.662  1.00  0.00     0.050 C 
ENDROOT
BRANCH   5   7
HETATM    7  C16 UNL     1       0.078  -0.162  -0.748  1.00  0.00     0.247 C 
HETATM    8  O4  UNL     1      -0.085  -1.065  -1.599  1.00  0.00    -0.271 OA
HETATM    9  N3  UNL     1       1.431   0.072  -0.228  1.00  0.00    -0.359 N 
ATOM     10  H3  UNL     1       1.621   0.742   0.517  1.00  0.00     0.162 HD
BRANCH   9  11
HETATM   11  C17 UNL     1       2.476  -0.714  -0.846  1.00  0.00     0.127 C 
BRANCH  11  12
HETATM   12  C18 UNL     1       3.826  -0.298  -0.343  1.00  0.00     0.004 C 
HETATM   13  C19 UNL     1       4.821  -1.027  -1.226  1.00  0.00     0.006 C 
HETATM   14  C20 UNL     1       5.724  -1.982  -0.540  1.00  0.00     0.002 C 
HETATM   15  C21 UNL     1       6.452  -1.340   0.620  1.00  0.00     0.016 C 
HETATM   16  C22 UNL     1       5.578  -0.435   1.418  1.00  0.00     0.058 C 
HETATM   17 BR1  UNL     1       6.035   1.424   1.120  1.00  0.00    -0.091 Br
HETATM   18  C23 UNL     1       4.081  -0.623   1.106  1.00  0.00     0.022 C 
ENDBRANCH  11  12
ENDBRANCH   9  11
ENDBRANCH   5   7
BRANCH   1  19
HETATM   19  C3  UNL     1      -0.095   2.924   0.049  1.00  0.00     0.266 C 
HETATM   20  O2  UNL     1       0.506   2.829  -1.022  1.00  0.00    -0.265 OA
BRANCH  19  21
HETATM   21  O1  UNL     1      -0.261   4.141   0.672  1.00  0.00    -0.321 OA
BRANCH  21  22
HETATM   22  C2  UNL     1       0.243   5.309   0.095  1.00  0.00     0.174 C 
HETATM   23  C1  UNL     1      -0.436   5.556  -1.242  1.00  0.00     0.034 C 
ENDBRANCH  21  22
ENDBRANCH  19  21
ENDBRANCH   1  19
BRANCH   4  24
HETATM   24  C7  UNL     1      -2.847  -0.990  -0.458  1.00  0.00     0.107 C 
BRANCH  24  25
HETATM   25  C8  UNL     1      -3.719  -1.875   0.378  1.00  0.00     0.035 A 
HETATM   26  C9  UNL     1      -3.415  -3.227   0.493  1.00  0.00     0.046 A 
HETATM   27  N2  UNL     1      -4.422  -3.768   1.226  1.00  0.00    -0.264 N 
HETATM   28  O3  UNL     1      -5.253  -2.864   1.530  1.00  0.00    -0.242 OA
ATOM     29  H2  UNL     1      -4.497  -4.750   1.490  1.00  0.00     0.194 HD
HETATM   30  C12 UNL     1      -4.894  -1.673   1.035  1.00  0.00     0.086 A 
HETATM   31  C13 UNL     1      -5.733  -0.442   1.238  1.00  0.00     0.080 C 
BRANCH  26  32
HETATM   32  C10 UNL     1      -2.343  -4.025  -0.142  1.00  0.00     0.055 C 
HETATM   33  C11 UNL     1      -3.073  -4.857  -1.245  1.00  0.00     0.011 C 
ENDBRANCH  26  32
ENDBRANCH  24  25
ENDBRANCH   4  24
TORSDOF 9
