REMARK  8 active torsions:
REMARK  status: ('A' for Active; 'I' for Inactive)
REMARK    1  A    between atoms: C1_2  and  C2_3 
REMARK       I    between atoms: C1_2  and  N4_26 
REMARK    2  A    between atoms: C2_3  and  C3_4 
REMARK    3  A    between atoms: C3_4  and  C4_5 
REMARK    4  A    between atoms: C4_5  and  C5_6 
REMARK    5  A    between atoms: C5_6  and  N1_7 
REMARK    6  A    between atoms: N2_10  and  C8_11 
REMARK    7  A    between atoms: C13_17  and  N3_18 
REMARK    8  A    between atoms: N4_26  and  C20_28 
ROOT
HETATM    1  N1  UNL     1      -1.859   1.020  -0.490  1.00  0.00     0.091 N 
HETATM    2  C6  UNL     1      -2.225  -0.311  -0.911  1.00  0.00     0.292 C 
HETATM    3  C7  UNL     1      -3.650  -0.671  -0.527  1.00  0.00     0.153 C 
HETATM    4  N2  UNL     1      -4.360   0.558  -0.376  1.00  0.00    -0.376 N 
HETATM    5  C18 UNL     1      -4.032   1.596  -1.368  1.00  0.00     0.153 C 
HETATM    6  C19 UNL     1      -2.602   2.055  -1.130  1.00  0.00     0.292 C 
ENDROOT
BRANCH   1   7
HETATM    7  C5  UNL     1      -0.447   1.230  -0.449  1.00  0.00     0.272 C 
BRANCH   7   8
HETATM    8  C4  UNL     1       0.189   1.232  -1.800  1.00  0.00     0.031 C 
BRANCH   8   9
HETATM    9  C3  UNL     1       1.680   1.444  -1.714  1.00  0.00     0.011 C 
BRANCH   9  10
HETATM   10  C2  UNL     1       2.394   0.390  -0.932  1.00  0.00     0.103 C 
BRANCH  10  11
HETATM   11  C1  UNL     1       3.841   0.680  -0.907  1.00  0.00     0.217 C 
HETATM   12  O1  UNL     1       4.290   1.709  -1.454  1.00  0.00    -0.274 OA
HETATM   13  N4  UNL     1       4.785  -0.176  -0.273  1.00  0.00    -0.354 N 
ATOM     14  H4  UNL     1       4.436  -1.021   0.180  1.00  0.00     0.162 HD
BRANCH  13  15
HETATM   15  C20 UNL     1       6.190   0.075  -0.232  1.00  0.00     0.120 C 
HETATM   16  C21 UNL     1       6.876  -1.051  -1.107  1.00  0.00     0.060 C 
HETATM   17  C22 UNL     1       8.037  -1.119  -0.281  1.00  0.00     0.189 C 
HETATM   18  C23 UNL     1       9.243  -1.822  -0.125  1.00  0.00     0.037 C 
HETATM   19  N5  UNL     1       7.301  -1.430   0.935  1.00  0.00    -0.061 N 
HETATM   20  C24 UNL     1       9.755  -1.223   1.206  1.00  0.00     0.029 C 
HETATM   21  C25 UNL     1       9.303   0.127   1.559  1.00  0.00    -0.028 C 
HETATM   22  C26 UNL     1       7.965   0.671   1.547  1.00  0.00     0.004 C 
HETATM   23  C27 UNL     1       6.783  -0.147   1.164  1.00  0.00     0.231 C 
ATOM     24  H52 UNL     1       6.630  -2.197   0.885  1.00  0.00     0.278 HD
ATOM     25  H51 UNL     1       7.827  -1.858   1.697  1.00  0.00     0.278 HD
ENDBRANCH  13  15
ENDBRANCH  10  11
ENDBRANCH   9  10
ENDBRANCH   8   9
ENDBRANCH   7   8
ENDBRANCH   1   7
BRANCH   4  26
HETATM   26  C8  UNL     1      -5.303   0.872   0.612  1.00  0.00     0.058 A 
HETATM   27  C9  UNL     1      -5.005   1.876   1.557  1.00  0.00     0.055 A 
HETATM   28  C10 UNL     1      -5.859   2.267   2.542  1.00  0.00     0.036 A 
HETATM   29 CL1  UNL     1      -5.437   3.535   3.702  1.00  0.00    -0.084 Cl
HETATM   30  C11 UNL     1      -7.088   1.654   2.630  1.00  0.00     0.026 A 
HETATM   31  C12 UNL     1      -7.409   0.676   1.730  1.00  0.00     0.033 A 
HETATM   32  C13 UNL     1      -6.522   0.270   0.708  1.00  0.00     0.057 A 
BRANCH  32  33
HETATM   33  N3  UNL     1      -7.024  -0.762  -0.107  1.00  0.00    -0.375 N 
HETATM   34  C14 UNL     1      -6.611  -2.128   0.010  1.00  0.00     0.149 C 
HETATM   35  C15 UNL     1      -7.847  -3.044   0.060  1.00  0.00     0.187 C 
HETATM   36  O2  UNL     1      -8.513  -2.813  -1.147  1.00  0.00    -0.388 OA
HETATM   37  C16 UNL     1      -9.106  -1.558  -1.074  1.00  0.00     0.187 C 
HETATM   38  C17 UNL     1      -8.025  -0.464  -1.114  1.00  0.00     0.149 C 
ENDBRANCH  32  33
ENDBRANCH   4  26
TORSDOF 8
