REMARK  10 active torsions:
REMARK  status: ('A' for Active; 'I' for Inactive)
REMARK    1  A    between atoms: C2_2  and  O2_4 
REMARK    2  A    between atoms: O2_4  and  C3_5 
REMARK    3  A    between atoms: C22_26  and  C23_27 
REMARK    4  A    between atoms: C23_27  and  C24_29 
REMARK    5  A    between atoms: C24_29  and  C25_30 
REMARK    6  A    between atoms: C25_30  and  C26_31 
REMARK    7  A    between atoms: C26_31  and  O7_33 
REMARK    8  A    between atoms: O7_33  and  C27_34 
REMARK    9  A    between atoms: C27_34  and  C28_35 
REMARK   10  A    between atoms: C28_35  and  O8_36 
ROOT
HETATM    1  C3  UNL     1      -5.838  -0.233   0.447  1.00  0.00     0.132 C 
HETATM    2  C4  UNL     1      -5.604  -0.495  -0.987  1.00  0.00     0.033 C 
HETATM    3  C5  UNL     1      -4.229  -0.356  -1.501  1.00  0.00     0.013 C 
HETATM    4  C6  UNL     1      -3.554   0.813  -0.891  1.00  0.00    -0.029 C 
HETATM    5  C7  UNL     1      -4.354   2.059  -1.173  1.00  0.00     0.016 C 
HETATM    6  C8  UNL     1      -3.519   0.511   0.615  1.00  0.00     0.066 C 
HETATM    7  C9  UNL     1      -4.920   0.754   1.099  1.00  0.00     0.045 C 
HETATM    8  C10 UNL     1      -2.513   1.405   1.195  1.00  0.00     0.134 C 
HETATM    9  O3  UNL     1      -3.008   2.450   1.642  1.00  0.00    -0.297 OA
HETATM   10  C11 UNL     1      -1.073   1.269   1.326  1.00  0.00     0.117 C 
HETATM   11  C12 UNL     1      -0.361   0.422   0.353  1.00  0.00     0.076 C 
HETATM   12  O4  UNL     1       0.638   1.179  -0.323  1.00  0.00    -0.373 OA
HETATM   13  C13 UNL     1       1.647   0.225  -0.652  1.00  0.00     0.132 C 
HETATM   14  C14 UNL     1       1.032  -0.656  -1.700  1.00  0.00     0.038 C 
HETATM   15  C15 UNL     1      -0.390  -0.338  -2.006  1.00  0.00    -0.005 C 
HETATM   16  C16 UNL     1      -0.512   0.841  -2.967  1.00  0.00     0.005 C 
HETATM   17  C17 UNL     1      -1.974   1.204  -2.783  1.00  0.00     0.006 C 
HETATM   18  C18 UNL     1      -2.147   1.047  -1.304  1.00  0.00     0.002 C 
HETATM   19  C19 UNL     1      -1.249  -0.030  -0.821  1.00  0.00     0.030 C 
HETATM   20  C20 UNL     1       1.793  -0.387   0.657  1.00  0.00    -0.001 C 
HETATM   21  C21 UNL     1       2.240   0.576   1.708  1.00  0.00     0.019 C 
HETATM   22  C22 UNL     1       2.351  -1.703   0.894  1.00  0.00     0.066 C 
HETATM   23  C29 UNL     1       1.609  -2.093   2.192  1.00  0.00     0.013 C 
HETATM   24  C30 UNL     1       0.384  -1.149   2.246  1.00  0.00     0.009 C 
HETATM   25  C31 UNL     1       0.300  -0.768   0.849  1.00  0.00     0.032 C 
ENDROOT
BRANCH  22  26
HETATM   26  C23 UNL     1       3.812  -1.710   1.198  1.00  0.00     0.132 C 
HETATM   27  O5  UNL     1       4.230  -2.150   2.254  1.00  0.00    -0.298 OA
BRANCH  26  28
HETATM   28  C24 UNL     1       4.796  -1.182   0.222  1.00  0.00     0.088 C 
BRANCH  28  29
HETATM   29  C25 UNL     1       6.199  -1.303   0.769  1.00  0.00     0.118 C 
BRANCH  29  30
HETATM   30  C26 UNL     1       7.157  -0.759  -0.250  1.00  0.00     0.259 C 
HETATM   31  O6  UNL     1       6.748  -0.304  -1.344  1.00  0.00    -0.265 OA
BRANCH  30  32
HETATM   32  O7  UNL     1       8.511  -0.742  -0.014  1.00  0.00    -0.319 OA
BRANCH  32  33
HETATM   33  C27 UNL     1       9.510  -0.270  -0.861  1.00  0.00     0.204 C 
BRANCH  33  34
HETATM   34  C28 UNL     1       9.403   1.178  -1.216  1.00  0.00     0.191 C 
BRANCH  34  35
HETATM   35  O8  UNL     1       9.464   1.983  -0.059  1.00  0.00    -0.399 OA
ATOM     36  H8  UNL     1       9.396   2.903  -0.285  1.00  0.00     0.209 HD
ENDBRANCH  34  35
ENDBRANCH  33  34
ENDBRANCH  32  33
ENDBRANCH  30  32
ENDBRANCH  29  30
ENDBRANCH  28  29
ENDBRANCH  26  28
ENDBRANCH  22  26
BRANCH   1  37
HETATM   37  O2  UNL     1      -7.204   0.089   0.590  1.00  0.00    -0.316 OA
BRANCH  37  38
HETATM   38  C2  UNL     1      -8.097  -0.696   1.289  1.00  0.00     0.255 C 
HETATM   39  C1  UNL     1      -9.515  -0.293   1.396  1.00  0.00     0.126 C 
HETATM   40  O1  UNL     1      -7.616  -1.732   1.800  1.00  0.00    -0.266 OA
ENDBRANCH  37  38
ENDBRANCH   1  37
TORSDOF 10
