REMARK  8 active torsions:
REMARK  status: ('A' for Active; 'I' for Inactive)
REMARK    1  A    between atoms: C2_2  and  C3_3 
REMARK    2  A    between atoms: C3_3  and  C4_5 
REMARK    3  A    between atoms: C9_11  and  O3_12 
REMARK    4  A    between atoms: O3_12  and  C10_13 
REMARK    5  A    between atoms: C23_27  and  O5_28 
REMARK    6  A    between atoms: O5_28  and  S1_29 
REMARK    7  A    between atoms: C24_33  and  O9_34 
REMARK    8  A    between atoms: O9_34  and  C25_35 
ROOT
HETATM    1  C4  UNL     1      -1.252  -1.166  -0.164  1.00  0.00     0.132 C 
HETATM    2  C5  UNL     1       0.224  -1.170  -0.076  1.00  0.00     0.143 C 
HETATM    3  O2  UNL     1       0.820  -2.226  -0.289  1.00  0.00    -0.297 OA
HETATM    4  C6  UNL     1       1.078   0.001   0.252  1.00  0.00     0.066 C 
HETATM    5  C7  UNL     1       2.338  -0.021  -0.531  1.00  0.00     0.008 C 
HETATM    6  C8  UNL     1       3.474  -0.195   0.493  1.00  0.00     0.038 C 
HETATM    7  C9  UNL     1       4.823  -0.159  -0.168  1.00  0.00     0.132 C 
HETATM    8  C12 UNL     1       5.049   1.128  -0.927  1.00  0.00     0.033 C 
HETATM    9  C13 UNL     1       3.757   1.912  -0.919  1.00  0.00     0.012 C 
HETATM   10  C14 UNL     1       2.600   1.072  -1.478  1.00  0.00    -0.040 C 
HETATM   11  C15 UNL     1       3.137   0.537  -2.818  1.00  0.00     0.015 C 
HETATM   12  C16 UNL     1       1.499   1.997  -1.808  1.00  0.00     0.010 C 
HETATM   13  C17 UNL     1       0.123   1.513  -1.377  1.00  0.00     0.007 C 
HETATM   14  C18 UNL     1       0.242   1.250   0.088  1.00  0.00     0.006 C 
HETATM   15  C19 UNL     1      -1.015   1.144   0.845  1.00  0.00    -0.032 C 
HETATM   16  C20 UNL     1      -0.659   0.986   2.309  1.00  0.00     0.016 C 
HETATM   17  C21 UNL     1      -1.819   2.428   0.758  1.00  0.00     0.012 C 
HETATM   18  C22 UNL     1      -3.208   2.300   1.316  1.00  0.00     0.037 C 
HETATM   19  C23 UNL     1      -3.996   1.246   0.563  1.00  0.00     0.175 C 
HETATM   20  C24 UNL     1      -3.038   0.539  -0.411  1.00  0.00     0.168 C 
HETATM   21  C27 UNL     1      -1.916   0.011   0.456  1.00  0.00     0.045 C 
ENDROOT
BRANCH  19  22
HETATM   22  O5  UNL     1      -5.048   1.751  -0.156  1.00  0.00    -0.249 OA
BRANCH  22  23
HETATM   23  S1  UNL     1      -6.520   1.074   0.281  1.00  0.00     0.252 S 
HETATM   24  O6  UNL     1      -7.141   0.453  -0.935  1.00  0.00    -0.572 OA
HETATM   25  O7  UNL     1      -6.353   0.004   1.318  1.00  0.00    -0.572 OA
HETATM   26  O8  UNL     1      -7.512   2.312   0.802  1.00  0.00    -0.572 OA
ENDBRANCH  22  23
ENDBRANCH  19  22
BRANCH  20  27
HETATM   27  O9  UNL     1      -3.726  -0.564  -0.958  1.00  0.00    -0.313 OA
BRANCH  27  28
HETATM   28  C25 UNL     1      -3.963  -0.719  -2.305  1.00  0.00     0.255 C 
HETATM   29  C26 UNL     1      -4.697  -1.919  -2.767  1.00  0.00     0.126 C 
HETATM   30  O10 UNL     1      -3.574   0.121  -3.117  1.00  0.00    -0.266 OA
ENDBRANCH  27  28
ENDBRANCH  20  27
BRANCH   1  31
HETATM   31  C3  UNL     1      -1.702  -2.480   0.391  1.00  0.00     0.138 C 
HETATM   32  O1  UNL     1      -2.328  -3.247  -0.310  1.00  0.00    -0.297 OA
BRANCH  31  33
HETATM   33  C2  UNL     1      -1.414  -2.899   1.785  1.00  0.00     0.074 C 
HETATM   34  C1  UNL     1      -1.990  -4.269   2.054  1.00  0.00     0.013 C 
ENDBRANCH  31  33
ENDBRANCH   1  31
BRANCH   7  35
HETATM   35  O3  UNL     1       5.784  -0.357   0.845  1.00  0.00    -0.316 OA
BRANCH  35  36
HETATM   36  C10 UNL     1       6.589  -1.460   0.903  1.00  0.00     0.255 C 
HETATM   37  C11 UNL     1       7.605  -1.683   1.963  1.00  0.00     0.126 C 
HETATM   38  O4  UNL     1       6.472  -2.336   0.021  1.00  0.00    -0.266 OA
ENDBRANCH  35  36
ENDBRANCH   7  35
TORSDOF 8
