REMARK  9 active torsions:
REMARK  status: ('A' for Active; 'I' for Inactive)
REMARK    1  A    between atoms: O1_2  and  C2_3 
REMARK    2  A    between atoms: C6_7  and  O2_8 
REMARK    3  A    between atoms: C13_15  and  C14_16 
REMARK    4  A    between atoms: C14_16  and  O3_17 
REMARK    5  A    between atoms: O3_17  and  C15_18 
REMARK    6  A    between atoms: C23_27  and  O5_28 
REMARK    7  A    between atoms: O5_28  and  S1_29 
REMARK    8  A    between atoms: C24_33  and  O9_34 
REMARK    9  A    between atoms: O9_34  and  C25_35 
ROOT
HETATM    1  C2  UNL     1       2.011  -1.765   0.281  1.00  0.00     0.154 C 
HETATM    2  C3  UNL     1       0.573  -2.100  -0.149  1.00  0.00     0.002 C 
HETATM    3  C4  UNL     1      -0.593  -1.363   0.290  1.00  0.00    -0.015 C 
HETATM    4  C5  UNL     1      -1.520  -0.579  -0.602  1.00  0.00     0.012 C 
HETATM    5  C6  UNL     1      -2.048  -1.284  -1.783  1.00  0.00     0.134 C 
HETATM    6  C8  UNL     1      -2.727  -2.537  -1.253  1.00  0.00     0.033 C 
HETATM    7  C9  UNL     1      -3.736  -2.332  -0.207  1.00  0.00     0.007 C 
HETATM    8  C10 UNL     1      -3.656  -1.080   0.621  1.00  0.00    -0.013 C 
HETATM    9  C11 UNL     1      -3.470  -1.394   2.090  1.00  0.00     0.010 C 
HETATM   10  C12 UNL     1      -2.728  -0.043   0.084  1.00  0.00     0.010 C 
HETATM   11  C13 UNL     1      -2.254   0.980   0.972  1.00  0.00     0.016 C 
HETATM   12  C17 UNL     1      -1.257   1.683   0.011  1.00  0.00     0.013 C 
HETATM   13  C18 UNL     1      -0.787   0.793  -0.997  1.00  0.00     0.005 C 
HETATM   14  C19 UNL     1       0.645   0.204  -0.872  1.00  0.00    -0.006 C 
HETATM   15  C20 UNL     1       1.446  -0.528  -1.585  1.00  0.00     0.020 C 
HETATM   16  C21 UNL     1       2.727  -0.878  -0.816  1.00  0.00     0.016 C 
HETATM   17  C22 UNL     1       3.604  -1.813  -1.612  1.00  0.00     0.021 C 
HETATM   18  C23 UNL     1       3.452   0.256  -0.391  1.00  0.00     0.185 C 
HETATM   19  C24 UNL     1       2.662   1.306   0.316  1.00  0.00     0.163 C 
HETATM   20  C27 UNL     1       1.192   1.120   0.207  1.00  0.00     0.040 C 
ENDROOT
BRANCH  11  21
HETATM   21  C14 UNL     1      -3.233   1.935   1.515  1.00  0.00     0.183 C 
BRANCH  21  22
HETATM   22  O3  UNL     1      -3.979   2.782   0.819  1.00  0.00    -0.321 OA
BRANCH  22  23
HETATM   23  C15 UNL     1      -4.995   2.845  -0.042  1.00  0.00     0.254 C 
HETATM   24  C16 UNL     1      -5.532   4.123  -0.626  1.00  0.00     0.126 C 
HETATM   25  O4  UNL     1      -5.579   1.811  -0.425  1.00  0.00    -0.266 OA
ENDBRANCH  22  23
ENDBRANCH  21  22
ENDBRANCH  11  21
BRANCH   5  26
HETATM   26  O2  UNL     1      -1.233  -1.588  -2.814  1.00  0.00    -0.390 OA
HETATM   27  C7  UNL     1      -1.681  -1.097  -4.008  1.00  0.00     0.202 C 
ENDBRANCH   5  26
BRANCH   1  28
HETATM   28  O1  UNL     1       2.161  -1.357   1.536  1.00  0.00    -0.386 OA
HETATM   29  C1  UNL     1       2.952  -2.201   2.352  1.00  0.00     0.202 C 
ENDBRANCH   1  28
BRANCH  19  30
HETATM   30  O9  UNL     1       3.095   1.356   1.663  1.00  0.00    -0.314 OA
BRANCH  30  31
HETATM   31  C25 UNL     1       3.708   2.408   2.270  1.00  0.00     0.255 C 
HETATM   32  C26 UNL     1       4.087   2.268   3.695  1.00  0.00     0.126 C 
HETATM   33  O10 UNL     1       3.922   3.444   1.593  1.00  0.00    -0.266 OA
ENDBRANCH  30  31
ENDBRANCH  19  30
BRANCH  18  34
HETATM   34  O5  UNL     1       4.070   0.860  -1.503  1.00  0.00    -0.248 OA
BRANCH  34  35
HETATM   35  S1  UNL     1       5.720   0.867  -1.433  1.00  0.00     0.252 S 
HETATM   36  O6  UNL     1       6.294   2.263  -1.617  1.00  0.00    -0.572 OA
HETATM   37  O7  UNL     1       6.255   0.051  -2.592  1.00  0.00    -0.572 OA
HETATM   38  O8  UNL     1       6.340   0.239  -0.020  1.00  0.00    -0.572 OA
ENDBRANCH  34  35
ENDBRANCH  18  34
TORSDOF 9
