REMARK  12 active torsions:
REMARK  status: ('A' for Active; 'I' for Inactive)
REMARK    1  A    between atoms: C2_2  and  S1_3 
REMARK    2  A    between atoms: S1_3  and  C3_4 
REMARK    3  A    between atoms: C3_4  and  N1_6 
REMARK    4  A    between atoms: N2_9  and  C6_10 
REMARK    5  A    between atoms: C6_10  and  S4_12 
REMARK    6  A    between atoms: S4_12  and  S5_13 
REMARK    7  A    between atoms: S5_13  and  C7_14 
REMARK    8  A    between atoms: C7_14  and  C9_16 
REMARK    9  A    between atoms: C9_16  and  N3_17 
REMARK   10  A    between atoms: C9_16  and  C17_30 
REMARK       I    between atoms: N3_17  and  C10_19 
REMARK   11  A    between atoms: C10_19  and  C11_21 
REMARK   12  A    between atoms: C16_26  and  N4_27 
ROOT
HETATM    1  C7  UNL     1      -1.131  -2.972  -0.991  1.00  0.00     0.085 C 
HETATM    2  C8  UNL     1      -0.489  -2.322  -2.187  1.00  0.00     0.025 C 
ENDROOT
BRANCH   1   3
HETATM    3  S5  UNL     1       0.029  -3.023   0.366  1.00  0.00    -0.083 SA
BRANCH   3   4
HETATM    4  S4  UNL     1       1.670  -4.242   0.057  1.00  0.00    -0.028 SA
BRANCH   4   5
HETATM    5  C6  UNL     1       3.107  -3.579  -0.654  1.00  0.00     0.147 C 
HETATM    6  S3  UNL     1       4.221  -4.720  -1.191  1.00  0.00    -0.052 SA
BRANCH   5   7
HETATM    7  N2  UNL     1       3.495  -2.254  -0.855  1.00  0.00    -0.363 N 
HETATM    8  C5  UNL     1       4.777  -1.960  -1.519  1.00  0.00     0.144 C 
HETATM    9  C4  UNL     1       4.719  -0.534  -2.027  1.00  0.00     0.144 C 
HETATM   10  N1  UNL     1       4.597   0.327  -0.817  1.00  0.00    -0.363 N 
HETATM   11  C20 UNL     1       3.603  -0.036   0.125  1.00  0.00     0.144 C 
HETATM   12  C19 UNL     1       2.703  -1.150  -0.419  1.00  0.00     0.144 C 
BRANCH  10  13
HETATM   13  C3  UNL     1       5.472   1.405  -0.678  1.00  0.00     0.136 C 
HETATM   14  S2  UNL     1       6.585   1.604  -1.930  1.00  0.00    -0.053 SA
BRANCH  13  15
HETATM   15  S1  UNL     1       5.537   2.553   0.630  1.00  0.00    -0.101 SA
BRANCH  15  16
HETATM   16  C2  UNL     1       4.272   2.463   1.849  1.00  0.00     0.077 C 
HETATM   17  C1  UNL     1       4.594   3.471   2.982  1.00  0.00     0.016 C 
ENDBRANCH  15  16
ENDBRANCH  13  15
ENDBRANCH  10  13
ENDBRANCH   5   7
ENDBRANCH   4   5
ENDBRANCH   3   4
ENDBRANCH   1   3
BRANCH   1  18
HETATM   18  C9  UNL     1      -2.442  -2.314  -0.624  1.00  0.00     0.167 C 
BRANCH  18  19
HETATM   19  N3  UNL     1      -2.288  -0.964  -0.191  1.00  0.00    -0.348 N 
HETATM   20  C10 UNL     1      -2.791   0.139  -0.915  1.00  0.00     0.224 C 
HETATM   21  O1  UNL     1      -3.401  -0.087  -1.989  1.00  0.00    -0.273 OA
ATOM     22  H3  UNL     1      -1.791  -0.787   0.682  1.00  0.00     0.163 HD
BRANCH  20  23
HETATM   23  C11 UNL     1      -2.640   1.547  -0.479  1.00  0.00     0.107 C 
HETATM   24  C12 UNL     1      -3.200   2.485  -1.511  1.00  0.00     0.016 C 
HETATM   25  C13 UNL     1      -4.551   3.040  -1.211  1.00  0.00     0.001 C 
HETATM   26  C14 UNL     1      -4.612   3.701   0.126  1.00  0.00     0.002 C 
HETATM   27  C15 UNL     1      -3.485   3.273   1.038  1.00  0.00     0.032 C 
HETATM   28  C16 UNL     1      -3.161   1.808   0.884  1.00  0.00     0.169 C 
BRANCH  28  29
HETATM   29  N4  UNL     1      -4.339   1.061   1.253  1.00  0.00    -0.150 N 
HETATM   30  O2  UNL     1      -4.935   0.231   0.577  1.00  0.00    -0.536 OA
HETATM   31  O3  UNL     1      -4.845   1.318   2.521  1.00  0.00    -0.536 OA
ENDBRANCH  28  29
ENDBRANCH  20  23
ENDBRANCH  18  19
BRANCH  18  32
HETATM   32  C17 UNL     1      -3.085  -3.167   0.408  1.00  0.00     0.146 C 
HETATM   33  C18 UNL     1      -3.326  -4.608   0.103  1.00  0.00     0.093 C 
HETATM   34  O4  UNL     1      -3.394  -2.661   1.467  1.00  0.00    -0.296 OA
ENDBRANCH  18  32
ENDBRANCH   1  18
TORSDOF 12
