REMARK  11 active torsions:
REMARK  status: ('A' for Active; 'I' for Inactive)
REMARK    1  A    between atoms: C2_2  and  C3_3 
REMARK    2  A    between atoms: C3_3  and  C4_4 
REMARK    3  A    between atoms: C5_8  and  O1_9 
REMARK    4  A    between atoms: O1_9  and  C6_10 
REMARK    5  A    between atoms: C7_11  and  O2_12 
REMARK    6  A    between atoms: C8_14  and  O3_15 
REMARK    7  A    between atoms: C10_17  and  O4_18 
REMARK    8  A    between atoms: C11_20  and  O5_21 
REMARK    9  A    between atoms: C12_23  and  N2_24 
REMARK   10  A    between atoms: C15_27  and  O6_28 
REMARK   11  A    between atoms: C16_30  and  O7_31 
ROOT
HETATM    1  C6  UNL     1      -0.918  -0.550   0.253  1.00  0.00     0.203 C 
HETATM    2  C7  UNL     1      -1.658  -0.006   1.421  1.00  0.00     0.184 C 
HETATM    3  C8  UNL     1      -3.010  -0.625   1.648  1.00  0.00     0.184 C 
HETATM    4  C10 UNL     1      -3.831  -0.718   0.406  1.00  0.00     0.184 C 
HETATM    5  C11 UNL     1      -3.099  -1.206  -0.796  1.00  0.00     0.197 C 
HETATM    6  C12 UNL     1      -1.719  -0.720  -1.019  1.00  0.00     0.047 C 
ENDROOT
BRANCH   1   7
HETATM    7  O1  UNL     1       0.202   0.242   0.018  1.00  0.00    -0.343 OA
BRANCH   7   8
HETATM    8  C5  UNL     1       1.394  -0.443   0.256  1.00  0.00     0.353 C 
HETATM    9  N1  UNL     1       2.173  -0.546  -0.960  1.00  0.00    -0.039 N 
HETATM   10  C4  UNL     1       3.469   0.074  -0.702  1.00  0.00     0.223 C 
ATOM     11  H12 UNL     1       1.698  -0.152  -1.772  1.00  0.00     0.280 HD
ATOM     12  H11 UNL     1       2.251  -1.503  -1.303  1.00  0.00     0.280 HD
HETATM   13  C16 UNL     1       3.171   1.062   0.355  1.00  0.00     0.182 C 
HETATM   14  C15 UNL     1       2.252   0.252   1.280  1.00  0.00     0.205 C 
BRANCH  10  15
HETATM   15  C3  UNL     1       4.525  -0.934  -0.439  1.00  0.00     0.062 C 
BRANCH  15  16
HETATM   16  C2  UNL     1       5.845  -0.368  -0.185  1.00  0.00    -0.035 C 
HETATM   17  C1  UNL     1       6.868  -0.665  -1.016  1.00  0.00     0.007 C 
ENDBRANCH  15  16
ENDBRANCH  10  15
BRANCH  13  18
HETATM   18  O7  UNL     1       4.207   1.652   1.005  1.00  0.00    -0.391 OA
ATOM     19  H7  UNL     1       4.015   2.287   1.685  1.00  0.00     0.210 HD
ENDBRANCH  13  18
BRANCH  14  20
HETATM   20  O6  UNL     1       2.937  -0.583   2.125  1.00  0.00    -0.389 OA
ATOM     21  H6  UNL     1       3.478  -0.145   2.771  1.00  0.00     0.210 HD
ENDBRANCH  14  20
ENDBRANCH   7   8
ENDBRANCH   1   7
BRANCH   2  22
HETATM   22  O2  UNL     1      -1.717   1.392   1.476  1.00  0.00    -0.390 OA
ATOM     23  H2  UNL     1      -2.190   1.740   2.223  1.00  0.00     0.210 HD
ENDBRANCH   2  22
BRANCH   6  24
HETATM   24  N2  UNL     1      -1.503   0.271  -1.987  1.00  0.00    -0.392 N 
HETATM   25  C13 UNL     1      -1.775   1.613  -1.841  1.00  0.00     0.148 C 
HETATM   26  C14 UNL     1      -1.660  -0.137  -3.367  1.00  0.00     0.148 C 
ENDBRANCH   6  24
BRANCH   3  27
HETATM   27  O3  UNL     1      -3.690   0.203   2.548  1.00  0.00    -0.385 OA
HETATM   28  C9  UNL     1      -3.986  -0.436   3.740  1.00  0.00     0.202 C 
ENDBRANCH   3  27
BRANCH   5  29
HETATM   29  O5  UNL     1      -3.898  -1.004  -1.918  1.00  0.00    -0.387 OA
ATOM     30  H5  UNL     1      -3.431  -1.315  -2.685  1.00  0.00     0.210 HD
ENDBRANCH   5  29
BRANCH   4  31
HETATM   31  O4  UNL     1      -4.524   0.473   0.234  1.00  0.00    -0.390 OA
ATOM     32  H4  UNL     1      -5.047   0.414  -0.557  1.00  0.00     0.210 HD
ENDBRANCH   4  31
TORSDOF 11
