REMARK  5 active torsions:
REMARK  status: ('A' for Active; 'I' for Inactive)
REMARK    1  A    between atoms: C4_4  and  N1_5 
REMARK    2  A    between atoms: N2_8  and  C7_9 
REMARK    3  A    between atoms: C8_12  and  N4_13 
REMARK    4  A    between atoms: N4_13  and  C9_15 
REMARK    5  A    between atoms: C15_23  and  N6_24 
ROOT
HETATM    1  C7  UNL     1      -1.091   0.026  -0.057  1.00  0.00     0.709 A 
HETATM    2  N3  UNL     1      -2.155  -0.723   0.272  1.00  0.00    -0.021 N 
ATOM      3  H3  UNL     1      -1.998  -1.689   0.560  1.00  0.00     0.203 HD
HETATM    4  C8  UNL     1      -3.406  -0.267   0.241  1.00  0.00     0.707 A 
HETATM    5  N5  UNL     1      -3.567   1.028  -0.151  1.00  0.00    -0.021 N 
ATOM      6  H5  UNL     1      -4.513   1.408  -0.186  1.00  0.00     0.203 HD
HETATM    7  C15 UNL     1      -2.547   1.831  -0.493  1.00  0.00     0.709 A 
HETATM    8  N7  UNL     1      -1.327   1.317  -0.440  1.00  0.00    -0.021 N 
ATOM      9  H7  UNL     1      -0.534   1.906  -0.694  1.00  0.00     0.203 HD
ENDROOT
BRANCH   1  10
HETATM   10  N2  UNL     1       0.252  -0.403  -0.052  1.00  0.00    -0.214 N 
HETATM   11  C6  UNL     1       1.006  -0.668  -1.266  1.00  0.00     0.161 C 
HETATM   12  C5  UNL     1       2.341   0.065  -1.106  1.00  0.00     0.143 C 
HETATM   13  N1  UNL     1       2.988  -0.360   0.103  1.00  0.00    -0.377 N 
HETATM   14  C22 UNL     1       2.254  -1.161   1.049  1.00  0.00     0.143 C 
HETATM   15  C21 UNL     1       0.884  -0.566   1.236  1.00  0.00     0.161 C 
BRANCH  13  16
HETATM   16  C4  UNL     1       4.318   0.024   0.388  1.00  0.00     0.046 A 
HETATM   17  C3  UNL     1       4.506   1.083   1.306  1.00  0.00     0.055 A 
HETATM   18  C2  UNL     1       5.758   1.531   1.583  1.00  0.00     0.009 A 
HETATM   19  C1  UNL     1       5.890   2.658   2.568  1.00  0.00     0.068 C 
HETATM   20  N9  UNL     1       6.831   0.982   0.996  1.00  0.00    -0.345 N 
HETATM   21  C28 UNL     1       6.702  -0.022   0.121  1.00  0.00     0.119 A 
ATOM     22  H9  UNL     1       7.761   1.336   1.220  1.00  0.00     0.167 HD
HETATM   23  C23 UNL     1       5.435  -0.517  -0.195  1.00  0.00     0.042 A 
HETATM   24  N8  UNL     1       7.587  -0.749  -0.590  1.00  0.00    -0.345 N 
HETATM   25  C24 UNL     1       5.575  -1.547  -1.098  1.00  0.00    -0.024 A 
HETATM   26  C25 UNL     1       4.531  -2.399  -1.713  1.00  0.00     0.051 C 
HETATM   27  C26 UNL     1       6.955  -1.662  -1.323  1.00  0.00     0.014 A 
HETATM   28  C27 UNL     1       7.520  -2.679  -2.257  1.00  0.00     0.068 C 
ATOM     29  H8  UNL     1       8.598  -0.618  -0.569  1.00  0.00     0.167 HD
ENDBRANCH  13  16
ENDBRANCH   1  10
BRANCH   4  30
HETATM   30  N4  UNL     1      -4.467  -0.882   0.554  1.00  0.00    -0.220 N 
ATOM     31  H4  UNL     1      -5.325  -0.339   0.455  1.00  0.00     0.178 HD
BRANCH  30  32
HETATM   32  C9  UNL     1      -4.648  -2.213   1.023  1.00  0.00     0.099 C 
HETATM   33  C10 UNL     1      -4.301  -3.186  -0.064  1.00  0.00     0.026 C 
HETATM   34  C11 UNL     1      -4.488  -4.607   0.432  1.00  0.00     0.002 C 
HETATM   35  C12 UNL     1      -5.709  -4.805   1.264  1.00  0.00     0.000 C 
HETATM   36  C13 UNL     1      -6.698  -3.685   1.003  1.00  0.00     0.002 C 
HETATM   37  C14 UNL     1      -6.100  -2.374   1.436  1.00  0.00     0.026 C 
ENDBRANCH  30  32
ENDBRANCH   4  30
BRANCH   7  38
HETATM   38  N6  UNL     1      -2.840   3.172  -0.889  1.00  0.00    -0.217 N 
HETATM   39  C16 UNL     1      -4.228   3.646  -0.920  1.00  0.00     0.141 C 
HETATM   40  C17 UNL     1      -4.308   5.115  -0.588  1.00  0.00     0.020 C 
HETATM   41  C18 UNL     1      -3.157   5.447   0.336  1.00  0.00     0.003 C 
HETATM   42  C19 UNL     1      -1.869   5.396  -0.441  1.00  0.00     0.020 C 
HETATM   43  C20 UNL     1      -1.842   4.133  -1.279  1.00  0.00     0.141 C 
ENDBRANCH   7  38
TORSDOF 5
