REMARK  8 active torsions:
REMARK  status: ('A' for Active; 'I' for Inactive)
REMARK    1  A    between atoms: O1_2  and  C2_3 
REMARK    2  A    between atoms: C3_4  and  C4_5 
REMARK    3  A    between atoms: C5_6  and  C6_7 
REMARK    4  A    between atoms: N4_25  and  C19_26 
REMARK    5  A    between atoms: C19_26  and  C20_27 
REMARK    6  A    between atoms: C20_27  and  C21_28 
REMARK    7  A    between atoms: C21_28  and  C22_29 
REMARK    8  A    between atoms: C25_32  and  N5_33 
ROOT
HETATM    1  C6  UNL     1      -5.182   1.830   0.050  1.00  0.00     0.019 A 
HETATM    2  C7  UNL     1      -4.960   2.775   1.047  1.00  0.00     0.021 A 
HETATM    3  C8  UNL     1      -5.571   3.999   0.996  1.00  0.00     0.003 A 
HETATM    4  C9  UNL     1      -6.418   4.332  -0.034  1.00  0.00     0.023 A 
HETATM    5  C10 UNL     1      -6.636   3.398  -1.016  1.00  0.00     0.046 A 
HETATM    6  C11 UNL     1      -7.506   3.658  -2.131  1.00  0.00     0.099 C 
HETATM    7  N1  UNL     1      -8.221   3.868  -3.016  1.00  0.00    -0.191 NA
HETATM    8  C12 UNL     1      -6.025   2.147  -0.984  1.00  0.00     0.043 A 
ENDROOT
BRANCH   1   9
HETATM    9  C5  UNL     1      -4.544   0.554   0.105  1.00  0.00    -0.061 C 
HETATM   10  C4  UNL     1      -3.991  -0.543   0.173  1.00  0.00    -0.059 C 
BRANCH  10  11
HETATM   11  C3  UNL     1      -3.377  -1.839   0.260  1.00  0.00     0.052 A 
HETATM   12  C2  UNL     1      -1.987  -1.952   0.083  1.00  0.00     0.101 A 
HETATM   13  C31 UNL     1      -1.439  -3.179   0.195  1.00  0.00     0.055 A 
HETATM   14  C15 UNL     1      -2.229  -4.305   0.450  1.00  0.00     0.047 A 
HETATM   15  C30 UNL     1      -0.086  -3.391   0.024  1.00  0.00     0.079 A 
HETATM   16  C14 UNL     1      -3.597  -4.164   0.613  1.00  0.00     0.032 A 
HETATM   17  N2  UNL     1      -1.708  -5.545   0.490  1.00  0.00    -0.363 N 
HETATM   18  C13 UNL     1      -4.150  -2.932   0.520  1.00  0.00     0.026 A 
HETATM   19  C16 UNL     1      -0.420  -5.782   0.305  1.00  0.00     0.120 A 
ATOM     20  H2  UNL     1      -2.331  -6.333   0.670  1.00  0.00     0.165 HD
HETATM   21  C17 UNL     1       0.415  -4.704   0.073  1.00  0.00     0.076 A 
HETATM   22  N3  UNL     1       1.736  -4.630  -0.041  1.00  0.00    -0.349 N 
HETATM   23  C18 UNL     1       2.062  -3.366  -0.133  1.00  0.00     0.183 A 
ATOM     24  H3  UNL     1       2.382  -5.419  -0.054  1.00  0.00     0.166 HD
HETATM   25  N4  UNL     1       0.920  -2.549  -0.080  1.00  0.00    -0.340 N 
BRANCH  12  26
HETATM   26  O1  UNL     1      -1.425  -0.746  -0.217  1.00  0.00    -0.353 OA
HETATM   27  C1  UNL     1      -1.617  -0.282  -1.620  1.00  0.00     0.210 C 
ENDBRANCH  12  26
BRANCH  25  28
HETATM   28  C19 UNL     1       1.199  -1.181   0.160  1.00  0.00     0.130 C 
BRANCH  28  29
HETATM   29  C20 UNL     1       1.995  -1.123   1.559  1.00  0.00     0.026 C 
BRANCH  29  30
HETATM   30  C21 UNL     1       2.292   0.298   1.831  1.00  0.00     0.058 C 
BRANCH  30  31
HETATM   31  C22 UNL     1       3.123   0.978   0.808  1.00  0.00     0.009 A 
HETATM   32  C23 UNL     1       4.521   0.967   0.904  1.00  0.00     0.041 A 
HETATM   33  C24 UNL     1       5.332   1.585  -0.007  1.00  0.00     0.021 A 
HETATM   34  C25 UNL     1       6.706   1.593   0.057  1.00  0.00     0.110 A 
HETATM   35  C28 UNL     1       4.739   2.250  -1.073  1.00  0.00    -0.005 A 
HETATM   36  N6  UNL     1       7.452   2.235  -0.895  1.00  0.00    -0.352 N 
HETATM   37  C26 UNL     1       6.898   2.880  -1.927  1.00  0.00     0.090 A 
ATOM     38  H6  UNL     1       8.469   2.221  -0.814  1.00  0.00     0.166 HD
HETATM   39  C27 UNL     1       5.527   2.892  -2.024  1.00  0.00     0.031 A 
HETATM   40  C29 UNL     1       3.368   2.250  -1.151  1.00  0.00     0.100 A 
HETATM   41  N7  UNL     1       2.604   1.637  -0.243  1.00  0.00    -0.368 N 
ATOM     42  H7  UNL     1       1.590   1.670  -0.351  1.00  0.00     0.165 HD
BRANCH  34  43
HETATM   43  N5  UNL     1       7.306   1.008   0.999  1.00  0.00    -0.385 N 
ATOM     44  H52 UNL     1       6.750   0.530   1.708  1.00  0.00     0.157 HD
ATOM     45  H51 UNL     1       8.325   1.014   1.046  1.00  0.00     0.157 HD
ENDBRANCH  34  43
ENDBRANCH  30  31
ENDBRANCH  29  30
ENDBRANCH  28  29
ENDBRANCH  25  28
ENDBRANCH  10  11
ENDBRANCH   1   9
TORSDOF 8
