REMARK  3 active torsions:
REMARK  status: ('A' for Active; 'I' for Inactive)
REMARK    1  A    between atoms: C5_6  and  C6_7 
REMARK    2  A    between atoms: C6_7  and  N2_8 
REMARK    3  A    between atoms: N4_18  and  C13_20 
ROOT
HETATM    1  N1  UNL     1       9.047   3.258  -2.790  1.00  0.00    -0.191 NA
HETATM    2  C1  UNL     1       8.488   2.551  -2.039  1.00  0.00     0.099 C 
HETATM    3  C2  UNL     1       7.808   1.676  -1.121  1.00  0.00     0.044 A 
HETATM    4  C3  UNL     1       6.905   2.226  -0.235  1.00  0.00     0.023 A 
HETATM    5  C4  UNL     1       6.240   1.407   0.656  1.00  0.00     0.010 A 
HETATM    6  C5  UNL     1       6.453   0.046   0.686  1.00  0.00    -0.040 A 
HETATM    7  C29 UNL     1       7.361  -0.489  -0.208  1.00  0.00     0.010 A 
HETATM    8  C30 UNL     1       8.033   0.314  -1.103  1.00  0.00     0.023 A 
ENDROOT
BRANCH   6   9
HETATM    9  C6  UNL     1       5.763  -0.852   1.619  1.00  0.00     0.168 C 
BRANCH   9  10
HETATM   10  N2  UNL     1       4.525  -1.373   1.085  1.00  0.00    -0.338 N 
HETATM   11  C7  UNL     1       4.406  -2.508   0.373  1.00  0.00     0.094 A 
HETATM   12  C8  UNL     1       3.085  -2.709   0.019  1.00  0.00     0.037 A 
HETATM   13  C9  UNL     1       2.361  -1.647   0.538  1.00  0.00     0.062 A 
HETATM   14  C10 UNL     1       3.274  -0.859   1.178  1.00  0.00     0.124 A 
HETATM   15  C28 UNL     1       0.929  -1.346   0.470  1.00  0.00     0.217 A 
HETATM   16  N3  UNL     1       2.805   0.310   1.808  1.00  0.00    -0.307 N 
HETATM   17  C11 UNL     1       1.439   0.684   1.796  1.00  0.00     0.277 A 
ATOM     18  H3  UNL     1       3.474   0.910   2.291  1.00  0.00     0.170 HD
HETATM   19  O1  UNL     1       1.019   1.730   2.359  1.00  0.00    -0.266 OA
HETATM   20  C12 UNL     1       0.418  -0.142   1.113  1.00  0.00     0.150 A 
HETATM   21  N4  UNL     1      -0.808   0.212   1.114  1.00  0.00    -0.353 N 
ATOM     22  H4  UNL     1      -0.995   1.083   1.611  1.00  0.00     0.162 HD
HETATM   23  O3  UNL     1       0.174  -2.140  -0.146  1.00  0.00    -0.285 OA
BRANCH  21  24
HETATM   24  C13 UNL     1      -1.938  -0.386   0.552  1.00  0.00     0.277 C 
HETATM   25  N5  UNL     1      -3.011   0.619   0.391  1.00  0.00    -0.360 N 
HETATM   26  C14 UNL     1      -4.237   0.460  -0.065  1.00  0.00     0.053 C 
ATOM     27  H5  UNL     1      -2.768   1.569   0.673  1.00  0.00     0.162 HD
HETATM   28  C15 UNL     1      -5.026   1.650  -0.079  1.00  0.00    -0.009 A 
HETATM   29  C21 UNL     1      -4.696  -0.789  -0.616  1.00  0.00     0.018 A 
HETATM   30  C16 UNL     1      -6.351   1.709  -0.328  1.00  0.00     0.014 A 
HETATM   31  C20 UNL     1      -4.389   2.896   0.082  1.00  0.00     0.014 A 
HETATM   32  C17 UNL     1      -7.074   2.879  -0.431  1.00  0.00     0.001 A 
HETATM   33  C18 UNL     1      -6.435   4.085  -0.271  1.00  0.00     0.000 A 
HETATM   34  C19 UNL     1      -5.078   4.065  -0.012  1.00  0.00     0.001 A 
HETATM   35  C22 UNL     1      -5.501  -0.608  -1.713  1.00  0.00     0.016 A 
HETATM   36  C26 UNL     1      -4.446  -2.093  -0.155  1.00  0.00     0.047 A 
HETATM   37  C23 UNL     1      -6.038  -1.724  -2.311  1.00  0.00     0.001 A 
HETATM   38  C24 UNL     1      -5.793  -3.011  -1.849  1.00  0.00     0.002 A 
HETATM   39  C25 UNL     1      -4.977  -3.205  -0.744  1.00  0.00     0.030 A 
HETATM   40  N6  UNL     1      -3.528  -2.409   0.900  1.00  0.00    -0.323 N 
HETATM   41  C27 UNL     1      -2.475  -1.553   1.331  1.00  0.00     0.264 C 
ATOM     42  H6  UNL     1      -3.636  -3.306   1.373  1.00  0.00     0.169 HD
HETATM   43  O2  UNL     1      -1.947  -1.800   2.469  1.00  0.00    -0.269 OA
ENDBRANCH  21  24
ENDBRANCH   9  10
ENDBRANCH   6   9
TORSDOF 3
