REMARK  6 active torsions:
REMARK  status: ('A' for Active; 'I' for Inactive)
REMARK    1  A    between atoms: N2_4  and  O1_6 
REMARK    2  A    between atoms: O1_6  and  C1_7 
REMARK    3  A    between atoms: C1_7  and  C2_8 
REMARK    4  A    between atoms: C2_8  and  N3_9 
REMARK    5  A    between atoms: C10_26  and  O4_27 
REMARK    6  A    between atoms: O4_27  and  S1_28 
ROOT
HETATM    1  N3  UNL     1      -1.020   0.234  -0.657  1.00  0.00    -0.375 N 
ATOM      2  H3  UNL     1      -0.152   0.767  -0.600  1.00  0.00     0.160 HD
HETATM    3  C3  UNL     1      -1.039  -0.983  -0.239  1.00  0.00     0.124 C 
HETATM    4  N4  UNL     1      -2.259  -1.738  -0.318  1.00  0.00    -0.295 N 
ATOM      5  H4  UNL     1      -2.977  -1.484  -0.996  1.00  0.00     0.172 HD
HETATM    6  C4  UNL     1      -2.457  -2.842   0.557  1.00  0.00     0.328 C 
HETATM    7  O2  UNL     1      -3.537  -3.507   0.485  1.00  0.00    -0.247 OA
HETATM    8  N5  UNL     1      -1.455  -3.195   1.503  1.00  0.00    -0.276 N 
ATOM      9  H5  UNL     1      -1.583  -3.984   2.137  1.00  0.00     0.173 HD
HETATM   10  C5  UNL     1      -0.270  -2.412   1.535  1.00  0.00     0.266 C 
HETATM   11  O3  UNL     1       0.433  -2.356   2.602  1.00  0.00    -0.269 OA
HETATM   12  C6  UNL     1       0.124  -1.677   0.327  1.00  0.00     0.201 A 
HETATM   13  N6  UNL     1       0.802  -2.560  -0.599  1.00  0.00    -0.362 N 
ATOM     14  H6  UNL     1       0.558  -3.397  -1.128  1.00  0.00     0.161 HD
HETATM   15  C7  UNL     1       1.960  -1.744  -0.445  1.00  0.00     0.039 A 
HETATM   16  C8  UNL     1       3.282  -1.548  -0.818  1.00  0.00     0.032 A 
HETATM   17  C9  UNL     1       3.987  -0.482  -0.299  1.00  0.00     0.040 A 
HETATM   18  C10 UNL     1       3.348   0.364   0.584  1.00  0.00     0.092 A 
HETATM   19  C11 UNL     1       2.050   0.185   0.960  1.00  0.00     0.051 A 
HETATM   20  C12 UNL     1       1.359  -0.874   0.441  1.00  0.00     0.016 A 
ENDROOT
BRANCH   1  21
HETATM   21  C2  UNL     1      -2.199   0.861  -1.204  1.00  0.00     0.150 C 
BRANCH  21  22
HETATM   22  C1  UNL     1      -3.102   1.281  -0.066  1.00  0.00     0.222 C 
BRANCH  22  23
HETATM   23  O1  UNL     1      -4.280   1.904  -0.525  1.00  0.00    -0.264 OA
BRANCH  23  24
HETATM   24  N2  UNL     1      -5.193   2.337   0.379  1.00  0.00    -0.214 N 
HETATM   25  N1  UNL     1      -5.674   3.510   0.217  1.00  0.00    -0.326 N 
ATOM     26  H12 UNL     1      -5.372   4.086  -0.568  1.00  0.00     0.178 HD
ATOM     27  H11 UNL     1      -6.361   3.836   0.897  1.00  0.00     0.178 HD
ATOM     28  H2  UNL     1      -5.485   1.749   1.159  1.00  0.00     0.215 HD
ENDBRANCH  23  24
ENDBRANCH  22  23
ENDBRANCH  21  22
ENDBRANCH   1  21
BRANCH  18  29
HETATM   29  O4  UNL     1       4.107   1.438   1.088  1.00  0.00    -0.214 OA
BRANCH  29  30
HETATM   30  S1  UNL     1       4.146   2.947   0.289  1.00  0.00     0.256 S 
HETATM   31  O5  UNL     1       3.357   2.852  -1.003  1.00  0.00    -0.572 OA
HETATM   32  O6  UNL     1       5.574   3.331  -0.055  1.00  0.00    -0.572 OA
HETATM   33  O7  UNL     1       3.485   4.115   1.301  1.00  0.00    -0.572 OA
ENDBRANCH  29  30
ENDBRANCH  18  29
TORSDOF 6
