REMARK  3 active torsions:
REMARK  status: ('A' for Active; 'I' for Inactive)
REMARK    1  A    between atoms: N2_8  and  C5_9 
REMARK    2  A    between atoms: C5_9  and  N3_11 
REMARK    3  A    between atoms: N3_11  and  N4_13 
ROOT
HETATM    1  C5  UNL     1       0.407  -0.777  -0.312  1.00  0.00     0.191 C 
HETATM    2  S2  UNL     1      -0.029  -1.698  -1.628  1.00  0.00    -0.039 SA
ENDROOT
BRANCH   1   3
HETATM    3  N2  UNL     1       1.793  -0.666  -0.071  1.00  0.00    -0.300 N 
HETATM    4  C1  UNL     1       2.278   0.063   1.044  1.00  0.00     0.176 C 
HETATM    5  S1  UNL     1       1.663  -0.156   2.535  1.00  0.00    -0.041 SA
HETATM    6  N1  UNL     1       3.355   0.995   0.812  1.00  0.00    -0.367 N 
HETATM    7  C2  UNL     1       3.960   0.878  -0.519  1.00  0.00     0.123 C 
ATOM      8  H1  UNL     1       3.666   1.672   1.509  1.00  0.00     0.161 HD
HETATM    9  C3  UNL     1       4.106  -0.584  -0.880  1.00  0.00     0.040 C 
HETATM   10  C4  UNL     1       2.773  -1.281  -0.975  1.00  0.00     0.135 C 
ENDBRANCH   1   3
BRANCH   1  11
HETATM   11  N3  UNL     1      -0.625  -0.200   0.447  1.00  0.00    -0.295 N 
ATOM     12  H3  UNL     1      -0.405   0.373   1.261  1.00  0.00     0.183 HD
BRANCH  11  13
HETATM   13  N4  UNL     1      -1.970  -0.420   0.074  1.00  0.00    -0.225 NA
HETATM   14  C6  UNL     1      -2.434   0.527  -0.894  1.00  0.00     0.140 C 
HETATM   15  C7  UNL     1      -3.559   1.394  -0.418  1.00  0.00     0.183 C 
HETATM   16  O1  UNL     1      -4.606   0.711   0.147  1.00  0.00    -0.389 OA
HETATM   17  C8  UNL     1      -4.266  -0.508   0.700  1.00  0.00     0.183 C 
HETATM   18  C9  UNL     1      -2.842  -0.375   1.231  1.00  0.00     0.140 C 
ENDBRANCH  11  13
ENDBRANCH   1  11
TORSDOF 3
