REMARK  6 active torsions:
REMARK  status: ('A' for Active; 'I' for Inactive)
REMARK    1  A    between atoms: C2_2  and  C3_3 
REMARK    2  A    between atoms: C4_4  and  C5_5 
REMARK    3  A    between atoms: C5_5  and  N1_6 
REMARK    4  A    between atoms: N1_6  and  C6_8 
REMARK    5  A    between atoms: C6_8  and  N2_10 
REMARK    6  A    between atoms: N2_10  and  C7_12 
ROOT
HETATM    1  C7  UNL     1      -1.422  -0.319  -0.605  1.00  0.00     0.699 A 
HETATM    2  N3  UNL     1      -2.334   0.596  -0.233  1.00  0.00    -0.191 N 
ATOM      3  H3  UNL     1      -2.057   1.576  -0.178  1.00  0.00     0.184 HD
HETATM    4  C8  UNL     1      -3.581   0.263   0.064  1.00  0.00     0.061 A 
HETATM    5  C9  UNL     1      -4.557   1.332   0.477  1.00  0.00     0.072 C 
HETATM    6  C10 UNL     1      -3.944  -1.063  -0.015  1.00  0.00     0.151 A 
HETATM    7  C11 UNL     1      -5.311  -1.377   0.316  1.00  0.00     0.121 C 
HETATM    8  N4  UNL     1      -6.414  -1.615   0.569  1.00  0.00    -0.190 NA
HETATM    9  N5  UNL     1      -3.039  -1.973  -0.385  1.00  0.00    -0.275 N 
ATOM     10  H5  UNL     1      -3.303  -2.957  -0.444  1.00  0.00     0.188 HD
HETATM   11  N6  UNL     1      -1.788  -1.600  -0.678  1.00  0.00    -0.131 N 
ATOM     12  H6  UNL     1      -1.106  -2.304  -0.961  1.00  0.00     0.205 HD
ENDROOT
BRANCH   1  13
HETATM   13  N2  UNL     1      -0.216   0.101  -0.882  1.00  0.00    -0.165 N 
ATOM     14  H2  UNL     1       0.506  -0.559  -1.170  1.00  0.00     0.186 HD
BRANCH  13  15
HETATM   15  C6  UNL     1       0.082   1.505  -0.777  1.00  0.00     0.187 C 
HETATM   16  S1  UNL     1      -0.533   2.573  -1.868  1.00  0.00    -0.040 SA
BRANCH  15  17
HETATM   17  N1  UNL     1       0.910   1.955   0.274  1.00  0.00    -0.356 N 
ATOM     18  H1  UNL     1       1.120   2.950   0.351  1.00  0.00     0.162 HD
BRANCH  17  19
HETATM   19  C5  UNL     1       1.461   1.051   1.233  1.00  0.00     0.216 C 
BRANCH  19  20
HETATM   20  C4  UNL     1       2.462   0.193   0.564  1.00  0.00    -0.087 C 
HETATM   21  C3  UNL     1       3.295  -0.489   0.023  1.00  0.00    -0.105 C 
BRANCH  21  22
HETATM   22  C2  UNL     1       4.339  -1.308  -0.642  1.00  0.00     0.089 C 
HETATM   23  C1  UNL     1       5.704  -1.025  -0.015  1.00  0.00     0.018 C 
ENDBRANCH  21  22
ENDBRANCH  19  20
ENDBRANCH  17  19
ENDBRANCH  15  17
ENDBRANCH  13  15
ENDBRANCH   1  13
TORSDOF 6
