REMARK  5 active torsions:
REMARK  status: ('A' for Active; 'I' for Inactive)
REMARK    1  A    between atoms: C3_3  and  C5_5 
REMARK       I    between atoms: C5_5  and  N1_7 
REMARK    2  A    between atoms: N1_7  and  C6_9 
REMARK    3  A    between atoms: C6_9  and  N2_11 
REMARK    4  A    between atoms: N2_11  and  C7_13 
REMARK    5  A    between atoms: N4_17  and  O3_18 
ROOT
HETATM    1  N2  UNL     1       1.669   1.497  -1.369  1.00  0.00    -0.316 N 
ATOM      2  H2  UNL     1       1.377   2.363  -1.822  1.00  0.00     0.170 HD
ENDROOT
BRANCH   1   3
HETATM    3  C6  UNL     1       0.749   0.476  -1.489  1.00  0.00     0.180 C 
HETATM    4  S1  UNL     1       1.008  -0.701  -2.624  1.00  0.00    -0.040 SA
BRANCH   3   5
HETATM    5  N1  UNL     1      -0.416   0.417  -0.678  1.00  0.00    -0.300 N 
HETATM    6  C5  UNL     1      -1.383  -0.613  -0.793  1.00  0.00     0.253 C 
HETATM    7  O1  UNL     1      -1.218  -1.541  -1.658  1.00  0.00    -0.268 OA
ATOM      8  H1  UNL     1      -0.563   1.148   0.018  1.00  0.00     0.171 HD
BRANCH   6   9
HETATM    9  C3  UNL     1      -2.564  -0.659   0.041  1.00  0.00     0.002 C 
HETATM   10  C2  UNL     1      -3.439  -1.626  -0.090  1.00  0.00    -0.019 C 
HETATM   11  C1  UNL     1      -4.665  -1.697   0.756  1.00  0.00     0.036 C 
HETATM   12  C4  UNL     1      -2.797   0.389   1.053  1.00  0.00     0.054 C 
ENDBRANCH   6   9
ENDBRANCH   3   5
ENDBRANCH   1   3
BRANCH   1  13
HETATM   13  C7  UNL     1       2.798   1.576  -0.813  1.00  0.00     0.157 A 
HETATM   14  N3  UNL     1       3.581   2.714  -0.805  1.00  0.00    -0.221 N 
HETATM   15  O2  UNL     1       4.649   2.427  -0.154  1.00  0.00    -0.127 OA
ATOM     16  H3  UNL     1       3.354   3.611  -1.234  1.00  0.00     0.198 HD
HETATM   17  N4  UNL     1       4.662   1.211   0.276  1.00  0.00    -0.103 N 
HETATM   18  C8  UNL     1       3.492   0.624  -0.123  1.00  0.00     0.110 A 
HETATM   19  C9  UNL     1       3.132  -0.791   0.182  1.00  0.00     0.077 C 
BRANCH  17  20
HETATM   20  O3  UNL     1       5.626   0.560   1.001  1.00  0.00    -0.261 OA
ATOM     21  H3  UNL     1       5.636  -0.336   1.318  1.00  0.00     0.247 HD
ENDBRANCH  17  20
ENDBRANCH   1  13
TORSDOF 5
