REMARK  14 active torsions:
REMARK  status: ('A' for Active; 'I' for Inactive)
REMARK    1  A    between atoms: C1_2  and  C2_4 
REMARK    2  A    between atoms: C3_7  and  O2_8 
REMARK    3  A    between atoms: N5_20  and  N6_21 
REMARK    4  A    between atoms: C8_24  and  O6_25 
REMARK    5  A    between atoms: O6_25  and  C9_26 
REMARK    6  A    between atoms: C9_26  and  O7_27 
REMARK    7  A    between atoms: C9_26  and  C10_29 
REMARK    8  A    between atoms: C10_29  and  O8_30 
REMARK    9  A    between atoms: C10_29  and  C11_32 
REMARK   10  A    between atoms: C11_32  and  O9_33 
REMARK   11  A    between atoms: C11_32  and  C12_35 
REMARK   12  A    between atoms: C12_35  and  O10_36 
REMARK   13  A    between atoms: C12_35  and  C13_38 
REMARK   14  A    between atoms: C13_38  and  O11_39 
ROOT
HETATM    1  C2  UNL     1      -3.218   1.488  -0.655  1.00  0.00     0.150 C 
HETATM    2  N2  UNL     1      -3.745   0.317  -0.895  1.00  0.00    -0.308 N 
ATOM      3  H2  UNL     1      -4.727   0.326  -1.170  1.00  0.00     0.166 HD
HETATM    4  C3  UNL     1      -3.146  -0.955  -0.827  1.00  0.00     0.413 C 
HETATM    5  N3  UNL     1      -1.718  -0.580  -0.846  1.00  0.00     0.035 N 
ATOM      6  H31 UNL     1      -1.429  -0.100  -1.698  1.00  0.00     0.289 HD
ATOM      7  H32 UNL     1      -1.084  -1.374  -0.938  1.00  0.00     0.289 HD
HETATM    8  C4  UNL     1      -1.520   0.181   0.339  1.00  0.00     0.301 C 
HETATM    9  N4  UNL     1      -2.372   0.172   1.516  1.00  0.00    -0.319 N 
ATOM     10  H4  UNL     1      -3.229   0.718   1.604  1.00  0.00     0.165 HD
HETATM   11  C5  UNL     1      -1.870  -0.686   2.529  1.00  0.00     0.228 C 
HETATM   12  O3  UNL     1      -1.988  -0.807   3.738  1.00  0.00    -0.273 OA
HETATM   13  C6  UNL     1      -1.001  -1.591   1.671  1.00  0.00     0.131 C 
HETATM   14  C7  UNL     1      -1.981  -2.445   1.017  1.00  0.00     0.173 C 
HETATM   15  N5  UNL     1      -3.130  -1.793   0.343  1.00  0.00    -0.190 N 
HETATM   16  C8  UNL     1      -0.353  -0.416   0.910  1.00  0.00     0.205 C 
HETATM   17  C14 UNL     1      -1.792   1.484  -0.221  1.00  0.00     0.240 C 
HETATM   18  O12 UNL     1      -1.114   2.483  -0.382  1.00  0.00    -0.286 OA
ENDROOT
BRANCH  16  19
HETATM   19  O6  UNL     1       0.645  -0.844   0.078  1.00  0.00    -0.348 OA
BRANCH  19  20
HETATM   20  C9  UNL     1       1.917  -0.357   0.485  1.00  0.00     0.288 C 
BRANCH  20  21
HETATM   21  O7  UNL     1       2.701  -1.450   0.861  1.00  0.00    -0.369 OA
ATOM     22  H7  UNL     1       3.551  -1.125   1.133  1.00  0.00     0.212 HD
ENDBRANCH  20  21
BRANCH  20  23
HETATM   23  C10 UNL     1       2.556   0.438  -0.604  1.00  0.00     0.204 C 
BRANCH  23  24
HETATM   24  O8  UNL     1       2.779  -0.316  -1.748  1.00  0.00    -0.388 OA
ATOM     25  H8  UNL     1       3.186   0.190  -2.441  1.00  0.00     0.210 HD
ENDBRANCH  23  24
BRANCH  23  26
HETATM   26  C11 UNL     1       3.695   1.300  -0.237  1.00  0.00     0.182 C 
BRANCH  26  27
HETATM   27  O9  UNL     1       3.423   2.025   0.937  1.00  0.00    -0.390 OA
ATOM     28  H9  UNL     1       4.157   2.580   1.173  1.00  0.00     0.210 HD
ENDBRANCH  26  27
BRANCH  26  29
HETATM   29  C12 UNL     1       5.034   0.681  -0.113  1.00  0.00     0.173 C 
BRANCH  29  30
HETATM   30  O10 UNL     1       5.220  -0.177   0.943  1.00  0.00    -0.391 OA
ATOM     31  H10 UNL     1       6.079  -0.574   1.023  1.00  0.00     0.210 HD
ENDBRANCH  29  30
BRANCH  29  32
HETATM   32  C13 UNL     1       5.522   0.034  -1.392  1.00  0.00     0.198 C 
BRANCH  32  33
HETATM   33  O11 UNL     1       5.348   0.873  -2.473  1.00  0.00    -0.398 OA
ATOM     34  H11 UNL     1       5.654   0.467  -3.275  1.00  0.00     0.209 HD
ENDBRANCH  32  33
ENDBRANCH  29  32
ENDBRANCH  26  29
ENDBRANCH  23  26
ENDBRANCH  20  23
ENDBRANCH  19  20
ENDBRANCH  16  19
BRANCH   4  35
HETATM   35  O2  UNL     1      -3.410  -1.730  -1.982  1.00  0.00    -0.330 OA
ATOM     36  H2  UNL     1      -3.006  -2.588  -1.936  1.00  0.00     0.216 HD
ENDBRANCH   4  35
BRANCH   1  37
HETATM   37  C1  UNL     1      -3.992   2.726  -0.784  1.00  0.00     0.285 C 
HETATM   38  N1  UNL     1      -5.348   2.709  -1.174  1.00  0.00    -0.056 NA
HETATM   39  O1  UNL     1      -3.437   3.816  -0.543  1.00  0.00    -0.269 OA
ENDBRANCH   1  37
BRANCH  15  40
HETATM   40  N6  UNL     1      -4.408  -2.040   0.910  1.00  0.00    -0.036 N 
HETATM   41  O4  UNL     1      -4.598  -2.968   1.721  1.00  0.00    -0.516 OA
HETATM   42  O5  UNL     1      -5.478  -1.250   0.572  1.00  0.00    -0.516 OA
ENDBRANCH  15  40
TORSDOF 14
