REMARK  13 active torsions:
REMARK  status: ('A' for Active; 'I' for Inactive)
REMARK    1  A    between atoms: N1_1  and  C1_5 
REMARK    2  A    between atoms: C1_5  and  C2_6 
REMARK    3  A    between atoms: C2_6  and  O1_7 
REMARK    4  A    between atoms: C6_16  and  O4_17 
REMARK    5  A    between atoms: O4_17  and  C7_18 
REMARK    6  A    between atoms: C7_18  and  O5_19 
REMARK    7  A    between atoms: C7_18  and  C8_21 
REMARK    8  A    between atoms: C8_21  and  C9_22 
REMARK    9  A    between atoms: C9_22  and  C10_24 
REMARK   10  A    between atoms: N3_25  and  N4_27 
REMARK   11  A    between atoms: C12_29  and  C13_30 
REMARK       I    between atoms: C13_30  and  N5_32 
REMARK   12  A    between atoms: N5_32  and  N6_34 
REMARK   13  A    between atoms: C16_43  and  O10_44 
ROOT
HETATM    1  C7  UNL     1      -0.734   0.769  -0.194  1.00  0.00     0.265 C 
ENDROOT
BRANCH   1   2
HETATM    2  O4  UNL     1      -1.930   0.133   0.118  1.00  0.00    -0.345 OA
BRANCH   2   3
HETATM    3  C6  UNL     1      -3.029   0.927  -0.191  1.00  0.00     0.236 C 
HETATM    4  C5  UNL     1      -3.658   1.325   1.077  1.00  0.00     0.247 C 
HETATM    5  C4  UNL     1      -4.521   0.483   1.900  1.00  0.00     0.290 C 
HETATM    6  O3  UNL     1      -3.465   2.493   1.538  1.00  0.00    -0.284 OA
HETATM    7  N2  UNL     1      -5.192  -0.697   1.476  1.00  0.00    -0.351 N 
HETATM    8  O2  UNL     1      -4.713   0.799   3.100  1.00  0.00    -0.264 OA
HETATM    9  C3  UNL     1      -4.794  -1.485   0.306  1.00  0.00     0.165 C 
ATOM     10  H2  UNL     1      -5.997  -1.013   2.017  1.00  0.00     0.162 HD
HETATM   11  C2  UNL     1      -4.858  -0.706  -0.972  1.00  0.00     0.126 C 
HETATM   12  C16 UNL     1      -3.876   0.335  -1.228  1.00  0.00     0.192 C 
BRANCH  11  13
HETATM   13  C1  UNL     1      -6.310  -0.259  -1.233  1.00  0.00     0.271 C 
BRANCH  13  14
HETATM   14  N1  UNL     1      -6.769   0.764  -0.386  1.00  0.00    -0.076 N 
ATOM     15  H13 UNL     1      -6.651   0.495   0.591  1.00  0.00     0.274 HD
ATOM     16  H12 UNL     1      -6.139   1.565  -0.425  1.00  0.00     0.274 HD
ATOM     17  H11 UNL     1      -7.730   1.060  -0.559  1.00  0.00     0.274 HD
ENDBRANCH  13  14
ENDBRANCH  11  13
BRANCH  11  18
HETATM   18  O1  UNL     1      -4.711  -1.720  -1.970  1.00  0.00    -0.384 OA
ATOM     19  H1  UNL     1      -3.816  -1.995  -1.809  1.00  0.00     0.210 HD
ENDBRANCH  11  18
BRANCH  12  20
HETATM   20  O10 UNL     1      -4.564   1.410  -1.858  1.00  0.00    -0.389 OA
ATOM     21  H10 UNL     1      -3.922   2.090  -2.025  1.00  0.00     0.210 HD
ENDBRANCH  12  20
ENDBRANCH   2   3
ENDBRANCH   1   2
BRANCH   1  22
HETATM   22  O5  UNL     1      -0.090  -0.036  -1.131  1.00  0.00    -0.371 OA
ATOM     23  H5  UNL     1       0.727   0.399  -1.344  1.00  0.00     0.212 HD
ENDBRANCH   1  22
BRANCH   1  24
HETATM   24  C8  UNL     1       0.139   0.984   1.035  1.00  0.00     0.145 C 
BRANCH  24  25
HETATM   25  C9  UNL     1       1.371   1.666   0.578  1.00  0.00     0.170 C 
HETATM   26  O6  UNL     1       1.292   2.919   0.357  1.00  0.00    -0.292 OA
BRANCH  25  27
HETATM   27  C10 UNL     1       2.633   0.981   0.377  1.00  0.00     0.158 C 
HETATM   28  N3  UNL     1       2.755  -0.278   0.588  1.00  0.00    -0.298 N 
ATOM     29  H3  UNL     1       1.947  -0.813   0.905  1.00  0.00     0.186 HD
BRANCH  28  30
HETATM   30  N4  UNL     1       3.975  -0.930   0.392  1.00  0.00    -0.216 N 
HETATM   31  C11 UNL     1       5.158  -0.330   0.497  1.00  0.00     0.144 A 
HETATM   32  C12 UNL     1       6.327  -1.023   0.292  1.00  0.00     0.119 A 
HETATM   33  C14 UNL     1       6.262  -2.362  -0.027  1.00  0.00     0.266 A 
HETATM   34  O8  UNL     1       7.308  -3.024  -0.220  1.00  0.00    -0.267 OA
HETATM   35  N7  UNL     1       5.059  -2.970  -0.133  1.00  0.00    -0.273 N 
HETATM   36  C15 UNL     1       3.940  -2.238   0.080  1.00  0.00     0.348 A 
ATOM     37  H7  UNL     1       4.996  -3.960  -0.369  1.00  0.00     0.173 HD
HETATM   38  O9  UNL     1       2.837  -2.835  -0.026  1.00  0.00    -0.245 OA
BRANCH  32  39
HETATM   39  C13 UNL     1       7.612  -0.356   0.408  1.00  0.00     0.276 C 
HETATM   40  O7  UNL     1       8.555  -0.650  -0.358  1.00  0.00    -0.266 OA
HETATM   41  N5  UNL     1       7.789   0.631   1.397  1.00  0.00    -0.272 N 
ATOM     42  H5  UNL     1       7.015   0.865   2.018  1.00  0.00     0.189 HD
BRANCH  41  43
HETATM   43  N6  UNL     1       9.007   1.292   1.538  1.00  0.00    -0.342 N 
ATOM     44  H62 UNL     1       9.771   1.046   0.908  1.00  0.00     0.176 HD
ATOM     45  H61 UNL     1       9.135   2.007   2.254  1.00  0.00     0.176 HD
ENDBRANCH  41  43
ENDBRANCH  32  39
ENDBRANCH  28  30
ENDBRANCH  25  27
ENDBRANCH  24  25
ENDBRANCH   1  24
TORSDOF 13
