REMARK  13 active torsions:
REMARK  status: ('A' for Active; 'I' for Inactive)
REMARK    1  A    between atoms: C2_3  and  C3_4 
REMARK    2  A    between atoms: C3_4  and  N2_5 
REMARK       I    between atoms: N2_5  and  C4_7 
REMARK    3  A    between atoms: C4_7  and  C5_9 
REMARK    4  A    between atoms: C5_9  and  N3_10 
REMARK    5  A    between atoms: C5_9  and  C6_14 
REMARK    6  A    between atoms: C6_14  and  C7_15 
REMARK    7  A    between atoms: C7_15  and  O2_16 
REMARK    8  A    between atoms: C7_15  and  C8_18 
REMARK       I    between atoms: C8_18  and  N4_20 
REMARK    9  A    between atoms: N4_20  and  C9_22 
REMARK   10  A    between atoms: C10_28  and  C11_29 
REMARK   11  A    between atoms: C11_29  and  C12_31 
REMARK   12  A    between atoms: C13_39  and  O7_40 
REMARK   13  A    between atoms: C14_42  and  O8_43 
ROOT
HETATM    1  N2  UNL     1      -0.547   0.438   0.312  1.00  0.00    -0.355 N 
ATOM      2  H2  UNL     1      -0.753  -0.544   0.492  1.00  0.00     0.162 HD
HETATM    3  C4  UNL     1       0.596   1.038   0.935  1.00  0.00     0.248 C 
HETATM    4  O1  UNL     1       0.812   2.248   0.685  1.00  0.00    -0.271 OA
ENDROOT
BRANCH   1   5
HETATM    5  C3  UNL     1      -1.408   1.185  -0.559  1.00  0.00     0.159 C 
BRANCH   5   6
HETATM    6  C2  UNL     1      -2.568   0.487  -1.104  1.00  0.00    -0.025 C 
HETATM    7  C1  UNL     1      -2.620   0.228  -2.451  1.00  0.00     0.060 C 
HETATM    8  N1  UNL     1      -1.652   0.573  -3.424  1.00  0.00    -0.104 NA
HETATM    9  C14 UNL     1      -3.851  -0.568  -2.751  1.00  0.00     0.195 C 
HETATM   10  C13 UNL     1      -4.046  -1.253  -1.351  1.00  0.00     0.168 C 
HETATM   11  C10 UNL     1      -3.869   0.047  -0.542  1.00  0.00     0.127 C 
BRANCH   9  12
HETATM   12  O8  UNL     1      -4.932   0.240  -2.997  1.00  0.00    -0.387 OA
ATOM     13  H8  UNL     1      -5.714  -0.265  -3.187  1.00  0.00     0.210 HD
ENDBRANCH   9  12
BRANCH  10  14
HETATM   14  O7  UNL     1      -5.267  -1.825  -1.279  1.00  0.00    -0.392 OA
ATOM     15  H7  UNL     1      -5.376  -2.626  -1.778  1.00  0.00     0.210 HD
ENDBRANCH  10  14
BRANCH  11  16
HETATM   16  C11 UNL     1      -4.007  -0.068   0.875  1.00  0.00     0.206 C 
HETATM   17  O6  UNL     1      -3.063   0.088   1.678  1.00  0.00    -0.288 OA
BRANCH  16  18
HETATM   18  C12 UNL     1      -5.300  -0.385   1.491  1.00  0.00     0.181 A 
HETATM   19  N6  UNL     1      -5.523  -0.521   2.834  1.00  0.00    -0.269 N 
HETATM   20  N7  UNL     1      -6.774  -0.774   3.066  1.00  0.00    -0.225 N 
ATOM     21  H6  UNL     1      -4.805  -0.435   3.553  1.00  0.00     0.190 HD
HETATM   22  N8  UNL     1      -7.397  -0.810   1.902  1.00  0.00    -0.005 NA
ATOM     23  H7  UNL     1      -7.199  -0.919   3.982  1.00  0.00     0.205 HD
HETATM   24  N9  UNL     1      -6.508  -0.575   0.952  1.00  0.00    -0.264 N 
ATOM     25  H9  UNL     1      -6.714  -0.543  -0.046  1.00  0.00     0.186 HD
ENDBRANCH  16  18
ENDBRANCH  11  16
ENDBRANCH   5   6
ENDBRANCH   1   5
BRANCH   3  26
HETATM   26  C5  UNL     1       1.503   0.291   1.839  1.00  0.00     0.277 C 
BRANCH  26  27
HETATM   27  N3  UNL     1       1.082  -1.083   2.009  1.00  0.00    -0.066 N 
ATOM     28  H33 UNL     1       0.114  -1.138   2.326  1.00  0.00     0.275 HD
ATOM     29  H32 UNL     1       0.983  -1.555   1.110  1.00  0.00     0.275 HD
ATOM     30  H31 UNL     1       1.706  -1.597   2.631  1.00  0.00     0.275 HD
ENDBRANCH  26  27
BRANCH  26  31
HETATM   31  C6  UNL     1       2.942   0.388   1.383  1.00  0.00     0.084 C 
BRANCH  31  32
HETATM   32  C7  UNL     1       3.151  -0.175  -0.006  1.00  0.00     0.212 C 
BRANCH  32  33
HETATM   33  O2  UNL     1       2.400   0.482  -0.953  1.00  0.00    -0.386 OA
ATOM     34  H2  UNL     1       2.531   0.129  -1.825  1.00  0.00     0.210 HD
ENDBRANCH  32  33
BRANCH  32  35
HETATM   35  C8  UNL     1       4.589  -0.009  -0.323  1.00  0.00     0.248 C 
HETATM   36  O3  UNL     1       4.894   0.662  -1.342  1.00  0.00    -0.271 OA
HETATM   37  N4  UNL     1       5.610  -0.586   0.492  1.00  0.00    -0.323 N 
ATOM     38  H4  UNL     1       5.329  -1.125   1.311  1.00  0.00     0.165 HD
BRANCH  37  39
HETATM   39  C9  UNL     1       7.008  -0.446   0.217  1.00  0.00     0.341 A 
HETATM   40  N5  UNL     1       7.834  -1.640   0.336  1.00  0.00    -0.279 N 
HETATM   41  S1  UNL     1       8.183  -0.427   1.511  1.00  0.00     0.270 S 
ATOM     42  H5  UNL     1       8.056  -2.566  -0.029  1.00  0.00     0.175 HD
HETATM   43  O4  UNL     1       9.389   0.433   1.346  1.00  0.00    -0.202 OA
HETATM   44  O5  UNL     1       7.721  -0.793   2.899  1.00  0.00    -0.202 OA
ENDBRANCH  37  39
ENDBRANCH  32  35
ENDBRANCH  31  32
ENDBRANCH  26  31
ENDBRANCH   3  26
TORSDOF 13
