REMARK  1 active torsions:
REMARK  status: ('A' for Active; 'I' for Inactive)
REMARK    1  A    between atoms: C4_4  and  O1_5 
ROOT
HETATM    1  C1  UNL     1      -2.631   0.557   0.589  1.00  0.00     0.010 C 
HETATM    2  C2  UNL     1      -1.497   0.180  -0.376  1.00  0.00    -0.011 C 
HETATM    3  C3  UNL     1      -0.482   1.234  -0.478  1.00  0.00     0.036 C 
HETATM    4  C4  UNL     1       0.872   0.977   0.033  1.00  0.00     0.128 C 
HETATM    5  C5  UNL     1       1.262  -0.437   0.252  1.00  0.00     0.082 C 
HETATM    6  C6  UNL     1       2.679  -0.755  -0.190  1.00  0.00     0.019 C 
HETATM    7  C7  UNL     1       0.361  -1.433  -0.463  1.00  0.00     0.249 C 
HETATM    8  F1  UNL     1       0.438  -1.183  -1.798  1.00  0.00    -0.206 F 
HETATM    9  F2  UNL     1       0.775  -2.689  -0.099  1.00  0.00    -0.206 F 
HETATM   10  C8  UNL     1      -1.026  -1.168   0.067  1.00  0.00     0.084 C 
ENDROOT
BRANCH   4  11
HETATM   11  O1  UNL     1       1.069   1.649   1.265  1.00  0.00    -0.395 OA
ATOM     12  H1  UNL     1       1.944   1.483   1.595  1.00  0.00     0.210 HD
ENDBRANCH   4  11
TORSDOF 1
