REMARK  2 active torsions:
REMARK  status: ('A' for Active; 'I' for Inactive)
REMARK    1  A    between atoms: N1_1  and  C1_5 
REMARK    2  A    between atoms: C5_9  and  C6_10 
ROOT
HETATM    1  C1  UNL     1      -1.689  -0.117   0.223  1.00  0.00     0.183 C 
HETATM    2  C2  UNL     1      -1.191   1.214  -0.280  1.00  0.00     0.033 C 
HETATM    3  C3  UNL     1      -0.125   1.816   0.586  1.00  0.00     0.003 C 
HETATM    4  C4  UNL     1       1.073   0.960   0.779  1.00  0.00     0.013 C 
HETATM    5  C5  UNL     1       1.277  -0.088  -0.263  1.00  0.00     0.093 C 
HETATM    6  C7  UNL     1       0.490  -1.337  -0.055  1.00  0.00     0.015 C 
HETATM    7  C8  UNL     1      -0.953  -1.241  -0.430  1.00  0.00     0.033 C 
ENDROOT
BRANCH   1   8
HETATM    8  N1  UNL     1      -3.091  -0.221  -0.190  1.00  0.00    -0.075 N 
ATOM      9  H13 UNL     1      -3.662   0.566   0.118  1.00  0.00     0.274 HD
ATOM     10  H12 UNL     1      -3.227  -0.092  -1.193  1.00  0.00     0.274 HD
ATOM     11  H11 UNL     1      -3.428  -1.122   0.150  1.00  0.00     0.274 HD
ENDBRANCH   1   8
BRANCH   5  12
HETATM   12  C6  UNL     1       2.758  -0.492  -0.180  1.00  0.00     0.391 C 
HETATM   13  F1  UNL     1       3.578   0.570  -0.415  1.00  0.00    -0.171 F 
HETATM   14  F2  UNL     1       3.052  -1.508  -1.046  1.00  0.00    -0.171 F 
HETATM   15  F3  UNL     1       3.047  -0.954   1.104  1.00  0.00    -0.171 F 
ENDBRANCH   5  12
TORSDOF 2
