REMARK  0 active torsions:
REMARK  status: ('A' for Active; 'I' for Inactive)
ROOT
HETATM    1  C1  UNL     1       2.945  -0.013   0.667  1.00  0.00     0.017 C 
HETATM    2  C2  UNL     1       1.706  -0.067  -0.195  1.00  0.00     0.080 C 
HETATM    3  C3  UNL     1       0.888  -1.257   0.224  1.00  0.00     0.243 C 
HETATM    4  N1  UNL     1      -0.446  -1.204  -0.314  1.00  0.00    -0.066 N 
ATOM      5  H11 UNL     1      -0.930  -2.088  -0.158  1.00  0.00     0.278 HD
ATOM      6  H12 UNL     1      -0.420  -1.198  -1.334  1.00  0.00     0.278 HD
HETATM    7  C4  UNL     1      -1.230  -0.112   0.173  1.00  0.00     0.124 C 
HETATM    8  C5  UNL     1      -2.208   0.360  -0.901  1.00  0.00     0.046 C 
HETATM    9  C6  UNL     1      -2.102  -0.522   1.363  1.00  0.00     0.046 C 
HETATM   10  C7  UNL     1      -0.394   1.045   0.623  1.00  0.00     0.117 C 
HETATM   11  C8  UNL     1       0.894   1.192  -0.142  1.00  0.00     0.250 C 
HETATM   12  F1  UNL     1       1.611   2.221   0.472  1.00  0.00    -0.206 F 
HETATM   13  F2  UNL     1       0.656   1.631  -1.440  1.00  0.00    -0.206 F 
ENDROOT
TORSDOF 0
