REMARK  8 active torsions:
REMARK  status: ('A' for Active; 'I' for Inactive)
REMARK    1  A    between atoms: C1_2  and  C2_4 
REMARK    2  A    between atoms: C2_4  and  N1_5 
REMARK    3  A    between atoms: N1_5  and  C3_8 
REMARK    4  A    between atoms: C3_8  and  C4_9 
REMARK    5  A    between atoms: C4_9  and  N2_10 
REMARK    6  A    between atoms: N2_10  and  C5_12 
REMARK    7  A    between atoms: C6_13  and  N3_14 
REMARK    8  A    between atoms: N3_14  and  C7_16 
ROOT
HETATM    1  C5  UNL     1      -0.173  -1.244  -0.839  1.00  0.00     0.114 A 
HETATM    2  C6  UNL     1       1.069  -0.558  -0.757  1.00  0.00     0.118 A 
HETATM    3  C13 UNL     1       0.847  -0.018  -1.999  1.00  0.00     0.253 A 
HETATM    4  O3  UNL     1       1.442   0.748  -2.766  1.00  0.00    -0.281 OA
HETATM    5  C14 UNL     1      -0.353  -0.689  -2.065  1.00  0.00     0.252 A 
HETATM    6  O4  UNL     1      -1.265  -0.755  -2.935  1.00  0.00    -0.281 OA
ENDROOT
BRANCH   1   7
HETATM    7  N2  UNL     1      -0.842  -2.121   0.048  1.00  0.00    -0.383 N 
ATOM      8  H2  UNL     1      -0.687  -3.127  -0.019  1.00  0.00     0.159 HD
BRANCH   7   9
HETATM    9  C4  UNL     1      -1.742  -1.597   1.046  1.00  0.00     0.147 C 
BRANCH   9  10
HETATM   10  C3  UNL     1      -2.894  -0.899   0.311  1.00  0.00     0.252 C 
BRANCH  10  11
HETATM   11  N1  UNL     1      -3.754  -0.391   1.345  1.00  0.00    -0.064 N 
ATOM     12  H12 UNL     1      -3.242   0.237   1.964  1.00  0.00     0.277 HD
ATOM     13  H11 UNL     1      -3.993  -1.127   2.010  1.00  0.00     0.277 HD
BRANCH  11  14
HETATM   14  C2  UNL     1      -4.929   0.239   0.846  1.00  0.00     0.344 C 
BRANCH  14  15
HETATM   15  C1  UNL     1      -4.606   1.512   0.182  1.00  0.00     0.199 C 
HETATM   16  O1  UNL     1      -3.444   1.962   0.136  1.00  0.00    -0.647 OA
HETATM   17  O2  UNL     1      -5.645   2.253  -0.426  1.00  0.00    -0.647 OA
ENDBRANCH  14  15
ENDBRANCH  11  14
ENDBRANCH  10  11
ENDBRANCH   9  10
ENDBRANCH   7   9
ENDBRANCH   1   7
BRANCH   2  18
HETATM   18  N3  UNL     1       2.019  -0.516   0.288  1.00  0.00    -0.351 N 
ATOM     19  H3  UNL     1       1.755  -0.908   1.192  1.00  0.00     0.166 HD
BRANCH  18  20
HETATM   20  C7  UNL     1       3.300   0.031   0.159  1.00  0.00     0.032 A 
HETATM   21  C8  UNL     1       4.000  -0.087  -1.010  1.00  0.00     0.029 A 
HETATM   22  C9  UNL     1       5.260   0.489  -1.123  1.00  0.00     0.002 A 
HETATM   23  C10 UNL     1       5.800   1.176  -0.061  1.00  0.00     0.000 A 
HETATM   24  C11 UNL     1       5.085   1.281   1.100  1.00  0.00     0.002 A 
HETATM   25  C12 UNL     1       3.837   0.722   1.239  1.00  0.00     0.029 A 
ENDBRANCH  18  20
ENDBRANCH   2  18
TORSDOF 8
