REMARK  9 active torsions:
REMARK  status: ('A' for Active; 'I' for Inactive)
REMARK    1  A    between atoms: C2_2  and  C3_3 
REMARK    2  A    between atoms: C2_2  and  N2_8 
REMARK    3  A    between atoms: C3_3  and  O1_4 
REMARK    4  A    between atoms: O1_4  and  N1_5 
REMARK    5  A    between atoms: N2_8  and  C4_10 
REMARK    6  A    between atoms: C4_10  and  C5_11 
REMARK    7  A    between atoms: C4_10  and  C8_18 
REMARK    8  A    between atoms: C8_18  and  C9_19 
REMARK    9  A    between atoms: C8_18  and  C10_22 
ROOT
HETATM    1  C4  UNL     1      -0.021   0.178   0.483  1.00  0.00     0.143 C 
ENDROOT
BRANCH   1   2
HETATM    2  N2  UNL     1       1.284  -0.066   0.217  1.00  0.00    -0.405 N 
ATOM      3  H2  UNL     1       1.813  -0.271   1.065  1.00  0.00     0.154 HD
BRANCH   2   4
HETATM    4  C2  UNL     1       2.064  -0.107  -0.886  1.00  0.00     0.099 C 
HETATM    5  C1  UNL     1       2.364   1.058  -1.748  1.00  0.00     0.034 C 
BRANCH   4   6
HETATM    6  C3  UNL     1       3.437  -0.677  -0.445  1.00  0.00     0.224 C 
BRANCH   6   7
HETATM    7  O1  UNL     1       3.247  -1.962   0.073  1.00  0.00    -0.285 OA
BRANCH   7   8
HETATM    8  N1  UNL     1       4.372  -2.535   0.473  1.00  0.00    -0.311 N 
ATOM      9  H12 UNL     1       5.278  -2.072   0.403  1.00  0.00     0.184 HD
ATOM     10  H11 UNL     1       4.233  -3.472   0.851  1.00  0.00     0.184 HD
ENDBRANCH   7   8
ENDBRANCH   6   7
ENDBRANCH   4   6
ENDBRANCH   2   4
ENDBRANCH   1   2
BRANCH   1  11
HETATM   11  C5  UNL     1      -0.448   1.578   0.233  1.00  0.00     0.049 A 
HETATM   12  C6  UNL     1      -0.943   2.488   1.164  1.00  0.00     0.116 A 
HETATM   13  N3  UNL     1      -1.246   3.616   0.534  1.00  0.00    -0.360 N 
HETATM   14  C7  UNL     1      -0.965   3.460  -0.751  1.00  0.00     0.180 A 
ATOM     15  H3  UNL     1      -1.629   4.458   0.965  1.00  0.00     0.166 HD
HETATM   16  N4  UNL     1      -0.480   2.227  -0.944  1.00  0.00    -0.353 N 
ATOM     17  H4  UNL     1      -0.182   1.842  -1.840  1.00  0.00     0.166 HD
ENDBRANCH   1  11
BRANCH   1  18
HETATM   18  C8  UNL     1      -1.064  -0.717  -0.109  1.00  0.00     0.118 C 
BRANCH  18  19
HETATM   19  C9  UNL     1      -0.948  -2.132   0.277  1.00  0.00     0.179 C 
HETATM   20  O2  UNL     1      -0.105  -2.566   1.137  1.00  0.00    -0.648 OA
HETATM   21  O3  UNL     1      -1.749  -3.128  -0.262  1.00  0.00    -0.648 OA
ENDBRANCH  18  19
BRANCH  18  22
HETATM   22  C10 UNL     1      -2.454  -0.263   0.257  1.00  0.00    -0.006 C 
HETATM   23  C11 UNL     1      -2.788  -0.242   1.698  1.00  0.00     0.010 C 
HETATM   24  C12 UNL     1      -3.535  -1.017  -0.519  1.00  0.00     0.010 C 
ENDBRANCH  18  22
ENDBRANCH   1  18
TORSDOF 9
