REMARK  5 active torsions:
REMARK  status: ('A' for Active; 'I' for Inactive)
REMARK    1  A    between atoms: C2_2  and  C3_3 
REMARK    2  A    between atoms: C4_4  and  C5_5 
REMARK    3  A    between atoms: C5_5  and  C7_7 
REMARK    4  A    between atoms: C7_7  and  C8_8 
REMARK    5  A    between atoms: N2_11  and  N3_12 
ROOT
HETATM    1  C8  UNL     1       1.929  -0.220   0.126  1.00  0.00     0.315 C 
HETATM    2  O1  UNL     1       2.683   0.953   0.269  1.00  0.00    -0.233 OA
HETATM    3  N1  UNL     1       3.592   0.819  -0.753  1.00  0.00     0.045 NA
HETATM    4  N2  UNL     1       2.797   0.345  -1.813  1.00  0.00     0.015 NA
HETATM    5  O2  UNL     1       1.837  -0.404  -1.268  1.00  0.00    -0.232 OA
ENDROOT
BRANCH   1   6
HETATM    6  C7  UNL     1       0.531  -0.014   0.632  1.00  0.00     0.102 C 
BRANCH   6   7
HETATM    7  C5  UNL     1      -0.243  -1.261   0.486  1.00  0.00    -0.063 C 
HETATM    8  C6  UNL     1       0.222  -2.401   0.032  1.00  0.00     0.019 C 
BRANCH   7   9
HETATM    9  C4  UNL     1      -1.650  -1.204   0.877  1.00  0.00     0.006 C 
HETATM   10  C3  UNL     1      -2.173  -0.096   1.337  1.00  0.00    -0.000 C 
BRANCH  10  11
HETATM   11  C2  UNL     1      -3.568  -0.056   1.719  1.00  0.00    -0.010 C 
HETATM   12  C1  UNL     1      -4.148   1.053   2.195  1.00  0.00     0.011 C 
ENDBRANCH  10  11
ENDBRANCH   7   9
ENDBRANCH   6   7
ENDBRANCH   1   6
BRANCH   4  13
HETATM   13  N3  UNL     1       2.250   1.504  -2.422  1.00  0.00    -0.323 NA
ATOM     14  H32 UNL     1       2.984   2.077  -2.839  1.00  0.00     0.174 HD
ATOM     15  H31 UNL     1       1.674   1.160  -3.190  1.00  0.00     0.174 HD
ENDBRANCH   4  13
TORSDOF 5
