REMARK  4 active torsions:
REMARK  status: ('A' for Active; 'I' for Inactive)
REMARK       I    between atoms: C1_2  and  N2_4 
REMARK    1  A    between atoms: N3_6  and  N4_7 
REMARK    2  A    between atoms: N3_6  and  C2_13 
REMARK    3  A    between atoms: N4_7  and  N5_9 
REMARK    4  A    between atoms: N5_9  and  O2_11 
ROOT
HETATM    1  N1  UNL     1      -3.549  -0.767   0.196  1.00  0.00    -0.038 NA
HETATM    2  C1  UNL     1      -2.134  -0.774   0.113  1.00  0.00     0.348 C 
HETATM    3  O1  UNL     1      -1.500  -1.820  -0.146  1.00  0.00    -0.249 OA
HETATM    4  N2  UNL     1      -1.457   0.420   0.327  1.00  0.00    -0.229 N 
ATOM      5  H2  UNL     1      -2.075   1.210   0.514  1.00  0.00     0.193 HD
HETATM    6  N3  UNL     1      -0.268   0.717   0.337  1.00  0.00    -0.153 N 
ENDROOT
BRANCH   6   7
HETATM    7  N4  UNL     1       0.064   2.071   0.599  1.00  0.00    -0.199 N 
ATOM      8  H4  UNL     1       0.402   2.375   1.512  1.00  0.00     0.212 HD
BRANCH   7   9
HETATM    9  N5  UNL     1      -0.098   2.968  -0.466  1.00  0.00    -0.194 N 
ATOM     10  H5  UNL     1      -0.518   2.644  -1.337  1.00  0.00     0.217 HD
BRANCH   9  11
HETATM   11  O2  UNL     1       0.262   4.149  -0.364  1.00  0.00    -0.273 OA
ATOM     12  H2  UNL     1       0.152   4.757  -1.086  1.00  0.00     0.246 HD
ENDBRANCH   9  11
ENDBRANCH   7   9
ENDBRANCH   6   7
BRANCH   6  13
HETATM   13  C2  UNL     1       0.814  -0.154   0.121  1.00  0.00     0.187 A 
HETATM   14  C3  UNL     1       1.719  -0.107  -0.933  1.00  0.00     0.062 A 
HETATM   15  C4  UNL     1       2.609  -1.142  -0.753  1.00  0.00     0.029 A 
HETATM   16  C5  UNL     1       2.204  -1.777   0.410  1.00  0.00     0.144 A 
HETATM   17  O3  UNL     1       1.153  -1.163   0.881  1.00  0.00    -0.303 OA
ENDBRANCH   6  13
TORSDOF 4
