REMARK  4 active torsions:
REMARK  status: ('A' for Active; 'I' for Inactive)
REMARK    1  A    between atoms: C1_2  and  N1_3 
REMARK    2  A    between atoms: N1_3  and  N2_5 
REMARK    3  A    between atoms: C2_7  and  C3_8 
REMARK    4  A    between atoms: C6_11  and  N3_12 
ROOT
HETATM    1  C3  UNL     1      -0.414   0.148   0.011  1.00  0.00     0.095 A 
HETATM    2  C4  UNL     1      -1.060  -0.999  -0.447  1.00  0.00     0.043 A 
HETATM    3  C5  UNL     1      -2.353  -1.006   0.036  1.00  0.00     0.065 A 
HETATM    4  C6  UNL     1      -2.426   0.176   0.788  1.00  0.00     0.215 A 
HETATM    5  O4  UNL     1      -1.275   0.796   0.733  1.00  0.00    -0.287 OA
ENDROOT
BRANCH   1   6
HETATM    6  C2  UNL     1       0.967   0.461  -0.318  1.00  0.00     0.144 C 
HETATM    7  N2  UNL     1       1.701  -0.288  -1.054  1.00  0.00    -0.307 N 
ATOM      8  H2  UNL     1       1.309  -1.150  -1.434  1.00  0.00     0.186 HD
BRANCH   7   9
HETATM    9  N1  UNL     1       3.023   0.045  -1.349  1.00  0.00    -0.278 N 
ATOM     10  H1  UNL     1       3.276   0.273  -2.311  1.00  0.00     0.189 HD
BRANCH   9  11
HETATM   11  C1  UNL     1       4.026   0.075  -0.343  1.00  0.00     0.368 C 
HETATM   12  O1  UNL     1       3.712  -0.201   0.823  1.00  0.00    -0.282 OA
ENDBRANCH   9  11
ENDBRANCH   7   9
ENDBRANCH   1   6
BRANCH   4  13
HETATM   13  N3  UNL     1      -3.586   0.600   1.485  1.00  0.00    -0.090 N 
HETATM   14  O2  UNL     1      -4.648  -0.055   1.485  1.00  0.00    -0.530 OA
HETATM   15  O3  UNL     1      -3.528   1.779   2.186  1.00  0.00    -0.530 OA
ENDBRANCH   4  13
TORSDOF 4
