REMARK  4 active torsions:
REMARK  status: ('A' for Active; 'I' for Inactive)
REMARK    1  A    between atoms: C2_2  and  C3_3 
REMARK    2  A    between atoms: C3_3  and  N1_4 
REMARK    3  A    between atoms: C3_3  and  C5_11 
REMARK    4  A    between atoms: N1_4  and  N2_6 
ROOT
HETATM    1  C3  UNL     1       0.161   0.355  -0.432  1.00  0.00     0.124 C 
ENDROOT
BRANCH   1   2
HETATM    2  C2  UNL     1      -0.032   1.535   0.459  1.00  0.00     0.024 C 
HETATM    3  C1  UNL     1       1.021   2.602   0.247  1.00  0.00     0.007 C 
ENDBRANCH   1   2
BRANCH   1   4
HETATM    4  N1  UNL     1      -0.855  -0.616  -0.191  1.00  0.00    -0.316 N 
ATOM      5  H1  UNL     1      -0.574  -1.546   0.119  1.00  0.00     0.182 HD
BRANCH   4   6
HETATM    6  N2  UNL     1      -2.213  -0.355  -0.358  1.00  0.00    -0.252 N 
HETATM    7  N3  UNL     1      -3.126  -1.024   0.215  1.00  0.00    -0.327 N 
HETATM    8  C4  UNL     1      -4.519  -0.724   0.018  1.00  0.00     0.169 C 
ATOM      9  H3  UNL     1      -2.866  -1.794   0.831  1.00  0.00     0.181 HD
ATOM     10  H2  UNL     1      -2.487   0.412  -0.972  1.00  0.00     0.207 HD
ENDBRANCH   4   6
ENDBRANCH   1   4
BRANCH   1  11
HETATM   11  C5  UNL     1       1.548  -0.153  -0.326  1.00  0.00     0.164 C 
HETATM   12  N4  UNL     1       1.818  -1.303  -1.163  1.00  0.00    -0.088 NA
HETATM   13  O1  UNL     1       3.057  -1.667  -0.730  1.00  0.00    -0.251 OA
HETATM   14  C6  UNL     1       2.977  -1.713   0.667  1.00  0.00     0.315 A 
HETATM   15  O2  UNL     1       3.324  -0.552   1.348  1.00  0.00    -0.345 OA
HETATM   16  C7  UNL     1       1.965  -0.615   1.022  1.00  0.00     0.205 A 
ENDBRANCH   1  11
TORSDOF 4
