REMARK  4 active torsions:
REMARK  status: ('A' for Active; 'I' for Inactive)
REMARK    1  A    between atoms: N1_1  and  O1_4 
REMARK    2  A    between atoms: O1_4  and  C1_5 
REMARK    3  A    between atoms: C1_5  and  C2_6 
REMARK    4  A    between atoms: C3_7  and  C4_8 
ROOT
HETATM    1  C4  UNL     1      -1.081  -0.115  -0.246  1.00  0.00     0.020 A 
HETATM    2  C5  UNL     1      -1.425   1.233  -0.007  1.00  0.00     0.037 A 
HETATM    3  C6  UNL     1      -2.697   1.561   0.426  1.00  0.00     0.089 A 
HETATM    4  N2  UNL     1      -3.605   0.565   0.610  1.00  0.00    -0.375 N 
ATOM      5  H2  UNL     1      -4.550   0.786   0.925  1.00  0.00     0.164 HD
HETATM    6  C7  UNL     1      -3.253  -0.717   0.375  1.00  0.00     0.089 A 
HETATM    7  C8  UNL     1      -2.024  -1.093  -0.051  1.00  0.00     0.037 A 
ENDROOT
BRANCH   1   8
HETATM    8  C3  UNL     1       0.244  -0.440  -0.589  1.00  0.00    -0.065 C 
HETATM    9  C2  UNL     1       1.377  -0.693  -0.783  1.00  0.00    -0.072 C 
BRANCH   9  10
HETATM   10  C1  UNL     1       2.857  -0.946  -0.893  1.00  0.00     0.294 C 
BRANCH  10  11
HETATM   11  O1  UNL     1       3.434   0.301  -0.499  1.00  0.00    -0.275 OA
BRANCH  11  12
HETATM   12  N1  UNL     1       3.101   0.490   0.813  1.00  0.00    -0.310 N 
ATOM     13  H12 UNL     1       2.547  -0.145   1.387  1.00  0.00     0.184 HD
ATOM     14  H11 UNL     1       3.513   1.380   1.094  1.00  0.00     0.184 HD
ENDBRANCH  11  12
ENDBRANCH  10  11
ENDBRANCH   9  10
ENDBRANCH   1   8
TORSDOF 4
