REMARK  2 active torsions:
REMARK  status: ('A' for Active; 'I' for Inactive)
REMARK    1  A    between atoms: O1_1  and  C1_3 
REMARK    2  A    between atoms: C7_10  and  O3_11 
ROOT
HETATM    1  C1  UNL     1       1.417   0.594  -0.177  1.00  0.00     0.172 C 
HETATM    2  C2  UNL     1       1.205  -0.090   1.118  1.00  0.00     0.004 C 
HETATM    3  C3  UNL     1       0.055  -0.607   1.502  1.00  0.00    -0.019 C 
HETATM    4  C4  UNL     1      -1.102  -0.504   0.592  1.00  0.00     0.063 C 
HETATM    5  C5  UNL     1      -0.831  -1.448  -0.573  1.00  0.00     0.179 C 
HETATM    6  O2  UNL     1      -0.045  -0.783  -1.472  1.00  0.00    -0.380 OA
HETATM    7  C6  UNL     1       0.172   0.503  -1.050  1.00  0.00     0.183 C 
HETATM    8  C7  UNL     1      -0.996   0.837  -0.110  1.00  0.00     0.159 C 
ENDROOT
BRANCH   1   9
HETATM    9  O1  UNL     1       2.547   0.163  -0.843  1.00  0.00    -0.389 OA
ATOM     10  H1  UNL     1       2.683   0.602  -1.674  1.00  0.00     0.210 HD
ENDBRANCH   1   9
BRANCH   8  11
HETATM   11  O3  UNL     1      -2.130   1.186  -0.793  1.00  0.00    -0.392 OA
ATOM     12  H3  UNL     1      -2.064   2.026  -1.233  1.00  0.00     0.210 HD
ENDBRANCH   8  11
TORSDOF 2
