REMARK  1 active torsions:
REMARK  status: ('A' for Active; 'I' for Inactive)
REMARK    1  A    between atoms: N1_1  and  C1_5 
ROOT
HETATM    1  C1  UNL     1       1.426   0.512   0.125  1.00  0.00     0.272 C 
HETATM    2  C2  UNL     1       1.705  -0.935   0.388  1.00  0.00     0.051 C 
HETATM    3  C3  UNL     1       0.438  -1.664   0.749  1.00  0.00     0.026 C 
HETATM    4  C4  UNL     1      -0.732  -0.893   0.283  1.00  0.00     0.094 C 
HETATM    5  C5  UNL     1      -0.842   0.498   0.773  1.00  0.00     0.097 C 
HETATM    6  C6  UNL     1      -2.136   0.949   0.112  1.00  0.00     0.039 C 
HETATM    7  C7  UNL     1      -1.851   0.309  -1.262  1.00  0.00     0.110 C 
HETATM    8  N2  UNL     1      -0.513  -0.234  -1.014  1.00  0.00    -0.241 NA
HETATM    9  N3  UNL     1       0.097   0.809  -0.270  1.00  0.00    -0.213 NA
ENDROOT
BRANCH   1  10
HETATM   10  N1  UNL     1       2.394   1.017  -0.840  1.00  0.00    -0.061 N 
ATOM     11  H13 UNL     1       3.357   0.855  -0.544  1.00  0.00     0.276 HD
ATOM     12  H12 UNL     1       2.412   0.464  -1.697  1.00  0.00     0.276 HD
ATOM     13  H11 UNL     1       2.204   2.003  -1.019  1.00  0.00     0.276 HD
ENDBRANCH   1  10
TORSDOF 1
