REMARK  2 active torsions:
REMARK  status: ('A' for Active; 'I' for Inactive)
REMARK    1  A    between atoms: O1_1  and  C1_3 
REMARK    2  A    between atoms: C7_10  and  O3_11 
ROOT
HETATM    1  C1  UNL     1      -0.845  -1.190   0.619  1.00  0.00     0.147 C 
HETATM    2  C2  UNL     1       0.547  -1.189   0.116  1.00  0.00     0.043 C 
HETATM    3  C3  UNL     1       0.894  -0.083  -0.815  1.00  0.00     0.041 A 
HETATM    4  C4  UNL     1       2.316   0.409  -0.551  1.00  0.00     0.175 A 
HETATM    5  O2  UNL     1       1.743   1.633  -0.173  1.00  0.00    -0.385 OA
HETATM    6  C5  UNL     1       0.404   1.260  -0.421  1.00  0.00     0.130 A 
HETATM    7  C6  UNL     1      -0.491   1.293   0.766  1.00  0.00     0.066 C 
HETATM    8  C7  UNL     1      -1.455   0.144   0.844  1.00  0.00     0.149 C 
ENDROOT
BRANCH   1   9
HETATM    9  O1  UNL     1      -1.629  -1.973  -0.251  1.00  0.00    -0.393 OA
ATOM     10  H1  UNL     1      -2.522  -1.974   0.072  1.00  0.00     0.210 HD
ENDBRANCH   1   9
BRANCH   8  11
HETATM   11  O3  UNL     1      -2.477   0.396  -0.075  1.00  0.00    -0.393 OA
ATOM     12  H3  UNL     1      -2.867   1.250   0.069  1.00  0.00     0.210 HD
ENDBRANCH   8  11
TORSDOF 2
