REMARK  3 active torsions:
REMARK  status: ('A' for Active; 'I' for Inactive)
REMARK    1  A    between atoms: C2_2  and  C3_3 
REMARK    2  A    between atoms: C5_6  and  O2_7 
REMARK    3  A    between atoms: C7_10  and  O3_11 
ROOT
HETATM    1  C3  UNL     1       0.538   0.271  -0.464  1.00  0.00     0.133 A 
HETATM    2  O1  UNL     1       0.480  -0.678  -1.475  1.00  0.00    -0.359 OA
HETATM    3  C4  UNL     1       0.190  -1.126  -0.219  1.00  0.00     0.193 A 
HETATM    4  C5  UNL     1      -1.207  -1.075   0.336  1.00  0.00     0.153 C 
HETATM    5  C6  UNL     1      -1.812   0.221  -0.092  1.00  0.00     0.069 C 
HETATM    6  C7  UNL     1      -0.658   1.144  -0.339  1.00  0.00     0.162 C 
ENDROOT
BRANCH   1   7
HETATM    7  C2  UNL     1       1.856   0.729   0.044  1.00  0.00     0.006 C 
HETATM    8  C1  UNL     1       2.883  -0.100   0.084  1.00  0.00     0.010 C 
ENDBRANCH   1   7
BRANCH   6   9
HETATM    9  O3  UNL     1      -0.537   2.153   0.587  1.00  0.00    -0.392 OA
ATOM     10  H3  UNL     1      -1.302   2.711   0.667  1.00  0.00     0.210 HD
ENDBRANCH   6   9
BRANCH   4  11
HETATM   11  O2  UNL     1      -1.923  -2.185  -0.032  1.00  0.00    -0.393 OA
ATOM     12  H2  UNL     1      -2.805  -2.153   0.319  1.00  0.00     0.210 HD
ENDBRANCH   4  11
TORSDOF 3
