REMARK  2 active torsions:
REMARK  status: ('A' for Active; 'I' for Inactive)
REMARK    1  A    between atoms: O1_1  and  C1_3 
REMARK    2  A    between atoms: C6_9  and  O3_10 
ROOT
HETATM    1  C1  UNL     1       1.412   0.206  -0.056  1.00  0.00     0.176 C 
HETATM    2  C2  UNL     1       1.329  -1.265   0.058  1.00  0.00     0.203 C 
HETATM    3  O2  UNL     1       0.295  -1.874  -0.574  1.00  0.00    -0.383 OA
HETATM    4  C3  UNL     1      -0.892  -1.205  -0.598  1.00  0.00     0.124 C 
HETATM    5  C4  UNL     1      -1.372  -0.757   0.762  1.00  0.00     0.035 C 
HETATM    6  C5  UNL     1      -0.743   0.620   0.993  1.00  0.00     0.043 C 
HETATM    7  C6  UNL     1       0.082   0.881  -0.262  1.00  0.00     0.088 C 
HETATM    8  C7  UNL     1      -0.741   0.143  -1.304  1.00  0.00     0.072 C 
ENDROOT
BRANCH   1   9
HETATM    9  O1  UNL     1       1.917   0.704   1.167  1.00  0.00    -0.390 OA
ATOM     10  H1  UNL     1       1.970   1.650   1.094  1.00  0.00     0.210 HD
ENDBRANCH   1   9
BRANCH   7  11
HETATM   11  O3  UNL     1       0.203   2.203  -0.566  1.00  0.00    -0.387 OA
ATOM     12  H3  UNL     1      -0.636   2.629  -0.696  1.00  0.00     0.210 HD
ENDBRANCH   7  11
TORSDOF 2
