REMARK  8 active torsions:
REMARK  status: ('A' for Active; 'I' for Inactive)
REMARK    1  A    between atoms: C3_4  and  C4_5 
REMARK    2  A    between atoms: N2_10  and  C6_11 
REMARK    3  A    between atoms: C6_11  and  C7_12 
REMARK    4  A    between atoms: C7_12  and  S1_13 
REMARK    5  A    between atoms: S1_13  and  S2_14 
REMARK    6  A    between atoms: S2_14  and  C8_15 
REMARK    7  A    between atoms: C9_18  and  N4_19 
REMARK    8  A    between atoms: N4_19  and  C10_20 
ROOT
HETATM    1  C8  UNL     1       0.696   0.426  -0.483  1.00  0.00     0.158 A 
HETATM    2  N3  UNL     1       1.902   0.918  -0.741  1.00  0.00    -0.309 N 
ATOM      3  H3  UNL     1       1.965   1.705  -1.387  1.00  0.00     0.170 HD
HETATM    4  C9  UNL     1       3.073   0.441  -0.199  1.00  0.00     0.212 A 
HETATM    5  C11 UNL     1       2.938  -0.643   0.685  1.00  0.00     0.145 A 
HETATM    6  N9  UNL     1       4.063  -1.225   1.307  1.00  0.00    -0.094 NA
HETATM    7  C12 UNL     1       1.696  -1.138   0.941  1.00  0.00     0.147 A 
HETATM    8  N10 UNL     1       1.545  -2.235   1.834  1.00  0.00    -0.080 NA
HETATM    9  N11 UNL     1       0.607  -0.610   0.367  1.00  0.00    -0.323 N 
ATOM     10  H11 UNL     1      -0.310  -1.003   0.580  1.00  0.00     0.169 HD
ENDROOT
BRANCH   1  11
HETATM   11  S2  UNL     1      -0.778   1.123  -1.246  1.00  0.00    -0.021 SA
BRANCH  11  12
HETATM   12  S1  UNL     1      -1.226   0.137  -3.063  1.00  0.00    -0.088 SA
BRANCH  12  13
HETATM   13  C7  UNL     1      -2.296  -1.266  -2.880  1.00  0.00     0.108 C 
BRANCH  13  14
HETATM   14  C6  UNL     1      -3.711  -1.031  -2.537  1.00  0.00     0.163 C 
BRANCH  14  15
HETATM   15  N2  UNL     1      -3.948  -0.348  -1.296  1.00  0.00    -0.255 N 
HETATM   16  C5  UNL     1      -4.050  -1.011  -0.116  1.00  0.00     0.279 A 
HETATM   17  C3  UNL     1      -4.328  -0.419   1.088  1.00  0.00     0.113 A 
HETATM   18  O3  UNL     1      -3.876  -2.250  -0.142  1.00  0.00    -0.265 OA
HETATM   19  C2  UNL     1      -4.516   0.964   1.077  1.00  0.00     0.070 A 
HETATM   20  C1  UNL     1      -4.415   1.646  -0.115  1.00  0.00     0.132 A 
HETATM   21  N1  UNL     1      -4.612   3.054  -0.092  1.00  0.00    -0.081 NA
HETATM   22  N12 UNL     1      -4.137   0.972  -1.241  1.00  0.00    -0.283 N 
ATOM     23  H12 UNL     1      -4.066   1.502  -2.110  1.00  0.00     0.188 HD
BRANCH  17  24
HETATM   24  C4  UNL     1      -4.432  -1.146   2.336  1.00  0.00     0.215 C 
HETATM   25  O1  UNL     1      -4.261  -2.381   2.340  1.00  0.00    -0.644 OA
HETATM   26  O2  UNL     1      -4.716  -0.474   3.502  1.00  0.00    -0.644 OA
ENDBRANCH  17  24
ENDBRANCH  14  15
ENDBRANCH  13  14
ENDBRANCH  12  13
ENDBRANCH  11  12
ENDBRANCH   1  11
BRANCH   4  27
HETATM   27  N4  UNL     1       4.152   0.873  -0.417  1.00  0.00    -0.348 NA
BRANCH  27  28
HETATM   28  C10 UNL     1       5.364   1.339  -0.646  1.00  0.00     0.287 C 
HETATM   29  N5  UNL     1       5.741   2.503  -1.201  1.00  0.00    -0.244 N 
HETATM   30  N6  UNL     1       7.124   2.518  -1.218  1.00  0.00    -0.005 NA
ATOM     31  H5  UNL     1       5.123   3.238  -1.545  1.00  0.00     0.188 HD
HETATM   32  N7  UNL     1       7.586   1.205  -1.139  1.00  0.00    -0.005 NA
HETATM   33  N8  UNL     1       6.607   0.645  -0.321  1.00  0.00    -0.244 N 
ATOM     34  H8  UNL     1       6.733  -0.099   0.366  1.00  0.00     0.188 HD
ENDBRANCH  27  28
ENDBRANCH   4  27
TORSDOF 8
