REMARK  10 active torsions:
REMARK  status: ('A' for Active; 'I' for Inactive)
REMARK    1  A    between atoms: N1_2  and  C3_5 
REMARK    2  A    between atoms: C4_8  and  N4_9 
REMARK    3  A    between atoms: N4_9  and  C5_11 
REMARK    4  A    between atoms: C8_18  and  N7_19 
REMARK    5  A    between atoms: N12_32  and  O1_34 
REMARK    6  A    between atoms: O1_34  and  C11_35 
REMARK    7  A    between atoms: C11_35  and  C12_36 
REMARK    8  A    between atoms: C12_36  and  O2_37 
REMARK    9  A    between atoms: C12_36  and  C13_39 
REMARK   10  A    between atoms: C13_39  and  O3_40 
ROOT
HETATM    1  C1  UNL     1      -0.299  -4.345   1.990  1.00  0.00     0.188 C 
HETATM    2  N1  UNL     1       0.073  -4.033   0.647  1.00  0.00    -0.122 N 
HETATM    3  C2  UNL     1       1.082  -4.793   0.039  1.00  0.00     0.198 C 
HETATM    4  N2  UNL     1       1.931  -5.413  -0.457  1.00  0.00    -0.171 NA
ENDROOT
BRANCH   2   5
HETATM    5  C3  UNL     1      -0.538  -2.972  -0.120  1.00  0.00     0.689 C 
HETATM    6  N3  UNL     1       0.155  -2.374  -1.026  1.00  0.00    -0.198 N 
HETATM    7  C4  UNL     1      -0.482  -1.315  -1.780  1.00  0.00     0.266 C 
ATOM      8  H3  UNL     1       1.123  -2.639  -1.207  1.00  0.00     0.180 HD
HETATM    9  C10 UNL     1      -1.321  -0.522  -0.865  1.00  0.00     0.071 C 
HETATM   10  N12 UNL     1      -1.259   0.755  -0.720  1.00  0.00    -0.269 N 
HETATM   11  C14 UNL     1      -2.321  -1.256  -0.051  1.00  0.00     0.199 C 
ATOM     12  H12 UNL     1      -0.577   1.266  -1.281  1.00  0.00     0.194 HD
HETATM   13  N13 UNL     1      -1.889  -2.642   0.171  1.00  0.00    -0.216 N 
HETATM   14  C15 UNL     1      -2.818  -3.619   0.668  1.00  0.00     0.169 C 
BRANCH   7  15
HETATM   15  N4  UNL     1       0.457  -0.538  -2.543  1.00  0.00    -0.199 N 
ATOM     16  H4  UNL     1       0.325  -0.467  -3.552  1.00  0.00     0.180 HD
BRANCH  15  17
HETATM   17  C5  UNL     1       1.567   0.139  -1.950  1.00  0.00     0.682 A 
HETATM   18  N5  UNL     1       2.494   0.888  -2.562  1.00  0.00    -0.174 N 
HETATM   19  C6  UNL     1       3.397   1.369  -1.708  1.00  0.00     0.149 A 
ATOM     20  H5  UNL     1       2.507   1.069  -3.566  1.00  0.00     0.186 HD
HETATM   21  C7  UNL     1       3.021   0.896  -0.470  1.00  0.00     0.140 A 
HETATM   22  N11 UNL     1       4.526   2.207  -2.022  1.00  0.00    -0.357 N 
HETATM   23  N6  UNL     1       1.913   0.154  -0.634  1.00  0.00    -0.184 N 
HETATM   24  C8  UNL     1       3.694   1.148   0.798  1.00  0.00     0.165 C 
ATOM     25  H6  UNL     1       1.409  -0.324   0.113  1.00  0.00     0.184 HD
HETATM   26  N9  UNL     1       4.690   1.945   1.050  1.00  0.00    -0.285 N 
HETATM   27  N10 UNL     1       5.377   2.774   0.158  1.00  0.00    -0.317 N 
ATOM     28  H9  UNL     1       5.010   1.968   2.018  1.00  0.00     0.188 HD
HETATM   29  C9  UNL     1       5.693   2.506  -1.213  1.00  0.00     0.262 C 
ATOM     30  H10 UNL     1       5.689   3.673   0.526  1.00  0.00     0.182 HD
ATOM     31  H11 UNL     1       4.502   2.652  -2.940  1.00  0.00     0.162 HD
BRANCH  24  32
HETATM   32  N7  UNL     1       3.223   0.444   1.927  1.00  0.00    -0.289 N 
HETATM   33  N8  UNL     1       3.972  -0.463   2.412  1.00  0.00    -0.344 N 
ATOM     34  H82 UNL     1       4.878  -0.662   1.988  1.00  0.00     0.176 HD
ATOM     35  H81 UNL     1       3.632  -0.972   3.228  1.00  0.00     0.176 HD
ATOM     36  H7  UNL     1       2.314   0.655   2.340  1.00  0.00     0.188 HD
ENDBRANCH  24  32
ENDBRANCH  15  17
ENDBRANCH   7  15
BRANCH  10  37
HETATM   37  O1  UNL     1      -2.038   1.463   0.126  1.00  0.00    -0.278 OA
BRANCH  37  38
HETATM   38  C11 UNL     1      -3.388   1.780  -0.025  1.00  0.00     0.235 C 
BRANCH  38  39
HETATM   39  C12 UNL     1      -3.914   2.587   1.132  1.00  0.00     0.167 C 
BRANCH  39  40
HETATM   40  O2  UNL     1      -5.270   2.860   0.905  1.00  0.00    -0.391 OA
ATOM     41  H2  UNL     1      -5.602   3.369   1.635  1.00  0.00     0.210 HD
ENDBRANCH  39  40
BRANCH  39  42
HETATM   42  C13 UNL     1      -3.228   3.944   1.210  1.00  0.00     0.198 C 
BRANCH  42  43
HETATM   43  O3  UNL     1      -3.395   4.657   0.023  1.00  0.00    -0.398 OA
ATOM     44  H3  UNL     1      -2.967   5.504   0.072  1.00  0.00     0.209 HD
ENDBRANCH  42  43
ENDBRANCH  39  42
ENDBRANCH  38  39
ENDBRANCH  37  38
ENDBRANCH  10  37
ENDBRANCH   2   5
TORSDOF 10
