REMARK  14 active torsions:
REMARK  status: ('A' for Active; 'I' for Inactive)
REMARK    1  A    between atoms: N1_1  and  C1_4 
REMARK    2  A    between atoms: C2_7  and  C3_8 
REMARK    3  A    between atoms: C4_14  and  N5_15 
REMARK    4  A    between atoms: N6_18  and  C5_19 
REMARK    5  A    between atoms: C6_21  and  O3_22 
REMARK    6  A    between atoms: C6_21  and  C7_24 
REMARK       I    between atoms: C7_24  and  N7_26 
REMARK    7  A    between atoms: N7_26  and  N8_28 
REMARK    8  A    between atoms: C8_30  and  C9_31 
REMARK    9  A    between atoms: C10_34  and  C11_35 
REMARK   10  A    between atoms: C12_39  and  O6_40 
REMARK   11  A    between atoms: C12_39  and  C13_42 
REMARK   12  A    between atoms: C13_42  and  O7_43 
REMARK   13  A    between atoms: C14_45  and  O8_46 
REMARK   14  A    between atoms: C16_49  and  N11_50 
ROOT
HETATM    1  C7  UNL     1       1.971  -0.503   0.122  1.00  0.00     0.329 C 
HETATM    2  O4  UNL     1       1.645   0.388  -0.689  1.00  0.00    -0.263 OA
HETATM    3  N7  UNL     1       1.016  -1.480   0.483  1.00  0.00    -0.263 N 
ATOM      4  H7  UNL     1       1.291  -2.205   1.146  1.00  0.00     0.190 HD
ENDROOT
BRANCH   1   5
HETATM    5  C6  UNL     1       3.308  -0.550   0.695  1.00  0.00     0.376 C 
HETATM    6  O2  UNL     1       3.817   0.699   1.126  1.00  0.00    -0.274 OA
HETATM    7  C5  UNL     1       5.078   0.202   0.729  1.00  0.00     0.406 C 
HETATM    8  O11 UNL     1       4.381  -0.540  -0.228  1.00  0.00    -0.274 OA
BRANCH   7   9
HETATM    9  N6  UNL     1       5.945   1.232   0.186  1.00  0.00    -0.205 N 
HETATM   10  C2  UNL     1       7.166   0.954  -0.318  1.00  0.00     0.175 A 
HETATM   11  N2  UNL     1       7.729   2.105  -0.744  1.00  0.00    -0.172 N 
HETATM   12  C1  UNL     1       6.829   3.068  -0.488  1.00  0.00     0.692 A 
ATOM     13  H2  UNL     1       8.648   2.219  -1.172  1.00  0.00     0.186 HD
HETATM   14  N12 UNL     1       5.750   2.514   0.079  1.00  0.00    -0.124 N 
ATOM     15  H12 UNL     1       4.913   3.015   0.378  1.00  0.00     0.206 HD
BRANCH  10  16
HETATM   16  C3  UNL     1       7.794  -0.353  -0.400  1.00  0.00     0.148 A 
HETATM   17  N3  UNL     1       7.215  -1.512   0.035  1.00  0.00    -0.234 N 
HETATM   18  O1  UNL     1       8.022  -2.501  -0.175  1.00  0.00    -0.155 OA
ATOM     19  H3  UNL     1       6.290  -1.586   0.459  1.00  0.00     0.197 HD
HETATM   20  N4  UNL     1       9.114  -2.102  -0.723  1.00  0.00    -0.224 N 
HETATM   21  C4  UNL     1       9.013  -0.739  -0.885  1.00  0.00     0.154 A 
ATOM     22  H4  UNL     1       9.907  -2.686  -0.988  1.00  0.00     0.198 HD
BRANCH  21  23
HETATM   23  N5  UNL     1       9.897   0.020  -1.395  1.00  0.00    -0.382 N 
ATOM     24  H52 UNL     1       9.822   1.030  -1.515  1.00  0.00     0.157 HD
ATOM     25  H51 UNL     1      10.806  -0.268  -1.757  1.00  0.00     0.157 HD
ENDBRANCH  21  23
ENDBRANCH  10  16
BRANCH  12  26
HETATM   26  N1  UNL     1       6.992   4.332  -0.753  1.00  0.00    -0.233 N 
ATOM     27  H12 UNL     1       7.814   4.754  -1.185  1.00  0.00     0.174 HD
ATOM     28  H11 UNL     1       6.308   5.064  -0.559  1.00  0.00     0.174 HD
ENDBRANCH  12  26
ENDBRANCH   7   9
BRANCH   5  29
HETATM   29  O3  UNL     1       3.541  -1.591   1.594  1.00  0.00    -0.335 OA
ATOM     30  H3  UNL     1       3.199  -2.429   1.305  1.00  0.00     0.216 HD
ENDBRANCH   5  29
ENDBRANCH   1   5
BRANCH   3  31
HETATM   31  N8  UNL     1      -0.284  -1.503  -0.021  1.00  0.00    -0.307 N 
HETATM   32  C8  UNL     1      -1.266  -1.002   0.592  1.00  0.00     0.139 C 
ATOM     33  H8  UNL     1      -0.448  -1.945  -0.926  1.00  0.00     0.186 HD
BRANCH  32  34
HETATM   34  C9  UNL     1      -2.632  -1.015   0.084  1.00  0.00     0.083 A 
HETATM   35  N9  UNL     1      -3.646  -0.409   0.779  1.00  0.00    -0.351 N 
HETATM   36  C10 UNL     1      -4.813  -0.505   0.140  1.00  0.00     0.062 A 
ATOM     37  H9  UNL     1      -3.523   0.059   1.677  1.00  0.00     0.166 HD
HETATM   38  C15 UNL     1      -4.548  -1.198  -1.010  1.00  0.00     0.070 A 
HETATM   39  C16 UNL     1      -3.176  -1.524  -1.053  1.00  0.00     0.133 A 
BRANCH  36  40
HETATM   40  C11 UNL     1      -6.120   0.021   0.572  1.00  0.00     0.093 C 
HETATM   41  N10 UNL     1      -6.364   0.674   1.651  1.00  0.00    -0.262 N 
HETATM   42  O5  UNL     1      -7.707   1.003   1.713  1.00  0.00    -0.235 OA
ATOM     43  H10 UNL     1      -5.670   0.915   2.358  1.00  0.00     0.194 HD
HETATM   44  C12 UNL     1      -8.337   0.792   0.460  1.00  0.00     0.240 C 
HETATM   45  C14 UNL     1      -7.361  -0.146  -0.217  1.00  0.00     0.238 C 
BRANCH  44  46
HETATM   46  O6  UNL     1      -9.556   0.203   0.706  1.00  0.00    -0.360 OA
ATOM     47  H6  UNL     1      -9.978   0.062  -0.133  1.00  0.00     0.213 HD
ENDBRANCH  44  46
BRANCH  44  48
HETATM   48  C13 UNL     1      -8.424   2.043  -0.354  1.00  0.00     0.238 C 
BRANCH  48  49
HETATM   49  O7  UNL     1      -9.141   3.054   0.263  1.00  0.00    -0.395 OA
ATOM     50  H7  UNL     1      -9.196   3.849  -0.254  1.00  0.00     0.209 HD
ENDBRANCH  48  49
ENDBRANCH  44  48
BRANCH  45  51
HETATM   51  O8  UNL     1      -7.819  -1.468  -0.185  1.00  0.00    -0.384 OA
ATOM     52  H8  UNL     1      -8.616  -1.575  -0.691  1.00  0.00     0.210 HD
ENDBRANCH  45  51
ENDBRANCH  36  40
BRANCH  39  53
HETATM   53  N11 UNL     1      -2.562  -2.223  -2.098  1.00  0.00    -0.113 N 
HETATM   54  O9  UNL     1      -3.042  -2.116  -3.283  1.00  0.00    -0.532 OA
HETATM   55  O10 UNL     1      -1.480  -3.032  -2.017  1.00  0.00    -0.532 OA
ENDBRANCH  39  53
ENDBRANCH  32  34
ENDBRANCH   3  31
TORSDOF 14
