REMARK  9 active torsions:
REMARK  status: ('A' for Active; 'I' for Inactive)
REMARK    1  A    between atoms: C2_2  and  C4_4 
REMARK    2  A    between atoms: C4_4  and  N1_5 
REMARK    3  A    between atoms: C4_4  and  C23_34 
REMARK       I    between atoms: N1_5  and  C5_7 
REMARK       I    between atoms: C5_7  and  N2_9 
REMARK    4  A    between atoms: C7_11  and  O2_12 
REMARK    5  A    between atoms: C9_15  and  C10_16 
REMARK       I    between atoms: C10_16  and  N3_18 
REMARK    6  A    between atoms: N3_18  and  C11_20 
REMARK    7  A    between atoms: C11_20  and  C13_22 
REMARK    8  A    between atoms: C11_20  and  C19_30 
REMARK       I    between atoms: C23_34  and  N4_36 
REMARK    9  A    between atoms: N4_36  and  C24_38 
ROOT
HETATM    1  C24 UNL     1       6.351  -2.062  -1.547  1.00  0.00     0.122 A 
HETATM    2  C25 UNL     1       7.707  -2.624  -1.310  1.00  0.00     0.091 C 
HETATM    3  N5  UNL     1       8.768  -3.047  -1.140  1.00  0.00    -0.195 NA
HETATM    4  C26 UNL     1       5.451  -2.970  -2.305  1.00  0.00     0.050 A 
HETATM    5  C27 UNL     1       5.990  -1.757  -2.952  1.00  0.00     0.050 A 
ENDROOT
BRANCH   1   6
HETATM    6  N4  UNL     1       5.828  -1.333  -0.420  1.00  0.00    -0.337 N 
HETATM    7  C23 UNL     1       4.577  -0.700  -0.359  1.00  0.00     0.242 C 
HETATM    8  O4  UNL     1       3.814  -0.763  -1.360  1.00  0.00    -0.271 OA
ATOM      9  H4  UNL     1       6.420  -1.271   0.408  1.00  0.00     0.164 HD
BRANCH   7  10
HETATM   10  C4  UNL     1       4.134   0.036   0.842  1.00  0.00     0.181 C 
BRANCH  10  11
HETATM   11  C2  UNL     1       5.035   1.255   1.108  1.00  0.00     0.009 C 
HETATM   12  C1  UNL     1       5.078   2.200  -0.043  1.00  0.00     0.012 C 
HETATM   13  C3  UNL     1       6.331   0.937   1.751  1.00  0.00     0.012 C 
ENDBRANCH  10  11
BRANCH  10  14
HETATM   14  N1  UNL     1       2.769   0.558   0.612  1.00  0.00    -0.329 N 
HETATM   15  C5  UNL     1       1.722   0.504   1.551  1.00  0.00     0.319 C 
HETATM   16  O1  UNL     1       1.985  -0.034   2.662  1.00  0.00    -0.247 OA
HETATM   17  N2  UNL     1       0.446   1.026   1.275  1.00  0.00    -0.318 N 
HETATM   18  C6  UNL     1       0.033   1.622   0.020  1.00  0.00     0.160 C 
HETATM   19  C9  UNL     1      -0.723   1.146   2.120  1.00  0.00     0.183 C 
HETATM   20  C7  UNL     1      -0.583   2.917   0.498  1.00  0.00     0.138 C 
HETATM   21  C8  UNL     1      -1.237   2.534   1.804  1.00  0.00     0.068 C 
ATOM     22  H1  UNL     1       2.573   0.988  -0.292  1.00  0.00     0.165 HD
BRANCH  20  23
HETATM   23  O2  UNL     1      -1.430   3.509  -0.408  1.00  0.00    -0.394 OA
ATOM     24  H2  UNL     1      -1.817   4.323  -0.108  1.00  0.00     0.210 HD
ENDBRANCH  20  23
BRANCH  19  25
HETATM   25  C10 UNL     1      -1.725   0.069   1.809  1.00  0.00     0.241 C 
HETATM   26  O3  UNL     1      -1.493  -1.012   2.383  1.00  0.00    -0.271 OA
HETATM   27  N3  UNL     1      -2.820   0.222   0.962  1.00  0.00    -0.345 N 
ATOM     28  H3  UNL     1      -2.884   1.159   0.564  1.00  0.00     0.163 HD
BRANCH  27  29
HETATM   29  C11 UNL     1      -3.863  -0.628   0.529  1.00  0.00     0.063 C 
HETATM   30  C12 UNL     1      -4.603  -1.138   1.786  1.00  0.00     0.044 C 
BRANCH  29  31
HETATM   31  C13 UNL     1      -4.898   0.234  -0.157  1.00  0.00    -0.028 A 
HETATM   32  C14 UNL     1      -6.217   0.265   0.181  1.00  0.00     0.011 A 
HETATM   33  C15 UNL     1      -7.079   1.096  -0.481  1.00  0.00     0.026 A 
HETATM   34  C16 UNL     1      -6.661   1.922  -1.497  1.00  0.00     0.055 A 
HETATM   35 CL1  UNL     1      -7.720   3.007  -2.374  1.00  0.00    -0.083 Cl
HETATM   36  C17 UNL     1      -5.324   1.900  -1.847  1.00  0.00     0.056 A 
HETATM   37 CL2  UNL     1      -4.692   2.920  -3.127  1.00  0.00    -0.083 Cl
HETATM   38  C18 UNL     1      -4.479   1.062  -1.173  1.00  0.00     0.035 A 
ENDBRANCH  29  31
BRANCH  29  39
HETATM   39  C19 UNL     1      -3.544  -1.805  -0.292  1.00  0.00    -0.022 C 
HETATM   40  C20 UNL     1      -2.816  -1.482  -1.588  1.00  0.00     0.017 C 
HETATM   41  C21 UNL     1      -4.843  -2.468  -0.796  1.00  0.00     0.017 C 
HETATM   42  C22 UNL     1      -2.806  -2.932   0.373  1.00  0.00     0.017 C 
ENDBRANCH  29  39
ENDBRANCH  27  29
ENDBRANCH  19  25
ENDBRANCH  10  14
ENDBRANCH   7  10
ENDBRANCH   1   6
TORSDOF 9
