REMARK  15 active torsions:
REMARK  status: ('A' for Active; 'I' for Inactive)
REMARK    1  A    between atoms: C3_7  and  N3_8 
REMARK    2  A    between atoms: C6_13  and  N5_14 
REMARK    3  A    between atoms: C7_19  and  N7_20 
REMARK    4  A    between atoms: N9_25  and  C10_27 
REMARK    5  A    between atoms: C10_27  and  C11_28 
REMARK    6  A    between atoms: C11_28  and  O1_29 
REMARK    7  A    between atoms: C11_28  and  C12_31 
REMARK    8  A    between atoms: C12_31  and  O2_32 
REMARK    9  A    between atoms: C12_31  and  C13_34 
REMARK   10  A    between atoms: C13_34  and  O3_35 
REMARK   11  A    between atoms: C13_34  and  C14_37 
REMARK   12  A    between atoms: C14_37  and  O4_38 
REMARK   13  A    between atoms: C14_37  and  O5_40 
REMARK   14  A    between atoms: C16_48  and  O6_49 
REMARK   15  A    between atoms: C17_51  and  O7_52 
ROOT
HETATM    1  N1  UNL     1      -5.839  -0.124   4.551  1.00  0.00    -0.195 NA
HETATM    2  C1  UNL     1      -6.128   0.205   3.460  1.00  0.00     0.095 C 
HETATM    3  C2  UNL     1      -6.511   0.616   2.110  1.00  0.00     0.325 C 
HETATM    4  N2  UNL     1      -5.476   0.313   1.171  1.00  0.00    -0.032 N 
ATOM      5  H21 UNL     1      -4.615   0.019   1.632  1.00  0.00     0.281 HD
ATOM      6  H22 UNL     1      -5.119   1.151   0.711  1.00  0.00     0.281 HD
HETATM    7  C3  UNL     1      -5.939  -0.657   0.232  1.00  0.00     0.326 C 
HETATM    8  C16 UNL     1      -7.442  -0.431   0.229  1.00  0.00     0.200 C 
HETATM    9  C17 UNL     1      -7.713  -0.247   1.714  1.00  0.00     0.195 C 
ENDROOT
BRANCH   9  10
HETATM   10  O7  UNL     1      -8.913   0.469   1.876  1.00  0.00    -0.390 OA
ATOM     11  H7  UNL     1      -9.658  -0.066   1.630  1.00  0.00     0.210 HD
ENDBRANCH   9  10
BRANCH   7  12
HETATM   12  N3  UNL     1      -5.404  -0.474  -1.087  1.00  0.00    -0.295 N 
HETATM   13  C4  UNL     1      -6.120  -0.446  -2.226  1.00  0.00     0.187 A 
HETATM   14  N4  UNL     1      -5.282  -0.253  -3.247  1.00  0.00    -0.346 N 
HETATM   15  C5  UNL     1      -4.022  -0.154  -2.794  1.00  0.00     0.123 A 
ATOM     16  H4  UNL     1      -5.558  -0.190  -4.227  1.00  0.00     0.167 HD
HETATM   17  C6  UNL     1      -2.790   0.044  -3.378  1.00  0.00     0.145 A 
HETATM   18  C15 UNL     1      -4.122  -0.298  -1.413  1.00  0.00     0.157 A 
HETATM   19  N6  UNL     1      -1.722   0.089  -2.569  1.00  0.00    -0.172 N 
HETATM   20  C7  UNL     1      -1.811  -0.051  -1.212  1.00  0.00     0.720 A 
ATOM     21  H6  UNL     1      -0.802   0.234  -2.984  1.00  0.00     0.186 HD
HETATM   22  N12 UNL     1      -3.007  -0.242  -0.663  1.00  0.00    -0.171 N 
ATOM     23  H12 UNL     1      -3.080  -0.348   0.349  1.00  0.00     0.186 HD
BRANCH  17  24
HETATM   24  N5  UNL     1      -2.685   0.179  -4.666  1.00  0.00    -0.383 N 
ATOM     25  H52 UNL     1      -3.498   0.145  -5.282  1.00  0.00     0.157 HD
ATOM     26  H51 UNL     1      -1.773   0.326  -5.098  1.00  0.00     0.157 HD
ENDBRANCH  17  24
BRANCH  20  27
HETATM   27  N7  UNL     1      -0.602   0.029  -0.478  1.00  0.00    -0.005 N 
HETATM   28  N8  UNL     1      -0.204   1.231   0.111  1.00  0.00    -0.274 N 
HETATM   29  C8  UNL     1       0.996   1.466   0.492  1.00  0.00     0.158 C 
ATOM     30  H8  UNL     1      -0.905   1.960   0.245  1.00  0.00     0.188 HD
HETATM   31  C9  UNL     1       1.994   0.405   0.291  1.00  0.00     0.131 C 
HETATM   32  N9  UNL     1       3.212   0.593   0.655  1.00  0.00    -0.372 N 
HETATM   33  N10 UNL     1       1.544  -0.796  -0.309  1.00  0.00    -0.266 N 
ATOM     34  H9  UNL     1       3.438   1.493   1.079  1.00  0.00     0.161 HD
HETATM   35  N11 UNL     1       0.179  -1.139  -0.378  1.00  0.00     0.018 NA
ATOM     36  H10 UNL     1       2.232  -1.436  -0.705  1.00  0.00     0.186 HD
BRANCH  32  37
HETATM   37  C10 UNL     1       4.282  -0.353   0.517  1.00  0.00     0.155 C 
BRANCH  37  38
HETATM   38  C11 UNL     1       5.638   0.348   0.469  1.00  0.00     0.167 C 
BRANCH  38  39
HETATM   39  O1  UNL     1       5.673   1.225  -0.608  1.00  0.00    -0.391 OA
ATOM     40  H1  UNL     1       6.516   1.661  -0.638  1.00  0.00     0.210 HD
ENDBRANCH  38  39
BRANCH  38  41
HETATM   41  C12 UNL     1       6.753  -0.671   0.403  1.00  0.00     0.182 C 
BRANCH  41  42
HETATM   42  O2  UNL     1       6.617  -1.415  -0.788  1.00  0.00    -0.390 OA
ATOM     43  H2  UNL     1       7.318  -2.055  -0.829  1.00  0.00     0.210 HD
ENDBRANCH  41  42
BRANCH  41  44
HETATM   44  C13 UNL     1       8.105  -0.041   0.362  1.00  0.00     0.204 C 
BRANCH  44  45
HETATM   45  O3  UNL     1       8.274   0.811  -0.727  1.00  0.00    -0.388 OA
ATOM     46  H3  UNL     1       9.135   1.212  -0.753  1.00  0.00     0.210 HD
ENDBRANCH  44  45
BRANCH  44  47
HETATM   47  C14 UNL     1       8.542   0.578   1.661  1.00  0.00     0.285 C 
BRANCH  47  48
HETATM   48  O4  UNL     1       8.331  -0.355   2.676  1.00  0.00    -0.369 OA
ATOM     49  H4  UNL     1       8.607   0.036   3.497  1.00  0.00     0.212 HD
ENDBRANCH  47  48
BRANCH  47  50
HETATM   50  O5  UNL     1       9.942   0.741   1.583  1.00  0.00    -0.369 OA
ATOM     51  H5  UNL     1      10.218   1.132   2.404  1.00  0.00     0.212 HD
ENDBRANCH  47  50
ENDBRANCH  44  47
ENDBRANCH  41  44
ENDBRANCH  38  41
ENDBRANCH  37  38
ENDBRANCH  32  37
ENDBRANCH  20  27
ENDBRANCH   7  12
BRANCH   8  52
HETATM   52  O6  UNL     1      -7.770   0.794  -0.377  1.00  0.00    -0.389 OA
ATOM     53  H6  UNL     1      -8.709   0.935  -0.379  1.00  0.00     0.210 HD
ENDBRANCH   8  52
TORSDOF 15
