REMARK  15 active torsions:
REMARK  status: ('A' for Active; 'I' for Inactive)
REMARK    1  A    between atoms: C1_4  and  N2_5 
REMARK    2  A    between atoms: C1_4  and  O8_49 
REMARK    3  A    between atoms: N2_5  and  C2_7 
REMARK    4  A    between atoms: C4_12  and  N4_13 
REMARK    5  A    between atoms: C5_17  and  N5_18 
REMARK    6  A    between atoms: C7_21  and  N6_22 
REMARK    7  A    between atoms: C9_28  and  C10_29 
REMARK    8  A    between atoms: C12_34  and  O4_35 
REMARK    9  A    between atoms: C12_34  and  C13_37 
REMARK   10  A    between atoms: C13_37  and  O5_38 
REMARK   11  A    between atoms: C14_40  and  O6_41 
REMARK   12  A    between atoms: O6_41  and  C15_42 
REMARK   13  A    between atoms: O8_49  and  C17_50 
REMARK   14  A    between atoms: C17_50  and  C18_51 
REMARK   15  A    between atoms: C18_51  and  N10_52 
ROOT
HETATM    1  C2  UNL     1       3.692   0.007   0.056  1.00  0.00     0.489 C 
HETATM    2  N3  UNL     1       2.999   0.160  -1.206  1.00  0.00    -0.020 N 
ATOM      3  H31 UNL     1       3.119  -0.640  -1.828  1.00  0.00     0.282 HD
ATOM      4  H32 UNL     1       3.423   0.862  -1.813  1.00  0.00     0.282 HD
HETATM    5  C3  UNL     1       1.611   0.438  -0.899  1.00  0.00     0.255 C 
HETATM    6  C4  UNL     1       0.746  -0.819  -0.736  1.00  0.00     0.240 C 
HETATM    7  C5  UNL     1       0.217  -0.224   0.562  1.00  0.00     0.147 C 
HETATM    8  C16 UNL     1       1.519   0.591   0.605  1.00  0.00     0.247 C 
HETATM    9  N9  UNL     1       2.657  -0.181   1.044  1.00  0.00    -0.020 N 
ATOM     10  H91 UNL     1       2.958   0.049   1.991  1.00  0.00     0.282 HD
ATOM     11  H92 UNL     1       2.436  -1.162   1.214  1.00  0.00     0.282 HD
ENDROOT
BRANCH   7  12
HETATM   12  N5  UNL     1      -0.949   0.558   0.441  1.00  0.00    -0.383 N 
HETATM   13  C6  UNL     1      -2.132   0.294   0.746  1.00  0.00     0.054 C 
HETATM   14  C7  UNL     1      -2.519  -1.022   1.341  1.00  0.00     0.301 C 
HETATM   15  C14 UNL     1      -3.100   1.398   0.468  1.00  0.00     0.225 C 
HETATM   16  C8  UNL     1      -3.980  -1.277   1.126  1.00  0.00     0.182 C 
HETATM   17  O1  UNL     1      -4.659  -1.362   2.123  1.00  0.00    -0.294 OA
HETATM   18  C9  UNL     1      -4.587  -1.423  -0.225  1.00  0.00     0.219 C 
HETATM   19  C11 UNL     1      -4.147  -0.267  -1.040  1.00  0.00     0.186 C 
HETATM   20  O3  UNL     1      -3.875  -0.542  -2.206  1.00  0.00    -0.293 OA
HETATM   21  C12 UNL     1      -3.972   1.165  -0.719  1.00  0.00     0.172 C 
ATOM     22  H5  UNL     1      -0.805   1.485   0.042  1.00  0.00     0.159 HD
BRANCH  14  23
HETATM   23  N6  UNL     1      -1.863  -2.135   0.635  1.00  0.00    -0.063 N 
ATOM     24  H63 UNL     1      -2.049  -2.106  -0.367  1.00  0.00     0.275 HD
ATOM     25  H62 UNL     1      -0.850  -2.018   0.608  1.00  0.00     0.275 HD
ATOM     26  H61 UNL     1      -2.127  -3.033   1.041  1.00  0.00     0.275 HD
ENDBRANCH  14  23
BRANCH  18  27
HETATM   27  C10 UNL     1      -6.060  -1.525  -0.184  1.00  0.00     0.249 C 
HETATM   28  N7  UNL     1      -6.721  -2.557   0.552  1.00  0.00    -0.061 NA
HETATM   29  O2  UNL     1      -6.780  -0.719  -0.789  1.00  0.00    -0.276 OA
ENDBRANCH  18  27
BRANCH  21  30
HETATM   30  O4  UNL     1      -5.260   1.683  -0.441  1.00  0.00    -0.377 OA
ATOM     31  H4  UNL     1      -5.148   2.603  -0.235  1.00  0.00     0.211 HD
ENDBRANCH  21  30
BRANCH  21  32
HETATM   32  C13 UNL     1      -3.500   1.950  -1.935  1.00  0.00     0.213 C 
BRANCH  32  33
HETATM   33  O5  UNL     1      -3.440   3.301  -1.685  1.00  0.00    -0.397 OA
ATOM     34  H5  UNL     1      -3.145   3.791  -2.444  1.00  0.00     0.209 HD
ENDBRANCH  32  33
ENDBRANCH  21  32
BRANCH  15  35
HETATM   35  O6  UNL     1      -3.938   1.549   1.612  1.00  0.00    -0.291 OA
BRANCH  35  36
HETATM   36  C15 UNL     1      -3.993   2.730   2.336  1.00  0.00     0.373 C 
HETATM   37  N8  UNL     1      -4.833   2.842   3.462  1.00  0.00    -0.032 NA
HETATM   38  O7  UNL     1      -3.253   3.680   1.929  1.00  0.00    -0.242 OA
ENDBRANCH  35  36
ENDBRANCH  15  35
ENDBRANCH   7  12
BRANCH   6  39
HETATM   39  N4  UNL     1       1.633  -1.952  -0.544  1.00  0.00    -0.071 N 
ATOM     40  H43 UNL     1       2.324  -2.043  -1.289  1.00  0.00     0.274 HD
ATOM     41  H42 UNL     1       2.283  -1.817   0.230  1.00  0.00     0.274 HD
ATOM     42  H41 UNL     1       1.058  -2.788  -0.436  1.00  0.00     0.274 HD
ENDBRANCH   6  39
BRANCH   1  43
HETATM   43  N2  UNL     1       4.609  -1.128   0.046  1.00  0.00    -0.307 N 
ATOM     44  H2  UNL     1       4.479  -1.886   0.716  1.00  0.00     0.166 HD
BRANCH  43  45
HETATM   45  C1  UNL     1       5.681  -1.190  -0.886  1.00  0.00     0.215 C 
HETATM   46  N1  UNL     1       6.281  -2.324  -1.084  1.00  0.00    -0.365 N 
ATOM     47  H12 UNL     1       5.952  -3.132  -0.555  1.00  0.00     0.159 HD
ATOM     48  H11 UNL     1       7.050  -2.368  -1.753  1.00  0.00     0.159 HD
BRANCH  45  49
HETATM   49  O8  UNL     1       6.128  -0.091  -1.605  1.00  0.00    -0.321 OA
BRANCH  49  50
HETATM   50  C17 UNL     1       7.499   0.033  -1.931  1.00  0.00     0.206 C 
BRANCH  50  51
HETATM   51  C18 UNL     1       8.321   0.072  -0.647  1.00  0.00     0.256 C 
BRANCH  51  52
HETATM   52  N10 UNL     1       7.877   1.225   0.131  1.00  0.00    -0.077 N 
ATOM     53 3H10 UNL     1       7.921   2.098  -0.394  1.00  0.00     0.274 HD
ATOM     54 2H10 UNL     1       6.872   1.223   0.304  1.00  0.00     0.274 HD
ATOM     55 1H10 UNL     1       8.427   1.251   0.990  1.00  0.00     0.274 HD
ENDBRANCH  51  52
ENDBRANCH  50  51
ENDBRANCH  49  50
ENDBRANCH  45  49
ENDBRANCH  43  45
ENDBRANCH   1  43
TORSDOF 15
