REMARK  18 active torsions:
REMARK  status: ('A' for Active; 'I' for Inactive)
REMARK    1  A    between atoms: N1_1  and  C1_5 
REMARK    2  A    between atoms: C1_5  and  O1_6 
REMARK    3  A    between atoms: C1_5  and  C2_8 
REMARK    4  A    between atoms: C2_8  and  O2_9 
REMARK    5  A    between atoms: C2_8  and  C3_11 
REMARK    6  A    between atoms: C3_11  and  O3_12 
REMARK    7  A    between atoms: C5_17  and  N2_18 
REMARK    8  A    between atoms: N2_18  and  C6_20 
REMARK    9  A    between atoms: C8_26  and  N5_27 
REMARK   10  A    between atoms: C11_30  and  O6_31 
REMARK   11  A    between atoms: C12_33  and  O7_34 
REMARK   12  A    between atoms: C13_36  and  O8_37 
REMARK   13  A    between atoms: C14_41  and  C15_42 
REMARK   14  A    between atoms: C15_42  and  O9_43 
REMARK   15  A    between atoms: C15_42  and  C16_45 
REMARK   16  A    between atoms: C16_45  and  O10_46 
REMARK   17  A    between atoms: C16_45  and  C17_48 
REMARK   18  A    between atoms: C17_48  and  O11_49 
ROOT
HETATM    1  C3  UNL     1      -3.216  -0.049  -1.597  1.00  0.00     0.319 C 
HETATM    2  O4  UNL     1      -1.897   0.443  -1.841  1.00  0.00    -0.254 OA
HETATM    3  C4  UNL     1      -0.959   0.393  -0.774  1.00  0.00     0.289 C 
HETATM    4  O5  UNL     1      -0.171   1.360  -0.698  1.00  0.00    -0.263 OA
HETATM    5  C5  UNL     1      -0.987  -0.778   0.145  1.00  0.00     0.231 C 
HETATM    6  C14 UNL     1      -2.452  -1.174   0.271  1.00  0.00     0.192 C 
HETATM    7  O12 UNL     1      -3.318  -0.206  -0.224  1.00  0.00    -0.320 OA
ENDROOT
BRANCH   5   8
HETATM    8  N2  UNL     1      -0.372  -0.579   1.401  1.00  0.00    -0.209 N 
ATOM      9  H2  UNL     1      -0.999  -0.624   2.204  1.00  0.00     0.178 HD
BRANCH   8  10
HETATM   10  C6  UNL     1       0.861  -0.350   1.680  1.00  0.00     0.694 A 
HETATM   11  N3  UNL     1       1.198  -0.197   2.991  1.00  0.00    -0.187 N 
HETATM   12  C7  UNL     1       2.451   0.049   3.377  1.00  0.00     0.215 A 
ATOM     13  H3  UNL     1       0.469  -0.273   3.700  1.00  0.00     0.185 HD
HETATM   14  N4  UNL     1       3.409   0.149   2.441  1.00  0.00    -0.187 N 
HETATM   15  C8  UNL     1       3.088  -0.002   1.123  1.00  0.00     0.697 A 
ATOM     16  H4  UNL     1       4.374   0.337   2.714  1.00  0.00     0.185 HD
HETATM   17  N6  UNL     1       1.842  -0.245   0.775  1.00  0.00    -0.022 N 
ATOM     18  H6  UNL     1       1.617  -0.357  -0.214  1.00  0.00     0.203 HD
BRANCH  15  19
HETATM   19  N5  UNL     1       4.186   0.135   0.218  1.00  0.00    -0.188 N 
HETATM   20  C9  UNL     1       4.827  -1.051  -0.275  1.00  0.00     0.147 C 
HETATM   21  C10 UNL     1       5.702  -0.695  -1.427  1.00  0.00     0.055 C 
HETATM   22  C11 UNL     1       6.656   0.423  -1.208  1.00  0.00     0.152 C 
HETATM   23  C12 UNL     1       6.108   1.542  -0.371  1.00  0.00     0.196 C 
HETATM   24  C13 UNL     1       4.620   1.438  -0.155  1.00  0.00     0.268 C 
BRANCH  22  25
HETATM   25  O6  UNL     1       7.787  -0.087  -0.547  1.00  0.00    -0.393 OA
ATOM     26  H6  UNL     1       8.397   0.628  -0.407  1.00  0.00     0.210 HD
ENDBRANCH  22  25
BRANCH  23  27
HETATM   27  O7  UNL     1       6.367   2.741  -1.023  1.00  0.00    -0.389 OA
ATOM     28  H7  UNL     1       6.020   3.449  -0.493  1.00  0.00     0.210 HD
ENDBRANCH  23  27
BRANCH  24  29
HETATM   29  O8  UNL     1       3.888   1.952  -1.203  1.00  0.00    -0.373 OA
ATOM     30  H8  UNL     1       4.178   2.822  -1.452  1.00  0.00     0.212 HD
ENDBRANCH  24  29
ENDBRANCH  15  19
ENDBRANCH   8  10
ENDBRANCH   5   8
BRANCH   6  31
HETATM   31  C15 UNL     1      -2.788  -1.444   1.724  1.00  0.00     0.180 C 
BRANCH  31  32
HETATM   32  O9  UNL     1      -1.862  -2.438   2.128  1.00  0.00    -0.390 OA
ATOM     33  H9  UNL     1      -2.073  -2.607   3.039  1.00  0.00     0.210 HD
ENDBRANCH  31  32
BRANCH  31  34
HETATM   34  C16 UNL     1      -4.144  -2.038   1.875  1.00  0.00     0.173 C 
BRANCH  34  35
HETATM   35  O10 UNL     1      -4.364  -3.178   1.091  1.00  0.00    -0.391 OA
ATOM     36  H10 UNL     1      -5.230  -3.557   1.187  1.00  0.00     0.210 HD
ENDBRANCH  34  35
BRANCH  34  37
HETATM   37  C17 UNL     1      -5.280  -1.061   1.818  1.00  0.00     0.198 C 
BRANCH  37  38
HETATM   38  O11 UNL     1      -6.470  -1.642   2.290  1.00  0.00    -0.398 OA
ATOM     39  H11 UNL     1      -7.190  -1.023   2.254  1.00  0.00     0.209 HD
ENDBRANCH  37  38
ENDBRANCH  34  37
ENDBRANCH  31  34
ENDBRANCH   6  31
BRANCH   1  40
HETATM   40  C2  UNL     1      -4.223   0.973  -2.049  1.00  0.00     0.267 C 
BRANCH  40  41
HETATM   41  C1  UNL     1      -3.958   2.337  -1.441  1.00  0.00     0.353 C 
BRANCH  41  42
HETATM   42  N1  UNL     1      -4.115   2.288  -0.008  1.00  0.00    -0.050 N 
ATOM     43  H13 UNL     1      -4.047   3.208   0.427  1.00  0.00     0.277 HD
ATOM     44  H12 UNL     1      -5.070   2.072   0.276  1.00  0.00     0.277 HD
ATOM     45  H11 UNL     1      -3.434   1.626   0.363  1.00  0.00     0.277 HD
ENDBRANCH  41  42
BRANCH  41  46
HETATM   46  O1  UNL     1      -4.903   3.256  -1.956  1.00  0.00    -0.368 OA
ATOM     47  H1  UNL     1      -4.800   3.288  -2.900  1.00  0.00     0.212 HD
ENDBRANCH  41  46
ENDBRANCH  40  41
BRANCH  40  48
HETATM   48  O2  UNL     1      -5.488   0.507  -1.798  1.00  0.00    -0.383 OA
ATOM     49  H2  UNL     1      -5.654  -0.347  -2.179  1.00  0.00     0.210 HD
ENDBRANCH  40  48
ENDBRANCH   1  40
BRANCH   1  50
HETATM   50  O3  UNL     1      -3.416  -1.228  -2.290  1.00  0.00    -0.341 OA
ATOM     51  H3  UNL     1      -2.780  -1.873  -2.005  1.00  0.00     0.215 HD
ENDBRANCH   1  50
TORSDOF 18
