REMARK  4 active torsions:
REMARK  status: ('A' for Active; 'I' for Inactive)
REMARK       I    between atoms: N1_3  and  C3_5 
REMARK       I    between atoms: C3_5  and  N3_9 
REMARK    1  A    between atoms: N3_9  and  C6_12 
REMARK    2  A    between atoms: C6_12  and  C7_13 
REMARK    3  A    between atoms: C7_13  and  N4_14 
REMARK       I    between atoms: N4_14  and  C8_16 
REMARK    4  A    between atoms: C8_16  and  C9_18 
ROOT
HETATM    1  N4  UNL     1      -0.368  -0.313  -1.280  1.00  0.00    -0.359 N 
ATOM      2  H4  UNL     1      -0.225   0.654  -0.990  1.00  0.00     0.162 HD
HETATM    3  C8  UNL     1      -1.677  -0.807  -1.408  1.00  0.00     0.224 C 
HETATM    4  O1  UNL     1      -1.813  -2.012  -1.771  1.00  0.00    -0.273 OA
ENDROOT
BRANCH   1   5
HETATM    5  C7  UNL     1       0.763  -1.137  -1.547  1.00  0.00     0.151 C 
BRANCH   5   6
HETATM    6  C6  UNL     1       2.095  -0.510  -1.380  1.00  0.00     0.266 C 
BRANCH   6   7
HETATM    7  N3  UNL     1       2.437  -0.014  -0.105  1.00  0.00    -0.013 N 
HETATM    8  C3  UNL     1       3.871  -0.065  -0.006  1.00  0.00     0.276 C 
HETATM    9  N1  UNL     1       4.572  -1.131   0.620  1.00  0.00    -0.336 N 
HETATM   10  N2  UNL     1       4.579   0.887  -0.498  1.00  0.00    -0.365 N 
HETATM   11  C2  UNL     1       5.656  -1.004   1.275  1.00  0.00     0.059 C 
ATOM     12  H1  UNL     1       4.177  -2.068   0.538  1.00  0.00     0.167 HD
HETATM   13  C1  UNL     1       6.371   0.260   1.500  1.00  0.00     0.055 C 
ATOM     14  H22 UNL     1       5.596   0.851  -0.428  1.00  0.00     0.159 HD
ATOM     15  H21 UNL     1       4.076   1.652  -0.947  1.00  0.00     0.159 HD
HETATM   16  C4  UNL     1       1.983  -0.966   0.917  1.00  0.00     0.283 C 
HETATM   17  C5  UNL     1       2.052   1.321   0.184  1.00  0.00     0.283 C 
ENDBRANCH   6   7
ENDBRANCH   5   6
ENDBRANCH   1   5
BRANCH   3  18
HETATM   18  C9  UNL     1      -2.879   0.016  -1.135  1.00  0.00     0.105 C 
HETATM   19  C10 UNL     1      -4.123  -0.711  -1.715  1.00  0.00     0.137 C 
HETATM   20  N5  UNL     1      -5.125   0.336  -1.839  1.00  0.00    -0.359 N 
HETATM   21  C11 UNL     1      -5.125   1.339  -0.825  1.00  0.00     0.232 C 
ATOM     22  H5  UNL     1      -5.792   0.352  -2.610  1.00  0.00     0.162 HD
HETATM   23  O2  UNL     1      -5.814   2.369  -1.003  1.00  0.00    -0.272 OA
HETATM   24  C12 UNL     1      -4.351   1.219   0.421  1.00  0.00     0.158 C 
HETATM   25 BR1  UNL     1      -3.706   2.994   0.900  1.00  0.00    -0.080 Br
HETATM   26  C13 UNL     1      -3.164   0.269   0.304  1.00  0.00    -0.012 C 
HETATM   27  C14 UNL     1      -3.598  -1.018   1.026  1.00  0.00     0.017 C 
HETATM   28  C15 UNL     1      -1.985   0.839   1.048  1.00  0.00     0.017 C 
ENDBRANCH   3  18
TORSDOF 4
