REMARK  8 active torsions:
REMARK  status: ('A' for Active; 'I' for Inactive)
REMARK    1  A    between atoms: O1_1  and  C1_3 
REMARK    2  A    between atoms: C1_3  and  C2_4 
REMARK    3  A    between atoms: C2_4  and  N1_5 
REMARK    4  A    between atoms: N1_5  and  C3_8 
REMARK    5  A    between atoms: C3_8  and  C4_9 
REMARK    6  A    between atoms: C6_11  and  O2_12 
REMARK    7  A    between atoms: O2_12  and  C7_13 
REMARK    8  A    between atoms: C7_13  and  C8_14 
ROOT
HETATM    1  C4  UNL     1      -0.378   0.224  -0.507  1.00  0.00     0.040 A 
HETATM    2  C5  UNL     1      -1.402   0.759   0.239  1.00  0.00     0.065 A 
HETATM    3  C6  UNL     1      -2.481  -0.098   0.267  1.00  0.00     0.093 A 
HETATM    4  C11 UNL     1      -2.055  -1.205  -0.514  1.00  0.00     0.045 A 
HETATM    5  N2  UNL     1      -0.826  -0.959  -0.935  1.00  0.00    -0.350 N 
HETATM    6  C12 UNL     1      -0.211  -2.001  -1.767  1.00  0.00     0.129 C 
HETATM    7  C13 UNL     1      -0.359  -3.307  -1.031  1.00  0.00     0.021 C 
HETATM    8  C14 UNL     1      -1.756  -3.597  -0.588  1.00  0.00     0.008 C 
HETATM    9  C15 UNL     1      -2.719  -2.467  -0.887  1.00  0.00     0.060 C 
ENDROOT
BRANCH   1  10
HETATM   10  C3  UNL     1       0.925   0.843  -0.763  1.00  0.00     0.289 C 
BRANCH  10  11
HETATM   11  N1  UNL     1       1.934   0.520   0.208  1.00  0.00    -0.067 N 
ATOM     12  H12 UNL     1       2.064  -0.484   0.329  1.00  0.00     0.277 HD
ATOM     13  H11 UNL     1       1.650   0.733   1.164  1.00  0.00     0.277 HD
BRANCH  11  14
HETATM   14  C2  UNL     1       3.150   1.205  -0.188  1.00  0.00     0.270 C 
BRANCH  14  15
HETATM   15  C1  UNL     1       4.284   0.930   0.777  1.00  0.00     0.082 A 
HETATM   16  C16 UNL     1       4.687  -0.545   0.668  1.00  0.00     0.039 A 
HETATM   17  C17 UNL     1       6.064  -0.156   0.142  1.00  0.00     0.006 A 
HETATM   18  C18 UNL     1       5.645   1.275   0.217  1.00  0.00     0.039 A 
BRANCH  15  19
HETATM   19  O1  UNL     1       4.056   1.318   2.074  1.00  0.00    -0.388 OA
ATOM     20  H1  UNL     1       4.767   1.145   2.679  1.00  0.00     0.210 HD
ENDBRANCH  15  19
ENDBRANCH  14  15
ENDBRANCH  11  14
ENDBRANCH  10  11
ENDBRANCH   1  10
BRANCH   3  21
HETATM   21  O2  UNL     1      -3.683  -0.062   0.831  1.00  0.00    -0.349 OA
BRANCH  21  22
HETATM   22  C7  UNL     1      -4.499   0.652   1.565  1.00  0.00     0.180 C 
BRANCH  22  23
HETATM   23  C8  UNL     1      -4.990   1.955   1.003  1.00  0.00     0.010 A 
HETATM   24  C9  UNL     1      -4.207   3.118   0.627  1.00  0.00     0.007 A 
HETATM   25  C10 UNL     1      -4.787   2.238  -0.451  1.00  0.00     0.007 A 
ENDBRANCH  22  23
ENDBRANCH  21  22
ENDBRANCH   3  21
TORSDOF 8
