REMARK  6 active torsions:
REMARK  status: ('A' for Active; 'I' for Inactive)
REMARK    1  A    between atoms: C6_9  and  C7_10 
REMARK    2  A    between atoms: C7_10  and  N2_11 
REMARK    3  A    between atoms: N2_11  and  C8_14 
REMARK    4  A    between atoms: C8_14  and  C9_15 
REMARK    5  A    between atoms: C9_15  and  C10_16 
REMARK    6  A    between atoms: C10_16  and  C11_17 
ROOT
HETATM    1  C1  UNL     1       8.514   0.645   0.308  1.00  0.00     0.089 C 
HETATM    2  C2  UNL     1       7.034   0.775   0.075  1.00  0.00     0.081 A 
HETATM    3  N1  UNL     1       6.507   1.898  -0.432  1.00  0.00    -0.312 N 
ATOM      4  H1  UNL     1       7.126   2.675  -0.662  1.00  0.00     0.170 HD
HETATM    5  C3  UNL     1       5.182   2.032  -0.647  1.00  0.00     0.260 A 
HETATM    6  O1  UNL     1       4.674   3.086  -1.124  1.00  0.00    -0.267 OA
HETATM    7  C4  UNL     1       4.340   1.001  -0.345  1.00  0.00     0.077 A 
HETATM    8  C5  UNL     1       2.955   1.067  -0.541  1.00  0.00     0.031 A 
HETATM    9  C6  UNL     1       2.136   0.016  -0.229  1.00  0.00    -0.016 A 
HETATM   10  C16 UNL     1       2.715  -1.122   0.290  1.00  0.00     0.098 A 
HETATM   11  N3  UNL     1       4.049  -1.195   0.483  1.00  0.00    -0.351 N 
ATOM     12  H3  UNL     1       4.447  -2.051   0.869  1.00  0.00     0.166 HD
HETATM   13  C17 UNL     1       4.873  -0.167   0.180  1.00  0.00     0.122 A 
HETATM   14  N4  UNL     1       6.202  -0.241   0.372  1.00  0.00    -0.332 N 
ATOM     15  H4  UNL     1       6.595  -1.100   0.757  1.00  0.00     0.168 HD
ENDROOT
BRANCH   9  16
HETATM   16  C7  UNL     1       0.683   0.161  -0.464  1.00  0.00     0.272 C 
BRANCH  16  17
HETATM   17  N2  UNL     1      -0.053  -1.029  -0.087  1.00  0.00    -0.071 N 
ATOM     18  H22 UNL     1       0.284  -1.881  -0.535  1.00  0.00     0.277 HD
ATOM     19  H21 UNL     1       0.111  -1.328   0.874  1.00  0.00     0.277 HD
BRANCH  17  20
HETATM   20  C8  UNL     1      -1.474  -0.716  -0.384  1.00  0.00     0.232 C 
BRANCH  20  21
HETATM   21  C9  UNL     1      -2.339  -1.869  -0.037  1.00  0.00     0.028 C 
BRANCH  21  22
HETATM   22  C10 UNL     1      -3.773  -1.744  -0.346  1.00  0.00     0.006 C 
BRANCH  22  23
HETATM   23  C11 UNL     1      -4.495  -0.658   0.335  1.00  0.00    -0.014 C 
HETATM   24  C12 UNL     1      -4.096   0.746   0.093  1.00  0.00     0.004 C 
HETATM   25  C13 UNL     1      -5.390   1.586  -0.002  1.00  0.00     0.000 C 
HETATM   26  C14 UNL     1      -6.437   0.632   0.595  1.00  0.00     0.000 C 
HETATM   27  C15 UNL     1      -5.992  -0.655  -0.064  1.00  0.00     0.004 C 
ENDBRANCH  22  23
ENDBRANCH  21  22
ENDBRANCH  20  21
ENDBRANCH  17  20
ENDBRANCH  16  17
ENDBRANCH   9  16
TORSDOF 6
