REMARK  8 active torsions:
REMARK  status: ('A' for Active; 'I' for Inactive)
REMARK    1  A    between atoms: C2_2  and  C3_3 
REMARK    2  A    between atoms: C3_3  and  C4_4 
REMARK    3  A    between atoms: C4_4  and  C5_5 
REMARK    4  A    between atoms: C10_12  and  C11_13 
REMARK    5  A    between atoms: C11_13  and  N2_14 
REMARK    6  A    between atoms: C14_17  and  C15_18 
REMARK    7  A    between atoms: C15_18  and  O1_19 
REMARK    8  A    between atoms: C18_23  and  O2_24 
ROOT
HETATM    1  C5  UNL     1      -2.531  -0.266  -0.042  1.00  0.00    -0.015 A 
HETATM    2  C6  UNL     1      -2.549  -1.620   0.190  1.00  0.00    -0.031 A 
HETATM    3  C7  UNL     1      -3.805  -2.297   0.575  1.00  0.00     0.051 C 
HETATM    4  C8  UNL     1      -1.365  -2.323   0.074  1.00  0.00     0.012 A 
HETATM    5  C9  UNL     1      -1.478  -3.814   0.149  1.00  0.00     0.068 C 
HETATM    6  N1  UNL     1      -0.166  -1.768  -0.245  1.00  0.00    -0.356 N 
ATOM      7  H1  UNL     1       0.678  -2.338  -0.305  1.00  0.00     0.166 HD
HETATM    8  C10 UNL     1      -0.129  -0.498  -0.470  1.00  0.00     0.082 A 
HETATM    9  C18 UNL     1      -1.308   0.275  -0.378  1.00  0.00     0.100 A 
ENDROOT
BRANCH   8  10
HETATM   10  C11 UNL     1       1.058   0.327  -0.868  1.00  0.00     0.122 C 
BRANCH  10  11
HETATM   11  N2  UNL     1       1.994   0.522   0.147  1.00  0.00    -0.368 N 
HETATM   12  C12 UNL     1       2.683   1.784  -0.122  1.00  0.00     0.128 C 
HETATM   13  C13 UNL     1       3.892   1.358  -0.930  1.00  0.00     0.027 C 
HETATM   14  C14 UNL     1       4.795   0.687   0.091  1.00  0.00     0.015 C 
HETATM   15  C16 UNL     1       4.133  -0.414   0.817  1.00  0.00     0.051 C 
HETATM   16  C17 UNL     1       2.631  -0.390   0.930  1.00  0.00     0.064 C 
BRANCH  14  17
HETATM   17  C15 UNL     1       6.002   0.191  -0.678  1.00  0.00     0.169 C 
BRANCH  17  18
HETATM   18  O1  UNL     1       6.644   1.288  -1.290  1.00  0.00    -0.400 OA
ATOM     19  H1  UNL     1       7.401   0.977  -1.772  1.00  0.00     0.209 HD
ENDBRANCH  17  18
ENDBRANCH  14  17
ENDBRANCH  10  11
ENDBRANCH   8  10
BRANCH   9  20
HETATM   20  O2  UNL     1      -1.132   1.612  -0.648  1.00  0.00    -0.358 OA
ATOM     21  H2  UNL     1      -0.289   1.985  -0.879  1.00  0.00     0.217 HD
ENDBRANCH   9  20
BRANCH   1  22
HETATM   22  C4  UNL     1      -3.631   0.684   0.171  1.00  0.00     0.046 C 
BRANCH  22  23
HETATM   23  C3  UNL     1      -4.879   0.470  -0.616  1.00  0.00     0.031 C 
BRANCH  23  24
HETATM   24  C2  UNL     1      -5.785   1.655  -0.398  1.00  0.00    -0.037 C 
HETATM   25  C1  UNL     1      -5.393   2.636   0.372  1.00  0.00     0.007 C 
ENDBRANCH  23  24
ENDBRANCH  22  23
ENDBRANCH   1  22
TORSDOF 8
