REMARK  7 active torsions:
REMARK  status: ('A' for Active; 'I' for Inactive)
REMARK    1  A    between atoms: C2_2  and  N1_3 
REMARK    2  A    between atoms: N1_3  and  C3_5 
REMARK    3  A    between atoms: C5_10  and  C6_11 
REMARK    4  A    between atoms: N4_15  and  C9_16 
REMARK    5  A    between atoms: C9_16  and  C10_17 
REMARK    6  A    between atoms: C10_17  and  C11_18 
REMARK    7  A    between atoms: C11_18  and  C12_19 
ROOT
HETATM    1  C3  UNL     1      -2.535  -1.021   0.600  1.00  0.00     0.684 A 
HETATM    2  N2  UNL     1      -3.756  -0.900   0.048  1.00  0.00    -0.155 N 
ATOM      3  H2  UNL     1      -4.285  -1.737  -0.196  1.00  0.00     0.187 HD
HETATM    4  C4  UNL     1      -4.287   0.314  -0.186  1.00  0.00     0.269 A 
HETATM    5  O1  UNL     1      -5.445   0.438  -0.710  1.00  0.00    -0.267 OA
HETATM    6  C5  UNL     1      -3.534   1.415   0.162  1.00  0.00     0.052 A 
HETATM    7  C8  UNL     1      -2.273   1.270   0.733  1.00  0.00     0.146 A 
HETATM    8  N3  UNL     1      -1.510   2.423   1.085  1.00  0.00    -0.081 NA
HETATM    9  N4  UNL     1      -1.786   0.038   0.945  1.00  0.00    -0.170 N 
ENDROOT
BRANCH   9  10
HETATM   10  C9  UNL     1      -0.492  -0.160   1.529  1.00  0.00     0.149 C 
BRANCH  10  11
HETATM   11  C10 UNL     1       0.601  -0.229   0.457  1.00  0.00     0.021 C 
BRANCH  11  12
HETATM   12  C11 UNL     1       1.936  -0.437   1.113  1.00  0.00     0.006 C 
BRANCH  12  13
HETATM   13  C12 UNL     1       3.063  -0.517   0.105  1.00  0.00    -0.014 C 
HETATM   14  C13 UNL     1       4.337  -0.728   0.921  1.00  0.00     0.004 C 
HETATM   15  C14 UNL     1       5.559  -0.224   0.217  1.00  0.00     0.000 C 
HETATM   16  C15 UNL     1       5.317  -0.150  -1.276  1.00  0.00     0.000 C 
HETATM   17  C16 UNL     1       4.320   0.954  -1.506  1.00  0.00     0.000 C 
HETATM   18  C17 UNL     1       3.089   0.767  -0.655  1.00  0.00     0.004 C 
ENDBRANCH  12  13
ENDBRANCH  11  12
ENDBRANCH  10  11
ENDBRANCH   9  10
BRANCH   1  19
HETATM   19  N1  UNL     1      -2.081  -2.195   0.799  1.00  0.00    -0.226 N 
ATOM     20  H1  UNL     1      -1.153  -2.257   1.218  1.00  0.00     0.177 HD
BRANCH  19  21
HETATM   21  C2  UNL     1      -2.727  -3.434   0.500  1.00  0.00     0.133 C 
HETATM   22  C1  UNL     1      -2.492  -3.762  -0.956  1.00  0.00     0.027 C 
ENDBRANCH  19  21
ENDBRANCH   1  19
BRANCH   6  23
HETATM   23  C6  UNL     1      -4.044   2.767  -0.061  1.00  0.00     0.043 C 
HETATM   24  C7  UNL     1      -3.977   3.204  -1.505  1.00  0.00     0.010 C 
ENDBRANCH   6  23
TORSDOF 7
