REMARK  7 active torsions:
REMARK  status: ('A' for Active; 'I' for Inactive)
REMARK    1  A    between atoms: N1_1  and  C1_5 
REMARK    2  A    between atoms: C1_5  and  C2_6 
REMARK    3  A    between atoms: C2_6  and  C3_7 
REMARK    4  A    between atoms: C3_7  and  C4_8 
REMARK    5  A    between atoms: C4_8  and  C5_9 
REMARK    6  A    between atoms: C12_21  and  O2_22 
REMARK    7  A    between atoms: O2_22  and  C13_23 
ROOT
HETATM    1  C5  UNL     1       0.638  -1.101  -0.623  1.00  0.00    -0.024 A 
HETATM    2  C6  UNL     1       1.201  -2.382  -0.673  1.00  0.00     0.025 A 
HETATM    3  C7  UNL     1       0.488  -3.517  -0.391  1.00  0.00     0.007 A 
HETATM    4  C8  UNL     1       1.040  -4.775  -0.440  1.00  0.00     0.106 A 
HETATM    5  N2  UNL     1       0.308  -5.867  -0.155  1.00  0.00    -0.318 N 
ATOM      6  H2  UNL     1       0.737  -6.792  -0.195  1.00  0.00     0.170 HD
HETATM    7  C9  UNL     1      -0.988  -5.742   0.183  1.00  0.00     0.324 A 
HETATM    8  O1  UNL     1      -1.690  -6.742   0.452  1.00  0.00    -0.247 OA
HETATM    9  N3  UNL     1      -1.575  -4.536   0.245  1.00  0.00    -0.308 N 
ATOM     10  H3  UNL     1      -2.558  -4.453   0.504  1.00  0.00     0.170 HD
HETATM   11  C10 UNL     1      -0.843  -3.428  -0.041  1.00  0.00     0.050 A 
HETATM   12  C11 UNL     1      -1.409  -2.205   0.014  1.00  0.00     0.067 A 
HETATM   13  C12 UNL     1      -0.688  -1.017  -0.275  1.00  0.00     0.077 A 
ENDROOT
BRANCH   1  14
HETATM   14  C4  UNL     1       1.533   0.041  -0.914  1.00  0.00     0.041 C 
BRANCH  14  15
HETATM   15  C3  UNL     1       2.104   0.720   0.285  1.00  0.00     0.006 C 
BRANCH  15  16
HETATM   16  C2  UNL     1       2.978   1.857  -0.230  1.00  0.00     0.027 C 
BRANCH  16  17
HETATM   17  C1  UNL     1       3.620   2.626   0.882  1.00  0.00     0.229 C 
BRANCH  17  18
HETATM   18  N1  UNL     1       2.677   3.233   1.780  1.00  0.00    -0.079 N 
ATOM     19  H13 UNL     1       2.019   3.821   1.268  1.00  0.00     0.274 HD
ATOM     20  H12 UNL     1       2.031   2.536   2.150  1.00  0.00     0.274 HD
ATOM     21  H11 UNL     1       3.115   3.757   2.538  1.00  0.00     0.274 HD
ENDBRANCH  17  18
ENDBRANCH  16  17
ENDBRANCH  15  16
ENDBRANCH  14  15
ENDBRANCH   1  14
BRANCH  13  22
HETATM   22  O2  UNL     1      -1.355   0.103  -0.189  1.00  0.00    -0.345 OA
BRANCH  22  23
HETATM   23  C13 UNL     1      -1.514   1.411  -0.260  1.00  0.00     0.129 C 
HETATM   24  C14 UNL     1      -2.541   1.776  -1.327  1.00  0.00     0.032 C 
HETATM   25  C15 UNL     1      -3.586   2.631  -0.708  1.00  0.00     0.002 C 
HETATM   26  C16 UNL     1      -3.506   2.313   0.769  1.00  0.00     0.002 C 
HETATM   27  C17 UNL     1      -2.027   2.093   1.001  1.00  0.00     0.032 C 
ENDBRANCH  22  23
ENDBRANCH  13  22
TORSDOF 7
