REMARK  7 active torsions:
REMARK  status: ('A' for Active; 'I' for Inactive)
REMARK    1  A    between atoms: C1_2  and  C2_3 
REMARK       I    between atoms: C1_2  and  N2_19 
REMARK    2  A    between atoms: C2_3  and  C3_4 
REMARK    3  A    between atoms: C3_4  and  C4_5 
REMARK    4  A    between atoms: C3_4  and  C11_12 
REMARK    5  A    between atoms: C4_5  and  C5_6 
REMARK    6  A    between atoms: C11_12  and  O2_13 
REMARK    7  A    between atoms: N1_15  and  O3_17 
ROOT
HETATM    1  C3  UNL     1      -0.133   0.959  -1.055  1.00  0.00     0.071 C 
ENDROOT
BRANCH   1   2
HETATM    2  C2  UNL     1       1.315   0.592  -0.790  1.00  0.00     0.115 C 
BRANCH   2   3
HETATM    3  C1  UNL     1       1.630   0.029   0.502  1.00  0.00     0.220 C 
HETATM    4  O1  UNL     1       0.807  -0.155   1.419  1.00  0.00    -0.273 OA
HETATM    5  N2  UNL     1       2.968  -0.355   0.777  1.00  0.00    -0.348 N 
HETATM    6  C12 UNL     1       3.985  -0.177  -0.234  1.00  0.00     0.152 C 
HETATM    7  C15 UNL     1       3.375  -0.926   2.042  1.00  0.00     0.152 C 
HETATM    8  C13 UNL     1       5.282   0.129   0.520  1.00  0.00     0.187 C 
HETATM    9  O4  UNL     1       5.670  -0.950   1.276  1.00  0.00    -0.388 OA
HETATM   10  C14 UNL     1       4.649  -1.721   1.774  1.00  0.00     0.187 C 
ENDBRANCH   2   3
ENDBRANCH   1   2
BRANCH   1  11
HETATM   11  C4  UNL     1      -1.048  -0.190  -0.967  1.00  0.00     0.018 C 
BRANCH  11  12
HETATM   12  C5  UNL     1      -2.488  -0.042  -1.204  1.00  0.00    -0.014 C 
HETATM   13  C6  UNL     1      -3.307   0.828  -0.340  1.00  0.00     0.005 C 
HETATM   14  C7  UNL     1      -3.531   0.259   1.048  1.00  0.00     0.000 C 
HETATM   15  C8  UNL     1      -3.824  -1.225   0.990  1.00  0.00     0.000 C 
HETATM   16  C9  UNL     1      -4.287  -1.579  -0.411  1.00  0.00     0.000 C 
HETATM   17  C10 UNL     1      -3.088  -1.439  -1.327  1.00  0.00     0.005 C 
ENDBRANCH  11  12
ENDBRANCH   1  11
BRANCH   1  18
HETATM   18  C11 UNL     1      -0.409   2.168  -0.298  1.00  0.00     0.140 C 
HETATM   19  N1  UNL     1      -0.571   3.312  -0.945  1.00  0.00    -0.251 N 
ATOM     20  H1  UNL     1      -0.765   4.166  -0.423  1.00  0.00     0.196 HD
BRANCH  18  21
HETATM   21  O2  UNL     1      -0.529   2.298   1.074  1.00  0.00    -0.348 OA
ATOM     22  H2  UNL     1      -0.709   3.089   1.569  1.00  0.00     0.219 HD
ENDBRANCH  18  21
BRANCH  19  23
HETATM   23  O3  UNL     1      -0.479   3.356  -2.315  1.00  0.00    -0.288 OA
ATOM     24  H3  UNL     1      -0.595   4.177  -2.779  1.00  0.00     0.244 HD
ENDBRANCH  19  23
ENDBRANCH   1  18
TORSDOF 7
