REMARK  8 active torsions:
REMARK  status: ('A' for Active; 'I' for Inactive)
REMARK    1  A    between atoms: C2_2  and  C3_3 
REMARK    2  A    between atoms: C2_2  and  N1_5 
REMARK    3  A    between atoms: N1_5  and  C4_7 
REMARK    4  A    between atoms: C9_14  and  C10_15 
REMARK    5  A    between atoms: C10_15  and  N2_16 
REMARK    6  A    between atoms: N2_16  and  C11_19 
REMARK    7  A    between atoms: C11_19  and  C12_20 
REMARK    8  A    between atoms: C12_20  and  O1_21 
ROOT
HETATM    1  C4  UNL     1      -0.903  -1.228   0.333  1.00  0.00     0.058 A 
HETATM    2  C5  UNL     1      -1.334  -2.522   0.173  1.00  0.00     0.062 A 
HETATM    3 CL2  UNL     1      -3.004  -3.031   0.463  1.00  0.00    -0.082 Cl
HETATM    4  C6  UNL     1      -0.390  -3.466  -0.221  1.00  0.00     0.050 A 
HETATM    5  C7  UNL     1       0.927  -3.147  -0.447  1.00  0.00     0.036 A 
HETATM    6 CL3  UNL     1       2.104  -4.370  -0.947  1.00  0.00    -0.084 Cl
HETATM    7  C8  UNL     1       1.354  -1.848  -0.284  1.00  0.00     0.035 A 
HETATM    8  C9  UNL     1       0.425  -0.887   0.110  1.00  0.00    -0.003 A 
ENDROOT
BRANCH   8   9
HETATM    9  C10 UNL     1       0.884   0.512   0.297  1.00  0.00     0.273 C 
BRANCH   9  10
HETATM   10  N2  UNL     1       2.316   0.584  -0.004  1.00  0.00    -0.069 N 
ATOM     11  H22 UNL     1       2.852  -0.091   0.542  1.00  0.00     0.277 HD
ATOM     12  H21 UNL     1       2.525   0.227  -0.936  1.00  0.00     0.277 HD
BRANCH  10  13
HETATM   13  C11 UNL     1       2.811   1.938   0.178  1.00  0.00     0.258 C 
BRANCH  13  14
HETATM   14  C12 UNL     1       4.296   1.898  -0.159  1.00  0.00     0.191 C 
BRANCH  14  15
HETATM   15  O1  UNL     1       4.903   0.999   0.721  1.00  0.00    -0.399 OA
ATOM     16  H1  UNL     1       5.829   0.974   0.511  1.00  0.00     0.209 HD
ENDBRANCH  14  15
ENDBRANCH  13  14
ENDBRANCH  10  13
ENDBRANCH   9  10
ENDBRANCH   8   9
BRANCH   1  17
HETATM   17  N1  UNL     1      -1.838  -0.233   0.725  1.00  0.00    -0.383 N 
ATOM     18  H1  UNL     1      -1.982  -0.113   1.728  1.00  0.00     0.160 HD
BRANCH  17  19
HETATM   19  C2  UNL     1      -2.595   0.614  -0.130  1.00  0.00     0.091 C 
HETATM   20  C1  UNL     1      -3.492  -0.065  -1.116  1.00  0.00     0.033 C 
BRANCH  19  21
HETATM   21  C3  UNL     1      -3.519   1.494   0.730  1.00  0.00     0.139 C 
HETATM   22 CL1  UNL     1      -4.348   2.672  -0.320  1.00  0.00    -0.128 Cl
ENDBRANCH  19  21
ENDBRANCH  17  19
ENDBRANCH   1  17
TORSDOF 8
