REMARK  9 active torsions:
REMARK  status: ('A' for Active; 'I' for Inactive)
REMARK    1  A    between atoms: C2_2  and  O1_3 
REMARK    2  A    between atoms: O1_3  and  C3_4 
REMARK    3  A    between atoms: C3_4  and  C4_5 
REMARK    4  A    between atoms: C4_5  and  C5_6 
REMARK    5  A    between atoms: C7_8  and  N1_9 
REMARK    6  A    between atoms: N1_9  and  C8_11 
REMARK    7  A    between atoms: C8_11  and  C11_14 
REMARK    8  A    between atoms: C12_17  and  C13_18 
REMARK    9  A    between atoms: C15_20  and  N2_21 
ROOT
HETATM    1  C5  UNL     1       1.267   0.057   0.495  1.00  0.00     0.015 A 
HETATM    2  C6  UNL     1      -0.098   0.295   0.268  1.00  0.00     0.055 A 
HETATM    3  C7  UNL     1      -0.980  -0.721   0.023  1.00  0.00     0.040 A 
HETATM    4  C12 UNL     1      -0.424  -1.997   0.017  1.00  0.00     0.011 A 
HETATM    5  C15 UNL     1       0.921  -2.204   0.243  1.00  0.00     0.107 A 
HETATM    6  N3  UNL     1       1.746  -1.174   0.478  1.00  0.00    -0.346 N 
ATOM      7  H3  UNL     1       2.739  -1.340   0.643  1.00  0.00     0.167 HD
ENDROOT
BRANCH   3   8
HETATM    8  N1  UNL     1      -2.337  -0.489  -0.193  1.00  0.00    -0.375 N 
ATOM      9  H1  UNL     1      -2.896  -1.336  -0.296  1.00  0.00     0.160 HD
BRANCH   8  10
HETATM   10  C8  UNL     1      -3.078   0.714  -0.295  1.00  0.00     0.082 C 
HETATM   11  C9  UNL     1      -2.894   1.722   0.785  1.00  0.00     0.043 C 
HETATM   12  C10 UNL     1      -4.595   0.329  -0.180  1.00  0.00     0.043 C 
BRANCH  10  13
HETATM   13  C11 UNL     1      -2.986   1.253  -1.703  1.00  0.00     0.380 C 
HETATM   14  F1  UNL     1      -1.740   1.541  -2.150  1.00  0.00    -0.212 F 
HETATM   15  F2  UNL     1      -3.882   2.290  -1.910  1.00  0.00    -0.212 F 
ENDBRANCH  10  13
ENDBRANCH   8  10
ENDBRANCH   3   8
BRANCH   4  16
HETATM   16  C13 UNL     1      -1.292  -3.158  -0.229  1.00  0.00     0.040 C 
HETATM   17  C14 UNL     1      -2.125  -3.547   0.977  1.00  0.00     0.010 C 
ENDBRANCH   4  16
BRANCH   1  18
HETATM   18  C4  UNL     1       2.189   1.221   0.758  1.00  0.00     0.083 C 
BRANCH  18  19
HETATM   19  C3  UNL     1       2.738   1.709  -0.544  1.00  0.00     0.173 C 
BRANCH  19  20
HETATM   20  O1  UNL     1       3.587   2.777  -0.387  1.00  0.00    -0.391 OA
BRANCH  20  21
HETATM   21  C2  UNL     1       4.659   2.444   0.403  1.00  0.00     0.163 C 
HETATM   22  C1  UNL     1       5.492   1.300  -0.158  1.00  0.00     0.033 C 
ENDBRANCH  20  21
ENDBRANCH  19  20
ENDBRANCH  18  19
ENDBRANCH   1  18
BRANCH   5  23
HETATM   23  N2  UNL     1       1.409  -3.391   0.231  1.00  0.00    -0.385 N 
ATOM     24  H22 UNL     1       0.781  -4.175   0.052  1.00  0.00     0.157 HD
ATOM     25  H21 UNL     1       2.404  -3.544   0.398  1.00  0.00     0.157 HD
ENDBRANCH   5  23
TORSDOF 9
