REMARK  9 active torsions:
REMARK  status: ('A' for Active; 'I' for Inactive)
REMARK    1  A    between atoms: N1_1  and  C1_4 
REMARK    2  A    between atoms: C2_7  and  C3_8 
REMARK    3  A    between atoms: C5_12  and  O1_13 
REMARK    4  A    between atoms: O1_13  and  C6_14 
REMARK    5  A    between atoms: C6_14  and  C7_15 
REMARK    6  A    between atoms: C7_15  and  C8_16 
REMARK    7  A    between atoms: C9_18  and  C10_19 
REMARK    8  A    between atoms: C10_19  and  C11_20 
REMARK    9  A    between atoms: C11_20  and  C12_21 
ROOT
HETATM    1  C1  UNL     1      -0.100  -2.166  -0.760  1.00  0.00     0.108 A 
HETATM    2  N2  UNL     1      -1.117  -3.041  -0.536  1.00  0.00    -0.341 N 
ATOM      3  H2  UNL     1      -0.951  -4.038  -0.674  1.00  0.00     0.167 HD
HETATM    4  C2  UNL     1      -2.323  -2.636  -0.142  1.00  0.00     0.078 A 
HETATM    5  C4  UNL     1      -2.537  -1.290   0.043  1.00  0.00     0.068 A 
HETATM    6  C5  UNL     1      -1.530  -0.370  -0.174  1.00  0.00     0.080 A 
HETATM    7  C9  UNL     1      -0.280  -0.797  -0.583  1.00  0.00     0.019 A 
ENDROOT
BRANCH   7   8
HETATM    8  C10 UNL     1       0.834   0.153  -0.829  1.00  0.00     0.047 C 
BRANCH   8   9
HETATM    9  C11 UNL     1       1.774   0.073   0.325  1.00  0.00     0.037 C 
BRANCH   9  10
HETATM   10  C12 UNL     1       2.962   1.000   0.196  1.00  0.00     0.186 C 
HETATM   11  C13 UNL     1       3.791   0.701  -1.032  1.00  0.00     0.034 C 
HETATM   12  C14 UNL     1       4.990  -0.017  -0.401  1.00  0.00     0.029 C 
HETATM   13  C15 UNL     1       5.188   0.845   0.831  1.00  0.00     0.233 C 
HETATM   14  N3  UNL     1       3.814   0.853   1.351  1.00  0.00    -0.071 N 
ATOM     15  H32 UNL     1       3.653   1.558   2.071  1.00  0.00     0.277 HD
ATOM     16  H31 UNL     1       3.589   0.040   1.925  1.00  0.00     0.277 HD
ENDBRANCH   9  10
ENDBRANCH   8   9
ENDBRANCH   7   8
BRANCH   1  17
HETATM   17  N1  UNL     1       1.053  -2.610  -1.142  1.00  0.00    -0.385 N 
ATOM     18  H12 UNL     1       1.185  -3.613  -1.272  1.00  0.00     0.157 HD
ATOM     19  H11 UNL     1       1.816  -1.954  -1.310  1.00  0.00     0.157 HD
ENDBRANCH   1  17
BRANCH   6  20
HETATM   20  O1  UNL     1      -1.780   0.980   0.022  1.00  0.00    -0.350 OA
BRANCH  20  21
HETATM   21  C6  UNL     1      -3.052   1.417   0.439  1.00  0.00     0.178 C 
BRANCH  21  22
HETATM   22  C7  UNL     1      -3.088   2.910   0.586  1.00  0.00     0.058 C 
BRANCH  22  23
HETATM   23  C8  UNL     1      -4.476   3.325   1.034  1.00  0.00     0.224 C 
HETATM   24  F3  UNL     1      -4.830   2.768   2.234  1.00  0.00    -0.255 F 
ENDBRANCH  22  23
ENDBRANCH  21  22
ENDBRANCH  20  21
ENDBRANCH   6  20
BRANCH   4  25
HETATM   25  C3  UNL     1      -3.436  -3.591   0.103  1.00  0.00     0.403 C 
HETATM   26  F1  UNL     1      -3.762  -3.580   1.450  1.00  0.00    -0.208 F 
HETATM   27  F2  UNL     1      -4.527  -3.259  -0.644  1.00  0.00    -0.208 F 
ENDBRANCH   4  25
TORSDOF 9
