REMARK  13 active torsions:
REMARK  status: ('A' for Active; 'I' for Inactive)
REMARK    1  A    between atoms: C2_2  and  C3_3 
REMARK    2  A    between atoms: C2_2  and  C4_6 
REMARK    3  A    between atoms: C4_6  and  O1_7 
REMARK    4  A    between atoms: C4_6  and  C5_9 
REMARK    5  A    between atoms: C5_9  and  O2_10 
REMARK    6  A    between atoms: C5_9  and  C6_12 
REMARK    7  A    between atoms: C6_12  and  C7_13 
REMARK    8  A    between atoms: C6_12  and  C8_16 
REMARK    9  A    between atoms: C6_12  and  C9_20 
REMARK   10  A    between atoms: C9_20  and  C10_23 
REMARK   11  A    between atoms: C10_23  and  C11_26 
REMARK   12  A    between atoms: C11_26  and  C12_28 
REMARK   13  A    between atoms: C12_28  and  O3_31 
ROOT
HETATM    1  C6  UNL     1       0.553  -0.894   0.274  1.00  0.00     0.215 C 
ENDROOT
BRANCH   1   2
HETATM    2  C5  UNL     1       1.625   0.014  -0.128  1.00  0.00     0.176 C 
BRANCH   2   3
HETATM    3  C4  UNL     1       3.056  -0.369  -0.143  1.00  0.00     0.156 C 
BRANCH   3   4
HETATM    4  C2  UNL     1       3.832   0.941  -0.465  1.00  0.00     0.062 C 
HETATM    5  C1  UNL     1       3.552   1.892   0.674  1.00  0.00     0.017 C 
BRANCH   4   6
HETATM    6  C3  UNL     1       5.307   0.573  -0.356  1.00  0.00     0.271 C 
HETATM    7  F1  UNL     1       5.688  -0.296  -1.347  1.00  0.00    -0.232 F 
HETATM    8 CL1  UNL     1       6.297   2.024  -0.473  1.00  0.00    -0.089 Cl
ENDBRANCH   4   6
ENDBRANCH   3   4
BRANCH   3   9
HETATM    9  O1  UNL     1       3.407  -1.169  -1.257  1.00  0.00    -0.392 OA
ATOM     10  H1  UNL     1       2.933  -1.969  -1.060  1.00  0.00     0.210 HD
ENDBRANCH   3   9
ENDBRANCH   2   3
BRANCH   2  11
HETATM   11  O2  UNL     1       1.486   0.669  -1.364  1.00  0.00    -0.391 OA
ATOM     12  H2  UNL     1       0.568   0.915  -1.354  1.00  0.00     0.210 HD
ENDBRANCH   2  11
ENDBRANCH   1   2
BRANCH   1  13
HETATM   13  C7  UNL     1       0.812  -1.338   1.749  1.00  0.00     0.379 C 
HETATM   14  F2  UNL     1       1.978  -2.009   1.927  1.00  0.00    -0.213 F 
HETATM   15  F3  UNL     1       0.849  -0.282   2.613  1.00  0.00    -0.213 F 
ENDBRANCH   1  13
BRANCH   1  16
HETATM   16  C8  UNL     1       0.489  -2.230  -0.433  1.00  0.00     0.409 C 
HETATM   17  F4  UNL     1       1.623  -3.019  -0.238  1.00  0.00    -0.170 F 
HETATM   18  F5  UNL     1      -0.527  -3.037   0.027  1.00  0.00    -0.170 F 
HETATM   19  F6  UNL     1       0.475  -2.127  -1.822  1.00  0.00    -0.170 F 
ENDBRANCH   1  16
BRANCH   1  20
HETATM   20  C9  UNL     1      -0.781  -0.221   0.387  1.00  0.00     0.338 C 
HETATM   21  F7  UNL     1      -0.691   0.818   1.297  1.00  0.00    -0.198 F 
HETATM   22  F8  UNL     1      -1.553  -1.170   1.209  1.00  0.00    -0.198 F 
BRANCH  20  23
HETATM   23  C10 UNL     1      -1.689   0.085  -0.677  1.00  0.00     0.361 C 
HETATM   24  F9  UNL     1      -2.146  -1.073  -1.344  1.00  0.00    -0.192 F 
HETATM   25  F10 UNL     1      -1.176   0.801  -1.771  1.00  0.00    -0.192 F 
BRANCH  23  26
HETATM   26  C11 UNL     1      -2.972   0.817  -0.378  1.00  0.00     0.182 C 
HETATM   27  F11 UNL     1      -2.745   2.064   0.191  1.00  0.00    -0.205 F 
BRANCH  26  28
HETATM   28  C12 UNL     1      -4.090   0.110   0.257  1.00  0.00     0.106 C 
HETATM   29  C13 UNL     1      -4.609  -1.094  -0.511  1.00  0.00     0.053 C 
HETATM   30  C14 UNL     1      -5.290   1.121   0.108  1.00  0.00     0.053 C 
BRANCH  28  31
HETATM   31  O3  UNL     1      -4.075  -0.168   1.582  1.00  0.00    -0.384 OA
ATOM     32  H3  UNL     1      -4.799  -0.626   1.993  1.00  0.00     0.211 HD
ENDBRANCH  28  31
ENDBRANCH  26  28
ENDBRANCH  23  26
ENDBRANCH  20  23
ENDBRANCH   1  20
TORSDOF 13
