REMARK  9 active torsions:
REMARK  status: ('A' for Active; 'I' for Inactive)
REMARK    1  A    between atoms: C2_2  and  N1_3 
REMARK    2  A    between atoms: N1_3  and  C3_5 
REMARK    3  A    between atoms: C4_8  and  N3_9 
REMARK    4  A    between atoms: C6_14  and  N5_15 
REMARK    5  A    between atoms: N5_15  and  C7_17 
REMARK    6  A    between atoms: C7_17  and  C8_18 
REMARK    7  A    between atoms: C8_18  and  C9_19 
REMARK    8  A    between atoms: C9_19  and  N6_20 
REMARK    9  A    between atoms: N6_20  and  C10_22 
ROOT
HETATM    1  C3  UNL     1       2.269   0.495  -0.016  1.00  0.00     0.707 A 
HETATM    2  N2  UNL     1       2.634  -0.583  -0.710  1.00  0.00    -0.022 N 
ATOM      3  H2  UNL     1       3.545  -0.597  -1.169  1.00  0.00     0.203 HD
HETATM    4  C4  UNL     1       1.815  -1.666  -0.818  1.00  0.00     0.706 A 
HETATM    5  N4  UNL     1       0.634  -1.618  -0.209  1.00  0.00    -0.022 N 
ATOM      6  H4  UNL     1       0.011  -2.422  -0.283  1.00  0.00     0.203 HD
HETATM    7  C6  UNL     1       0.227  -0.541   0.506  1.00  0.00     0.707 A 
HETATM    8  N8  UNL     1       1.068   0.499   0.582  1.00  0.00    -0.022 N 
ATOM      9  H8  UNL     1       0.785   1.323   1.113  1.00  0.00     0.203 HD
ENDROOT
BRANCH   7  10
HETATM   10  N5  UNL     1      -0.905  -0.586   1.046  1.00  0.00    -0.225 N 
ATOM     11  H5  UNL     1      -1.434  -1.446   0.899  1.00  0.00     0.177 HD
BRANCH  10  12
HETATM   12  C7  UNL     1      -1.546   0.407   1.837  1.00  0.00     0.139 C 
BRANCH  12  13
HETATM   13  C8  UNL     1      -2.859   0.825   1.190  1.00  0.00     0.040 C 
BRANCH  13  14
HETATM   14  C9  UNL     1      -3.774  -0.375   1.081  1.00  0.00     0.122 C 
BRANCH  14  15
HETATM   15  N6  UNL     1      -5.032   0.011   0.465  1.00  0.00    -0.386 N 
ATOM     16  H6  UNL     1      -5.876  -0.000   1.037  1.00  0.00     0.160 HD
BRANCH  15  17
HETATM   17  C10 UNL     1      -5.142   0.403  -0.896  1.00  0.00     0.168 C 
HETATM   18  N7  UNL     1      -5.042   1.663  -1.184  1.00  0.00    -0.396 N 
ATOM     19  H72 UNL     1      -4.888   2.343  -0.440  1.00  0.00     0.156 HD
ATOM     20  H71 UNL     1      -5.121   1.944  -2.161  1.00  0.00     0.156 HD
ENDBRANCH  15  17
ENDBRANCH  14  15
ENDBRANCH  13  14
ENDBRANCH  12  13
ENDBRANCH  10  12
ENDBRANCH   7  10
BRANCH   4  21
HETATM   21  N3  UNL     1       2.153  -2.707  -1.480  1.00  0.00    -0.229 N 
HETATM   22  C5  UNL     1       1.260  -3.824  -1.567  1.00  0.00     0.165 C 
ATOM     23  H3  UNL     1       3.059  -2.742  -1.947  1.00  0.00     0.177 HD
ENDBRANCH   4  21
BRANCH   1  24
HETATM   24  N1  UNL     1       3.027   1.503   0.085  1.00  0.00    -0.225 N 
ATOM     25  H1  UNL     1       2.675   2.288   0.633  1.00  0.00     0.177 HD
BRANCH  24  26
HETATM   26  C2  UNL     1       4.324   1.654  -0.489  1.00  0.00     0.133 C 
HETATM   27  C1  UNL     1       4.988   2.860   0.136  1.00  0.00     0.027 C 
ENDBRANCH  24  26
ENDBRANCH   1  24
TORSDOF 9
