REMARK  8 active torsions:
REMARK  status: ('A' for Active; 'I' for Inactive)
REMARK    1  A    between atoms: N1_2  and  C3_4 
REMARK    2  A    between atoms: N1_2  and  C6_9 
REMARK    3  A    between atoms: C3_4  and  C4_5 
REMARK    4  A    between atoms: C4_5  and  C5_6 
REMARK    5  A    between atoms: C5_6  and  O1_7 
REMARK    6  A    between atoms: C6_9  and  N2_10 
REMARK    7  A    between atoms: N3_12  and  C7_14 
REMARK    8  A    between atoms: C10_22  and  N7_23 
ROOT
HETATM    1  N2  UNL     1      -0.131   1.328   0.443  1.00  0.00    -0.289 N 
ATOM      2  H2  UNL     1      -0.979   1.895   0.417  1.00  0.00     0.187 HD
HETATM    3  N3  UNL     1       0.922   1.835  -0.043  1.00  0.00    -0.295 N 
ATOM      4  H3  UNL     1       0.859   2.776  -0.431  1.00  0.00     0.187 HD
ENDROOT
BRANCH   3   5
HETATM    5  C7  UNL     1       2.177   1.190  -0.086  1.00  0.00     0.107 A 
HETATM    6  C8  UNL     1       2.983   1.123   1.030  1.00  0.00     0.125 A 
HETATM    7  N4  UNL     1       4.171   0.495   0.933  1.00  0.00    -0.338 N 
HETATM    8  C9  UNL     1       4.579  -0.064  -0.227  1.00  0.00     0.193 A 
ATOM      9  H4  UNL     1       4.775   0.441   1.753  1.00  0.00     0.168 HD
HETATM   10  N5  UNL     1       5.841  -0.715  -0.278  1.00  0.00    -0.063 NA
HETATM   11  N6  UNL     1       3.779   0.013  -1.303  1.00  0.00    -0.315 N 
HETATM   12  C10 UNL     1       2.579   0.627  -1.273  1.00  0.00     0.131 A 
ATOM     13  H6  UNL     1       4.091  -0.410  -2.177  1.00  0.00     0.170 HD
BRANCH  12  14
HETATM   14  N7  UNL     1       1.834   0.675  -2.351  1.00  0.00    -0.383 N 
ATOM     15  H72 UNL     1       0.926   1.139  -2.328  1.00  0.00     0.157 HD
ATOM     16  H71 UNL     1       2.132   0.257  -3.232  1.00  0.00     0.157 HD
ENDBRANCH  12  14
ENDBRANCH   3   5
BRANCH   1  17
HETATM   17  C6  UNL     1      -0.230   0.026   1.026  1.00  0.00     0.309 C 
BRANCH  17  18
HETATM   18  N1  UNL     1      -1.213  -0.824   0.433  1.00  0.00    -0.040 N 
HETATM   19  C1  UNL     1      -0.500  -1.906  -0.266  1.00  0.00     0.279 C 
HETATM   20  C2  UNL     1      -2.005  -1.509   1.464  1.00  0.00     0.279 C 
BRANCH  18  21
HETATM   21  C3  UNL     1      -2.072  -0.186  -0.514  1.00  0.00     0.246 C 
BRANCH  21  22
HETATM   22  C4  UNL     1      -3.359   0.259   0.123  1.00  0.00     0.054 C 
BRANCH  22  23
HETATM   23  C5  UNL     1      -4.256   0.929  -0.877  1.00  0.00     0.165 C 
BRANCH  23  24
HETATM   24  O1  UNL     1      -3.587   2.048  -1.392  1.00  0.00    -0.401 OA
ATOM     25  H1  UNL     1      -4.155   2.472  -2.025  1.00  0.00     0.209 HD
ENDBRANCH  23  24
ENDBRANCH  22  23
ENDBRANCH  21  22
ENDBRANCH  18  21
ENDBRANCH  17  18
ENDBRANCH   1  17
TORSDOF 8
