REMARK  7 active torsions:
REMARK  status: ('A' for Active; 'I' for Inactive)
REMARK    1  A    between atoms: N4_12  and  C6_14 
REMARK    2  A    between atoms: C6_14  and  C7_15 
REMARK    3  A    between atoms: C7_15  and  C8_16 
REMARK    4  A    between atoms: C8_16  and  C9_17 
REMARK    5  A    between atoms: C9_17  and  N5_18 
REMARK    6  A    between atoms: N5_18  and  N6_19 
REMARK    7  A    between atoms: N5_18  and  C10_22 
ROOT
HETATM    1  C1  UNL     1       3.678   1.648  -2.082  1.00  0.00     0.064 C 
HETATM    2  C2  UNL     1       3.408   0.784  -1.119  1.00  0.00     0.127 A 
HETATM    3  N1  UNL     1       4.469   0.071  -0.493  1.00  0.00    -0.177 N 
ATOM      4  H1  UNL     1       5.430   0.233  -0.794  1.00  0.00     0.185 HD
HETATM    5  C3  UNL     1       4.209  -0.863   0.544  1.00  0.00     0.693 A 
HETATM    6  N2  UNL     1       5.176  -1.493   1.092  1.00  0.00    -0.230 N 
ATOM      7  H2  UNL     1       4.965  -2.159   1.835  1.00  0.00     0.177 HD
HETATM    8  C4  UNL     1       6.556  -1.304   0.705  1.00  0.00     0.165 C 
HETATM    9  N3  UNL     1       2.847  -1.083   0.960  1.00  0.00    -0.022 N 
ATOM     10  H3  UNL     1       2.650  -1.752   1.704  1.00  0.00     0.203 HD
HETATM   11  C5  UNL     1       1.777  -0.381   0.348  1.00  0.00     0.694 A 
HETATM   12  N4  UNL     1       0.578  -0.592   0.733  1.00  0.00    -0.226 N 
ATOM     13  H4  UNL     1       0.450  -1.274   1.481  1.00  0.00     0.177 HD
HETATM   14  N8  UNL     1       2.068   0.544  -0.683  1.00  0.00    -0.177 N 
ATOM     15  H8  UNL     1       1.302   1.052  -1.126  1.00  0.00     0.185 HD
ENDROOT
BRANCH  12  16
HETATM   16  C6  UNL     1      -0.612   0.035   0.218  1.00  0.00     0.138 C 
BRANCH  16  17
HETATM   17  C7  UNL     1      -1.720  -0.173   1.199  1.00  0.00     0.022 C 
BRANCH  17  18
HETATM   18  C8  UNL     1      -3.037   0.415   0.821  1.00  0.00     0.023 C 
BRANCH  18  19
HETATM   19  C9  UNL     1      -3.615  -0.104  -0.457  1.00  0.00     0.149 C 
BRANCH  19  20
HETATM   20  N5  UNL     1      -4.897   0.587  -0.650  1.00  0.00    -0.295 N 
BRANCH  20  21
HETATM   21  N6  UNL     1      -5.089   1.502  -1.672  1.00  0.00    -0.342 N 
ATOM     22  H62 UNL     1      -4.314   1.699  -2.306  1.00  0.00     0.177 HD
ATOM     23  H61 UNL     1      -5.979   1.982  -1.806  1.00  0.00     0.177 HD
ENDBRANCH  20  21
BRANCH  20  24
HETATM   24  C10 UNL     1      -5.977   0.313   0.233  1.00  0.00     0.192 C 
HETATM   25  N7  UNL     1      -6.122   1.088   1.261  1.00  0.00    -0.394 N 
ATOM     26  H72 UNL     1      -5.476   1.862   1.417  1.00  0.00     0.156 HD
ATOM     27  H71 UNL     1      -6.897   0.891   1.895  1.00  0.00     0.156 HD
ENDBRANCH  20  24
ENDBRANCH  19  20
ENDBRANCH  18  19
ENDBRANCH  17  18
ENDBRANCH  16  17
ENDBRANCH  12  16
TORSDOF 7
