REMARK  6 active torsions:
REMARK  status: ('A' for Active; 'I' for Inactive)
REMARK    1  A    between atoms: C2_2  and  N1_4 
REMARK    2  A    between atoms: N1_4  and  C4_5 
REMARK    3  A    between atoms: N1_4  and  C9_14 
REMARK    4  A    between atoms: C4_5  and  C5_6 
REMARK    5  A    between atoms: C9_14  and  C10_15 
REMARK    6  A    between atoms: C11_19  and  C12_20 
ROOT
HETATM    1  C9  UNL     1      -1.733  -0.403   0.814  1.00  0.00     0.351 C 
ENDROOT
BRANCH   1   2
HETATM    2  N1  UNL     1      -2.646   0.308  -0.021  1.00  0.00     0.103 N 
BRANCH   2   3
HETATM    3  C2  UNL     1      -2.431   0.174  -1.440  1.00  0.00     0.216 C 
HETATM    4  C1  UNL     1      -2.376  -1.269  -1.909  1.00  0.00     0.042 C 
HETATM    5  C3  UNL     1      -1.361   1.013  -2.029  1.00  0.00     0.042 C 
ENDBRANCH   2   3
BRANCH   2   6
HETATM    6  C4  UNL     1      -3.991  -0.273   0.196  1.00  0.00     0.314 C 
BRANCH   6   7
HETATM    7  C5  UNL     1      -4.397  -0.232   1.600  1.00  0.00     0.001 A 
HETATM    8  C6  UNL     1      -4.879   0.917   2.206  1.00  0.00     0.099 A 
HETATM    9  N2  UNL     1      -5.253   0.917   3.496  1.00  0.00    -0.361 N 
HETATM   10  C7  UNL     1      -5.154  -0.220   4.206  1.00  0.00     0.180 A 
ATOM     11  H2  UNL     1      -5.608   1.769   3.931  1.00  0.00     0.166 HD
HETATM   12  N3  UNL     1      -4.686  -1.351   3.629  1.00  0.00    -0.361 N 
HETATM   13  C8  UNL     1      -4.302  -1.394   2.344  1.00  0.00     0.099 A 
ATOM     14  H3  UNL     1      -4.623  -2.200   4.190  1.00  0.00     0.166 HD
ENDBRANCH   6   7
ENDBRANCH   2   6
ENDBRANCH   1   2
BRANCH   1  15
HETATM   15  C10 UNL     1      -0.312  -0.040   0.680  1.00  0.00     0.132 A 
HETATM   16  N4  UNL     1       0.276   0.979   1.343  1.00  0.00    -0.245 N 
HETATM   17  O1  UNL     1       1.525   1.033   1.020  1.00  0.00    -0.222 OA
ATOM     18  H4  UNL     1      -0.193   1.607   1.996  1.00  0.00     0.196 HD
HETATM   19  C11 UNL     1       1.829   0.087   0.156  1.00  0.00     0.152 A 
HETATM   20  N5  UNL     1       0.682  -0.577  -0.051  1.00  0.00    -0.325 N 
ATOM     21  H5  UNL     1       0.578  -1.377  -0.675  1.00  0.00     0.169 HD
BRANCH  19  22
HETATM   22  C12 UNL     1       3.178  -0.122  -0.411  1.00  0.00     0.063 C 
HETATM   23  C13 UNL     1       3.663   1.045  -1.241  1.00  0.00     0.013 C 
HETATM   24  C14 UNL     1       4.824   0.574  -2.086  1.00  0.00     0.001 C 
HETATM   25  C15 UNL     1       5.867  -0.027  -1.197  1.00  0.00     0.000 C 
HETATM   26  C16 UNL     1       5.579   0.170   0.272  1.00  0.00     0.001 C 
HETATM   27  C17 UNL     1       4.213  -0.391   0.646  1.00  0.00     0.013 C 
ENDBRANCH  19  22
ENDBRANCH   1  15
TORSDOF 6
