REMARK  9 active torsions:
REMARK  status: ('A' for Active; 'I' for Inactive)
REMARK    1  A    between atoms: N1_5  and  C5_6 
REMARK    2  A    between atoms: C5_6  and  C6_7 
REMARK    3  A    between atoms: C6_7  and  C7_8 
REMARK    4  A    between atoms: C7_8  and  C8_9 
REMARK    5  A    between atoms: C8_9  and  N2_10 
REMARK    6  A    between atoms: N2_10  and  C11_13 
REMARK    7  A    between atoms: C11_13  and  C12_14 
REMARK    8  A    between atoms: C25_30  and  O2_31 
REMARK    9  A    between atoms: C33_40  and  O3_41 
ROOT
HETATM    1  C1  UNL     1      -1.741  -3.396   2.536  1.00  0.00     0.019 C 
HETATM    2  C2  UNL     1      -1.036  -2.193   1.875  1.00  0.00    -0.009 C 
HETATM    3  C3  UNL     1      -0.039  -1.714   2.872  1.00  0.00     0.019 C 
HETATM    4  C4  UNL     1      -0.328  -2.785   0.676  1.00  0.00     0.106 C 
HETATM    5  N1  UNL     1       0.666  -1.854   0.265  1.00  0.00    -0.291 NA
HETATM    6  C17 UNL     1       0.267  -0.887  -0.679  1.00  0.00     0.071 C 
HETATM    7  C18 UNL     1      -1.119  -0.358  -0.666  1.00  0.00     0.009 C 
HETATM    8  C19 UNL     1      -2.011  -0.988  -1.648  1.00  0.00     0.157 C 
HETATM    9  O1  UNL     1      -1.557  -1.777  -2.450  1.00  0.00    -0.293 OA
HETATM   10  C20 UNL     1      -3.446  -0.686  -1.684  1.00  0.00     0.089 C 
HETATM   11  C21 UNL     1      -3.991   0.080  -0.548  1.00  0.00     0.003 C 
HETATM   12  C22 UNL     1      -4.804   1.251  -1.101  1.00  0.00     0.001 C 
HETATM   13  C23 UNL     1      -5.873   0.896  -2.034  1.00  0.00     0.008 C 
HETATM   14  C24 UNL     1      -6.967   1.898  -1.753  1.00  0.00     0.033 C 
HETATM   15  C25 UNL     1      -6.458   2.762  -0.589  1.00  0.00     0.126 C 
HETATM   16  C26 UNL     1      -5.580   1.774   0.113  1.00  0.00    -0.014 C 
HETATM   17  C27 UNL     1      -6.470   0.704   0.694  1.00  0.00     0.018 C 
HETATM   18  C28 UNL     1      -4.657   2.338   1.130  1.00  0.00     0.012 C 
HETATM   19  C29 UNL     1      -3.685   1.252   1.568  1.00  0.00     0.007 C 
HETATM   20  C30 UNL     1      -3.007   0.717   0.356  1.00  0.00     0.006 C 
HETATM   21  C31 UNL     1      -1.760  -0.112   0.638  1.00  0.00     0.018 C 
HETATM   22  C32 UNL     1      -0.881   0.884   1.434  1.00  0.00     0.023 C 
HETATM   23  C33 UNL     1      -2.115  -1.237   1.506  1.00  0.00     0.140 C 
ENDROOT
BRANCH   5  24
HETATM   24  C5  UNL     1       1.769  -2.621  -0.315  1.00  0.00     0.095 C 
BRANCH  24  25
HETATM   25  C6  UNL     1       2.956  -1.746  -0.678  1.00  0.00     0.016 C 
BRANCH  25  26
HETATM   26  C7  UNL     1       3.541  -1.068   0.508  1.00  0.00     0.029 C 
BRANCH  26  27
HETATM   27  C8  UNL     1       4.687  -0.168   0.258  1.00  0.00     0.237 C 
BRANCH  27  28
HETATM   28  N2  UNL     1       5.864  -0.696  -0.328  1.00  0.00    -0.070 N 
HETATM   29  C9  UNL     1       5.911  -0.447  -1.781  1.00  0.00     0.272 C 
HETATM   30  C10 UNL     1       6.119  -2.087  -0.142  1.00  0.00     0.272 C 
BRANCH  28  31
HETATM   31  C11 UNL     1       7.048   0.032   0.181  1.00  0.00     0.293 C 
BRANCH  31  32
HETATM   32  C12 UNL     1       7.067   1.443  -0.216  1.00  0.00     0.035 A 
HETATM   33  C13 UNL     1       7.815   1.895  -1.279  1.00  0.00     0.027 A 
HETATM   34  C14 UNL     1       7.816   3.229  -1.630  1.00  0.00     0.003 A 
HETATM   35  C15 UNL     1       7.067   4.127  -0.920  1.00  0.00     0.017 A 
HETATM   36  C16 UNL     1       6.321   3.654   0.146  1.00  0.00     0.088 A 
HETATM   37  N3  UNL     1       6.350   2.359   0.450  1.00  0.00    -0.368 N 
ATOM     38  H3  UNL     1       5.790   2.043   1.242  1.00  0.00     0.165 HD
ENDBRANCH  31  32
ENDBRANCH  28  31
ENDBRANCH  27  28
ENDBRANCH  26  27
ENDBRANCH  25  26
ENDBRANCH  24  25
ENDBRANCH   5  24
BRANCH  23  39
HETATM   39  O3  UNL     1      -3.186  -2.001   1.087  1.00  0.00    -0.394 OA
ATOM     40  H3  UNL     1      -3.875  -1.391   0.851  1.00  0.00     0.210 HD
ENDBRANCH  23  39
BRANCH  15  41
HETATM   41  O2  UNL     1      -7.543   3.151   0.178  1.00  0.00    -0.395 OA
ATOM     42  H2  UNL     1      -7.228   3.685   0.898  1.00  0.00     0.210 HD
ENDBRANCH  15  41
TORSDOF 9
