REMARK  13 active torsions:
REMARK  status: ('A' for Active; 'I' for Inactive)
REMARK    1  A    between atoms: N2_7  and  C5_8 
REMARK    2  A    between atoms: C5_8  and  C6_9 
REMARK    3  A    between atoms: C6_9  and  C7_10 
REMARK    4  A    between atoms: C7_10  and  N3_11 
REMARK       I    between atoms: N3_11  and  C8_13 
REMARK    5  A    between atoms: C8_13  and  C9_15 
REMARK    6  A    between atoms: C9_15  and  N4_16 
REMARK    7  A    between atoms: N4_16  and  C10_17 
REMARK    8  A    between atoms: C10_17  and  O2_18 
REMARK    9  A    between atoms: C10_17  and  N5_20 
REMARK   10  A    between atoms: C14_24  and  N6_25 
REMARK   11  A    between atoms: C15_27  and  O3_28 
REMARK   12  A    between atoms: C15_27  and  O4_30 
REMARK   13  A    between atoms: O4_30  and  C16_31 
ROOT
HETATM    1  C9  UNL     1      -0.975  -1.867  -0.414  1.00  0.00     0.184 C 
HETATM    2  C20 UNL     1      -1.830  -2.325  -1.639  1.00  0.00     0.062 C 
HETATM    3  C21 UNL     1      -2.903  -3.317  -1.188  1.00  0.00    -0.002 A 
HETATM    4  C22 UNL     1      -2.947  -4.505  -2.113  1.00  0.00     0.015 A 
HETATM    5  C23 UNL     1      -2.294  -4.571  -0.715  1.00  0.00    -0.039 A 
HETATM    6  C24 UNL     1      -2.902  -5.583   0.174  1.00  0.00     0.015 C 
HETATM    7  C25 UNL     1      -0.819  -4.427  -0.645  1.00  0.00     0.022 C 
HETATM    8  C26 UNL     1      -0.251  -3.191  -0.046  1.00  0.00     0.000 C 
HETATM    9  C27 UNL     1      -0.123  -3.319   1.442  1.00  0.00     0.019 C 
HETATM   10  C28 UNL     1       1.175  -3.181  -0.593  1.00  0.00     0.019 C 
ENDROOT
BRANCH   1  11
HETATM   11  C8  UNL     1      -2.035  -1.495   0.502  1.00  0.00     0.260 C 
HETATM   12  N3  UNL     1      -2.728  -0.249   0.323  1.00  0.00    -0.358 N 
ATOM     13  H3  UNL     1      -2.357   0.441  -0.330  1.00  0.00     0.162 HD
HETATM   14  O1  UNL     1      -2.422  -2.211   1.481  1.00  0.00    -0.269 OA
BRANCH  12  15
HETATM   15  C7  UNL     1      -3.957   0.048   1.060  1.00  0.00     0.124 C 
BRANCH  15  16
HETATM   16  C6  UNL     1      -4.074   1.394   1.581  1.00  0.00     0.040 C 
BRANCH  16  17
HETATM   17  C5  UNL     1      -3.997   2.591   0.730  1.00  0.00     0.131 C 
BRANCH  17  18
HETATM   18  N2  UNL     1      -5.072   2.810  -0.218  1.00  0.00    -0.346 N 
HETATM   19  C2  UNL     1      -6.185   3.526   0.127  1.00  0.00     0.024 A 
HETATM   20  C1  UNL     1      -6.453   4.187   1.426  1.00  0.00     0.070 C 
HETATM   21  C3  UNL     1      -6.962   3.516  -1.016  1.00  0.00     0.113 A 
HETATM   22  N1  UNL     1      -6.317   2.836  -1.946  1.00  0.00    -0.360 N 
HETATM   23  C4  UNL     1      -5.142   2.393  -1.463  1.00  0.00     0.183 A 
ATOM     24  H1  UNL     1      -6.660   2.671  -2.892  1.00  0.00     0.166 HD
ENDBRANCH  17  18
ENDBRANCH  16  17
ENDBRANCH  15  16
ENDBRANCH  12  15
ENDBRANCH   1  11
BRANCH   1  25
HETATM   25  N4  UNL     1      -0.018  -0.997  -0.833  1.00  0.00    -0.387 NA
BRANCH  25  26
HETATM   26  C10 UNL     1       0.879  -0.133  -1.382  1.00  0.00     0.292 C 
BRANCH  26  27
HETATM   27  O2  UNL     1       0.865   0.101  -2.689  1.00  0.00    -0.322 OA
ATOM     28  H2  UNL     1       1.491   0.704  -3.072  1.00  0.00     0.222 HD
ENDBRANCH  26  27
BRANCH  26  29
HETATM   29  N5  UNL     1       1.881   0.539  -0.694  1.00  0.00    -0.331 N 
HETATM   30  C11 UNL     1       1.943   0.410   0.737  1.00  0.00     0.128 C 
HETATM   31  C12 UNL     1       2.008   1.741   1.442  1.00  0.00     0.026 C 
HETATM   32  C13 UNL     1       2.467   2.828   0.529  1.00  0.00     0.056 C 
HETATM   33  C14 UNL     1       3.495   2.237  -0.421  1.00  0.00     0.008 C 
HETATM   34  C19 UNL     1       2.942   1.278  -1.338  1.00  0.00     0.180 C 
BRANCH  33  35
HETATM   35  N6  UNL     1       4.621   2.621  -0.266  1.00  0.00    -0.322 N 
HETATM   36  C15 UNL     1       5.899   2.565  -0.678  1.00  0.00     0.262 C 
ATOM     37  H6  UNL     1       4.599   3.272   0.519  1.00  0.00     0.169 HD
BRANCH  36  38
HETATM   38  O3  UNL     1       6.140   2.955  -1.903  1.00  0.00    -0.327 OA
ATOM     39  H3  UNL     1       7.043   2.915  -2.194  1.00  0.00     0.221 HD
ENDBRANCH  36  38
BRANCH  36  40
HETATM   40  O4  UNL     1       6.999   2.136   0.071  1.00  0.00    -0.312 OA
BRANCH  40  41
HETATM   41  C16 UNL     1       8.279   2.247  -0.541  1.00  0.00     0.124 C 
HETATM   42  C17 UNL     1       9.108   1.078  -0.489  1.00  0.00     0.040 C 
HETATM   43  C18 UNL     1       8.906   3.467   0.243  1.00  0.00     0.040 C 
ENDBRANCH  40  41
ENDBRANCH  36  40
ENDBRANCH  33  35
ENDBRANCH  26  29
ENDBRANCH  25  26
ENDBRANCH   1  25
TORSDOF 13
