REMARK  9 active torsions:
REMARK  status: ('A' for Active; 'I' for Inactive)
REMARK    1  A    between atoms: C2_2  and  N1_3 
REMARK    2  A    between atoms: N1_3  and  C3_4 
REMARK    3  A    between atoms: N1_3  and  C5_6 
REMARK    4  A    between atoms: C5_6  and  C6_7 
REMARK    5  A    between atoms: C10_13  and  N3_14 
REMARK    6  A    between atoms: N3_14  and  S1_16 
REMARK    7  A    between atoms: S1_16  and  C11_19 
REMARK    8  A    between atoms: C18_26  and  N4_27 
REMARK    9  A    between atoms: N4_27  and  C19_29 
ROOT
HETATM    1  C19 UNL     1      -2.572   2.057   0.454  1.00  0.00     0.045 A 
HETATM    2  C20 UNL     1      -3.001   2.478   1.690  1.00  0.00    -0.033 A 
HETATM    3  C21 UNL     1      -3.136   1.559   2.848  1.00  0.00     0.050 C 
HETATM    4  C22 UNL     1      -3.337   3.814   1.921  1.00  0.00     0.031 A 
HETATM    5  C23 UNL     1      -3.243   4.727   0.916  1.00  0.00     0.045 A 
HETATM    6  C24 UNL     1      -3.596   6.103   1.177  1.00  0.00     0.099 C 
HETATM    7  N5  UNL     1      -3.874   7.196   1.401  1.00  0.00    -0.191 NA
HETATM    8  C25 UNL     1      -2.818   4.331  -0.323  1.00  0.00     0.031 A 
HETATM    9  C26 UNL     1      -2.481   2.988  -0.551  1.00  0.00    -0.033 A 
HETATM   10  C27 UNL     1      -2.028   2.577  -1.878  1.00  0.00     0.050 C 
ENDROOT
BRANCH   1  11
HETATM   11  N4  UNL     1      -2.239   0.732   0.224  1.00  0.00    -0.338 N 
ATOM     12  H4  UNL     1      -3.008   0.106  -0.015  1.00  0.00     0.167 HD
BRANCH  11  13
HETATM   13  C18 UNL     1      -1.065   0.203   0.279  1.00  0.00     0.152 A 
HETATM   14  C10 UNL     1      -0.965  -1.145   0.011  1.00  0.00     0.160 A 
HETATM   15  N2  UNL     1       0.295  -1.686   0.076  1.00  0.00    -0.337 N 
HETATM   16  C9  UNL     1       1.368  -0.967   0.379  1.00  0.00     0.060 A 
ATOM     17  H2  UNL     1       0.411  -2.681  -0.116  1.00  0.00     0.167 HD
HETATM   18  C8  UNL     1       2.608  -1.623   0.417  1.00  0.00     0.032 A 
HETATM   19  C28 UNL     1       1.237   0.379   0.642  1.00  0.00     0.061 A 
HETATM   20  C7  UNL     1       3.704  -0.863   0.731  1.00  0.00     0.011 A 
HETATM   21  C6  UNL     1       3.594   0.485   0.997  1.00  0.00    -0.038 A 
HETATM   22  C29 UNL     1       2.369   1.116   0.956  1.00  0.00     0.040 A 
HETATM   23  N6  UNL     1       0.022   0.946   0.589  1.00  0.00    -0.337 N 
ATOM     24  H6  UNL     1      -0.082   1.942   0.783  1.00  0.00     0.167 HD
BRANCH  14  25
HETATM   25  N3  UNL     1      -1.872  -1.952  -0.284  1.00  0.00    -0.263 N 
ATOM     26  H3  UNL     1      -1.518  -2.898  -0.429  1.00  0.00     0.180 HD
BRANCH  25  27
HETATM   27  S1  UNL     1      -3.531  -1.852  -0.498  1.00  0.00     0.264 S 
HETATM   28  O1  UNL     1      -3.926  -0.865  -1.591  1.00  0.00    -0.200 OA
HETATM   29  O2  UNL     1      -4.246  -1.366   0.757  1.00  0.00    -0.200 OA
BRANCH  27  30
HETATM   30  C11 UNL     1      -4.241  -3.382  -0.969  1.00  0.00     0.085 A 
HETATM   31  C12 UNL     1      -3.422  -4.474  -1.122  1.00  0.00     0.026 A 
HETATM   32  C13 UNL     1      -3.927  -5.716  -1.497  1.00  0.00     0.002 A 
HETATM   33  C14 UNL     1      -5.290  -5.831  -1.714  1.00  0.00     0.001 A 
HETATM   34  C15 UNL     1      -6.103  -4.727  -1.556  1.00  0.00     0.008 A 
HETATM   35  C16 UNL     1      -5.579  -3.478  -1.177  1.00  0.00    -0.039 A 
HETATM   36  C17 UNL     1      -6.483  -2.316  -1.015  1.00  0.00     0.050 C 
ENDBRANCH  27  30
ENDBRANCH  25  27
ENDBRANCH  14  25
BRANCH  21  37
HETATM   37  C5  UNL     1       4.852   1.236   1.331  1.00  0.00     0.160 C 
BRANCH  37  38
HETATM   38  N1  UNL     1       5.905   0.779   0.483  1.00  0.00    -0.390 N 
BRANCH  38  39
HETATM   39  C2  UNL     1       5.696   0.957  -0.900  1.00  0.00     0.054 C 
HETATM   40  C1  UNL     1       6.276  -0.104  -1.798  1.00  0.00     0.054 C 
ENDBRANCH  38  39
BRANCH  38  41
HETATM   41  C3  UNL     1       7.225   0.933   0.959  1.00  0.00     0.118 C 
HETATM   42  C4  UNL     1       8.216  -0.125   0.552  1.00  0.00     0.026 C 
ENDBRANCH  38  41
ENDBRANCH  37  38
ENDBRANCH  21  37
ENDBRANCH  11  13
ENDBRANCH   1  11
TORSDOF 9
