REMARK  0 active torsions:
REMARK  status: ('A' for Active; 'I' for Inactive)
ROOT
HETATM    1  C1  UNL     1      -3.108  -1.141  -0.421  1.00  0.00     0.015 C 
HETATM    2  C2  UNL     1      -1.954  -0.148  -0.072  1.00  0.00    -0.043 C 
HETATM    3  C3  UNL     1      -2.726   0.654   1.019  1.00  0.00     0.015 C 
HETATM    4  C4  UNL     1      -1.932   0.793  -1.208  1.00  0.00     0.009 C 
HETATM    5  C5  UNL     1      -1.758   2.253  -0.872  1.00  0.00     0.001 C 
HETATM    6  C6  UNL     1      -0.456   2.705  -0.407  1.00  0.00     0.000 C 
HETATM    7  C7  UNL     1       0.645   1.812  -0.868  1.00  0.00     0.007 C 
HETATM    8  C8  UNL     1       1.082   0.873   0.248  1.00  0.00     0.018 C 
HETATM    9  C9  UNL     1       2.522   1.141   0.409  1.00  0.00     0.142 C 
HETATM   10  N1  UNL     1       3.440   0.584  -0.539  1.00  0.00    -0.092 NA
HETATM   11  O1  UNL     1       4.387   0.614   0.457  1.00  0.00    -0.279 OA
HETATM   12  C10 UNL     1       3.313   0.363   1.345  1.00  0.00     0.169 C 
HETATM   13  C11 UNL     1       2.878  -1.060   1.180  1.00  0.00     0.036 C 
HETATM   14  C12 UNL     1       1.413  -1.274   1.221  1.00  0.00     0.013 C 
HETATM   15  C13 UNL     1       0.612  -0.506   0.160  1.00  0.00    -0.031 C 
HETATM   16  C14 UNL     1       0.852  -1.276  -1.082  1.00  0.00     0.010 C 
HETATM   17  C15 UNL     1       0.109  -2.574  -0.787  1.00  0.00     0.001 C 
HETATM   18  C16 UNL     1      -0.826  -2.306   0.358  1.00  0.00     0.006 C 
HETATM   19  C17 UNL     1      -0.812  -0.777   0.501  1.00  0.00     0.002 C 
ENDROOT
TORSDOF 0
