REMARK  1 active torsions:
REMARK  status: ('A' for Active; 'I' for Inactive)
REMARK    1  A    between atoms: C3_5  and  C4_6 
ROOT
HETATM    1  C1  UNL     1      -1.532   3.439  -1.395  1.00  0.00     0.062 C 
HETATM    2  C2  UNL     1      -1.213   2.014  -1.104  1.00  0.00    -0.021 C 
HETATM    3  N1  UNL     1      -1.985   1.245  -0.468  1.00  0.00    -0.391 N 
ATOM      4  H1  UNL     1      -2.894   1.516  -0.093  1.00  0.00     0.159 HD
HETATM    5  C3  UNL     1      -1.402  -0.081  -0.343  1.00  0.00     0.097 C 
HETATM    6  C8  UNL     1       0.037   0.205  -0.323  1.00  0.00    -0.011 C 
HETATM    7  C9  UNL     1       0.525   0.973   0.843  1.00  0.00     0.015 C 
HETATM    8  C10 UNL     1       2.002   1.277   0.805  1.00  0.00     0.033 C 
HETATM    9  C11 UNL     1       2.808   0.204   1.523  1.00  0.00     0.121 C 
HETATM   10  C12 UNL     1       2.106  -1.125   1.422  1.00  0.00     0.039 C 
HETATM   11  C13 UNL     1       2.082  -1.313  -0.057  1.00  0.00     0.016 C 
HETATM   12  C14 UNL     1       3.380  -0.657  -0.463  1.00  0.00     0.173 C 
HETATM   13  O1  UNL     1       3.918  -0.050   0.680  1.00  0.00    -0.385 OA
HETATM   14  C15 UNL     1       0.897  -0.911  -0.802  1.00  0.00    -0.002 C 
HETATM   15  C16 UNL     1       1.329  -0.742  -2.271  1.00  0.00     0.011 C 
HETATM   16  C17 UNL     1       0.013   1.239  -1.483  1.00  0.00     0.063 C 
ENDROOT
BRANCH   5  17
HETATM   17  C4  UNL     1      -2.127  -0.815   0.663  1.00  0.00    -0.030 C 
HETATM   18  C5  UNL     1      -2.176  -0.267   2.061  1.00  0.00     0.016 C 
HETATM   19  C6  UNL     1      -3.611  -0.803   0.210  1.00  0.00     0.016 C 
HETATM   20  C7  UNL     1      -1.826  -2.293   0.772  1.00  0.00     0.016 C 
ENDBRANCH   5  17
TORSDOF 1
