REMARK  4 active torsions:
REMARK  status: ('A' for Active; 'I' for Inactive)
REMARK    1  A    between atoms: C2_2  and  N1_4 
REMARK    2  A    between atoms: N1_4  and  C4_6 
REMARK    3  A    between atoms: C4_6  and  N2_8 
REMARK    4  A    between atoms: N2_8  and  C5_10 
ROOT
HETATM    1  N2  UNL     1       0.260   0.312   0.030  1.00  0.00    -0.363 N 
ATOM      2  H2  UNL     1       0.885   1.118   0.024  1.00  0.00     0.162 HD
ENDROOT
BRANCH   1   3
HETATM    3  C4  UNL     1       0.835  -0.914   0.374  1.00  0.00     0.168 C 
HETATM    4  S1  UNL     1      -0.052  -2.285   0.428  1.00  0.00    -0.041 SA
BRANCH   3   5
HETATM    5  N1  UNL     1       2.207  -1.041   0.692  1.00  0.00    -0.363 N 
ATOM      6  H1  UNL     1       2.554  -1.967   0.944  1.00  0.00     0.162 HD
BRANCH   5   7
HETATM    7  C2  UNL     1       3.142   0.043   0.684  1.00  0.00     0.075 C 
HETATM    8  C1  UNL     1       4.486  -0.403   1.235  1.00  0.00     0.032 C 
HETATM    9  C3  UNL     1       3.308   0.549  -0.735  1.00  0.00     0.032 C 
ENDBRANCH   5   7
ENDBRANCH   3   5
ENDBRANCH   1   3
BRANCH   1  10
HETATM   10  C5  UNL     1      -1.108   0.565  -0.315  1.00  0.00     0.083 C 
HETATM   11  C6  UNL     1      -1.629  -0.199  -1.492  1.00  0.00     0.025 C 
HETATM   12  C7  UNL     1      -3.012   0.381  -1.804  1.00  0.00     0.002 C 
HETATM   13  C8  UNL     1      -3.904   0.397  -0.607  1.00  0.00     0.000 C 
HETATM   14  C9  UNL     1      -3.272  -0.433   0.487  1.00  0.00     0.002 C 
HETATM   15  C10 UNL     1      -1.976   0.271   0.889  1.00  0.00     0.025 C 
ENDBRANCH   1  10
TORSDOF 4
