REMARK  3 active torsions:
REMARK  status: ('A' for Active; 'I' for Inactive)
REMARK    1  A    between atoms: C1_4  and  C2_5 
REMARK    2  A    between atoms: C2_5  and  C3_6 
REMARK    3  A    between atoms: C3_6  and  N2_7 
ROOT
HETATM    1  N2  UNL     1       1.331  -1.085   0.218  1.00  0.00     0.094 N 
HETATM    2  C4  UNL     1       0.867  -1.071  -1.185  1.00  0.00     0.280 C 
HETATM    3  C5  UNL     1      -0.263  -0.230  -0.658  1.00  0.00     0.051 C 
HETATM    4  C6  UNL     1      -1.602  -0.322  -1.262  1.00  0.00    -0.006 C 
HETATM    5  C7  UNL     1      -2.169   1.103  -1.347  1.00  0.00     0.005 C 
HETATM    6  C8  UNL     1      -3.197   1.242  -0.273  1.00  0.00     0.005 C 
HETATM    7  C9  UNL     1      -2.836   0.078   0.667  1.00  0.00    -0.014 C 
HETATM    8  C10 UNL     1      -1.705   0.515   1.481  1.00  0.00     0.007 C 
HETATM    9  C11 UNL     1      -0.589  -0.433   1.720  1.00  0.00     0.036 C 
HETATM   10  C12 UNL     1      -0.042  -1.115   0.552  1.00  0.00     0.229 C 
HETATM   11  C13 UNL     1      -2.616  -0.961  -0.375  1.00  0.00     0.010 C 
ENDROOT
BRANCH   1  12
HETATM   12  C3  UNL     1       2.176  -0.023   0.588  1.00  0.00     0.278 C 
BRANCH  12  13
HETATM   13  C2  UNL     1       3.515  -0.206  -0.141  1.00  0.00     0.074 C 
BRANCH  13  14
HETATM   14  C1  UNL     1       4.459   0.908   0.194  1.00  0.00     0.054 C 
HETATM   15  N1  UNL     1       5.702   0.667   0.047  1.00  0.00    -0.411 N 
ATOM     16  H12 UNL     1       6.022  -0.244  -0.283  1.00  0.00     0.155 HD
ATOM     17  H11 UNL     1       6.345   1.425   0.275  1.00  0.00     0.155 HD
ENDBRANCH  13  14
ENDBRANCH  12  13
ENDBRANCH   1  12
TORSDOF 3
