REMARK  0 active torsions:
REMARK  status: ('A' for Active; 'I' for Inactive)
ROOT
HETATM    1  C1  UNL     1       0.724   2.541  -1.381  1.00  0.00     0.071 C 
HETATM    2  C2  UNL     1       0.384   1.284  -0.620  1.00  0.00     0.322 C 
HETATM    3  N1  UNL     1      -0.891   0.722  -1.000  1.00  0.00    -0.024 N 
ATOM      4  H11 UNL     1      -0.896   0.363  -1.955  1.00  0.00     0.283 HD
ATOM      5  H12 UNL     1      -1.616   1.430  -1.117  1.00  0.00     0.283 HD
HETATM    6  C3  UNL     1      -1.240  -0.277  -0.028  1.00  0.00     0.191 C 
HETATM    7  C4  UNL     1      -2.347  -1.134  -0.660  1.00  0.00     0.070 C 
HETATM    8  C5  UNL     1      -1.904   0.337   1.205  1.00  0.00     0.070 C 
HETATM    9  N2  UNL     1      -0.193  -1.117   0.394  1.00  0.00    -0.361 N 
ATOM     10  H2  UNL     1      -0.390  -2.011   0.844  1.00  0.00     0.158 HD
HETATM   11  C6  UNL     1       1.132  -0.694   0.181  1.00  0.00     0.127 C 
HETATM   12  C7  UNL     1       1.838  -0.241   1.467  1.00  0.00     0.070 C 
HETATM   13  C8  UNL     1       1.946  -1.913  -0.284  1.00  0.00     0.070 C 
HETATM   14  O1  UNL     1       1.328   0.289  -0.749  1.00  0.00    -0.330 OA
ENDROOT
TORSDOF 0
