REMARK  2 active torsions:
REMARK  status: ('A' for Active; 'I' for Inactive)
REMARK    1  A    between atoms: N1_1  and  C1_5 
REMARK    2  A    between atoms: C1_5  and  C10_14 
ROOT
HETATM    1  C1  UNL     1       0.686   1.065   0.139  1.00  0.00     0.128 C 
HETATM    2  C2  UNL     1       1.876   0.327   0.651  1.00  0.00     0.039 C 
HETATM    3  C3  UNL     1       2.019  -0.966  -0.102  1.00  0.00     0.007 C 
HETATM    4  C4  UNL     1       0.585  -1.464  -0.342  1.00  0.00    -0.010 C 
HETATM    5  C5  UNL     1       0.047  -1.583   1.052  1.00  0.00     0.010 C 
HETATM    6  C6  UNL     1      -0.989  -0.522   1.230  1.00  0.00    -0.007 C 
HETATM    7  C7  UNL     1      -2.111  -1.005   0.285  1.00  0.00     0.010 C 
HETATM    8  C8  UNL     1      -1.581  -0.250  -0.952  1.00  0.00    -0.009 C 
HETATM    9  C9  UNL     1      -1.679   1.125  -0.257  1.00  0.00     0.012 C 
HETATM   10  C10 UNL     1      -0.600   0.844   0.807  1.00  0.00     0.026 C 
HETATM   11  C11 UNL     1      -0.177  -0.614  -1.280  1.00  0.00    -0.004 C 
HETATM   12  C12 UNL     1       0.609   0.708  -1.357  1.00  0.00     0.044 C 
ENDROOT
BRANCH   1  13
HETATM   13  N1  UNL     1       0.982   2.503   0.203  1.00  0.00    -0.070 N 
ATOM     14  H13 UNL     1       1.264   2.807   1.135  1.00  0.00     0.275 HD
ATOM     15  H12 UNL     1       1.841   2.751  -0.287  1.00  0.00     0.275 HD
ATOM     16  H11 UNL     1       0.168   3.008  -0.147  1.00  0.00     0.275 HD
ENDBRANCH   1  13
TORSDOF 2
