REMARK  2 active torsions:
REMARK  status: ('A' for Active; 'I' for Inactive)
REMARK    1  A    between atoms: C7_7  and  C8_8 
REMARK    2  A    between atoms: C12_12  and  N1_13 
ROOT
HETATM    1  C1  UNL     1      -3.394   1.658  -0.259  1.00  0.00     0.013 C 
HETATM    2  C2  UNL     1      -2.449   0.899  -0.188  1.00  0.00    -0.105 C 
HETATM    3  C3  UNL     1      -1.308  -0.004  -0.123  1.00  0.00     0.052 C 
HETATM    4  C4  UNL     1      -1.304  -0.991  -1.228  1.00  0.00     0.025 C 
HETATM    5  C5  UNL     1      -0.017  -1.601  -1.588  1.00  0.00     0.003 C 
HETATM    6  C6  UNL     1       1.209  -0.969  -1.057  1.00  0.00     0.016 C 
HETATM    7  C7  UNL     1       0.968  -0.215   0.236  1.00  0.00     0.006 C 
HETATM    8  C10 UNL     1       0.263  -1.129   1.217  1.00  0.00     0.017 C 
HETATM    9  C11 UNL     1      -1.181  -0.660   1.237  1.00  0.00     0.026 C 
HETATM   10  C12 UNL     1      -0.037   0.859  -0.098  1.00  0.00     0.216 C 
ENDROOT
BRANCH  10  11
HETATM   11  N1  UNL     1      -0.226   1.817   0.940  1.00  0.00    -0.072 N 
ATOM     12  H13 UNL     1      -1.083   2.361   0.839  1.00  0.00     0.274 HD
ATOM     13  H12 UNL     1      -0.449   1.398   1.843  1.00  0.00     0.274 HD
ATOM     14  H11 UNL     1       0.618   2.390   0.957  1.00  0.00     0.274 HD
ENDBRANCH  10  11
BRANCH   7  15
HETATM   15  C8  UNL     1       2.234   0.319   0.789  1.00  0.00    -0.025 C 
HETATM   16  C9  UNL     1       2.775   1.464   0.457  1.00  0.00     0.008 C 
ENDBRANCH   7  15
TORSDOF 2
