REMARK  1 active torsions:
REMARK  status: ('A' for Active; 'I' for Inactive)
REMARK    1  A    between atoms: C3_3  and  C4_4 
ROOT
HETATM    1  C4  UNL     1       1.096  -0.182  -0.024  1.00  0.00    -0.010 C 
HETATM    2  C5  UNL     1       0.518  -1.114   0.986  1.00  0.00     0.005 C 
HETATM    3  C6  UNL     1      -0.950  -1.266   0.991  1.00  0.00     0.007 C 
HETATM    4  C7  UNL     1      -1.740  -0.119   0.524  1.00  0.00     0.017 C 
HETATM    5  C8  UNL     1      -3.118  -0.378   0.065  1.00  0.00     0.237 C 
HETATM    6  N1  UNL     1      -3.431   0.822  -0.725  1.00  0.00    -0.074 N 
ATOM      7  H11 UNL     1      -3.980   1.511  -0.211  1.00  0.00     0.277 HD
ATOM      8  H12 UNL     1      -4.107   0.650  -1.469  1.00  0.00     0.277 HD
HETATM    9  C9  UNL     1      -2.164   1.343  -1.210  1.00  0.00     0.237 C 
HETATM   10  C10 UNL     1      -1.105   0.397  -0.781  1.00  0.00     0.017 C 
HETATM   11  C11 UNL     1       0.191   0.991  -0.358  1.00  0.00     0.011 C 
ENDROOT
BRANCH   1  12
HETATM   12  C3  UNL     1       2.417   0.398   0.417  1.00  0.00    -0.010 A 
HETATM   13  C1  UNL     1       3.573  -0.483   0.705  1.00  0.00     0.005 A 
HETATM   14  C2  UNL     1       3.536   0.297  -0.598  1.00  0.00     0.005 A 
ENDBRANCH   1  12
TORSDOF 1
