REMARK  3 active torsions:
REMARK  status: ('A' for Active; 'I' for Inactive)
REMARK    1  A    between atoms: C1_2  and  C2_3 
REMARK       I    between atoms: C1_2  and  N1_5 
REMARK    2  A    between atoms: N1_5  and  C3_7 
REMARK    3  A    between atoms: C3_7  and  C4_8 
ROOT
HETATM    1  C3  UNL     1       0.698  -0.573   0.715  1.00  0.00     0.043 C 
HETATM    2  C5  UNL     1       0.103   0.525   1.574  1.00  0.00     0.032 C 
HETATM    3  C6  UNL     1      -0.521   1.401   0.499  1.00  0.00     0.012 C 
HETATM    4  C7  UNL     1      -1.344   0.362  -0.231  1.00  0.00    -0.038 C 
HETATM    5  C8  UNL     1      -2.034   0.795  -1.462  1.00  0.00     0.010 C 
HETATM    6  C9  UNL     1      -3.245   1.139  -0.613  1.00  0.00     0.002 C 
HETATM    7  C10 UNL     1      -2.684   0.204   0.442  1.00  0.00     0.010 C 
HETATM    8  C11 UNL     1      -0.460  -0.819  -0.261  1.00  0.00     0.041 C 
ENDROOT
BRANCH   1   9
HETATM    9  N1  UNL     1       1.830  -0.041   0.031  1.00  0.00    -0.349 N 
HETATM   10  C1  UNL     1       2.600  -0.710  -0.959  1.00  0.00     0.246 C 
HETATM   11  O1  UNL     1       2.260  -1.877  -1.269  1.00  0.00    -0.271 OA
ATOM     12  H1  UNL     1       2.114   0.908   0.275  1.00  0.00     0.163 HD
BRANCH  10  13
HETATM   13  C2  UNL     1       3.764  -0.084  -1.620  1.00  0.00     0.324 C 
HETATM   14  F1  UNL     1       3.448   0.601  -2.754  1.00  0.00    -0.246 F 
ENDBRANCH  10  13
ENDBRANCH   1   9
BRANCH   1  15
HETATM   15  C4  UNL     1       0.989  -1.813   1.525  1.00  0.00     0.116 C 
HETATM   16 BR1  UNL     1      -0.612  -2.436   2.404  1.00  0.00    -0.094 Br
ENDBRANCH   1  15
TORSDOF 3
