REMARK  4 active torsions:
REMARK  status: ('A' for Active; 'I' for Inactive)
REMARK    1  A    between atoms: C1_2  and  C2_3 
REMARK    2  A    between atoms: C2_3  and  C3_4 
REMARK    3  A    between atoms: C3_4  and  C4_5 
REMARK    4  A    between atoms: C4_5  and  C5_6 
ROOT
HETATM    1  C5  UNL     1      -0.706   0.143  -0.343  1.00  0.00    -0.002 C 
HETATM    2  C6  UNL     1      -1.367   1.460  -0.102  1.00  0.00     0.243 C 
HETATM    3  N1  UNL     1      -2.667   1.113   0.488  1.00  0.00    -0.070 N 
ATOM      4  H11 UNL     1      -3.460   1.479  -0.039  1.00  0.00     0.277 HD
ATOM      5  H12 UNL     1      -2.857   1.604   1.361  1.00  0.00     0.277 HD
HETATM    6  C7  UNL     1      -2.688  -0.330   0.626  1.00  0.00     0.188 C 
HETATM    7  C8  UNL     1      -2.829  -0.910  -0.743  1.00  0.00     0.049 C 
HETATM    8  C9  UNL     1      -1.469  -0.609  -1.395  1.00  0.00     0.070 C 
HETATM    9 BR1  UNL     1      -0.542  -2.219  -1.837  1.00  0.00    -0.090 Br
HETATM   10  C10 UNL     1      -1.198  -0.613   0.906  1.00  0.00     0.045 C 
ENDROOT
BRANCH   1  11
HETATM   11  C4  UNL     1       0.757   0.139  -0.489  1.00  0.00     0.012 C 
BRANCH  11  12
HETATM   12  C3  UNL     1       1.523   0.648   0.681  1.00  0.00     0.002 C 
BRANCH  12  13
HETATM   13  C2  UNL     1       2.996   0.587   0.382  1.00  0.00     0.015 C 
BRANCH  13  14
HETATM   14  C1  UNL     1       3.514  -0.779   0.092  1.00  0.00     0.114 C 
HETATM   15 CL1  UNL     1       5.281  -0.664  -0.234  1.00  0.00    -0.130 Cl
ENDBRANCH  13  14
ENDBRANCH  12  13
ENDBRANCH  11  12
ENDBRANCH   1  11
TORSDOF 4
