REMARK  13 active torsions:
REMARK  status: ('A' for Active; 'I' for Inactive)
REMARK    1  A    between atoms: C2_2  and  C3_3 
REMARK    2  A    between atoms: C3_3  and  C4_4 
REMARK    3  A    between atoms: C4_4  and  O2_6 
REMARK    4  A    between atoms: O2_6  and  C5_7 
REMARK    5  A    between atoms: C14_18  and  O5_19 
REMARK    6  A    between atoms: O5_19  and  C15_20 
REMARK    7  A    between atoms: C15_20  and  C16_21 
REMARK    8  A    between atoms: C16_21  and  O6_22 
REMARK    9  A    between atoms: C16_21  and  C17_24 
REMARK   10  A    between atoms: C17_24  and  C18_25 
REMARK   11  A    between atoms: C18_25  and  C19_26 
REMARK   12  A    between atoms: C19_26  and  C21_28 
REMARK   13  A    between atoms: C21_28  and  C23_30 
ROOT
HETATM    1  C5  UNL     1      -3.594   0.287   0.256  1.00  0.00     0.152 C 
HETATM    2  C6  UNL     1      -4.943   0.788   0.814  1.00  0.00    -0.017 C 
HETATM    3  C7  UNL     1      -5.234   0.245   2.173  1.00  0.00     0.018 C 
HETATM    4  C8  UNL     1      -6.077   0.316  -0.095  1.00  0.00     0.018 C 
HETATM    5  C9  UNL     1      -4.819   2.276   0.846  1.00  0.00     0.051 C 
HETATM    6  C10 UNL     1      -3.503   2.603   0.156  1.00  0.00     0.086 C 
HETATM    7  O3  UNL     1      -2.943   3.756   0.787  1.00  0.00    -0.303 OA
HETATM    8  C11 UNL     1      -1.621   4.236   0.646  1.00  0.00     0.318 C 
HETATM    9  O4  UNL     1      -1.461   5.477   0.669  1.00  0.00    -0.257 OA
HETATM   10  C12 UNL     1      -0.427   3.449   0.478  1.00  0.00     0.151 C 
HETATM   11  C13 UNL     1      -0.326   2.162   0.077  1.00  0.00     0.003 C 
HETATM   12  C14 UNL     1       1.104   1.808   0.071  1.00  0.00     0.188 C 
HETATM   13  C25 UNL     1       1.750   3.197  -0.129  1.00  0.00     0.091 C 
HETATM   14  C26 UNL     1       3.170   3.248   0.280  1.00  0.00     0.049 C 
HETATM   15  C27 UNL     1       1.553   3.706  -1.531  1.00  0.00     0.049 C 
HETATM   16  O7  UNL     1       0.858   3.938   0.715  1.00  0.00    -0.332 OA
HETATM   17  C28 UNL     1      -1.411   1.253  -0.318  1.00  0.00     0.103 C 
HETATM   18  C29 UNL     1      -1.782   1.415  -1.754  1.00  0.00     0.136 C 
HETATM   19  O8  UNL     1      -1.227   0.679  -2.557  1.00  0.00    -0.297 OA
HETATM   20  C30 UNL     1      -2.753   2.387  -2.246  1.00  0.00     0.086 C 
HETATM   21  C31 UNL     1      -3.733   2.895  -1.280  1.00  0.00     0.025 C 
HETATM   22  C32 UNL     1      -3.825   4.424  -1.435  1.00  0.00     0.013 C 
HETATM   23  C33 UNL     1      -2.661   1.435   0.478  1.00  0.00     0.030 C 
HETATM   24  C34 UNL     1      -2.288   1.426   1.946  1.00  0.00     0.022 C 
ENDROOT
BRANCH  12  25
HETATM   25  O5  UNL     1       1.555   1.242   1.222  1.00  0.00    -0.376 OA
BRANCH  25  26
HETATM   26  C15 UNL     1       2.363   0.174   1.213  1.00  0.00     0.200 C 
BRANCH  26  27
HETATM   27  C16 UNL     1       1.774  -1.080   0.615  1.00  0.00     0.142 C 
BRANCH  27  28
HETATM   28  O6  UNL     1       0.614  -1.460   1.337  1.00  0.00    -0.393 OA
ATOM     29  H6  UNL     1       0.243  -2.249   0.961  1.00  0.00     0.210 HD
ENDBRANCH  27  28
BRANCH  27  30
HETATM   30  C17 UNL     1       2.754  -2.254   0.693  1.00  0.00     0.034 C 
BRANCH  30  31
HETATM   31  C18 UNL     1       4.034  -2.019  -0.030  1.00  0.00     0.007 C 
BRANCH  31  32
HETATM   32  C19 UNL     1       4.937  -3.237   0.080  1.00  0.00    -0.015 C 
HETATM   33  C20 UNL     1       5.261  -3.533   1.536  1.00  0.00     0.010 C 
BRANCH  32  34
HETATM   34  C21 UNL     1       6.223  -2.969  -0.643  1.00  0.00    -0.015 C 
HETATM   35  C22 UNL     1       6.007  -2.661  -2.101  1.00  0.00     0.010 C 
BRANCH  34  36
HETATM   36  C23 UNL     1       7.079  -1.909  -0.006  1.00  0.00    -0.000 C 
HETATM   37  C24 UNL     1       8.336  -1.726  -0.808  1.00  0.00     0.005 C 
ENDBRANCH  34  36
ENDBRANCH  32  34
ENDBRANCH  31  32
ENDBRANCH  30  31
ENDBRANCH  27  30
ENDBRANCH  26  27
ENDBRANCH  25  26
ENDBRANCH  12  25
BRANCH   1  38
HETATM   38  O2  UNL     1      -3.217  -0.912   0.905  1.00  0.00    -0.314 OA
BRANCH  38  39
HETATM   39  C4  UNL     1      -3.145  -2.127   0.223  1.00  0.00     0.259 C 
HETATM   40  O1  UNL     1      -3.445  -2.062  -1.000  1.00  0.00    -0.265 OA
BRANCH  39  41
HETATM   41  C3  UNL     1      -2.767  -3.416   0.787  1.00  0.00     0.111 C 
BRANCH  41  42
HETATM   42  C2  UNL     1      -3.816  -4.070   1.640  1.00  0.00     0.005 C 
HETATM   43  C1  UNL     1      -5.057  -4.276   0.803  1.00  0.00     0.005 C 
ENDBRANCH  41  42
ENDBRANCH  39  41
ENDBRANCH  38  39
ENDBRANCH   1  38
TORSDOF 13
