REMARK  12 active torsions:
REMARK  status: ('A' for Active; 'I' for Inactive)
REMARK    1  A    between atoms: N1_1  and  C1_5 
REMARK    2  A    between atoms: C1_5  and  C2_6 
REMARK    3  A    between atoms: C2_6  and  N2_7 
REMARK    4  A    between atoms: N2_7  and  C3_9 
REMARK    5  A    between atoms: C3_9  and  C4_10 
REMARK    6  A    between atoms: C4_10  and  C5_11 
REMARK    7  A    between atoms: C5_11  and  C6_12 
REMARK    8  A    between atoms: C6_12  and  C7_13 
REMARK    9  A    between atoms: C7_13  and  N3_14 
REMARK   10  A    between atoms: N3_14  and  C8_16 
REMARK   11  A    between atoms: C8_16  and  C9_17 
REMARK   12  A    between atoms: C15_29  and  O3_30 
ROOT
HETATM    1  C8  UNL     1      -1.903   0.143   0.147  1.00  0.00     0.098 C 
ENDROOT
BRANCH   1   2
HETATM    2  N3  UNL     1      -1.221   0.993  -0.747  1.00  0.00    -0.378 N 
ATOM      3  H3  UNL     1      -1.595   1.149  -1.683  1.00  0.00     0.164 HD
BRANCH   2   4
HETATM    4  C7  UNL     1      -0.048   1.617  -0.362  1.00  0.00     0.060 C 
BRANCH   4   5
HETATM    5  C6  UNL     1       1.256   0.910  -0.208  1.00  0.00     0.045 C 
BRANCH   5   6
HETATM    6  C5  UNL     1       1.364  -0.184   0.751  1.00  0.00     0.010 C 
BRANCH   6   7
HETATM    7  C4  UNL     1       2.793  -0.775   0.779  1.00  0.00     0.045 C 
BRANCH   7   8
HETATM    8  C3  UNL     1       3.756   0.251   1.214  1.00  0.00     0.060 C 
BRANCH   8   9
HETATM    9  N2  UNL     1       5.093  -0.048   1.415  1.00  0.00    -0.381 N 
ATOM     10  H2  UNL     1       5.430  -0.090   2.377  1.00  0.00     0.164 HD
BRANCH   9  11
HETATM   11  C2  UNL     1       6.003  -0.294   0.403  1.00  0.00     0.087 C 
BRANCH  11  12
HETATM   12  C1  UNL     1       5.857  -1.558  -0.392  1.00  0.00     0.274 C 
BRANCH  12  13
HETATM   13  N1  UNL     1       7.002  -1.579  -1.333  1.00  0.00    -0.075 N 
ATOM     14  H13 UNL     1       7.072  -0.740  -1.909  1.00  0.00     0.274 HD
ATOM     15  H12 UNL     1       7.909  -1.488  -0.874  1.00  0.00     0.274 HD
ATOM     16  H11 UNL     1       6.903  -2.438  -1.873  1.00  0.00     0.274 HD
ENDBRANCH  12  13
ENDBRANCH  11  12
ENDBRANCH   9  11
ENDBRANCH   8   9
ENDBRANCH   7   8
ENDBRANCH   6   7
ENDBRANCH   5   6
ENDBRANCH   4   5
ENDBRANCH   2   4
ENDBRANCH   1   2
BRANCH   1  17
HETATM   17  C9  UNL     1      -3.264  -0.248  -0.391  1.00  0.00     0.007 A 
HETATM   18  C10 UNL     1      -4.407   0.375  -0.072  1.00  0.00     0.069 A 
HETATM   19  C11 UNL     1      -4.706   1.457   0.758  1.00  0.00     0.262 A 
HETATM   20  C13 UNL     1      -5.481  -0.193  -0.723  1.00  0.00     0.051 A 
HETATM   21  O1  UNL     1      -3.731   1.988   1.358  1.00  0.00    -0.267 OA
HETATM   22  N4  UNL     1      -5.962   1.910   0.908  1.00  0.00    -0.275 N 
HETATM   23  C12 UNL     1      -6.987   1.335   0.260  1.00  0.00     0.327 A 
ATOM     24  H4  UNL     1      -6.139   2.703   1.524  1.00  0.00     0.173 HD
HETATM   25  O2  UNL     1      -8.158   1.805   0.439  1.00  0.00    -0.247 OA
HETATM   26  N5  UNL     1      -6.727   0.293  -0.544  1.00  0.00    -0.308 N 
ATOM     27  H5  UNL     1      -7.501  -0.149  -1.039  1.00  0.00     0.170 HD
HETATM   28  C14 UNL     1      -5.048  -1.205  -1.489  1.00  0.00     0.040 A 
HETATM   29  C15 UNL     1      -3.578  -1.329  -1.352  1.00  0.00     0.178 A 
BRANCH  29  30
HETATM   30  O3  UNL     1      -3.286  -2.561  -0.735  1.00  0.00    -0.387 OA
ATOM     31  H3  UNL     1      -3.488  -3.255  -1.352  1.00  0.00     0.210 HD
ENDBRANCH  29  30
ENDBRANCH   1  17
TORSDOF 12
