REMARK  10 active torsions:
REMARK  status: ('A' for Active; 'I' for Inactive)
REMARK    1  A    between atoms: N1_2  and  C2_3 
REMARK    2  A    between atoms: N1_2  and  O1_13 
REMARK    3  A    between atoms: C2_3  and  C3_4 
REMARK    4  A    between atoms: C3_4  and  C4_5 
REMARK    5  A    between atoms: C5_10  and  C6_11 
REMARK    6  A    between atoms: O1_13  and  C7_14 
REMARK    7  A    between atoms: C7_14  and  C8_15 
REMARK    8  A    between atoms: C8_15  and  O2_16 
REMARK    9  A    between atoms: O2_16  and  C9_17 
REMARK   10  A    between atoms: C11_21  and  C12_22 
ROOT
HETATM    1  C1  UNL     1       0.272   0.774  -2.434  1.00  0.00     0.143 C 
HETATM    2  N1  UNL     1       0.125   0.896  -0.995  1.00  0.00    -0.201 NA
ENDROOT
BRANCH   2   3
HETATM    3  C2  UNL     1      -1.274   1.177  -0.738  1.00  0.00     0.126 C 
BRANCH   3   4
HETATM    4  C3  UNL     1      -2.105  -0.084  -0.684  1.00  0.00     0.077 C 
BRANCH   4   5
HETATM    5  C4  UNL     1      -3.519   0.346  -0.414  1.00  0.00     0.051 A 
HETATM    6  N2  UNL     1      -4.190   1.497  -0.221  1.00  0.00    -0.303 N 
HETATM    7  N3  UNL     1      -5.312   0.853  -0.075  1.00  0.00    -0.302 N 
ATOM      8  H2  UNL     1      -3.925   2.482  -0.198  1.00  0.00     0.186 HD
HETATM    9  C5  UNL     1      -4.715  -0.337  -0.259  1.00  0.00     0.059 A 
ATOM     10  H3  UNL     1      -6.273   1.141   0.108  1.00  0.00     0.186 HD
BRANCH   9  11
HETATM   11  C6  UNL     1      -5.093  -1.779  -0.294  1.00  0.00     0.146 C 
HETATM   12  S1  UNL     1      -6.865  -1.937  -0.005  1.00  0.00    -0.091 SA
ENDBRANCH   9  11
ENDBRANCH   4   5
ENDBRANCH   3   4
ENDBRANCH   2   3
BRANCH   2  13
HETATM   13  O1  UNL     1       0.566  -0.185  -0.342  1.00  0.00    -0.302 OA
BRANCH  13  14
HETATM   14  C7  UNL     1       0.808   0.089   1.003  1.00  0.00     0.220 C 
BRANCH  14  15
HETATM   15  C8  UNL     1       1.297  -1.136   1.725  1.00  0.00     0.197 C 
BRANCH  15  16
HETATM   16  O2  UNL     1       2.462  -1.674   1.249  1.00  0.00    -0.376 OA
BRANCH  16  17
HETATM   17  C9  UNL     1       3.566  -0.830   1.299  1.00  0.00     0.190 A 
HETATM   18  C10 UNL     1       4.803  -1.426   1.793  1.00  0.00     0.090 A 
HETATM   19  N4  UNL     1       5.395  -1.339   0.679  1.00  0.00    -0.385 N 
HETATM   20  C11 UNL     1       4.297  -0.745   0.008  1.00  0.00     0.204 A 
ATOM     21  H4  UNL     1       6.331  -1.603   0.372  1.00  0.00     0.159 HD
BRANCH  20  22
HETATM   22  C12 UNL     1       4.555   0.628  -0.513  1.00  0.00     0.256 C 
HETATM   23  N5  UNL     1       5.799   1.290  -0.342  1.00  0.00    -0.060 NA
HETATM   24  O3  UNL     1       3.646   1.238  -1.129  1.00  0.00    -0.274 OA
ENDBRANCH  20  22
ENDBRANCH  16  17
ENDBRANCH  15  16
ENDBRANCH  14  15
ENDBRANCH  13  14
ENDBRANCH   2  13
TORSDOF 10
