REMARK  6 active torsions:
REMARK  status: ('A' for Active; 'I' for Inactive)
REMARK    1  A    between atoms: C7_7  and  O1_8 
REMARK    2  A    between atoms: O1_8  and  C8_9 
REMARK    3  A    between atoms: C8_9  and  C9_11 
REMARK       I    between atoms: N1_14  and  C12_15 
REMARK    4  A    between atoms: C12_15  and  C13_17 
REMARK    5  A    between atoms: C13_17  and  C14_18 
REMARK    6  A    between atoms: C14_18  and  C15_19 
ROOT
HETATM    1  C1  UNL     1      -3.313  -1.729  -2.912  1.00  0.00     0.013 C 
HETATM    2  C2  UNL     1      -3.755  -1.206  -1.550  1.00  0.00     0.023 C 
HETATM    3  C3  UNL     1      -2.764  -1.544  -0.526  1.00  0.00    -0.003 C 
HETATM    4  C4  UNL     1      -1.325  -1.462  -1.075  1.00  0.00     0.010 C 
HETATM    5  C5  UNL     1      -0.582  -1.654   0.233  1.00  0.00    -0.007 C 
HETATM    6  C6  UNL     1       0.896  -1.398   0.078  1.00  0.00     0.037 C 
HETATM    7  C7  UNL     1       1.398  -0.659   1.295  1.00  0.00     0.132 C 
HETATM    8  C16 UNL     1       0.828   0.731   1.389  1.00  0.00     0.033 C 
HETATM    9  C17 UNL     1      -0.616   0.741   0.944  1.00  0.00     0.008 C 
HETATM   10  C18 UNL     1      -1.245  -0.627   1.117  1.00  0.00    -0.006 C 
HETATM   11  C19 UNL     1      -2.686  -0.687   0.687  1.00  0.00    -0.005 C 
HETATM   12  C20 UNL     1      -3.300   0.668   0.564  1.00  0.00     0.018 C 
HETATM   13  C21 UNL     1      -4.547   0.707  -0.288  1.00  0.00    -0.002 C 
HETATM   14  C22 UNL     1      -5.629  -0.126   0.316  1.00  0.00     0.013 C 
HETATM   15  C23 UNL     1      -6.510   0.828   1.133  1.00  0.00     0.006 C 
HETATM   16  C24 UNL     1      -6.348   2.161   0.439  1.00  0.00    -0.009 A 
HETATM   17  C25 UNL     1      -6.426   2.223  -1.049  1.00  0.00     0.011 A 
HETATM   18  C26 UNL     1      -5.098   2.112  -0.323  1.00  0.00     0.001 A 
HETATM   19  C27 UNL     1      -4.110   0.247  -1.662  1.00  0.00     0.094 A 
HETATM   20  C28 UNL     1      -3.524   1.178  -2.555  1.00  0.00     0.208 A 
HETATM   21  O6  UNL     1      -4.784   0.663  -2.778  1.00  0.00    -0.374 OA
ENDROOT
BRANCH   7  22
HETATM   22  O1  UNL     1       2.803  -0.667   1.342  1.00  0.00    -0.314 OA
BRANCH  22  23
HETATM   23  C8  UNL     1       3.545  -1.290   2.303  1.00  0.00     0.282 C 
HETATM   24  O2  UNL     1       2.876  -1.901   3.208  1.00  0.00    -0.263 OA
BRANCH  23  25
HETATM   25  C9  UNL     1       5.000  -1.349   2.429  1.00  0.00     0.188 C 
HETATM   26  C10 UNL     1       5.598  -0.412   3.459  1.00  0.00     0.055 C 
HETATM   27  C11 UNL     1       6.776  -0.419   2.508  1.00  0.00     0.129 C 
HETATM   28  N1  UNL     1       5.801  -0.686   1.439  1.00  0.00    -0.338 N 
HETATM   29  C12 UNL     1       5.782  -0.375   0.062  1.00  0.00     0.221 C 
HETATM   30  O3  UNL     1       4.828  -0.724  -0.672  1.00  0.00    -0.273 OA
BRANCH  29  31
HETATM   31  C13 UNL     1       6.914   0.388  -0.568  1.00  0.00     0.113 C 
BRANCH  31  32
HETATM   32  C14 UNL     1       6.628   0.649  -2.026  1.00  0.00     0.122 C 
BRANCH  32  33
HETATM   33  C15 UNL     1       7.726   1.397  -2.681  1.00  0.00     0.172 C 
HETATM   34  O4  UNL     1       8.766   1.766  -2.085  1.00  0.00    -0.648 OA
HETATM   35  O5  UNL     1       7.614   1.715  -4.027  1.00  0.00    -0.648 OA
ENDBRANCH  32  33
ENDBRANCH  31  32
ENDBRANCH  29  31
ENDBRANCH  23  25
ENDBRANCH  22  23
ENDBRANCH   7  22
TORSDOF 6
