REMARK  8 active torsions:
REMARK  status: ('A' for Active; 'I' for Inactive)
REMARK    1  A    between atoms: C7_7  and  O1_8 
REMARK    2  A    between atoms: O1_8  and  C8_9 
REMARK       I    between atoms: C8_9  and  N1_11 
REMARK    3  A    between atoms: N1_11  and  C9_13 
REMARK    4  A    between atoms: C16_20  and  C17_21 
REMARK    5  A    between atoms: C17_21  and  O3_22 
REMARK    6  A    between atoms: C17_21  and  N2_24 
REMARK    7  A    between atoms: N2_24  and  C18_25 
REMARK    8  A    between atoms: N2_24  and  S1_31 
ROOT
HETATM    1  C9  UNL     1       1.076  -0.471  -0.826  1.00  0.00     0.095 C 
HETATM    2  C10 UNL     1       0.536  -1.808  -1.309  1.00  0.00     0.010 C 
HETATM    3  C11 UNL     1       0.626  -2.815  -0.194  1.00  0.00     0.011 C 
HETATM    4  C12 UNL     1      -0.286  -2.356   0.932  1.00  0.00    -0.013 C 
HETATM    5  C13 UNL     1       0.255  -1.055   1.462  1.00  0.00     0.011 C 
HETATM    6  C14 UNL     1       0.192  -0.063   0.319  1.00  0.00     0.010 C 
HETATM    7  C15 UNL     1      -1.253   0.064  -0.091  1.00  0.00     0.024 C 
HETATM    8  C16 UNL     1      -1.834  -1.211  -0.609  1.00  0.00     0.027 C 
HETATM    9  C25 UNL     1      -1.713  -2.273   0.460  1.00  0.00     0.022 C 
HETATM   10  C26 UNL     1      -0.859  -1.585  -1.777  1.00  0.00     0.024 C 
ENDROOT
BRANCH   8  11
HETATM   11  C17 UNL     1      -3.139  -1.151  -1.238  1.00  0.00     0.140 C 
BRANCH  11  12
HETATM   12  O3  UNL     1      -3.155  -1.844  -2.382  1.00  0.00    -0.348 OA
ATOM     13  H3  UNL     1      -4.010  -1.805  -2.794  1.00  0.00     0.219 HD
ENDBRANCH  11  12
BRANCH  11  14
HETATM   14  N2  UNL     1      -4.384  -0.584  -0.988  1.00  0.00    -0.230 N 
BRANCH  14  15
HETATM   15  C18 UNL     1      -4.867   0.275   0.019  1.00  0.00     0.008 C 
HETATM   16  C19 UNL     1      -4.764  -0.179   1.419  1.00  0.00     0.054 C 
HETATM   17  C20 UNL     1      -5.601   0.711   2.345  1.00  0.00     0.006 C 
HETATM   18  C21 UNL     1      -5.191   2.145   2.153  1.00  0.00     0.001 C 
HETATM   19  C22 UNL     1      -5.443   2.547   0.733  1.00  0.00     0.006 C 
HETATM   20  C23 UNL     1      -4.449   1.738  -0.160  1.00  0.00     0.054 C 
ENDBRANCH  14  15
BRANCH  14  21
HETATM   21  S1  UNL     1      -5.732  -1.061  -2.108  1.00  0.00     0.234 S 
HETATM   22  C24 UNL     1      -7.137  -1.536  -1.139  1.00  0.00     0.186 C 
HETATM   23  O4  UNL     1      -6.006   0.097  -3.017  1.00  0.00    -0.205 OA
HETATM   24  O5  UNL     1      -5.327  -2.223  -2.923  1.00  0.00    -0.205 OA
ENDBRANCH  14  21
ENDBRANCH  11  14
ENDBRANCH   8  11
BRANCH   1  25
HETATM   25  N1  UNL     1       2.435  -0.510  -0.401  1.00  0.00    -0.332 N 
HETATM   26  C8  UNL     1       3.449   0.352  -0.935  1.00  0.00     0.361 C 
HETATM   27  O2  UNL     1       3.130   1.184  -1.816  1.00  0.00    -0.238 OA
ATOM     28  H1  UNL     1       2.700  -1.184   0.318  1.00  0.00     0.165 HD
BRANCH  26  29
HETATM   29  O1  UNL     1       4.752   0.317  -0.536  1.00  0.00    -0.298 OA
BRANCH  29  30
HETATM   30  C7  UNL     1       5.805   1.126  -1.007  1.00  0.00     0.141 C 
HETATM   31  C2  UNL     1       6.486   1.697   0.222  1.00  0.00    -0.021 C 
HETATM   32  C1  UNL     1       5.548   2.493   1.095  1.00  0.00     0.017 C 
HETATM   33  C3  UNL     1       7.734   2.479  -0.104  1.00  0.00     0.017 C 
HETATM   34  C4  UNL     1       6.919   0.391   0.904  1.00  0.00     0.011 C 
HETATM   35  C5  UNL     1       7.163  -0.596  -0.248  1.00  0.00     0.003 C 
HETATM   36  C6  UNL     1       6.966   0.236  -1.503  1.00  0.00     0.033 C 
ENDBRANCH  29  30
ENDBRANCH  26  29
ENDBRANCH   1  25
TORSDOF 8
