REMARK  8 active torsions:
REMARK  status: ('A' for Active; 'I' for Inactive)
REMARK    1  A    between atoms: C5_8  and  C6_9 
REMARK    2  A    between atoms: C6_9  and  O2_10 
REMARK    3  A    between atoms: C6_9  and  C7_12 
REMARK    4  A    between atoms: C7_12  and  O3_13 
REMARK    5  A    between atoms: O3_13  and  C8_14 
REMARK    6  A    between atoms: C8_14  and  C9_16 
REMARK    7  A    between atoms: C9_16  and  C10_17 
REMARK    8  A    between atoms: C10_17  and  C11_18 
ROOT
HETATM    1  O3  UNL     1       0.134   1.500   0.492  1.00  0.00    -0.315 OA
ENDROOT
BRANCH   1   2
HETATM    2  C7  UNL     1      -1.276   1.268   0.643  1.00  0.00     0.243 C 
BRANCH   2   3
HETATM    3  C6  UNL     1      -1.750   0.498  -0.496  1.00  0.00     0.078 C 
BRANCH   3   4
HETATM    4  C5  UNL     1      -3.060  -0.083  -0.628  1.00  0.00     0.008 A 
HETATM    5  C4  UNL     1      -3.161  -1.180  -1.531  1.00  0.00     0.089 A 
HETATM    6  C3  UNL     1      -4.347  -1.838  -1.693  1.00  0.00     0.246 A 
HETATM    7  N1  UNL     1      -5.420  -1.444  -0.993  1.00  0.00    -0.327 N 
HETATM    8  O1  UNL     1      -4.431  -2.816  -2.500  1.00  0.00    -0.268 OA
HETATM    9  C2  UNL     1      -5.392  -0.431  -0.138  1.00  0.00     0.015 A 
ATOM     10  H1  UNL     1      -6.298  -1.946  -1.124  1.00  0.00     0.169 HD
HETATM   11  C1  UNL     1      -6.596  -0.010   0.635  1.00  0.00     0.069 C 
HETATM   12  C17 UNL     1      -4.190   0.264   0.048  1.00  0.00    -0.027 A 
HETATM   13  C18 UNL     1      -4.196   1.416   0.960  1.00  0.00     0.051 C 
ENDBRANCH   3   4
BRANCH   3  14
HETATM   14  O2  UNL     1      -0.903   0.319  -1.471  1.00  0.00    -0.362 OA
ATOM     15  H2  UNL     1      -0.038   0.703  -1.384  1.00  0.00     0.217 HD
ENDBRANCH   3  14
ENDBRANCH   2   3
ENDBRANCH   1   2
BRANCH   1  16
HETATM   16  C8  UNL     1       1.069   0.489   0.475  1.00  0.00     0.259 C 
HETATM   17  O4  UNL     1       0.680  -0.696   0.605  1.00  0.00    -0.265 OA
BRANCH  16  18
HETATM   18  C9  UNL     1       2.526   0.726   0.311  1.00  0.00     0.116 C 
BRANCH  18  19
HETATM   19  C10 UNL     1       3.274  -0.576   0.335  1.00  0.00     0.050 C 
BRANCH  19  20
HETATM   20  C11 UNL     1       4.723  -0.430   0.181  1.00  0.00    -0.033 A 
HETATM   21  C12 UNL     1       5.354  -0.707  -1.015  1.00  0.00     0.034 A 
HETATM   22  C13 UNL     1       6.715  -0.574  -1.186  1.00  0.00     0.058 A 
HETATM   23 CL1  UNL     1       7.465  -0.939  -2.736  1.00  0.00    -0.082 Cl
HETATM   24  C14 UNL     1       7.468  -0.148  -0.114  1.00  0.00     0.079 A 
HETATM   25 CL2  UNL     1       9.206   0.043  -0.260  1.00  0.00    -0.081 Cl
HETATM   26  C15 UNL     1       6.897   0.139   1.087  1.00  0.00     0.079 A 
HETATM   27 CL3  UNL     1       7.815   0.687   2.483  1.00  0.00    -0.081 Cl
HETATM   28  C16 UNL     1       5.522  -0.007   1.220  1.00  0.00     0.063 A 
HETATM   29 CL4  UNL     1       4.780   0.352   2.748  1.00  0.00    -0.082 Cl
ENDBRANCH  19  20
ENDBRANCH  18  19
ENDBRANCH  16  18
ENDBRANCH   1  16
TORSDOF 8
