REMARK  6 active torsions:
REMARK  status: ('A' for Active; 'I' for Inactive)
REMARK    1  A    between atoms: N2_7  and  C3_8 
REMARK    2  A    between atoms: C10_16  and  C11_17 
REMARK    3  A    between atoms: C11_17  and  C20_29 
REMARK    4  A    between atoms: C12_18  and  C13_19 
REMARK    5  A    between atoms: C13_19  and  O3_20 
REMARK    6  A    between atoms: O3_20  and  C14_21 
ROOT
HETATM    1  O1  UNL     1       1.548  -1.456   0.717  1.00  0.00    -0.267 OA
HETATM    2  C1  UNL     1       0.379  -1.065   0.511  1.00  0.00     0.263 A 
HETATM    3  N1  UNL     1      -0.616  -1.911   0.920  1.00  0.00    -0.275 N 
ATOM      4  H1  UNL     1      -0.354  -2.796   1.355  1.00  0.00     0.173 HD
HETATM    5  C2  UNL     1      -1.912  -1.633   0.777  1.00  0.00     0.330 A 
HETATM    6  O2  UNL     1      -2.803  -2.434   1.165  1.00  0.00    -0.246 OA
HETATM    7  N2  UNL     1      -2.213  -0.471   0.207  1.00  0.00    -0.284 N 
HETATM    8  C9  UNL     1      -1.279   0.439  -0.235  1.00  0.00     0.126 A 
HETATM    9 CL1  UNL     1      -1.855   1.912  -0.980  1.00  0.00    -0.063 Cl
HETATM   10  C10 UNL     1       0.053   0.160  -0.092  1.00  0.00     0.079 A 
ENDROOT
BRANCH  10  11
HETATM   11  C11 UNL     1       1.117   1.052  -0.606  1.00  0.00    -0.013 C 
HETATM   12  C12 UNL     1       2.351   0.641  -0.830  1.00  0.00     0.010 C 
BRANCH  12  13
HETATM   13  C13 UNL     1       3.508   1.376  -1.334  1.00  0.00     0.204 C 
BRANCH  13  14
HETATM   14  O3  UNL     1       4.607   1.454  -0.495  1.00  0.00    -0.346 OA
BRANCH  14  15
HETATM   15  C14 UNL     1       5.412   0.456  -0.036  1.00  0.00     0.090 A 
HETATM   16  C15 UNL     1       5.328  -0.883  -0.329  1.00  0.00     0.040 A 
HETATM   17  C16 UNL     1       6.189  -1.848   0.175  1.00  0.00     0.026 A 
HETATM   18  C17 UNL     1       7.188  -1.470   1.016  1.00  0.00     0.035 A 
HETATM   19 CL2  UNL     1       8.329  -2.615   1.709  1.00  0.00    -0.084 Cl
HETATM   20  C18 UNL     1       7.317  -0.151   1.341  1.00  0.00     0.050 A 
HETATM   21  C19 UNL     1       6.468   0.795   0.842  1.00  0.00     0.069 A 
HETATM   22 CL3  UNL     1       6.683   2.469   1.293  1.00  0.00    -0.081 Cl
ENDBRANCH  14  15
ENDBRANCH  13  14
ENDBRANCH  12  13
BRANCH  11  23
HETATM   23  C20 UNL     1       0.783   2.498  -0.681  1.00  0.00     0.261 C 
HETATM   24  F1  UNL     1       1.887   3.333  -0.818  1.00  0.00    -0.251 F 
ENDBRANCH  11  23
ENDBRANCH  10  11
BRANCH   7  25
HETATM   25  C3  UNL     1      -3.577  -0.107   0.023  1.00  0.00     0.096 C 
HETATM   26  C4  UNL     1      -4.584  -0.620   0.969  1.00  0.00     0.026 C 
HETATM   27  C5  UNL     1      -5.776   0.357   0.913  1.00  0.00     0.002 C 
HETATM   28  C6  UNL     1      -6.077   0.660  -0.522  1.00  0.00     0.000 C 
HETATM   29  C7  UNL     1      -5.564  -0.387  -1.481  1.00  0.00     0.002 C 
HETATM   30  C8  UNL     1      -4.088  -0.649  -1.311  1.00  0.00     0.026 C 
ENDBRANCH   7  25
TORSDOF 6
