REMARK  18 active torsions:
REMARK  status: ('A' for Active; 'I' for Inactive)
REMARK    1  A    between atoms: N1_1  and  C1_4 
REMARK    2  A    between atoms: C2_7  and  N3_8 
REMARK    3  A    between atoms: C4_10  and  C5_11 
REMARK    4  A    between atoms: C5_11  and  N4_12 
REMARK    5  A    between atoms: C6_16  and  O1_17 
REMARK    6  A    between atoms: C7_19  and  O2_20 
REMARK    7  A    between atoms: C8_22  and  O3_23 
REMARK    8  A    between atoms: N7_34  and  C13_35 
REMARK    9  A    between atoms: C13_35  and  C14_36 
REMARK   10  A    between atoms: C14_36  and  O5_37 
REMARK   11  A    between atoms: C14_36  and  N8_39 
REMARK   12  A    between atoms: N8_39  and  C15_41 
REMARK   13  A    between atoms: C15_41  and  C16_42 
REMARK   14  A    between atoms: C15_41  and  C17_45 
REMARK   15  A    between atoms: C16_42  and  O6_43 
REMARK   16  A    between atoms: C17_45  and  C18_47 
REMARK   17  A    between atoms: C18_47  and  O8_48 
REMARK   18  A    between atoms: C18_47  and  O9_50 
ROOT
HETATM    1  C1  UNL     1       1.646  -2.172   1.619  1.00  0.00     0.144 C 
HETATM    2  N2  UNL     1       2.539  -1.496   0.889  1.00  0.00    -0.175 N 
ATOM      3  H2  UNL     1       3.516  -1.694   1.107  1.00  0.00     0.186 HD
HETATM    4  C2  UNL     1       2.340  -0.583  -0.102  1.00  0.00     0.687 C 
HETATM    5  N5  UNL     1       1.132  -0.274  -0.585  1.00  0.00    -0.154 N 
ATOM      6  H5  UNL     1       1.143   0.045  -1.554  1.00  0.00     0.187 HD
HETATM    7  C9  UNL     1      -0.116  -0.305  -0.025  1.00  0.00     0.289 C 
HETATM    8  O4  UNL     1      -0.962   0.452  -0.506  1.00  0.00    -0.265 OA
HETATM    9  C10 UNL     1      -0.549  -1.089   1.027  1.00  0.00     0.136 A 
HETATM   10  C11 UNL     1       0.292  -1.929   1.775  1.00  0.00     0.110 A 
HETATM   11  N6  UNL     1      -0.480  -2.499   2.714  1.00  0.00    -0.347 N 
ATOM     12  H6  UNL     1      -0.159  -3.164   3.418  1.00  0.00     0.167 HD
HETATM   13  C12 UNL     1      -1.732  -2.060   2.583  1.00  0.00     0.184 A 
HETATM   14  N7  UNL     1      -1.790  -1.178   1.531  1.00  0.00    -0.329 N 
ENDROOT
BRANCH   4  15
HETATM   15  N3  UNL     1       3.475   0.071  -0.650  1.00  0.00    -0.188 N 
HETATM   16  C3  UNL     1       4.040   1.254  -0.026  1.00  0.00     0.153 C 
HETATM   17  C4  UNL     1       5.493   1.044   0.331  1.00  0.00     0.061 C 
HETATM   18  C6  UNL     1       6.168  -0.028  -0.466  1.00  0.00     0.158 C 
HETATM   19  C7  UNL     1       5.600  -0.226  -1.839  1.00  0.00     0.196 C 
HETATM   20  C8  UNL     1       4.120  -0.398  -1.859  1.00  0.00     0.268 C 
BRANCH  17  21
HETATM   21  C5  UNL     1       6.183   2.402   0.172  1.00  0.00     0.238 C 
BRANCH  21  22
HETATM   22  N4  UNL     1       5.531   3.313   1.078  1.00  0.00    -0.079 N 
ATOM     23  H43 UNL     1       4.521   3.358   0.943  1.00  0.00     0.274 HD
ATOM     24  H42 UNL     1       5.519   2.980   2.042  1.00  0.00     0.274 HD
ATOM     25  H41 UNL     1       5.991   4.217   0.972  1.00  0.00     0.274 HD
ENDBRANCH  21  22
ENDBRANCH  17  21
BRANCH  18  26
HETATM   26  O1  UNL     1       6.181  -1.221   0.285  1.00  0.00    -0.392 OA
ATOM     27  H1  UNL     1       6.609  -1.901  -0.221  1.00  0.00     0.210 HD
ENDBRANCH  18  26
BRANCH  19  28
HETATM   28  O2  UNL     1       6.004   0.812  -2.663  1.00  0.00    -0.389 OA
ATOM     29  H2  UNL     1       5.644   0.687  -3.533  1.00  0.00     0.210 HD
ENDBRANCH  19  28
BRANCH  20  30
HETATM   30  O3  UNL     1       3.715  -1.693  -2.181  1.00  0.00    -0.373 OA
ATOM     31  H3  UNL     1       4.138  -2.001  -2.974  1.00  0.00     0.212 HD
ENDBRANCH  20  30
ENDBRANCH   4  15
BRANCH   1  32
HETATM   32  N1  UNL     1       2.059  -3.206   2.287  1.00  0.00    -0.383 N 
ATOM     33  H12 UNL     1       3.057  -3.385   2.172  1.00  0.00     0.157 HD
ATOM     34  H11 UNL     1       1.378  -3.722   2.844  1.00  0.00     0.157 HD
ENDBRANCH   1  32
BRANCH  14  35
HETATM   35  C13 UNL     1      -2.956  -0.504   1.066  1.00  0.00     0.213 C 
BRANCH  35  36
HETATM   36  C14 UNL     1      -3.667  -1.357   0.018  1.00  0.00     0.130 C 
BRANCH  36  37
HETATM   37  O5  UNL     1      -4.102  -2.572   0.467  1.00  0.00    -0.348 OA
ATOM     38  H5  UNL     1      -4.544  -3.103  -0.185  1.00  0.00     0.219 HD
ENDBRANCH  36  37
BRANCH  36  39
HETATM   39  N8  UNL     1      -4.564  -0.625  -0.798  1.00  0.00    -0.359 N 
ATOM     40  H8  UNL     1      -4.427  -0.568  -1.807  1.00  0.00     0.162 HD
BRANCH  39  41
HETATM   41  C15 UNL     1      -5.668   0.032  -0.168  1.00  0.00     0.181 C 
BRANCH  41  42
HETATM   42  C16 UNL     1      -6.621  -0.954   0.482  1.00  0.00     0.197 C 
BRANCH  42  43
HETATM   43  O6  UNL     1      -7.662  -0.248   1.056  1.00  0.00    -0.398 OA
ATOM     44  H6  UNL     1      -8.259  -0.865   1.463  1.00  0.00     0.209 HD
ENDBRANCH  42  43
ENDBRANCH  41  42
BRANCH  41  45
HETATM   45  C17 UNL     1      -6.411   0.730  -1.247  1.00  0.00     0.205 C 
HETATM   46  O7  UNL     1      -6.545   0.128  -2.312  1.00  0.00    -0.290 OA
BRANCH  45  47
HETATM   47  C18 UNL     1      -6.972   2.068  -1.111  1.00  0.00     0.327 C 
BRANCH  47  48
HETATM   48  O8  UNL     1      -7.639   2.478  -2.284  1.00  0.00    -0.365 OA
ATOM     49  H8  UNL     1      -8.005   3.350  -2.195  1.00  0.00     0.213 HD
ENDBRANCH  47  48
BRANCH  47  50
HETATM   50  O9  UNL     1      -7.757   2.309  -0.011  1.00  0.00    -0.365 OA
ATOM     51  H9  UNL     1      -8.123   3.181   0.078  1.00  0.00     0.213 HD
ENDBRANCH  47  50
ENDBRANCH  45  47
ENDBRANCH  41  45
ENDBRANCH  39  41
ENDBRANCH  36  39
ENDBRANCH  35  36
ENDBRANCH  14  35
TORSDOF 18
