REMARK  17 active torsions:
REMARK  status: ('A' for Active; 'I' for Inactive)
REMARK    1  A    between atoms: C2_2  and  O1_3 
REMARK    2  A    between atoms: C2_2  and  C3_5 
REMARK    3  A    between atoms: C3_5  and  N1_6 
REMARK    4  A    between atoms: C3_5  and  C4_10 
REMARK    5  A    between atoms: C4_10  and  C5_11 
REMARK    6  A    between atoms: C4_10  and  C15_43 
REMARK    7  A    between atoms: C5_11  and  C6_13 
REMARK    8  A    between atoms: C6_13  and  N2_14 
REMARK    9  A    between atoms: C6_13  and  C7_18 
REMARK   10  A    between atoms: C7_18  and  C8_19 
REMARK   11  A    between atoms: N5_23  and  C9_24 
REMARK   12  A    between atoms: C9_24  and  C10_25 
REMARK   13  A    between atoms: C11_27  and  O4_28 
REMARK   14  A    between atoms: C12_30  and  O5_31 
REMARK   15  A    between atoms: C13_33  and  N6_34 
REMARK   16  A    between atoms: C14_38  and  O6_39 
REMARK   17  A    between atoms: C17_48  and  N10_49 
ROOT
HETATM    1  C6  UNL     1      -1.357   0.670   0.173  1.00  0.00     0.260 C 
ENDROOT
BRANCH   1   2
HETATM    2  C5  UNL     1      -2.569  -0.012   0.535  1.00  0.00     0.168 C 
HETATM    3  O2  UNL     1      -2.559  -0.446   1.731  1.00  0.00    -0.295 OA
BRANCH   2   4
HETATM    4  C4  UNL     1      -3.851  -0.333  -0.191  1.00  0.00     0.132 C 
BRANCH   4   5
HETATM    5  C3  UNL     1      -4.398  -1.585   0.371  1.00  0.00     0.227 C 
BRANCH   5   6
HETATM    6  C2  UNL     1      -4.884  -1.949   1.662  1.00  0.00     0.145 C 
HETATM    7  C1  UNL     1      -4.750  -3.510   1.782  1.00  0.00     0.041 C 
BRANCH   6   8
HETATM    8  O1  UNL     1      -6.313  -1.812   1.757  1.00  0.00    -0.394 OA
ATOM      9  H1  UNL     1      -6.394  -0.868   1.684  1.00  0.00     0.210 HD
ENDBRANCH   6   8
ENDBRANCH   5   6
BRANCH   5  10
HETATM   10  N1  UNL     1      -5.122  -2.340  -0.670  1.00  0.00    -0.071 N 
ATOM     11  H13 UNL     1      -5.077  -3.347  -0.514  1.00  0.00     0.274 HD
ATOM     12  H12 UNL     1      -6.132  -2.223  -0.594  1.00  0.00     0.274 HD
ATOM     13  H11 UNL     1      -4.775  -2.080  -1.593  1.00  0.00     0.274 HD
ENDBRANCH   5  10
ENDBRANCH   4   5
BRANCH   4  14
HETATM   14  C15 UNL     1      -4.732   0.838  -0.263  1.00  0.00     0.065 A 
HETATM   15  C16 UNL     1      -4.879   1.486  -1.534  1.00  0.00     0.144 A 
HETATM   16  N8  UNL     1      -4.277   0.987  -2.700  1.00  0.00    -0.081 NA
HETATM   17  N9  UNL     1      -5.649   2.583  -1.668  1.00  0.00    -0.178 N 
HETATM   18  C17 UNL     1      -6.306   3.116  -0.636  1.00  0.00     0.680 A 
ATOM     19  H9  UNL     1      -5.732   3.020  -2.586  1.00  0.00     0.185 HD
HETATM   20  N11 UNL     1      -6.180   2.551   0.537  1.00  0.00    -0.156 N 
HETATM   21  C18 UNL     1      -5.413   1.445   0.724  1.00  0.00     0.270 A 
ATOM     22  H11 UNL     1      -6.672   2.953   1.335  1.00  0.00     0.187 HD
HETATM   23  O7  UNL     1      -5.358   0.994   1.935  1.00  0.00    -0.267 OA
BRANCH  18  24
HETATM   24  N10 UNL     1      -7.062   4.176  -0.847  1.00  0.00    -0.234 N 
ATOM     25 2H10 UNL     1      -7.160   4.617  -1.762  1.00  0.00     0.174 HD
ATOM     26 1H10 UNL     1      -7.564   4.583  -0.058  1.00  0.00     0.174 HD
ENDBRANCH  18  24
ENDBRANCH   4  14
ENDBRANCH   2   4
ENDBRANCH   1   2
BRANCH   1  27
HETATM   27  N2  UNL     1      -1.420   1.740  -0.768  1.00  0.00    -0.068 N 
ATOM     28  H23 UNL     1      -1.874   1.404  -1.617  1.00  0.00     0.275 HD
ATOM     29  H22 UNL     1      -2.098   2.427  -0.439  1.00  0.00     0.275 HD
ATOM     30  H21 UNL     1      -0.560   2.224  -1.025  1.00  0.00     0.275 HD
ENDBRANCH   1  27
BRANCH   1  31
HETATM   31  C7  UNL     1      -0.404  -0.384  -0.487  1.00  0.00     0.119 C 
BRANCH  31  32
HETATM   32  C8  UNL     1       0.878   0.261  -0.774  1.00  0.00     0.112 A 
HETATM   33  N3  UNL     1       1.432   0.921  -1.755  1.00  0.00    -0.270 N 
HETATM   34  N4  UNL     1       2.694   1.296  -1.523  1.00  0.00    -0.003 NA
ATOM     35  H3  UNL     1       0.943   1.133  -2.625  1.00  0.00     0.185 HD
HETATM   36  N5  UNL     1       2.934   0.815  -0.287  1.00  0.00    -0.214 N 
HETATM   37  N7  UNL     1       1.886   0.202   0.186  1.00  0.00    -0.273 N 
ATOM     38  H7  UNL     1       1.816  -0.244   1.101  1.00  0.00     0.189 HD
BRANCH  36  39
HETATM   39  C9  UNL     1       4.192   0.972   0.396  1.00  0.00     0.202 C 
BRANCH  39  40
HETATM   40  C10 UNL     1       5.166  -0.181   0.167  1.00  0.00     0.176 C 
HETATM   41  O3  UNL     1       5.552  -0.387  -1.110  1.00  0.00    -0.349 OA
HETATM   42  C11 UNL     1       6.764   0.125  -1.489  1.00  0.00     0.288 C 
HETATM   43  C12 UNL     1       7.844  -0.396  -0.554  1.00  0.00     0.206 C 
HETATM   44  C13 UNL     1       7.579   0.295   0.780  1.00  0.00     0.247 C 
HETATM   45  C14 UNL     1       6.216  -0.124   1.223  1.00  0.00     0.182 C 
BRANCH  42  46
HETATM   46  O4  UNL     1       7.089  -0.317  -2.788  1.00  0.00    -0.369 OA
ATOM     47  H4  UNL     1       7.930   0.038  -3.051  1.00  0.00     0.212 HD
ENDBRANCH  42  46
BRANCH  43  48
HETATM   48  O5  UNL     1       7.677  -1.742  -0.345  1.00  0.00    -0.388 OA
ATOM     49  H5  UNL     1       8.352  -2.068   0.239  1.00  0.00     0.210 HD
ENDBRANCH  43  48
BRANCH  44  50
HETATM   50  N6  UNL     1       8.587  -0.225   1.716  1.00  0.00    -0.070 N 
ATOM     51  H63 UNL     1       8.595  -1.243   1.780  1.00  0.00     0.274 HD
ATOM     52  H62 UNL     1       9.545  -0.114   1.384  1.00  0.00     0.274 HD
ATOM     53  H61 UNL     1       8.410   0.237   2.608  1.00  0.00     0.274 HD
ENDBRANCH  44  50
BRANCH  45  54
HETATM   54  O6  UNL     1       6.335  -1.378   1.871  1.00  0.00    -0.391 OA
ATOM     55  H6  UNL     1       7.004  -1.342   2.544  1.00  0.00     0.210 HD
ENDBRANCH  45  54
ENDBRANCH  39  40
ENDBRANCH  36  39
ENDBRANCH  31  32
ENDBRANCH   1  31
TORSDOF 17
