REMARK  12 active torsions:
REMARK  status: ('A' for Active; 'I' for Inactive)
REMARK    1  A    between atoms: C1_4  and  C2_5 
REMARK    2  A    between atoms: C1_4  and  C13_36 
REMARK    3  A    between atoms: C4_13  and  O1_14 
REMARK    4  A    between atoms: O1_14  and  C5_15 
REMARK    5  A    between atoms: C5_15  and  C6_16 
REMARK    6  A    between atoms: C7_18  and  N4_19 
REMARK    7  A    between atoms: C11_29  and  O5_30 
REMARK    8  A    between atoms: C12_32  and  O6_33 
REMARK    9  A    between atoms: C13_36  and  O8_37 
REMARK   10  A    between atoms: C13_36  and  C14_39 
REMARK   11  A    between atoms: C14_39  and  N7_40 
REMARK   12  A    between atoms: C14_39  and  C16_45 
REMARK       I    between atoms: N7_40  and  C15_42 
ROOT
HETATM    1  C2  UNL     1       1.435  -0.048   0.417  1.00  0.00     0.375 C 
HETATM    2  N2  UNL     1       1.655   0.719   1.624  1.00  0.00    -0.019 N 
ATOM      3  H21 UNL     1       2.217   0.200   2.299  1.00  0.00     0.282 HD
ATOM      4  H22 UNL     1       0.798   0.811   2.170  1.00  0.00     0.282 HD
HETATM    5  C3  UNL     1       2.235   2.004   1.332  1.00  0.00     0.472 C 
HETATM    6  N3  UNL     1       1.518   2.580   0.232  1.00  0.00    -0.001 N 
ATOM      7  H31 UNL     1       2.069   2.600  -0.626  1.00  0.00     0.285 HD
ATOM      8  H32 UNL     1       1.385   3.586   0.336  1.00  0.00     0.285 HD
HETATM    9  C4  UNL     1       0.264   1.867   0.071  1.00  0.00     0.473 C 
HETATM   10  O7  UNL     1       0.591   0.607  -0.440  1.00  0.00    -0.300 OA
ENDROOT
BRANCH   9  11
HETATM   11  O1  UNL     1      -0.619   2.548  -0.723  1.00  0.00    -0.336 OA
BRANCH  11  12
HETATM   12  C5  UNL     1      -1.760   2.854  -0.041  1.00  0.00     0.207 C 
BRANCH  12  13
HETATM   13  C6  UNL     1      -2.557   1.704   0.476  1.00  0.00     0.179 C 
HETATM   14  O2  UNL     1      -2.985   0.846  -0.561  1.00  0.00    -0.353 OA
HETATM   15  C7  UNL     1      -3.940   0.099   0.111  1.00  0.00     0.265 C 
HETATM   16  C11 UNL     1      -4.874   1.200   0.604  1.00  0.00     0.198 C 
HETATM   17  C12 UNL     1      -3.866   2.220   1.092  1.00  0.00     0.182 C 
BRANCH  15  18
HETATM   18  N4  UNL     1      -4.620  -0.850  -0.728  1.00  0.00    -0.266 N 
HETATM   19  C8  UNL     1      -4.692  -0.747  -2.064  1.00  0.00     0.194 A 
HETATM   20  N5  UNL     1      -5.357  -1.699  -2.739  1.00  0.00    -0.304 N 
HETATM   21  C9  UNL     1      -5.947  -2.742  -2.142  1.00  0.00     0.329 A 
ATOM     22  H5  UNL     1      -5.415  -1.624  -3.755  1.00  0.00     0.171 HD
HETATM   23  O3  UNL     1      -6.574  -3.646  -2.749  1.00  0.00    -0.247 OA
HETATM   24  N6  UNL     1      -5.874  -2.848  -0.798  1.00  0.00    -0.260 N 
HETATM   25  C10 UNL     1      -5.210  -1.897  -0.121  1.00  0.00     0.333 A 
ATOM     26  H6  UNL     1      -6.311  -3.629  -0.310  1.00  0.00     0.175 HD
HETATM   27  O4  UNL     1      -5.170  -2.040   1.146  1.00  0.00    -0.246 OA
ENDBRANCH  15  18
BRANCH  16  28
HETATM   28  O5  UNL     1      -5.733   0.767   1.582  1.00  0.00    -0.388 OA
ATOM     29  H5  UNL     1      -6.315   1.453   1.889  1.00  0.00     0.210 HD
ENDBRANCH  16  28
BRANCH  17  30
HETATM   30  O6  UNL     1      -4.167   3.495   0.670  1.00  0.00    -0.390 OA
ATOM     31  H6  UNL     1      -4.977   3.814   1.051  1.00  0.00     0.210 HD
ENDBRANCH  17  30
ENDBRANCH  12  13
ENDBRANCH  11  12
ENDBRANCH   9  11
BRANCH   1  32
HETATM   32  C1  UNL     1       2.697  -0.494  -0.218  1.00  0.00     0.068 C 
HETATM   33  N1  UNL     1       2.962  -0.126  -1.408  1.00  0.00    -0.400 N 
ATOM     34  H12 UNL     1       2.302   0.470  -1.907  1.00  0.00     0.155 HD
ATOM     35  H11 UNL     1       3.831  -0.433  -1.845  1.00  0.00     0.155 HD
BRANCH  32  36
HETATM   36  C13 UNL     1       3.653  -1.358   0.505  1.00  0.00     0.199 C 
BRANCH  36  37
HETATM   37  O8  UNL     1       2.927  -2.522   0.853  1.00  0.00    -0.387 OA
ATOM     38  H8  UNL     1       3.542  -3.078   1.318  1.00  0.00     0.210 HD
ENDBRANCH  36  37
BRANCH  36  39
HETATM   39  C14 UNL     1       4.879  -1.733  -0.249  1.00  0.00     0.211 C 
BRANCH  39  40
HETATM   40  N7  UNL     1       5.614  -0.540  -0.600  1.00  0.00    -0.319 N 
HETATM   41  C15 UNL     1       6.161  -0.290  -1.873  1.00  0.00     0.284 C 
HETATM   42  O9  UNL     1       6.022  -1.143  -2.792  1.00  0.00    -0.630 OA
HETATM   43  O10 UNL     1       6.860   0.890  -2.150  1.00  0.00    -0.630 OA
ATOM     44  H7  UNL     1       5.745   0.168   0.122  1.00  0.00     0.166 HD
ENDBRANCH  39  40
BRANCH  39  45
HETATM   45  C16 UNL     1       5.709  -2.583   0.679  1.00  0.00     0.257 C 
HETATM   46  N8  UNL     1       5.222  -3.807   1.175  1.00  0.00    -0.060 NA
HETATM   47  O11 UNL     1       6.845  -2.188   1.010  1.00  0.00    -0.274 OA
ENDBRANCH  39  45
ENDBRANCH  36  39
ENDBRANCH  32  36
ENDBRANCH   1  32
TORSDOF 12
