REMARK  16 active torsions:
REMARK  status: ('A' for Active; 'I' for Inactive)
REMARK    1  A    between atoms: N3_9  and  C4_10 
REMARK    2  A    between atoms: C5_12  and  C6_13 
REMARK    3  A    between atoms: C6_13  and  O4_14 
REMARK    4  A    between atoms: C7_16  and  C8_17 
REMARK    5  A    between atoms: C8_17  and  O5_18 
REMARK    6  A    between atoms: C8_17  and  C9_20 
REMARK    7  A    between atoms: C9_20  and  O6_21 
REMARK    8  A    between atoms: C9_20  and  C10_23 
REMARK    9  A    between atoms: C10_23  and  O7_24 
REMARK   10  A    between atoms: C10_23  and  C11_26 
REMARK   11  A    between atoms: C11_26  and  N4_27 
REMARK       I    between atoms: N4_27  and  C12_29 
REMARK   12  A    between atoms: C12_29  and  C13_31 
REMARK   13  A    between atoms: C13_31  and  N5_32 
REMARK   14  A    between atoms: C13_31  and  C14_36 
REMARK   15  A    between atoms: C15_39  and  N7_40 
REMARK   16  A    between atoms: C16_48  and  O10_49 
ROOT
HETATM    1  C9  UNL     1      -0.384  -1.258  -0.141  1.00  0.00     0.179 C 
ENDROOT
BRANCH   1   2
HETATM    2  C8  UNL     1       0.395  -0.148   0.546  1.00  0.00     0.181 C 
BRANCH   2   3
HETATM    3  C7  UNL     1       1.790  -0.035  -0.010  1.00  0.00     0.187 C 
HETATM    4  C5  UNL     1       2.553   1.128   0.480  1.00  0.00     0.179 C 
HETATM    5  O3  UNL     1       3.831   1.091  -0.067  1.00  0.00    -0.350 OA
HETATM    6  C4  UNL     1       4.485  -0.111   0.034  1.00  0.00     0.304 C 
HETATM    7  C16 UNL     1       3.676  -1.301  -0.396  1.00  0.00     0.308 C 
HETATM    8  O9  UNL     1       2.439  -1.231   0.263  1.00  0.00    -0.346 OA
BRANCH   4   9
HETATM    9  C6  UNL     1       2.623   1.340   1.951  1.00  0.00     0.198 C 
BRANCH   9  10
HETATM   10  O4  UNL     1       3.302   2.578   2.130  1.00  0.00    -0.398 OA
ATOM     11  H4  UNL     1       3.347   2.713   3.069  1.00  0.00     0.209 HD
ENDBRANCH   9  10
ENDBRANCH   4   9
BRANCH   6  12
HETATM   12  N3  UNL     1       5.746  -0.000  -0.648  1.00  0.00    -0.202 N 
HETATM   13  N1  UNL     1       6.665   0.891  -0.314  1.00  0.00    -0.238 N 
HETATM   14  C1  UNL     1       6.577   1.888   0.765  1.00  0.00     0.183 C 
HETATM   15  C2  UNL     1       7.736   0.753  -1.129  1.00  0.00     0.345 A 
HETATM   16  O1  UNL     1       8.781   1.447  -1.076  1.00  0.00    -0.245 OA
HETATM   17  N2  UNL     1       7.501  -0.238  -1.996  1.00  0.00    -0.258 N 
HETATM   18  C3  UNL     1       6.262  -0.687  -1.676  1.00  0.00     0.347 A 
ATOM     19  H2  UNL     1       8.117  -0.580  -2.734  1.00  0.00     0.175 HD
HETATM   20  O2  UNL     1       5.704  -1.613  -2.271  1.00  0.00    -0.245 OA
ENDBRANCH   6  12
BRANCH   7  21
HETATM   21  O10 UNL     1       4.296  -2.441   0.110  1.00  0.00    -0.367 OA
ATOM     22  H10 UNL     1       3.784  -3.194  -0.162  1.00  0.00     0.212 HD
ENDBRANCH   7  21
ENDBRANCH   2   3
BRANCH   2  23
HETATM   23  O5  UNL     1       0.344  -0.412   1.906  1.00  0.00    -0.390 OA
ATOM     24  H5  UNL     1      -0.536  -0.483   2.257  1.00  0.00     0.210 HD
ENDBRANCH   2  23
ENDBRANCH   1   2
BRANCH   1  25
HETATM   25  O6  UNL     1       0.218  -2.503   0.152  1.00  0.00    -0.390 OA
ATOM     26  H6  UNL     1      -0.269  -3.197  -0.277  1.00  0.00     0.210 HD
ENDBRANCH   1  25
BRANCH   1  27
HETATM   27  C10 UNL     1      -1.797  -1.348   0.349  1.00  0.00     0.167 C 
BRANCH  27  28
HETATM   28  O7  UNL     1      -1.871  -1.594   1.721  1.00  0.00    -0.391 OA
ATOM     29  H7  UNL     1      -2.767  -1.651   2.032  1.00  0.00     0.210 HD
ENDBRANCH  27  28
BRANCH  27  30
HETATM   30  C11 UNL     1      -2.623  -0.152   0.016  1.00  0.00     0.157 C 
BRANCH  30  31
HETATM   31  N4  UNL     1      -4.014  -0.264   0.337  1.00  0.00    -0.356 N 
HETATM   32  C12 UNL     1      -4.911  -1.232  -0.199  1.00  0.00     0.256 C 
HETATM   33  O8  UNL     1      -4.486  -2.058  -1.017  1.00  0.00    -0.271 OA
ATOM     34  H4  UNL     1      -4.394   0.406   1.006  1.00  0.00     0.162 HD
BRANCH  32  35
HETATM   35  C13 UNL     1      -6.339  -1.275   0.196  1.00  0.00     0.343 C 
BRANCH  35  36
HETATM   36  N5  UNL     1      -7.001  -2.340  -0.501  1.00  0.00    -0.059 N 
ATOM     37  H53 UNL     1      -6.884  -2.269  -1.512  1.00  0.00     0.275 HD
ATOM     38  H52 UNL     1      -6.537  -3.237  -0.362  1.00  0.00     0.275 HD
ATOM     39  H51 UNL     1      -7.984  -2.370  -0.229  1.00  0.00     0.275 HD
ENDBRANCH  35  36
BRANCH  35  40
HETATM   40  C14 UNL     1      -6.971   0.059  -0.051  1.00  0.00     0.152 A 
HETATM   41  N6  UNL     1      -7.256   1.000   0.877  1.00  0.00    -0.176 N 
HETATM   42  C15 UNL     1      -7.813   2.036   0.221  1.00  0.00     0.692 A 
ATOM     43  H6  UNL     1      -7.083   0.937   1.880  1.00  0.00     0.185 HD
HETATM   44  N8  UNL     1      -7.876   1.750  -1.087  1.00  0.00    -0.131 N 
HETATM   45  N9  UNL     1      -7.353   0.529  -1.237  1.00  0.00    -0.272 N 
ATOM     46  H8  UNL     1      -8.250   2.348  -1.824  1.00  0.00     0.205 HD
ATOM     47  H9  UNL     1      -7.261   0.033  -2.124  1.00  0.00     0.189 HD
BRANCH  42  48
HETATM   48  N7  UNL     1      -8.208   3.113   0.817  1.00  0.00    -0.233 N 
ATOM     49  H72 UNL     1      -8.160   3.331   1.812  1.00  0.00     0.174 HD
ATOM     50  H71 UNL     1      -8.630   3.898   0.320  1.00  0.00     0.174 HD
ENDBRANCH  42  48
ENDBRANCH  35  40
ENDBRANCH  32  35
ENDBRANCH  30  31
ENDBRANCH  27  30
ENDBRANCH   1  27
TORSDOF 16
