REMARK  16 active torsions:
REMARK  status: ('A' for Active; 'I' for Inactive)
REMARK    1  A    between atoms: C2_2  and  O1_3 
REMARK    2  A    between atoms: C2_2  and  C3_5 
REMARK    3  A    between atoms: C3_5  and  N1_6 
REMARK    4  A    between atoms: C3_5  and  C16_50 
REMARK    5  A    between atoms: N1_6  and  C4_8 
REMARK    6  A    between atoms: C4_8  and  O2_9 
REMARK    7  A    between atoms: C4_8  and  C5_11 
REMARK    8  A    between atoms: C5_11  and  O3_12 
REMARK    9  A    between atoms: C5_11  and  C6_14 
REMARK   10  A    between atoms: N3_18  and  C8_19 
REMARK   11  A    between atoms: C10_22  and  N4_23 
REMARK       I    between atoms: C11_25  and  N6_27 
REMARK   12  A    between atoms: N6_27  and  N7_29 
REMARK   13  A    between atoms: N7_29  and  O5_33 
REMARK   14  A    between atoms: C12_35  and  N9_36 
REMARK   15  A    between atoms: C13_40  and  O6_41 
REMARK   16  A    between atoms: C14_43  and  O7_44 
ROOT
HETATM    1  C8  UNL     1      -1.455  -0.322   0.482  1.00  0.00     0.264 C 
HETATM    2  O4  UNL     1      -1.768  -0.827   1.742  1.00  0.00    -0.361 OA
HETATM    3  C9  UNL     1      -3.048  -0.460   2.056  1.00  0.00     0.198 C 
HETATM    4  C10 UNL     1      -4.130  -0.993   1.197  1.00  0.00     0.141 C 
HETATM    5  C12 UNL     1      -3.763  -2.096   0.268  1.00  0.00     0.239 C 
HETATM    6  C13 UNL     1      -2.919  -1.682  -0.904  1.00  0.00     0.183 C 
HETATM    7  C14 UNL     1      -1.479  -1.507  -0.468  1.00  0.00     0.198 C 
ENDROOT
BRANCH   1   8
HETATM    8  N3  UNL     1      -0.178   0.358   0.448  1.00  0.00    -0.266 N 
HETATM    9  C7  UNL     1       0.064   1.445  -0.305  1.00  0.00     0.191 A 
HETATM   10  N2  UNL     1       1.280   2.054  -0.317  1.00  0.00    -0.339 N 
HETATM   11  C6  UNL     1       2.255   1.546   0.447  1.00  0.00     0.119 A 
ATOM     12  H2  UNL     1       1.445   2.878  -0.894  1.00  0.00     0.168 HD
HETATM   13  N10 UNL     1       2.017   0.471   1.193  1.00  0.00    -0.295 N 
HETATM   14  C15 UNL     1       0.805  -0.148   1.215  1.00  0.00     0.331 A 
ATOM     15  H10 UNL     1       2.770   0.097   1.770  1.00  0.00     0.172 HD
HETATM   16  O8  UNL     1       0.587  -1.164   1.922  1.00  0.00    -0.246 OA
BRANCH  11  17
HETATM   17  C5  UNL     1       3.593   2.188   0.440  1.00  0.00     0.233 C 
BRANCH  17  18
HETATM   18  C4  UNL     1       4.341   1.869  -0.847  1.00  0.00     0.250 C 
BRANCH  18  19
HETATM   19  N1  UNL     1       4.558   0.522  -1.072  1.00  0.00    -0.379 N 
ATOM     20  H1  UNL     1       4.128   0.133  -1.911  1.00  0.00     0.156 HD
BRANCH  19  21
HETATM   21  C3  UNL     1       5.283  -0.357  -0.301  1.00  0.00     0.209 C 
BRANCH  21  22
HETATM   22  C2  UNL     1       6.751  -0.214  -0.117  1.00  0.00     0.147 C 
HETATM   23  C1  UNL     1       7.257   0.865   0.763  1.00  0.00     0.042 C 
BRANCH  22  24
HETATM   24  O1  UNL     1       7.427  -0.213  -1.352  1.00  0.00    -0.393 OA
ATOM     25  H1  UNL     1       7.103  -0.905  -1.916  1.00  0.00     0.210 HD
ENDBRANCH  22  24
ENDBRANCH  21  22
BRANCH  21  26
HETATM   26  C16 UNL     1       5.035  -1.762  -0.848  1.00  0.00     0.199 C 
HETATM   27  O9  UNL     1       4.287  -1.963  -1.828  1.00  0.00    -0.646 OA
HETATM   28  O10 UNL     1       5.689  -2.797  -0.192  1.00  0.00    -0.646 OA
ENDBRANCH  21  26
ENDBRANCH  19  21
ENDBRANCH  18  19
BRANCH  18  29
HETATM   29  O2  UNL     1       5.471   2.663  -0.893  1.00  0.00    -0.374 OA
ATOM     30  H2  UNL     1       5.322   3.588  -0.738  1.00  0.00     0.212 HD
ENDBRANCH  18  29
ENDBRANCH  17  18
BRANCH  17  31
HETATM   31  O3  UNL     1       3.455   3.585   0.519  1.00  0.00    -0.384 OA
ATOM     32  H3  UNL     1       2.988   3.784   1.322  1.00  0.00     0.210 HD
ENDBRANCH  17  31
ENDBRANCH  11  17
ENDBRANCH   1   8
BRANCH   7  33
HETATM   33  O7  UNL     1      -0.626  -1.311  -1.547  1.00  0.00    -0.389 OA
ATOM     34  H7  UNL     1      -0.641  -2.052  -2.141  1.00  0.00     0.210 HD
ENDBRANCH   7  33
BRANCH   6  35
HETATM   35  O6  UNL     1      -3.353  -0.510  -1.512  1.00  0.00    -0.391 OA
ATOM     36  H6  UNL     1      -2.819  -0.248  -2.253  1.00  0.00     0.210 HD
ENDBRANCH   6  35
BRANCH   4  37
HETATM   37  N4  UNL     1      -4.767   0.073   0.446  1.00  0.00    -0.354 N 
HETATM   38  C11 UNL     1      -5.969   0.470   0.642  1.00  0.00     0.206 C 
HETATM   39  N5  UNL     1      -6.774  -0.120   1.629  1.00  0.00    -0.062 NA
HETATM   40  N6  UNL     1      -6.427   1.537  -0.196  1.00  0.00    -0.232 N 
ATOM     41  H6  UNL     1      -5.993   2.458  -0.142  1.00  0.00     0.194 HD
ATOM     42  H4  UNL     1      -4.224   0.535  -0.283  1.00  0.00     0.162 HD
BRANCH  40  43
HETATM   43  N7  UNL     1      -7.475   1.301  -1.088  1.00  0.00    -0.099 N 
HETATM   44  N8  UNL     1      -7.900   0.124  -1.278  1.00  0.00    -0.303 N 
ATOM     45  H82 UNL     1      -7.491  -0.672  -0.788  1.00  0.00     0.181 HD
ATOM     46  H81 UNL     1      -8.666  -0.048  -1.930  1.00  0.00     0.181 HD
BRANCH  43  47
HETATM   47  O5  UNL     1      -8.024   2.368  -1.745  1.00  0.00    -0.254 OA
ATOM     48  H5  UNL     1      -8.737   2.207  -2.352  1.00  0.00     0.248 HD
ENDBRANCH  43  47
ENDBRANCH  40  43
ENDBRANCH   4  37
BRANCH   5  49
HETATM   49  N9  UNL     1      -5.020  -2.620  -0.294  1.00  0.00    -0.070 N 
ATOM     50  H93 UNL     1      -5.691  -2.903   0.420  1.00  0.00     0.274 HD
ATOM     51  H92 UNL     1      -5.594  -1.900  -0.733  1.00  0.00     0.274 HD
ATOM     52  H91 UNL     1      -4.768  -3.376  -0.931  1.00  0.00     0.274 HD
ENDBRANCH   5  49
TORSDOF 16
