REMARK  8 active torsions:
REMARK  status: ('A' for Active; 'I' for Inactive)
REMARK    1  A    between atoms: C4_5  and  C5_6 
REMARK    2  A    between atoms: C5_6  and  C6_7 
REMARK    3  A    between atoms: C5_6  and  N2_10 
REMARK    4  A    between atoms: C6_7  and  O1_8 
REMARK    5  A    between atoms: N2_10  and  C7_12 
REMARK    6  A    between atoms: C9_14  and  N3_15 
REMARK    7  A    between atoms: C12_20  and  N5_21 
REMARK    8  A    between atoms: C15_28  and  N8_29 
ROOT
HETATM    1  N1  UNL     1       6.517   1.860   2.746  1.00  0.00    -0.190 NA
HETATM    2  C1  UNL     1       5.859   1.237   2.010  1.00  0.00     0.118 C 
HETATM    3  C2  UNL     1       5.067   0.453   1.106  1.00  0.00     0.131 A 
HETATM    4  C3  UNL     1       3.755   0.790   0.839  1.00  0.00     0.069 A 
HETATM    5  C4  UNL     1       2.984   0.027  -0.041  1.00  0.00     0.054 A 
HETATM    6  N7  UNL     1       3.595  -1.034  -0.595  1.00  0.00    -0.194 N 
ATOM      7  H7  UNL     1       3.056  -1.610  -1.242  1.00  0.00     0.184 HD
HETATM    8  C15 UNL     1       4.864  -1.385  -0.354  1.00  0.00     0.677 A 
HETATM    9  N9  UNL     1       5.598  -0.627   0.506  1.00  0.00    -0.182 N 
ATOM     10  H9  UNL     1       6.567  -0.882   0.698  1.00  0.00     0.185 HD
ENDROOT
BRANCH   5  11
HETATM   11  C5  UNL     1       1.573   0.398  -0.322  1.00  0.00     0.157 C 
BRANCH  11  12
HETATM   12  C6  UNL     1       1.561   1.137  -1.638  1.00  0.00     0.195 C 
BRANCH  12  13
HETATM   13  O1  UNL     1       1.936   0.343  -2.706  1.00  0.00    -0.398 OA
ATOM     14  H1  UNL     1       1.928   0.808  -3.534  1.00  0.00     0.209 HD
ENDBRANCH  12  13
ENDBRANCH  11  12
BRANCH  11  15
HETATM   15  N2  UNL     1       0.691  -0.723  -0.293  1.00  0.00    -0.364 N 
ATOM     16  H2  UNL     1       1.041  -1.674  -0.411  1.00  0.00     0.162 HD
BRANCH  15  17
HETATM   17  C7  UNL     1      -0.584  -0.489  -0.109  1.00  0.00     0.121 A 
HETATM   18  C8  UNL     1      -1.487  -1.530  -0.071  1.00  0.00     0.097 A 
HETATM   19  C9  UNL     1      -2.824  -1.264   0.124  1.00  0.00     0.122 A 
HETATM   20  N4  UNL     1      -3.202   0.027   0.273  1.00  0.00    -0.177 N 
HETATM   21  C12 UNL     1      -2.341   1.055   0.240  1.00  0.00     0.683 A 
ATOM     22  H4  UNL     1      -4.191   0.228   0.418  1.00  0.00     0.186 HD
HETATM   23  N6  UNL     1      -1.048   0.761   0.048  1.00  0.00    -0.177 N 
ATOM     24  H6  UNL     1      -0.379   1.530   0.020  1.00  0.00     0.185 HD
BRANCH  19  25
HETATM   25  N3  UNL     1      -3.795  -2.305   0.170  1.00  0.00    -0.364 N 
HETATM   26  C10 UNL     1      -5.107  -2.875   0.298  1.00  0.00     0.144 A 
HETATM   27  C11 UNL     1      -4.009  -3.756   0.086  1.00  0.00     0.144 A 
ENDBRANCH  19  25
BRANCH  21  28
HETATM   28  N5  UNL     1      -2.765   2.403   0.400  1.00  0.00    -0.214 N 
HETATM   29  C13 UNL     1      -3.960   3.253   0.621  1.00  0.00     0.161 A 
HETATM   30  C14 UNL     1      -2.633   3.830   0.493  1.00  0.00     0.161 A 
ENDBRANCH  21  28
ENDBRANCH  15  17
ENDBRANCH  11  15
ENDBRANCH   5  11
BRANCH   8  31
HETATM   31  N8  UNL     1       5.403  -2.430  -0.925  1.00  0.00    -0.234 N 
ATOM     32  H82 UNL     1       4.853  -2.998  -1.569  1.00  0.00     0.174 HD
ATOM     33  H81 UNL     1       6.370  -2.697  -0.741  1.00  0.00     0.174 HD
ENDBRANCH   8  31
TORSDOF 8
