REMARK  6 active torsions:
REMARK  status: ('A' for Active; 'I' for Inactive)
REMARK    1  A    between atoms: N1_1  and  C1_4 
REMARK    2  A    between atoms: C2_7  and  N3_8 
REMARK    3  A    between atoms: N8_21  and  C9_22 
REMARK    4  A    between atoms: C9_22  and  C10_23 
REMARK    5  A    between atoms: C10_23  and  C11_24 
REMARK    6  A    between atoms: C11_24  and  N9_25 
ROOT
HETATM    1  C1  UNL     1       2.825   1.796  -2.376  1.00  0.00     0.130 A 
HETATM    2  N2  UNL     1       3.588   1.305  -1.360  1.00  0.00    -0.176 N 
ATOM      3  H2  UNL     1       4.574   1.562  -1.319  1.00  0.00     0.186 HD
HETATM    4  C2  UNL     1       3.090   0.491  -0.405  1.00  0.00     0.684 A 
HETATM    5  N6  UNL     1       1.788   0.151  -0.458  1.00  0.00    -0.174 N 
ATOM      6  H6  UNL     1       1.395  -0.463   0.256  1.00  0.00     0.186 HD
HETATM    7  C6  UNL     1       0.992   0.622  -1.460  1.00  0.00     0.153 A 
HETATM    8  C7  UNL     1       1.495   1.454  -2.438  1.00  0.00     0.071 A 
HETATM    9  C8  UNL     1       0.452   1.759  -3.306  1.00  0.00     0.126 A 
HETATM   10  N7  UNL     1      -0.630   1.117  -2.838  1.00  0.00    -0.307 N 
ATOM     11  H7  UNL     1      -1.557   1.146  -3.263  1.00  0.00     0.186 HD
HETATM   12  N8  UNL     1      -0.315   0.433  -1.731  1.00  0.00    -0.276 N 
ENDROOT
BRANCH  12  13
HETATM   13  C9  UNL     1      -1.212  -0.388  -0.929  1.00  0.00     0.152 C 
BRANCH  13  14
HETATM   14  C10 UNL     1      -1.852   0.465   0.138  1.00  0.00     0.052 C 
BRANCH  14  15
HETATM   15  C11 UNL     1      -2.793  -0.293   1.014  1.00  0.00     0.274 C 
BRANCH  15  16
HETATM   16  N9  UNL     1      -3.898  -0.893   0.293  1.00  0.00     0.092 N 
HETATM   17  C12 UNL     1      -4.795   0.125  -0.225  1.00  0.00     0.298 C 
HETATM   18  C13 UNL     1      -6.079  -0.476  -0.713  1.00  0.00     0.198 C 
HETATM   19  O1  UNL     1      -6.768  -1.019   0.348  1.00  0.00    -0.388 OA
HETATM   20  C14 UNL     1      -6.021  -1.211   1.484  1.00  0.00     0.198 C 
HETATM   21  C15 UNL     1      -4.636  -1.726   1.212  1.00  0.00     0.298 C 
ENDBRANCH  15  16
ENDBRANCH  14  15
ENDBRANCH  13  14
ENDBRANCH  12  13
BRANCH   4  22
HETATM   22  N3  UNL     1       3.953   0.020   0.619  1.00  0.00    -0.202 N 
HETATM   23  C3  UNL     1       4.664  -1.232   0.384  1.00  0.00     0.160 C 
HETATM   24  C4  UNL     1       6.102  -0.947   0.845  1.00  0.00     0.151 C 
HETATM   25  N4  UNL     1       6.035  -0.555   2.223  1.00  0.00    -0.145 NA
HETATM   26  N5  UNL     1       5.435   0.675   2.385  1.00  0.00    -0.128 NA
HETATM   27  C5  UNL     1       4.102   0.772   1.824  1.00  0.00     0.272 C 
ENDBRANCH   4  22
BRANCH   1  28
HETATM   28  N1  UNL     1       3.307   2.565  -3.274  1.00  0.00    -0.384 N 
ATOM     29  H12 UNL     1       4.294   2.819  -3.228  1.00  0.00     0.157 HD
ATOM     30  H11 UNL     1       2.736   2.933  -4.035  1.00  0.00     0.157 HD
ENDBRANCH   1  28
TORSDOF 6
