REMARK  8 active torsions:
REMARK  status: ('A' for Active; 'I' for Inactive)
REMARK    1  A    between atoms: C2_2  and  N1_4 
REMARK    2  A    between atoms: C5_9  and  N3_10 
REMARK    3  A    between atoms: C11_24  and  N8_25 
REMARK    4  A    between atoms: N8_25  and  C12_27 
REMARK    5  A    between atoms: C12_27  and  C13_28 
REMARK    6  A    between atoms: C13_28  and  C14_29 
REMARK    7  A    between atoms: C14_29  and  N9_30 
REMARK    8  A    between atoms: N10_34  and  N11_35 
ROOT
HETATM    1  N3  UNL     1      -1.669   1.432   1.878  1.00  0.00    -0.175 N 
ATOM      2  H3  UNL     1      -1.561   1.557   2.884  1.00  0.00     0.186 HD
HETATM    3  C6  UNL     1      -2.401   2.264   1.199  1.00  0.00     0.124 A 
HETATM    4  C7  UNL     1      -3.043   3.323   1.805  1.00  0.00     0.090 A 
HETATM    5  C8  UNL     1      -3.828   4.217   1.085  1.00  0.00     0.118 A 
HETATM    6  C9  UNL     1      -4.494   5.323   1.743  1.00  0.00     0.117 C 
HETATM    7  N4  UNL     1      -5.015   6.210   2.286  1.00  0.00    -0.190 NA
HETATM    8  N5  UNL     1      -3.943   4.013  -0.240  1.00  0.00    -0.344 N 
ATOM      9  H5  UNL     1      -4.511   4.648  -0.800  1.00  0.00     0.167 HD
HETATM   10  C10 UNL     1      -3.312   2.972  -0.840  1.00  0.00     0.183 A 
HETATM   11  N6  UNL     1      -2.554   2.113  -0.128  1.00  0.00    -0.338 N 
ATOM     12  H6  UNL     1      -2.091   1.338  -0.603  1.00  0.00     0.168 HD
ENDROOT
BRANCH   1  13
HETATM   13  C5  UNL     1      -1.021   0.353   1.229  1.00  0.00     0.713 A 
HETATM   14  N2  UNL     1      -1.586  -0.824   0.969  1.00  0.00    -0.019 N 
HETATM   15  C4  UNL     1      -0.930  -1.851   0.337  1.00  0.00     0.729 A 
ATOM     16  H2  UNL     1      -2.555  -0.970   1.254  1.00  0.00     0.203 HD
HETATM   17  N1  UNL     1      -1.574  -2.893   0.157  1.00  0.00    -0.219 N 
HETATM   18  N10 UNL     1       0.332  -1.624  -0.019  1.00  0.00     0.084 N 
ATOM     19  H1  UNL     1      -2.522  -2.808   0.524  1.00  0.00     0.178 HD
HETATM   20  C11 UNL     1       0.942  -0.449   0.225  1.00  0.00     0.728 A 
HETATM   21  N7  UNL     1       0.262   0.525   0.844  1.00  0.00    -0.019 N 
ATOM     22  H7  UNL     1       0.723   1.416   1.029  1.00  0.00     0.203 HD
BRANCH  17  23
HETATM   23  C2  UNL     1      -1.362  -4.154  -0.410  1.00  0.00     0.091 C 
HETATM   24  C1  UNL     1      -2.423  -5.113   0.132  1.00  0.00     0.032 C 
HETATM   25  C3  UNL     1      -1.490  -4.168  -1.929  1.00  0.00     0.032 C 
ENDBRANCH  17  23
BRANCH  18  26
HETATM   26  N11 UNL     1       1.098  -2.588  -0.663  1.00  0.00    -0.309 N 
ATOM     27 2H11 UNL     1       0.636  -3.478  -0.848  1.00  0.00     0.178 HD
ATOM     28 1H11 UNL     1       2.065  -2.414  -0.936  1.00  0.00     0.178 HD
ENDBRANCH  18  26
BRANCH  20  29
HETATM   29  N8  UNL     1       2.155  -0.258  -0.127  1.00  0.00    -0.223 N 
ATOM     30  H8  UNL     1       2.679  -0.995  -0.599  1.00  0.00     0.177 HD
BRANCH  29  31
HETATM   31  C12 UNL     1       2.774   1.016   0.152  1.00  0.00     0.140 C 
BRANCH  31  32
HETATM   32  C13 UNL     1       4.225   1.029  -0.288  1.00  0.00     0.047 C 
BRANCH  32  33
HETATM   33  C14 UNL     1       4.771   2.404   0.051  1.00  0.00     0.231 C 
BRANCH  33  34
HETATM   34  N9  UNL     1       6.169   2.521  -0.334  1.00  0.00    -0.079 N 
ATOM     35  H93 UNL     1       6.736   1.780   0.078  1.00  0.00     0.274 HD
ATOM     36  H92 UNL     1       6.308   2.294  -1.319  1.00  0.00     0.274 HD
ATOM     37  H91 UNL     1       6.536   3.445  -0.106  1.00  0.00     0.274 HD
ENDBRANCH  33  34
ENDBRANCH  32  33
ENDBRANCH  31  32
ENDBRANCH  29  31
ENDBRANCH  20  29
ENDBRANCH   1  13
TORSDOF 8
