REMARK  8 active torsions:
REMARK  status: ('A' for Active; 'I' for Inactive)
REMARK    1  A    between atoms: C3_5  and  N2_6 
REMARK    2  A    between atoms: C4_13  and  C5_14 
REMARK    3  A    between atoms: C5_14  and  C6_15 
REMARK    4  A    between atoms: C6_15  and  N5_16 
REMARK    5  A    between atoms: N5_16  and  C7_18 
REMARK    6  A    between atoms: C9_24  and  N8_25 
REMARK    7  A    between atoms: C13_29  and  C14_30 
REMARK    8  A    between atoms: C14_30  and  N9_31 
ROOT
HETATM    1  C7  UNL     1       0.989  -1.077   1.184  1.00  0.00     0.693 A 
HETATM    2  N6  UNL     1       1.438  -2.295   0.779  1.00  0.00    -0.187 N 
ATOM      3  H6  UNL     1       2.379  -2.593   1.037  1.00  0.00     0.185 HD
HETATM    4  C8  UNL     1       0.668  -3.112   0.047  1.00  0.00     0.215 A 
HETATM    5  N7  UNL     1      -0.569  -2.715  -0.290  1.00  0.00    -0.187 N 
ATOM      6  H7  UNL     1      -1.153  -3.339  -0.847  1.00  0.00     0.185 HD
HETATM    7  C9  UNL     1      -1.063  -1.524   0.082  1.00  0.00     0.695 A 
HETATM    8  N10 UNL     1      -0.251  -0.735   0.819  1.00  0.00    -0.022 N 
ATOM      9  H10 UNL     1      -0.605   0.175   1.114  1.00  0.00     0.203 HD
ENDROOT
BRANCH   1  10
HETATM   10  N5  UNL     1       1.713  -0.278   1.888  1.00  0.00    -0.225 N 
ATOM     11  H5  UNL     1       1.354   0.631   2.181  1.00  0.00     0.177 HD
BRANCH  10  12
HETATM   12  C6  UNL     1       3.046  -0.700   2.253  1.00  0.00     0.144 C 
BRANCH  12  13
HETATM   13  C5  UNL     1       4.030   0.455   2.114  1.00  0.00     0.081 C 
BRANCH  13  14
HETATM   14  C4  UNL     1       4.068   0.945   0.729  1.00  0.00     0.050 A 
HETATM   15  C2  UNL     1       4.742   0.259  -0.251  1.00  0.00     0.046 A 
HETATM   16  C1  UNL     1       5.463  -0.993   0.039  1.00  0.00     0.071 C 
HETATM   17  N1  UNL     1       4.712   0.795  -1.504  1.00  0.00    -0.193 N 
HETATM   18  C3  UNL     1       4.063   1.936  -1.785  1.00  0.00     0.690 A 
ATOM     19  H1  UNL     1       5.201   0.311  -2.257  1.00  0.00     0.184 HD
HETATM   20  N3  UNL     1       3.405   2.602  -0.815  1.00  0.00    -0.132 N 
HETATM   21  N4  UNL     1       3.430   2.089   0.400  1.00  0.00    -0.289 N 
ATOM     22  H3  UNL     1       2.907   3.470  -1.013  1.00  0.00     0.205 HD
ATOM     23  H4  UNL     1       2.935   2.589   1.139  1.00  0.00     0.187 HD
BRANCH  18  24
HETATM   24  N2  UNL     1       4.058   2.417  -3.000  1.00  0.00    -0.233 N 
ATOM     25  H22 UNL     1       4.556   1.913  -3.734  1.00  0.00     0.174 HD
ATOM     26  H21 UNL     1       3.565   3.284  -3.214  1.00  0.00     0.174 HD
ENDBRANCH  18  24
ENDBRANCH  13  14
ENDBRANCH  12  13
ENDBRANCH  10  12
ENDBRANCH   1  10
BRANCH   7  27
HETATM   27  N8  UNL     1      -2.363  -1.064  -0.251  1.00  0.00    -0.217 N 
HETATM   28  C10 UNL     1      -3.306  -1.812  -1.033  1.00  0.00     0.141 C 
HETATM   29  C11 UNL     1      -3.943  -0.880  -2.031  1.00  0.00     0.021 C 
HETATM   30  C12 UNL     1      -4.714   0.233  -1.371  1.00  0.00     0.009 C 
HETATM   31  C13 UNL     1      -4.242   0.517   0.031  1.00  0.00     0.029 C 
HETATM   32  C15 UNL     1      -2.778   0.238   0.221  1.00  0.00     0.147 C 
BRANCH  31  33
HETATM   33  C14 UNL     1      -4.484   1.988   0.300  1.00  0.00     0.235 C 
BRANCH  33  34
HETATM   34  N9  UNL     1      -4.065   2.371   1.626  1.00  0.00    -0.079 N 
ATOM     35  H93 UNL     1      -4.506   1.787   2.337  1.00  0.00     0.274 HD
ATOM     36  H92 UNL     1      -3.091   2.120   1.793  1.00  0.00     0.274 HD
ATOM     37  H91 UNL     1      -4.228   3.361   1.807  1.00  0.00     0.274 HD
ENDBRANCH  33  34
ENDBRANCH  31  33
ENDBRANCH   7  27
TORSDOF 8
