REMARK  1 active torsions:
REMARK  status: ('A' for Active; 'I' for Inactive)
REMARK    1  A    between atoms: O1_2  and  C2_3 
ROOT
HETATM    1  C2  UNL     1       0.630   0.091   0.205  1.00  0.00     0.365 C 
HETATM    2  N1  UNL     1      -0.299   1.074  -0.232  1.00  0.00    -0.375 N 
ATOM      3  H1  UNL     1      -0.033   1.838  -0.853  1.00  0.00     0.158 HD
HETATM    4  C3  UNL     1      -1.634   0.918   0.260  1.00  0.00     0.120 C 
HETATM    5  C4  UNL     1      -2.099  -0.510   0.326  1.00  0.00     0.046 C 
HETATM    6  C5  UNL     1      -0.939  -1.491   0.249  1.00  0.00     0.174 C 
HETATM    7  O2  UNL     1       0.089  -0.902   1.007  1.00  0.00    -0.344 OA
ENDROOT
BRANCH   1   8
HETATM    8  O1  UNL     1       1.749   0.619   0.840  1.00  0.00    -0.349 OA
HETATM    9  C1  UNL     1       2.927   0.341   0.171  1.00  0.00     0.206 C 
ENDBRANCH   1   8
TORSDOF 1
