REMARK  5 active torsions:
REMARK  status: ('A' for Active; 'I' for Inactive)
REMARK    1  A    between atoms: C5_6  and  C6_7 
REMARK    2  A    between atoms: C6_7  and  N2_8 
REMARK    3  A    between atoms: N2_8  and  C7_10 
REMARK    4  A    between atoms: C10_14  and  C11_15 
REMARK    5  A    between atoms: C11_15  and  O1_16 
ROOT
HETATM    1  N1  UNL     1       3.695   1.894  -2.260  1.00  0.00    -0.195 NA
HETATM    2  C1  UNL     1       3.611   0.973  -1.573  1.00  0.00     0.092 C 
HETATM    3  C2  UNL     1       3.526  -0.197  -0.679  1.00  0.00     0.292 C 
HETATM    4  C3  UNL     1       3.659   0.191   0.770  1.00  0.00     0.050 C 
HETATM    5  C4  UNL     1       2.614  -0.669   1.427  1.00  0.00     0.041 C 
HETATM    6  C5  UNL     1       1.504  -0.700   0.384  1.00  0.00     0.225 C 
HETATM    7  N3  UNL     1       2.287  -0.889  -0.843  1.00  0.00    -0.050 N 
ATOM      8  H31 UNL     1       2.411  -1.872  -1.086  1.00  0.00     0.279 HD
ATOM      9  H32 UNL     1       1.783  -0.605  -1.683  1.00  0.00     0.279 HD
ENDROOT
BRANCH   6  10
HETATM   10  C6  UNL     1       0.773   0.598   0.380  1.00  0.00     0.088 C 
BRANCH  10  11
HETATM   11  N2  UNL     1      -0.294   0.711  -0.514  1.00  0.00    -0.394 N 
ATOM     12  H2  UNL     1      -0.185   1.278  -1.355  1.00  0.00     0.159 HD
BRANCH  11  13
HETATM   13  C7  UNL     1      -1.535   0.047  -0.271  1.00  0.00     0.097 C 
HETATM   14  C8  UNL     1      -1.588  -1.386  -0.224  1.00  0.00     0.036 C 
HETATM   15  C9  UNL     1      -3.000  -1.883  -0.453  1.00  0.00     0.076 C 
HETATM   16  S1  UNL     1      -3.543  -0.740  -1.742  1.00  0.00    -0.160 SA
HETATM   17  C10 UNL     1      -2.543   0.656  -1.206  1.00  0.00     0.093 C 
BRANCH  17  18
HETATM   18  C11 UNL     1      -3.469   1.593  -0.446  1.00  0.00     0.181 C 
BRANCH  18  19
HETATM   19  O1  UNL     1      -4.369   2.108  -1.398  1.00  0.00    -0.400 OA
ATOM     20  H1  UNL     1      -4.947   2.693  -0.923  1.00  0.00     0.209 HD
ENDBRANCH  18  19
ENDBRANCH  17  18
ENDBRANCH  11  13
ENDBRANCH  10  11
ENDBRANCH   6  10
TORSDOF 5
