REMARK  6 active torsions:
REMARK  status: ('A' for Active; 'I' for Inactive)
REMARK    1  A    between atoms: O1_2  and  C2_3 
REMARK    2  A    between atoms: C2_3  and  C3_5 
REMARK    3  A    between atoms: C6_8  and  C7_9 
REMARK    4  A    between atoms: C7_9  and  C8_10 
REMARK    5  A    between atoms: C8_10  and  S1_11 
REMARK    6  A    between atoms: N1_13  and  N2_15 
REMARK       I    between atoms: N2_15  and  C10_17 
ROOT
HETATM    1  C7  UNL     1      -0.554   0.299  -0.015  1.00  0.00     0.018 C 
HETATM    2  N1  UNL     1      -0.694  -0.775   0.683  1.00  0.00    -0.305 N 
ATOM      3  H1  UNL     1       0.085  -1.433   0.720  1.00  0.00     0.186 HD
ENDROOT
BRANCH   1   4
HETATM    4  C6  UNL     1       0.739   0.490  -0.711  1.00  0.00     0.047 C 
HETATM    5  C3  UNL     1       1.738  -0.623  -0.505  1.00  0.00     0.095 C 
HETATM    6  C4  UNL     1       2.103  -0.472  -1.987  1.00  0.00     0.016 C 
HETATM    7  C5  UNL     1       0.704   0.072  -2.186  1.00  0.00     0.012 C 
BRANCH   5   8
HETATM    8  C2  UNL     1       2.926  -0.251   0.307  1.00  0.00     0.263 C 
HETATM    9  O2  UNL     1       2.874   0.685   1.119  1.00  0.00    -0.265 OA
BRANCH   8  10
HETATM   10  O1  UNL     1       4.093  -0.948   0.160  1.00  0.00    -0.326 OA
HETATM   11  C1  UNL     1       5.281  -0.700   0.862  1.00  0.00     0.213 C 
ENDBRANCH   8  10
ENDBRANCH   5   8
ENDBRANCH   1   4
BRANCH   1  12
HETATM   12  C8  UNL     1      -1.672   1.235  -0.062  1.00  0.00     0.128 C 
BRANCH  12  13
HETATM   13  S1  UNL     1      -1.279   2.874   0.570  1.00  0.00    -0.168 SA
HETATM   14  C9  UNL     1      -2.769   3.902   0.439  1.00  0.00     0.090 C 
ENDBRANCH  12  13
ENDBRANCH   1  12
BRANCH   2  15
HETATM   15  N2  UNL     1      -1.854  -1.084   1.389  1.00  0.00    -0.274 N 
HETATM   16  C10 UNL     1      -2.778  -1.979   0.783  1.00  0.00     0.200 C 
HETATM   17  N3  UNL     1      -2.814  -2.161  -0.486  1.00  0.00    -0.372 N 
HETATM   18  N4  UNL     1      -3.694  -2.700   1.592  1.00  0.00    -0.062 NA
ATOM     19  H32 UNL     1      -2.156  -1.643  -1.068  1.00  0.00     0.158 HD
ATOM     20  H31 UNL     1      -3.477  -2.803  -0.921  1.00  0.00     0.158 HD
ATOM     21  H2  UNL     1      -2.035  -0.682   2.309  1.00  0.00     0.189 HD
ENDBRANCH   2  15
TORSDOF 6
