REMARK  6 active torsions:
REMARK  status: ('A' for Active; 'I' for Inactive)
REMARK    1  A    between atoms: C2_2  and  O1_3 
REMARK    2  A    between atoms: C2_2  and  C3_5 
REMARK    3  A    between atoms: C6_10  and  C7_11 
REMARK    4  A    between atoms: C7_11  and  C8_13 
REMARK    5  A    between atoms: N3_16  and  N4_18 
REMARK    6  A    between atoms: N4_18  and  C10_20 
ROOT
HETATM    1  C8  UNL     1      -0.465  -1.084  -0.299  1.00  0.00     0.179 C 
HETATM    2  C9  UNL     1      -0.348  -1.344  -1.686  1.00  0.00     0.123 C 
HETATM    3  N2  UNL     1      -0.207  -1.556  -2.839  1.00  0.00    -0.190 NA
HETATM    4  N3  UNL     1       0.601  -1.344   0.456  1.00  0.00    -0.287 N 
ATOM      5  H3  UNL     1       0.601  -1.148   1.457  1.00  0.00     0.188 HD
ENDROOT
BRANCH   1   6
HETATM    6  C7  UNL     1      -1.588  -0.518   0.394  1.00  0.00     0.223 C 
HETATM    7  O2  UNL     1      -1.418  -0.294   1.651  1.00  0.00    -0.284 OA
BRANCH   6   8
HETATM    8  C6  UNL     1      -2.877  -0.170  -0.157  1.00  0.00     0.046 A 
HETATM    9  C3  UNL     1      -3.919   0.592   0.324  1.00  0.00     0.024 A 
HETATM   10  C4  UNL     1      -5.046   0.403  -0.533  1.00  0.00     0.102 A 
HETATM   11  N1  UNL     1      -4.676  -0.436  -1.488  1.00  0.00    -0.373 N 
HETATM   12  C5  UNL     1      -3.397  -0.804  -1.308  1.00  0.00     0.104 A 
ATOM     13  H1  UNL     1      -5.275  -0.756  -2.249  1.00  0.00     0.164 HD
BRANCH   9  14
HETATM   14  C2  UNL     1      -3.945   1.570   1.389  1.00  0.00     0.052 C 
HETATM   15  C1  UNL     1      -2.877   2.164   2.151  1.00  0.00     0.077 C 
BRANCH  14  16
HETATM   16  O1  UNL     1      -5.136   2.000   1.715  1.00  0.00    -0.364 OA
ATOM     17  H1  UNL     1      -5.840   1.608   1.212  1.00  0.00     0.217 HD
ENDBRANCH  14  16
ENDBRANCH   9  14
ENDBRANCH   6   8
ENDBRANCH   1   6
BRANCH   4  18
HETATM   18  N4  UNL     1       1.711  -1.892  -0.171  1.00  0.00    -0.300 N 
ATOM     19  H4  UNL     1       1.682  -2.841  -0.545  1.00  0.00     0.187 HD
BRANCH  18  20
HETATM   20  C10 UNL     1       2.886  -1.107  -0.282  1.00  0.00     0.048 A 
HETATM   21  C11 UNL     1       4.002  -1.614  -0.895  1.00  0.00     0.032 A 
HETATM   22  C12 UNL     1       5.157  -0.852  -1.007  1.00  0.00     0.025 A 
HETATM   23  C13 UNL     1       5.142   0.434  -0.479  1.00  0.00     0.044 A 
HETATM   24  C14 UNL     1       6.342   1.212  -0.601  1.00  0.00     0.099 C 
HETATM   25  C15 UNL     1       4.030   0.958   0.139  1.00  0.00     0.025 A 
HETATM   26  N5  UNL     1       7.317   1.853  -0.710  1.00  0.00    -0.191 NA
HETATM   27  C16 UNL     1       2.918   0.152   0.218  1.00  0.00     0.032 A 
ENDBRANCH  18  20
ENDBRANCH   4  18
TORSDOF 6
