REMARK  4 active torsions:
REMARK  status: ('A' for Active; 'I' for Inactive)
REMARK    1  A    between atoms: C4_5  and  N2_6 
REMARK       I    between atoms: N2_6  and  C5_8 
REMARK    2  A    between atoms: C5_8  and  C6_10 
REMARK    3  A    between atoms: C8_12  and  C9_13 
REMARK    4  A    between atoms: N3_16  and  C12_17 
ROOT
HETATM    1  C6  UNL     1      -0.753   0.390  -0.844  1.00  0.00     0.118 A 
HETATM    2  C7  UNL     1      -1.075  -0.540   0.119  1.00  0.00     0.063 A 
HETATM    3  C8  UNL     1      -2.428  -0.773  -0.014  1.00  0.00     0.036 A 
HETATM    4  N3  UNL     1      -2.909  -0.020  -1.012  1.00  0.00    -0.287 N 
HETATM    5  N4  UNL     1      -1.877   0.658  -1.480  1.00  0.00    -0.292 N 
ATOM      6  H4  UNL     1      -1.942   1.320  -2.253  1.00  0.00     0.187 HD
ENDROOT
BRANCH   1   7
HETATM    7  C5  UNL     1       0.591   0.909  -1.039  1.00  0.00     0.270 C 
HETATM    8  N2  UNL     1       1.683   0.484  -0.240  1.00  0.00    -0.349 N 
ATOM      9  H2  UNL     1       1.515  -0.206   0.492  1.00  0.00     0.163 HD
HETATM   10  O1  UNL     1       0.830   1.765  -1.939  1.00  0.00    -0.266 OA
BRANCH   8  11
HETATM   11  C4  UNL     1       3.017   0.987  -0.420  1.00  0.00     0.120 C 
HETATM   12  C3  UNL     1       4.019  -0.124  -0.758  1.00  0.00     0.064 C 
HETATM   13  C2  UNL     1       5.117   0.093   0.279  1.00  0.00     0.243 C 
HETATM   14  N1  UNL     1       5.046   1.546   0.431  1.00  0.00     0.097 N 
HETATM   15  C18 UNL     1       4.575  -0.401   1.583  1.00  0.00     0.118 C 
HETATM   16  C1  UNL     1       5.918   2.071   1.418  1.00  0.00     0.311 C 
HETATM   17  C16 UNL     1       3.621   1.629   0.789  1.00  0.00     0.247 C 
HETATM   18  C17 UNL     1       3.561   0.695   1.942  1.00  0.00     0.060 C 
HETATM   19 CL1  UNL     1       5.789  -0.617   2.833  1.00  0.00    -0.123 Cl
ENDBRANCH   8  11
ENDBRANCH   1   7
BRANCH   3  20
HETATM   20  C9  UNL     1      -3.194  -1.705   0.821  1.00  0.00     0.037 A 
HETATM   21  C10 UNL     1      -2.658  -2.216   2.109  1.00  0.00     0.011 A 
HETATM   22  C11 UNL     1      -2.541  -3.104   0.949  1.00  0.00     0.011 A 
ENDBRANCH   3  20
BRANCH   4  23
HETATM   23  C12 UNL     1      -4.231   0.092  -1.528  1.00  0.00     0.043 C 
HETATM   24  C13 UNL     1      -4.213   1.006  -2.742  1.00  0.00     0.039 C 
HETATM   25  C14 UNL     1      -5.165   0.802  -0.531  1.00  0.00     0.039 C 
HETATM   26  C15 UNL     1      -4.872  -1.184  -1.928  1.00  0.00     0.039 C 
ENDBRANCH   4  23
TORSDOF 4
