REMARK  5 active torsions:
REMARK  status: ('A' for Active; 'I' for Inactive)
REMARK    1  A    between atoms: C5_5  and  S1_6 
REMARK    2  A    between atoms: S1_6  and  C6_7 
REMARK    3  A    between atoms: C6_7  and  N1_9 
REMARK    4  A    between atoms: N2_12  and  C9_13 
REMARK    5  A    between atoms: C9_13  and  C10_14 
ROOT
HETATM    1  N1  UNL     1       0.503   0.011  -1.055  1.00  0.00    -0.360 N 
HETATM    2  C7  UNL     1      -0.784  -0.229  -1.726  1.00  0.00     0.169 C 
HETATM    3  C8  UNL     1      -1.767  -0.857  -0.788  1.00  0.00     0.083 C 
HETATM    4  N2  UNL     1      -1.940  -0.145   0.415  1.00  0.00    -0.366 N 
HETATM    5  C15 UNL     1      -0.835   0.606   0.862  1.00  0.00     0.147 C 
HETATM    6  C16 UNL     1       0.470  -0.057   0.379  1.00  0.00     0.145 C 
ENDROOT
BRANCH   4   7
HETATM    7  C9  UNL     1      -3.093  -0.297   1.137  1.00  0.00     0.100 C 
BRANCH   7   8
HETATM    8  C10 UNL     1      -4.307   0.313   0.575  1.00  0.00    -0.009 C 
HETATM    9  C11 UNL     1      -4.335   1.017  -0.542  1.00  0.00     0.012 C 
HETATM   10  C12 UNL     1      -5.680   1.561  -0.957  1.00  0.00     0.260 C 
HETATM   11  N3  UNL     1      -6.727   0.595  -0.885  1.00  0.00    -0.069 N 
HETATM   12  C13 UNL     1      -6.749  -0.156   0.334  1.00  0.00     0.274 C 
ATOM     13  H32 UNL     1      -7.632   1.036  -1.049  1.00  0.00     0.277 HD
ATOM     14  H31 UNL     1      -6.691  -0.031  -1.689  1.00  0.00     0.277 HD
HETATM   15  C14 UNL     1      -5.640   0.172   1.271  1.00  0.00     0.229 C 
HETATM   16  F1  UNL     1      -5.501  -0.903   2.152  1.00  0.00    -0.242 F 
ENDBRANCH   7   8
ENDBRANCH   4   7
BRANCH   1  17
HETATM   17  C6  UNL     1       1.647   0.300  -1.836  1.00  0.00     0.137 C 
HETATM   18  S2  UNL     1       1.301   0.337  -3.507  1.00  0.00    -0.053 SA
BRANCH  17  19
HETATM   19  S1  UNL     1       3.294   0.614  -1.443  1.00  0.00    -0.096 SA
BRANCH  19  20
HETATM   20  C5  UNL     1       3.910   0.422   0.189  1.00  0.00     0.055 C 
HETATM   21  C4  UNL     1       3.923  -1.041   0.634  1.00  0.00     0.016 C 
HETATM   22  C3  UNL     1       5.321  -1.466   0.143  1.00  0.00     0.005 C 
HETATM   23  C2  UNL     1       6.120  -0.338   0.751  1.00  0.00    -0.017 C 
HETATM   24  C1  UNL     1       7.546  -0.299   0.233  1.00  0.00     0.010 C 
HETATM   25  C17 UNL     1       5.362   0.880   0.321  1.00  0.00     0.019 C 
ENDBRANCH  19  20
ENDBRANCH  17  19
ENDBRANCH   1  17
TORSDOF 5
