REMARK  3 active torsions:
REMARK  status: ('A' for Active; 'I' for Inactive)
REMARK       I    between atoms: C1_2  and  N1_3 
REMARK    1  A    between atoms: C1_2  and  C7_14 
REMARK    2  A    between atoms: N1_3  and  N2_5 
REMARK    3  A    between atoms: C2_7  and  C3_8 
ROOT
HETATM    1  O1  UNL     1      -0.072  -0.246  -1.177  1.00  0.00    -0.271 OA
HETATM    2  C1  UNL     1      -0.309   0.710  -0.418  1.00  0.00     0.241 C 
HETATM    3  N1  UNL     1       0.778   1.489   0.039  1.00  0.00    -0.270 N 
ATOM      4  H1  UNL     1       0.585   2.273   0.662  1.00  0.00     0.190 HD
ENDROOT
BRANCH   2   5
HETATM    5  C7  UNL     1      -1.694   1.029  -0.000  1.00  0.00     0.096 C 
HETATM    6  C8  UNL     1      -1.811   1.019   1.491  1.00  0.00     0.090 C 
HETATM    7  S2  UNL     1      -2.355  -0.674   1.845  1.00  0.00    -0.135 SA
HETATM    8  C9  UNL     1      -2.446  -1.280   0.128  1.00  0.00     0.252 C 
HETATM    9  N3  UNL     1      -3.686  -1.973  -0.138  1.00  0.00    -0.062 N 
HETATM   10  C12 UNL     1      -2.619   0.024  -0.597  1.00  0.00     0.042 C 
HETATM   11  C10 UNL     1      -4.665  -0.938   0.200  1.00  0.00     0.234 C 
ATOM     12  H32 UNL     1      -3.774  -2.370  -1.074  1.00  0.00     0.278 HD
ATOM     13  H31 UNL     1      -3.804  -2.862   0.348  1.00  0.00     0.278 HD
HETATM   14  C11 UNL     1      -4.076   0.347  -0.352  1.00  0.00     0.036 C 
ENDBRANCH   2   5
BRANCH   3  15
HETATM   15  N2  UNL     1       2.095   1.239  -0.319  1.00  0.00    -0.308 N 
HETATM   16  C2  UNL     1       2.800   0.345   0.259  1.00  0.00     0.126 C 
ATOM     17  H2  UNL     1       2.514   1.788  -1.069  1.00  0.00     0.186 HD
BRANCH  16  18
HETATM   18  C3  UNL     1       4.190   0.081  -0.117  1.00  0.00     0.023 A 
HETATM   19  C4  UNL     1       5.059  -0.836   0.409  1.00  0.00     0.022 A 
HETATM   20  C5  UNL     1       6.289  -0.879  -0.119  1.00  0.00     0.028 A 
HETATM   21  C6  UNL     1       6.580  -0.010  -1.133  1.00  0.00     0.052 A 
HETATM   22 BR1  UNL     1       8.245   0.171  -2.088  1.00  0.00    -0.043 Br
HETATM   23  S1  UNL     1       5.118   0.849  -1.325  1.00  0.00    -0.081 SA
ENDBRANCH  16  18
ENDBRANCH   3  15
TORSDOF 3
