REMARK  20 active torsions:
REMARK  status: ('A' for Active; 'I' for Inactive)
REMARK    1  A    between atoms: C2_2  and  O1_3 
REMARK    2  A    between atoms: C2_2  and  C17_41 
REMARK    3  A    between atoms: O1_3  and  N1_4 
REMARK    4  A    between atoms: C3_6  and  N2_7 
REMARK    5  A    between atoms: C3_6  and  C5_11 
REMARK    6  A    between atoms: C5_11  and  O2_12 
REMARK    7  A    between atoms: N4_14  and  C6_16 
REMARK    8  A    between atoms: C10_21  and  N6_22 
REMARK    9  A    between atoms: N6_22  and  O3_23 
REMARK   10  A    between atoms: N6_22  and  C11_25 
REMARK   11  A    between atoms: C12_27  and  N7_28 
REMARK   12  A    between atoms: C14_33  and  O5_34 
REMARK   13  A    between atoms: C15_36  and  O6_37 
REMARK   14  A    between atoms: C17_41  and  O7_42 
REMARK   15  A    between atoms: C17_41  and  C18_44 
REMARK   16  A    between atoms: C18_44  and  O8_45 
REMARK   17  A    between atoms: C18_44  and  C19_47 
REMARK   18  A    between atoms: C19_47  and  O9_48 
REMARK   19  A    between atoms: C19_47  and  C20_50 
REMARK   20  A    between atoms: C20_50  and  O10_51 
ROOT
HETATM    1  N2  UNL     1       1.418  -1.429   0.365  1.00  0.00    -0.274 N 
ATOM      2  H2  UNL     1       1.076  -0.468   0.365  1.00  0.00     0.180 HD
HETATM    3  C4  UNL     1       1.508  -2.168  -0.824  1.00  0.00     0.183 C 
HETATM    4  N3  UNL     1       1.579  -2.786  -1.798  1.00  0.00    -0.172 NA
ENDROOT
BRANCH   1   5
HETATM    5  C3  UNL     1       1.812  -2.055   1.547  1.00  0.00     0.186 C 
HETATM    6  N1  UNL     1       3.042  -2.500   1.616  1.00  0.00    -0.246 N 
ATOM      7  H1  UNL     1       3.370  -2.964   2.463  1.00  0.00     0.196 HD
BRANCH   6   8
HETATM    8  O1  UNL     1       3.886  -2.343   0.554  1.00  0.00    -0.271 OA
BRANCH   8   9
HETATM    9  C2  UNL     1       5.262  -2.602   0.712  1.00  0.00     0.179 C 
HETATM   10  C1  UNL     1       5.706  -3.665  -0.241  1.00  0.00     0.045 C 
BRANCH   9  11
HETATM   11  C17 UNL     1       5.986  -1.283   0.539  1.00  0.00     0.180 C 
BRANCH  11  12
HETATM   12  O7  UNL     1       7.352  -1.532   0.691  1.00  0.00    -0.390 OA
ATOM     13  H7  UNL     1       7.806  -0.705   0.582  1.00  0.00     0.210 HD
ENDBRANCH  11  12
BRANCH  11  14
HETATM   14  C18 UNL     1       5.668  -0.740  -0.818  1.00  0.00     0.180 C 
BRANCH  14  15
HETATM   15  O8  UNL     1       6.042  -1.630  -1.805  1.00  0.00    -0.390 OA
ATOM     16  H8  UNL     1       5.840  -1.285  -2.667  1.00  0.00     0.210 HD
ENDBRANCH  14  15
BRANCH  14  17
HETATM   17  C19 UNL     1       6.348   0.581  -1.092  1.00  0.00     0.173 C 
BRANCH  17  18
HETATM   18  O9  UNL     1       7.738   0.439  -1.085  1.00  0.00    -0.391 OA
ATOM     19  H9  UNL     1       8.166   1.270  -1.257  1.00  0.00     0.210 HD
ENDBRANCH  17  18
BRANCH  17  20
HETATM   20  C20 UNL     1       5.996   1.631  -0.080  1.00  0.00     0.198 C 
BRANCH  20  21
HETATM   21  O10 UNL     1       4.613   1.819  -0.041  1.00  0.00    -0.398 OA
ATOM     22  H10 UNL     1       4.390   2.484   0.600  1.00  0.00     0.209 HD
ENDBRANCH  20  21
ENDBRANCH  17  20
ENDBRANCH  14  17
ENDBRANCH  11  14
ENDBRANCH   9  11
ENDBRANCH   8   9
ENDBRANCH   6   8
BRANCH   5  23
HETATM   23  C5  UNL     1       0.946  -2.233   2.677  1.00  0.00     0.188 C 
HETATM   24  N4  UNL     1      -0.225  -1.872   2.763  1.00  0.00    -0.331 N 
ATOM     25  H4  UNL     1      -0.627  -2.114   3.669  1.00  0.00     0.168 HD
BRANCH  23  26
HETATM   26  O2  UNL     1       1.459  -2.896   3.849  1.00  0.00    -0.343 OA
ATOM     27  H2  UNL     1       0.886  -3.014   4.597  1.00  0.00     0.219 HD
ENDBRANCH  23  26
BRANCH  24  28
HETATM   28  C6  UNL     1      -1.153  -1.216   1.945  1.00  0.00     0.077 A 
HETATM   29  C7  UNL     1      -1.381   0.079   2.055  1.00  0.00     0.122 A 
HETATM   30  N5  UNL     1      -2.329   0.804   1.237  1.00  0.00    -0.355 N 
HETATM   31  C8  UNL     1      -2.486   2.232   1.458  1.00  0.00     0.156 C 
HETATM   32  C9  UNL     1      -3.078   0.141   0.253  1.00  0.00     0.087 A 
HETATM   33  C10 UNL     1      -3.952   0.679  -0.546  1.00  0.00     0.152 C 
HETATM   34  C15 UNL     1      -2.806  -1.323   0.145  1.00  0.00     0.120 A 
HETATM   35  C16 UNL     1      -1.930  -1.909   0.924  1.00  0.00     0.110 A 
HETATM   36  N8  UNL     1      -1.742  -3.311   0.754  1.00  0.00    -0.097 NA
BRANCH  33  37
HETATM   37  N6  UNL     1      -4.429   1.981  -0.714  1.00  0.00    -0.237 N 
BRANCH  37  38
HETATM   38  O3  UNL     1      -3.683   2.932  -1.281  1.00  0.00    -0.285 OA
ATOM     39  H3  UNL     1      -4.007   3.818  -1.395  1.00  0.00     0.245 HD
ENDBRANCH  37  38
BRANCH  37  40
HETATM   40  C11 UNL     1      -5.799   2.343  -0.317  1.00  0.00     0.280 C 
HETATM   41  O4  UNL     1      -6.746   1.567  -0.929  1.00  0.00    -0.329 OA
HETATM   42  C12 UNL     1      -7.348   2.271  -1.932  1.00  0.00     0.323 C 
HETATM   43  C13 UNL     1      -6.939   3.705  -1.843  1.00  0.00     0.097 C 
HETATM   44  C14 UNL     1      -6.090   3.782  -0.592  1.00  0.00     0.173 C 
BRANCH  42  45
HETATM   45  N7  UNL     1      -8.804   2.226  -1.803  1.00  0.00    -0.053 N 
ATOM     46  H73 UNL     1      -9.148   1.267  -1.757  1.00  0.00     0.277 HD
ATOM     47  H72 UNL     1      -9.110   2.544  -0.884  1.00  0.00     0.277 HD
ATOM     48  H71 UNL     1      -9.254   2.752  -2.552  1.00  0.00     0.277 HD
ENDBRANCH  42  45
BRANCH  44  49
HETATM   49  O5  UNL     1      -6.897   4.297   0.421  1.00  0.00    -0.391 OA
ATOM     50  H5  UNL     1      -7.082   5.212   0.246  1.00  0.00     0.210 HD
ENDBRANCH  44  49
ENDBRANCH  37  40
ENDBRANCH  33  37
BRANCH  34  51
HETATM   51  O6  UNL     1      -3.525  -2.029  -0.817  1.00  0.00    -0.357 OA
ATOM     52  H6  UNL     1      -3.352  -2.961  -0.886  1.00  0.00     0.218 HD
ENDBRANCH  34  51
ENDBRANCH  24  28
ENDBRANCH   5  23
ENDBRANCH   1   5
TORSDOF 20
