REMARK  14 active torsions:
REMARK  status: ('A' for Active; 'I' for Inactive)
REMARK    1  A    between atoms: C3_3  and  C4_4 
REMARK       I    between atoms: C4_4  and  N1_6 
REMARK    2  A    between atoms: N1_6  and  C5_8 
REMARK    3  A    between atoms: C6_11  and  N3_12 
REMARK    4  A    between atoms: C7_17  and  O2_18 
REMARK    5  A    between atoms: C8_20  and  O3_21 
REMARK    6  A    between atoms: N5_25  and  O5_26 
REMARK    7  A    between atoms: N6_30  and  C11_31 
REMARK    8  A    between atoms: C11_31  and  C12_32 
REMARK    9  A    between atoms: C13_36  and  C14_37 
REMARK   10  A    between atoms: C14_37  and  O10_38 
REMARK   11  A    between atoms: C15_41  and  C16_42 
REMARK   12  A    between atoms: C16_42  and  O12_43 
REMARK   13  A    between atoms: C16_42  and  C17_45 
REMARK   14  A    between atoms: C17_45  and  O13_46 
ROOT
HETATM    1  C1  UNL     1       0.219  -1.569   0.102  1.00  0.00     0.070 C 
HETATM    2  C2  UNL     1       0.007  -0.142   0.313  1.00  0.00     0.037 A 
HETATM    3  C3  UNL     1       1.162   0.649   0.109  1.00  0.00     0.125 A 
HETATM    4  C9  UNL     1       1.134   1.999   0.296  1.00  0.00     0.293 A 
HETATM    5  O4  UNL     1       2.102   2.780   0.136  1.00  0.00    -0.264 OA
HETATM    6  N5  UNL     1      -0.029   2.546   0.680  1.00  0.00    -0.133 N 
HETATM    7  C10 UNL     1      -1.110   1.787   0.869  1.00  0.00     0.359 A 
HETATM    8  O6  UNL     1      -2.158   2.377   1.228  1.00  0.00    -0.244 OA
HETATM    9  N6  UNL     1      -1.146   0.426   0.698  1.00  0.00    -0.256 N 
ENDROOT
BRANCH   3  10
HETATM   10  C4  UNL     1       2.443   0.082  -0.371  1.00  0.00     0.264 C 
HETATM   11  O1  UNL     1       2.377  -0.793  -1.230  1.00  0.00    -0.267 OA
HETATM   12  N1  UNL     1       3.666   0.540   0.155  1.00  0.00    -0.306 N 
ATOM     13  H1  UNL     1       3.614   1.265   0.871  1.00  0.00     0.170 HD
BRANCH  12  14
HETATM   14  C5  UNL     1       4.962   0.096  -0.209  1.00  0.00     0.161 A 
HETATM   15  N2  UNL     1       5.221  -0.832  -1.114  1.00  0.00    -0.174 N 
HETATM   16  C6  UNL     1       6.484  -1.231  -1.435  1.00  0.00     0.679 A 
ATOM     17  H2  UNL     1       4.437  -1.271  -1.596  1.00  0.00     0.186 HD
HETATM   18  N4  UNL     1       7.492  -0.650  -0.800  1.00  0.00    -0.168 N 
HETATM   19  C7  UNL     1       7.331   0.291   0.124  1.00  0.00     0.192 A 
ATOM     20  H4  UNL     1       8.442  -0.941  -1.033  1.00  0.00     0.186 HD
HETATM   21  C8  UNL     1       6.043   0.698   0.452  1.00  0.00     0.162 A 
BRANCH  16  22
HETATM   22  N3  UNL     1       6.716  -2.134  -2.316  1.00  0.00    -0.234 N 
ATOM     23  H32 UNL     1       5.940  -2.581  -2.805  1.00  0.00     0.174 HD
ATOM     24  H31 UNL     1       7.661  -2.433  -2.556  1.00  0.00     0.174 HD
ENDBRANCH  16  22
BRANCH  19  25
HETATM   25  O2  UNL     1       8.418   0.891   0.782  1.00  0.00    -0.344 OA
ATOM     26  H2  UNL     1       8.303   1.564   1.443  1.00  0.00     0.219 HD
ENDBRANCH  19  25
BRANCH  21  27
HETATM   27  O3  UNL     1       5.911   1.674   1.411  1.00  0.00    -0.354 OA
ATOM     28  H3  UNL     1       6.643   2.082   1.859  1.00  0.00     0.218 HD
ENDBRANCH  21  27
ENDBRANCH  12  14
ENDBRANCH   3  10
BRANCH   9  29
HETATM   29  C11 UNL     1      -2.333  -0.321   0.976  1.00  0.00     0.266 C 
HETATM   30  O9  UNL     1      -3.338   0.706   1.169  1.00  0.00    -0.316 OA
HETATM   31  C13 UNL     1      -4.532   0.229   0.788  1.00  0.00     0.287 C 
HETATM   32  O11 UNL     1      -4.406  -1.024   0.250  1.00  0.00    -0.346 OA
HETATM   33  C15 UNL     1      -2.982  -1.180   0.024  1.00  0.00     0.223 C 
BRANCH  29  34
HETATM   34  C12 UNL     1      -2.244  -0.874   2.387  1.00  0.00     0.235 C 
HETATM   35  O7  UNL     1      -2.811  -0.204   3.287  1.00  0.00    -0.644 OA
HETATM   36  O8  UNL     1      -1.596  -2.039   2.737  1.00  0.00    -0.644 OA
ENDBRANCH  29  34
BRANCH  31  37
HETATM   37  C14 UNL     1      -5.641   0.261   1.833  1.00  0.00     0.224 C 
BRANCH  37  38
HETATM   38  O10 UNL     1      -6.825  -0.237   1.223  1.00  0.00    -0.396 OA
ATOM     39  H10 UNL     1      -7.516  -0.217   1.874  1.00  0.00     0.209 HD
ENDBRANCH  37  38
ENDBRANCH  31  37
BRANCH  33  40
HETATM   40  C16 UNL     1      -2.850  -1.111  -1.441  1.00  0.00     0.176 C 
BRANCH  40  41
HETATM   41  O12 UNL     1      -3.629  -2.283  -1.889  1.00  0.00    -0.391 OA
ATOM     42  H12 UNL     1      -3.544  -2.238  -2.834  1.00  0.00     0.210 HD
ENDBRANCH  40  41
BRANCH  40  43
HETATM   43  C17 UNL     1      -3.539  -0.010  -2.186  1.00  0.00     0.198 C 
BRANCH  43  44
HETATM   44  O13 UNL     1      -3.020   1.253  -2.022  1.00  0.00    -0.398 OA
ATOM     45  H13 UNL     1      -3.457   1.952  -2.495  1.00  0.00     0.209 HD
ENDBRANCH  43  44
ENDBRANCH  40  43
ENDBRANCH  33  40
ENDBRANCH   9  29
BRANCH   6  46
HETATM   46  O5  UNL     1      -0.066   3.918   0.873  1.00  0.00    -0.276 OA
ATOM     47  H5  UNL     1      -0.890   4.305   1.145  1.00  0.00     0.245 HD
ENDBRANCH   6  46
TORSDOF 14
