REMARK  5 active torsions:
REMARK  status: ('A' for Active; 'I' for Inactive)
REMARK    1  A    between atoms: O1_2  and  C2_3 
REMARK    2  A    between atoms: C5_6  and  O2_7 
REMARK    3  A    between atoms: C9_11  and  O3_12 
REMARK    4  A    between atoms: C16_22  and  O7_23 
REMARK    5  A    between atoms: C17_25  and  O8_26 
ROOT
HETATM    1  C2  UNL     1      -2.587   1.361   0.004  1.00  0.00     0.113 A 
HETATM    2  C3  UNL     1      -2.902   0.044   0.263  1.00  0.00     0.008 A 
HETATM    3  C4  UNL     1      -4.259  -0.329   0.702  1.00  0.00     0.054 C 
HETATM    4  C5  UNL     1      -1.956  -0.977   0.120  1.00  0.00     0.088 A 
HETATM    5  C7  UNL     1      -0.712  -0.648  -0.283  1.00  0.00     0.043 A 
HETATM    6  C8  UNL     1      -0.384   0.700  -0.548  1.00  0.00     0.120 A 
HETATM    7  C9  UNL     1      -1.312   1.707  -0.408  1.00  0.00     0.136 A 
HETATM    8  O4  UNL     1       0.856   1.188  -0.967  1.00  0.00    -0.314 OA
HETATM    9  C11 UNL     1       2.081   0.468  -0.837  1.00  0.00     0.301 C 
HETATM   10  O5  UNL     1       3.072   1.410  -0.566  1.00  0.00    -0.323 OA
HETATM   11  C12 UNL     1       4.060   0.658   0.059  1.00  0.00     0.160 C 
HETATM   12  C13 UNL     1       4.791   1.491   1.081  1.00  0.00     0.078 C 
HETATM   13  C14 UNL     1       5.021   0.216  -1.046  1.00  0.00     0.078 C 
HETATM   14  O6  UNL     1       3.467  -0.401   0.698  1.00  0.00    -0.343 OA
HETATM   15  C15 UNL     1       2.099  -0.341   0.444  1.00  0.00     0.212 C 
HETATM   16  C16 UNL     1       1.479  -1.682   0.359  1.00  0.00     0.185 C 
HETATM   17  C17 UNL     1       0.225  -1.759  -0.469  1.00  0.00     0.191 C 
ENDROOT
BRANCH   1  18
HETATM   18  O1  UNL     1      -3.547   2.350   0.155  1.00  0.00    -0.352 OA
HETATM   19  C1  UNL     1      -3.779   3.056   1.344  1.00  0.00     0.210 C 
ENDBRANCH   1  18
BRANCH   7  20
HETATM   20  O3  UNL     1      -0.983   3.022  -0.669  1.00  0.00    -0.351 OA
HETATM   21  C10 UNL     1      -1.185   3.472  -2.015  1.00  0.00     0.210 C 
ENDBRANCH   7  20
BRANCH   4  22
HETATM   22  O2  UNL     1      -2.367  -2.235   0.400  1.00  0.00    -0.355 OA
HETATM   23  C6  UNL     1      -2.365  -2.759   1.743  1.00  0.00     0.210 C 
ENDBRANCH   4  22
BRANCH  17  24
HETATM   24  O8  UNL     1      -0.352  -2.986  -0.408  1.00  0.00    -0.383 OA
HETATM   25  C18 UNL     1      -0.297  -3.738  -1.555  1.00  0.00     0.202 C 
ENDBRANCH  17  24
BRANCH  16  26
HETATM   26  O7  UNL     1       1.196  -2.139   1.637  1.00  0.00    -0.390 OA
ATOM     27  H7  UNL     1       0.798  -3.000   1.582  1.00  0.00     0.210 HD
ENDBRANCH  16  26
TORSDOF 5
