REMARK  13 active torsions:
REMARK  status: ('A' for Active; 'I' for Inactive)
REMARK    1  A    between atoms: S1_2  and  N1_4 
REMARK    2  A    between atoms: S1_2  and  C2_9 
REMARK    3  A    between atoms: N1_4  and  N2_6 
REMARK    4  A    between atoms: C2_9  and  N3_10 
REMARK    5  A    between atoms: C2_9  and  C5_25 
REMARK    6  A    between atoms: N3_10  and  C3_12 
REMARK    7  A    between atoms: C4_17  and  S2_18 
REMARK    8  A    between atoms: S2_18  and  N6_19 
REMARK    9  A    between atoms: C5_25  and  O4_26 
REMARK   10  A    between atoms: C5_25  and  C6_28 
REMARK   11  A    between atoms: C6_28  and  N7_29 
REMARK   12  A    between atoms: C6_28  and  C7_33 
REMARK   13  A    between atoms: C7_33  and  O5_34 
ROOT
HETATM    1  C2  UNL     1      -0.924   0.574   0.276  1.00  0.00     0.217 C 
ENDROOT
BRANCH   1   2
HETATM    2  S1  UNL     1      -1.766   2.132   0.111  1.00  0.00     0.058 S 
HETATM    3  C1  UNL     1      -2.905   2.397   1.443  1.00  0.00     0.140 C 
HETATM    4  O1  UNL     1      -0.772   3.255   0.128  1.00  0.00    -0.247 OA
BRANCH   2   5
HETATM    5  N1  UNL     1      -2.563   2.208  -1.232  1.00  0.00    -0.265 N 
ATOM      6  H1  UNL     1      -3.511   1.833  -1.270  1.00  0.00     0.196 HD
BRANCH   5   7
HETATM    7  N2  UNL     1      -2.010   2.775  -2.377  1.00  0.00    -0.338 N 
ATOM      8  H22 UNL     1      -1.061   3.145  -2.321  1.00  0.00     0.177 HD
ATOM      9  H21 UNL     1      -2.530   2.825  -3.253  1.00  0.00     0.177 HD
ENDBRANCH   5   7
ENDBRANCH   2   5
ENDBRANCH   1   2
BRANCH   1  10
HETATM   10  N3  UNL     1      -0.097   0.408  -0.896  1.00  0.00    -0.350 N 
ATOM     11  H3  UNL     1      -0.544   0.274  -1.803  1.00  0.00     0.163 HD
BRANCH  10  12
HETATM   12  C3  UNL     1       1.203   0.424  -0.827  1.00  0.00     0.163 A 
HETATM   13  N4  UNL     1       2.071   0.282  -1.829  1.00  0.00    -0.278 N 
HETATM   14  N5  UNL     1       3.312   0.324  -1.573  1.00  0.00    -0.281 N 
ATOM     15  H4  UNL     1       1.743   0.142  -2.784  1.00  0.00     0.189 HD
HETATM   16  C4  UNL     1       3.737   0.505  -0.335  1.00  0.00     0.208 A 
ATOM     17  H5  UNL     1       3.988   0.217  -2.329  1.00  0.00     0.188 HD
HETATM   18  S3  UNL     1       2.259   0.621   0.511  1.00  0.00    -0.020 SA
BRANCH  16  19
HETATM   19  S2  UNL     1       5.417   0.589   0.189  1.00  0.00     0.280 S 
HETATM   20  O2  UNL     1       6.285   1.176  -0.876  1.00  0.00    -0.199 OA
HETATM   21  O3  UNL     1       5.493   1.462   1.431  1.00  0.00    -0.199 OA
BRANCH  19  22
HETATM   22  N6  UNL     1       6.021  -0.976   0.605  1.00  0.00    -0.323 N 
ATOM     23  H62 UNL     1       5.464  -1.829   0.549  1.00  0.00     0.169 HD
ATOM     24  H61 UNL     1       6.994  -0.927   0.908  1.00  0.00     0.169 HD
ENDBRANCH  19  22
ENDBRANCH  16  19
ENDBRANCH  10  12
ENDBRANCH   1  10
BRANCH   1  25
HETATM   25  C5  UNL     1      -1.911  -0.574   0.287  1.00  0.00     0.186 C 
BRANCH  25  26
HETATM   26  O4  UNL     1      -2.771  -0.551   1.352  1.00  0.00    -0.390 OA
ATOM     27  H4  UNL     1      -3.390  -1.271   1.359  1.00  0.00     0.210 HD
ENDBRANCH  25  26
BRANCH  25  28
HETATM   28  C6  UNL     1      -1.141  -1.877   0.183  1.00  0.00     0.238 C 
BRANCH  28  29
HETATM   29  N7  UNL     1      -0.368  -2.048   1.402  1.00  0.00    -0.070 N 
ATOM     30  H73 UNL     1       0.235  -1.250   1.600  1.00  0.00     0.274 HD
ATOM     31  H72 UNL     1      -0.944  -1.998   2.243  1.00  0.00     0.274 HD
ATOM     32  H71 UNL     1       0.150  -2.924   1.332  1.00  0.00     0.274 HD
ENDBRANCH  28  29
BRANCH  28  33
HETATM   33  C7  UNL     1      -2.058  -3.048  -0.035  1.00  0.00     0.199 C 
BRANCH  33  34
HETATM   34  O5  UNL     1      -2.934  -3.155   1.046  1.00  0.00    -0.399 OA
ATOM     35  H5  UNL     1      -3.514  -3.895   0.908  1.00  0.00     0.209 HD
ENDBRANCH  33  34
ENDBRANCH  28  33
ENDBRANCH  25  28
ENDBRANCH   1  25
TORSDOF 13
