REMARK  7 active torsions:
REMARK  status: ('A' for Active; 'I' for Inactive)
REMARK    1  A    between atoms: C2_5  and  N3_6 
REMARK    2  A    between atoms: N3_6  and  C3_8 
REMARK    3  A    between atoms: C3_8  and  C4_9 
REMARK       I    between atoms: C4_9  and  N4_11 
REMARK    4  A    between atoms: N4_11  and  C5_13 
REMARK    5  A    between atoms: C5_13  and  C6_14 
REMARK    6  A    between atoms: C6_14  and  N5_15 
REMARK    7  A    between atoms: C6_14  and  C7_19 
ROOT
HETATM    1  C1  UNL     1      -1.987   2.943  -0.431  1.00  0.00     0.178 C 
HETATM    2  N1  UNL     1      -1.655   1.562  -0.542  1.00  0.00    -0.288 N 
HETATM    3  N2  UNL     1      -0.436   1.144  -0.918  1.00  0.00    -0.281 N 
ATOM      4  H2  UNL     1       0.338   1.766  -1.151  1.00  0.00     0.189 HD
HETATM    5  C2  UNL     1      -0.367  -0.174  -0.948  1.00  0.00     0.146 A 
HETATM    6  C8  UNL     1      -1.590  -0.662  -0.578  1.00  0.00     0.128 A 
HETATM    7  N6  UNL     1      -2.157  -1.866  -0.412  1.00  0.00    -0.183 N 
ATOM      8  H6  UNL     1      -1.612  -2.711  -0.584  1.00  0.00     0.184 HD
HETATM    9  C9  UNL     1      -3.437  -1.967  -0.021  1.00  0.00     0.711 A 
HETATM   10  N7  UNL     1      -4.172  -3.069   0.196  1.00  0.00    -0.138 N 
ATOM     11  H7  UNL     1      -3.870  -4.038   0.096  1.00  0.00     0.189 HD
HETATM   12  C10 UNL     1      -5.386  -2.635   0.571  1.00  0.00     0.356 A 
HETATM   13  O4  UNL     1      -6.346  -3.393   0.859  1.00  0.00    -0.244 OA
HETATM   14  N8  UNL     1      -5.424  -1.290   0.592  1.00  0.00    -0.222 N 
HETATM   15  C11 UNL     1      -6.566  -0.510   0.947  1.00  0.00     0.184 C 
HETATM   16  N9  UNL     1      -4.215  -0.902   0.225  1.00  0.00    -0.039 N 
HETATM   17  C12 UNL     1      -3.688   0.325   0.072  1.00  0.00     0.313 A 
HETATM   18  O5  UNL     1      -4.406   1.316   0.299  1.00  0.00    -0.263 OA
HETATM   19  C13 UNL     1      -2.375   0.447  -0.329  1.00  0.00     0.152 A 
ENDROOT
BRANCH   5  20
HETATM   20  N3  UNL     1       0.631  -0.926  -1.259  1.00  0.00    -0.365 N 
ATOM     21  H3  UNL     1       0.552  -1.943  -1.242  1.00  0.00     0.161 HD
BRANCH  20  22
HETATM   22  C3  UNL     1       1.871  -0.276  -1.634  1.00  0.00     0.224 C 
BRANCH  22  23
HETATM   23  C4  UNL     1       2.648   0.155  -0.430  1.00  0.00     0.235 C 
HETATM   24  O1  UNL     1       2.195  -0.065   0.704  1.00  0.00    -0.272 OA
HETATM   25  N4  UNL     1       3.886   0.806  -0.667  1.00  0.00    -0.357 N 
ATOM     26  H4  UNL     1       4.205   0.964  -1.623  1.00  0.00     0.162 HD
BRANCH  25  27
HETATM   27  C5  UNL     1       4.689   1.242   0.437  1.00  0.00     0.166 C 
BRANCH  27  28
HETATM   28  C6  UNL     1       5.116   0.064   1.273  1.00  0.00     0.300 C 
BRANCH  28  29
HETATM   29  N5  UNL     1       5.930   0.569   2.376  1.00  0.00    -0.064 N 
ATOM     30  H53 UNL     1       6.717   1.135   2.060  1.00  0.00     0.275 HD
ATOM     31  H52 UNL     1       5.455   1.289   2.921  1.00  0.00     0.275 HD
ATOM     32  H51 UNL     1       6.219  -0.229   2.942  1.00  0.00     0.275 HD
ENDBRANCH  28  29
BRANCH  28  33
HETATM   33  C7  UNL     1       5.917  -0.825   0.394  1.00  0.00     0.206 C 
HETATM   34  O2  UNL     1       7.121  -1.056   0.636  1.00  0.00    -0.646 OA
HETATM   35  O3  UNL     1       5.310  -1.398  -0.704  1.00  0.00    -0.646 OA
ENDBRANCH  28  33
ENDBRANCH  27  28
ENDBRANCH  25  27
ENDBRANCH  22  23
ENDBRANCH  20  22
ENDBRANCH   5  20
TORSDOF 7
