REMARK  8 active torsions:
REMARK  status: ('A' for Active; 'I' for Inactive)
REMARK    1  A    between atoms: C1_4  and  C2_5 
REMARK    2  A    between atoms: C3_8  and  N3_9 
REMARK    3  A    between atoms: N4_15  and  C8_16 
REMARK    4  A    between atoms: C8_16  and  C9_17 
REMARK    5  A    between atoms: C10_20  and  C11_21 
REMARK    6  A    between atoms: C11_21  and  N6_22 
REMARK    7  A    between atoms: C11_21  and  O2_26 
REMARK    8  A    between atoms: N9_33  and  O3_34 
ROOT
HETATM    1  C2  UNL     1      -2.888   2.680   0.345  1.00  0.00     0.135 A 
HETATM    2  N2  UNL     1      -2.813   1.493  -0.299  1.00  0.00    -0.183 N 
ATOM      3  H2  UNL     1      -3.457   1.315  -1.070  1.00  0.00     0.184 HD
HETATM    4  C3  UNL     1      -1.912   0.520   0.038  1.00  0.00     0.700 A 
HETATM    5  N4  UNL     1      -1.074   0.765   1.048  1.00  0.00    -0.092 N 
HETATM    6  N9  UNL     1      -1.108   1.929   1.721  1.00  0.00    -0.104 N 
HETATM    7  C14 UNL     1      -2.006   2.862   1.364  1.00  0.00     0.316 A 
HETATM    8  O4  UNL     1      -2.012   3.951   2.020  1.00  0.00    -0.262 OA
ENDROOT
BRANCH   5   9
HETATM    9  C8  UNL     1      -0.067  -0.159   1.438  1.00  0.00     0.203 C 
BRANCH   9  10
HETATM   10  C9  UNL     1       1.322   0.118   0.904  1.00  0.00     0.162 C 
HETATM   11  N5  UNL     1       1.484   0.144  -0.480  1.00  0.00    -0.400 N 
HETATM   12  C10 UNL     1       2.630  -0.464  -1.060  1.00  0.00     0.151 C 
ATOM     13  H5  UNL     1       0.786   0.595  -1.071  1.00  0.00     0.154 HD
HETATM   14  C12 UNL     1       2.883  -1.837  -0.465  1.00  0.00     0.149 C 
HETATM   15  N7  UNL     1       2.898  -1.698   0.955  1.00  0.00    -0.378 N 
HETATM   16  C13 UNL     1       2.217  -0.840   1.590  1.00  0.00     0.113 C 
ATOM     17  H7  UNL     1       3.494  -2.329   1.491  1.00  0.00     0.160 HD
HETATM   18  N8  UNL     1       2.312  -0.784   3.053  1.00  0.00    -0.086 NA
BRANCH  12  19
HETATM   19  C11 UNL     1       3.893   0.345  -0.875  1.00  0.00     0.340 C 
BRANCH  19  20
HETATM   20  N6  UNL     1       5.058  -0.251  -1.487  1.00  0.00    -0.051 N 
ATOM     21  H63 UNL     1       5.190  -1.206  -1.155  1.00  0.00     0.277 HD
ATOM     22  H62 UNL     1       4.890  -0.436  -2.476  1.00  0.00     0.277 HD
ATOM     23  H61 UNL     1       5.910   0.295  -1.362  1.00  0.00     0.277 HD
ENDBRANCH  19  20
BRANCH  19  24
HETATM   24  O2  UNL     1       3.728   1.621  -1.474  1.00  0.00    -0.368 OA
ATOM     25  H2  UNL     1       4.522   2.130  -1.358  1.00  0.00     0.212 HD
ENDBRANCH  19  24
ENDBRANCH  12  19
ENDBRANCH   9  10
ENDBRANCH   5   9
BRANCH   4  26
HETATM   26  N3  UNL     1      -2.033  -0.670  -0.702  1.00  0.00    -0.212 N 
HETATM   27  C4  UNL     1      -2.643  -1.820  -0.048  1.00  0.00     0.167 C 
HETATM   28  C5  UNL     1      -2.126  -3.127  -0.546  1.00  0.00     0.188 C 
HETATM   29  O1  UNL     1      -2.191  -3.201  -1.910  1.00  0.00    -0.388 OA
HETATM   30  C6  UNL     1      -2.570  -2.040  -2.545  1.00  0.00     0.188 C 
HETATM   31  C7  UNL     1      -1.660  -0.886  -2.079  1.00  0.00     0.167 C 
ENDBRANCH   4  26
BRANCH   6  32
HETATM   32  O3  UNL     1      -0.260   2.204   2.760  1.00  0.00    -0.264 OA
ATOM     33  H3  UNL     1      -0.284   3.026   3.235  1.00  0.00     0.247 HD
ENDBRANCH   6  32
BRANCH   1  34
HETATM   34  C1  UNL     1      -3.867   3.630  -0.091  1.00  0.00     0.116 C 
HETATM   35  N1  UNL     1      -4.113   4.793   0.360  1.00  0.00    -0.406 N 
ATOM     36  H12 UNL     1      -3.521   5.073   1.142  1.00  0.00     0.155 HD
ATOM     37  H11 UNL     1      -4.810   5.470   0.049  1.00  0.00     0.155 HD
ENDBRANCH   1  34
TORSDOF 8
