REMARK  14 active torsions:
REMARK  status: ('A' for Active; 'I' for Inactive)
REMARK    1  A    between atoms: O1_2  and  C2_3 
REMARK    2  A    between atoms: C2_3  and  S1_5 
REMARK    3  A    between atoms: S1_5  and  C3_6 
REMARK    4  A    between atoms: C4_9  and  N2_10 
REMARK    5  A    between atoms: N2_10  and  N3_12 
REMARK    6  A    between atoms: N3_12  and  C5_14 
REMARK    7  A    between atoms: C7_18  and  C8_19 
REMARK    8  A    between atoms: C9_24  and  C10_25 
REMARK       I    between atoms: C10_25  and  N6_27 
REMARK    9  A    between atoms: N6_27  and  N7_29 
REMARK   10  A    between atoms: N7_29  and  C11_30 
REMARK   11  A    between atoms: C11_30  and  O6_31 
REMARK   12  A    between atoms: C11_30  and  C12_33 
REMARK   13  A    between atoms: C12_33  and  C15_36 
REMARK   14  A    between atoms: C15_36  and  O7_38 
ROOT
HETATM    1  C3  UNL     1       1.028   0.024  -0.622  1.00  0.00     0.104 A 
HETATM    2  N1  UNL     1       2.340   0.043  -0.660  1.00  0.00    -0.328 N 
ATOM      3  H1  UNL     1       2.866   0.526   0.069  1.00  0.00     0.168 HD
HETATM    4  C4  UNL     1       2.978  -0.565  -1.645  1.00  0.00     0.165 A 
HETATM    5  S2  UNL     1       1.711  -1.200  -2.578  1.00  0.00    -0.044 SA
HETATM    6  C9  UNL     1       0.367  -0.631  -1.618  1.00  0.00     0.111 A 
ENDROOT
BRANCH   6   7
HETATM    7  C10 UNL     1      -1.034  -0.876  -1.928  1.00  0.00     0.277 C 
HETATM    8  O5  UNL     1      -1.249  -1.560  -2.988  1.00  0.00    -0.266 OA
HETATM    9  N6  UNL     1      -2.138  -0.445  -1.193  1.00  0.00    -0.267 N 
ATOM     10  H6  UNL     1      -2.013   0.100  -0.340  1.00  0.00     0.185 HD
BRANCH   9  11
HETATM   11  N7  UNL     1      -3.419  -0.774  -1.647  1.00  0.00    -0.105 NA
BRANCH  11  12
HETATM   12  C11 UNL     1      -4.426  -0.050  -0.931  1.00  0.00     0.241 C 
BRANCH  12  13
HETATM   13  O6  UNL     1      -4.127   1.314  -0.887  1.00  0.00    -0.377 OA
ATOM     14  H6  UNL     1      -4.795   1.794  -0.412  1.00  0.00     0.211 HD
ENDBRANCH  12  13
BRANCH  12  15
HETATM   15  C12 UNL     1      -4.833  -0.596   0.378  1.00  0.00     0.020 C 
HETATM   16  C13 UNL     1      -3.784  -0.711   1.428  1.00  0.00     0.021 C 
HETATM   17  C14 UNL     1      -5.374  -2.017   0.140  1.00  0.00     0.021 C 
BRANCH  15  18
HETATM   18  C15 UNL     1      -5.955   0.277   0.923  1.00  0.00     0.125 C 
HETATM   19  C16 UNL     1      -7.134   0.284  -0.013  1.00  0.00     0.040 C 
BRANCH  18  20
HETATM   20  O7  UNL     1      -5.473   1.570   1.024  1.00  0.00    -0.395 OA
ATOM     21  H7  UNL     1      -6.173   2.115   1.364  1.00  0.00     0.210 HD
ENDBRANCH  18  20
ENDBRANCH  15  18
ENDBRANCH  12  15
ENDBRANCH  11  12
ENDBRANCH   9  11
ENDBRANCH   6   7
BRANCH   1  22
HETATM   22  S1  UNL     1       0.090   0.856   0.728  1.00  0.00    -0.002 SA
BRANCH  22  23
HETATM   23  C2  UNL     1      -0.236   2.547   0.265  1.00  0.00     0.328 C 
HETATM   24  O2  UNL     1       0.121   3.076  -0.795  1.00  0.00    -0.251 OA
BRANCH  23  25
HETATM   25  O1  UNL     1      -0.945   3.307   1.178  1.00  0.00    -0.317 OA
HETATM   26  C1  UNL     1      -1.293   4.657   0.978  1.00  0.00     0.214 C 
ENDBRANCH  23  25
ENDBRANCH  22  23
ENDBRANCH   1  22
BRANCH   4  27
HETATM   27  N2  UNL     1       4.277  -0.654  -1.843  1.00  0.00    -0.277 N 
ATOM     28  H2  UNL     1       4.652  -1.154  -2.649  1.00  0.00     0.189 HD
BRANCH  27  29
HETATM   29  N3  UNL     1       5.124  -0.045  -0.920  1.00  0.00    -0.263 N 
ATOM     30  H3  UNL     1       5.068   0.963  -0.773  1.00  0.00     0.190 HD
BRANCH  29  31
HETATM   31  C5  UNL     1       6.074  -0.819  -0.174  1.00  0.00     0.235 C 
HETATM   32  N4  UNL     1       5.815  -1.665   0.771  1.00  0.00    -0.352 N 
HETATM   33  C6  UNL     1       7.059  -2.234   1.266  1.00  0.00     0.165 C 
ATOM     34  H4  UNL     1       4.883  -1.897   1.115  1.00  0.00     0.163 HD
HETATM   35  C7  UNL     1       8.092  -1.833   0.224  1.00  0.00     0.238 C 
HETATM   36  O4  UNL     1       7.442  -0.735  -0.401  1.00  0.00    -0.305 OA
BRANCH  35  37
HETATM   37  C8  UNL     1       9.351  -1.435   0.872  1.00  0.00     0.262 C 
HETATM   38  N5  UNL     1       9.784  -0.086   0.825  1.00  0.00    -0.060 NA
HETATM   39  O3  UNL     1      10.070  -2.264   1.479  1.00  0.00    -0.274 OA
ENDBRANCH  35  37
ENDBRANCH  29  31
ENDBRANCH  27  29
ENDBRANCH   4  27
TORSDOF 14
