REMARK  10 active torsions:
REMARK  status: ('A' for Active; 'I' for Inactive)
REMARK    1  A    between atoms: C2_2  and  N1_3 
REMARK    2  A    between atoms: N1_3  and  C3_4 
REMARK    3  A    between atoms: N1_3  and  C5_10 
REMARK    4  A    between atoms: C3_4  and  C4_5 
REMARK    5  A    between atoms: C4_5  and  N2_6 
REMARK    6  A    between atoms: C5_10  and  C6_11 
REMARK    7  A    between atoms: C8_13  and  N3_14 
REMARK    8  A    between atoms: C9_15  and  C10_16 
REMARK    9  A    between atoms: C11_22  and  N6_23 
REMARK       I    between atoms: N6_23  and  C12_25 
REMARK       I    between atoms: C12_25  and  N7_26 
REMARK       I    between atoms: C12_25  and  N8_30 
REMARK   10  A    between atoms: C15_36  and  N9_37 
REMARK       I    between atoms: N9_37  and  C16_39 
REMARK       I    between atoms: C16_39  and  N10_40 
REMARK       I    between atoms: C16_39  and  N11_44 
ROOT
HETATM    1  N3  UNL     1      -0.908   0.243   0.391  1.00  0.00    -0.302 N 
HETATM    2  C9  UNL     1      -2.063   0.885   0.590  1.00  0.00     0.072 A 
HETATM    3  C13 UNL     1      -3.093  -0.007   0.412  1.00  0.00     0.051 A 
HETATM    4  C14 UNL     1      -2.553  -1.258   0.088  1.00  0.00     0.054 A 
HETATM    5  C15 UNL     1      -3.100  -2.495  -0.192  1.00  0.00     0.119 A 
HETATM    6  N12 UNL     1      -2.310  -3.544  -0.477  1.00  0.00    -0.338 N 
ATOM      7  H12 UNL     1      -2.706  -4.461  -0.685  1.00  0.00     0.168 HD
HETATM    8  C17 UNL     1      -0.972  -3.343  -0.479  1.00  0.00     0.183 A 
HETATM    9  N13 UNL     1      -0.447  -2.139  -0.206  1.00  0.00    -0.338 N 
ATOM     10  H13 UNL     1       0.568  -2.039  -0.220  1.00  0.00     0.168 HD
HETATM   11  C18 UNL     1      -1.187  -1.063   0.084  1.00  0.00     0.125 A 
ENDROOT
BRANCH   2  12
HETATM   12  C10 UNL     1      -2.251   2.287   0.936  1.00  0.00     0.129 A 
HETATM   13  N4  UNL     1      -1.599   3.011   1.863  1.00  0.00    -0.236 N 
HETATM   14  O1  UNL     1      -2.072   4.212   1.848  1.00  0.00    -0.155 OA
ATOM     15  H4  UNL     1      -0.857   2.669   2.474  1.00  0.00     0.197 HD
HETATM   16  N5  UNL     1      -3.007   4.327   0.957  1.00  0.00    -0.223 N 
HETATM   17  C11 UNL     1      -3.164   3.152   0.352  1.00  0.00     0.157 A 
ATOM     18  H5  UNL     1      -3.534   5.176   0.754  1.00  0.00     0.198 HD
BRANCH  17  19
HETATM   19  N6  UNL     1      -3.993   2.819  -0.605  1.00  0.00    -0.324 N 
HETATM   20  C12 UNL     1      -4.872   3.869  -1.083  1.00  0.00     0.481 C 
HETATM   21  N7  UNL     1      -5.396   3.580  -2.406  1.00  0.00    -0.033 N 
HETATM   22  N8  UNL     1      -6.009   4.090  -0.215  1.00  0.00    -0.033 N 
ATOM     23  H73 UNL     1      -4.644   3.396  -3.070  1.00  0.00     0.278 HD
ATOM     24  H72 UNL     1      -5.858   2.671  -2.431  1.00  0.00     0.278 HD
ATOM     25  H71 UNL     1      -6.014   4.318  -2.742  1.00  0.00     0.278 HD
ATOM     26  H83 UNL     1      -6.525   3.224  -0.062  1.00  0.00     0.278 HD
ATOM     27  H82 UNL     1      -5.707   4.274   0.742  1.00  0.00     0.278 HD
ATOM     28  H81 UNL     1      -6.627   4.828  -0.551  1.00  0.00     0.278 HD
ATOM     29  H6  UNL     1      -4.019   1.876  -0.992  1.00  0.00     0.165 HD
ENDBRANCH  17  19
ENDBRANCH   2  12
BRANCH   1  30
HETATM   30  C8  UNL     1       0.371   0.838   0.488  1.00  0.00     0.230 C 
HETATM   31  C7  UNL     1       1.536   0.076  -0.020  1.00  0.00     0.063 C 
HETATM   32  C6  UNL     1       2.703   0.926   0.505  1.00  0.00     0.036 C 
HETATM   33  C19 UNL     1       2.079   1.624   1.658  1.00  0.00     0.126 C 
HETATM   34  O2  UNL     1       0.763   1.196   1.780  1.00  0.00    -0.361 OA
HETATM   35  C20 UNL     1       2.767   1.400   2.984  1.00  0.00     0.040 C 
BRANCH  32  36
HETATM   36  C5  UNL     1       3.829  -0.003   0.966  1.00  0.00     0.124 C 
BRANCH  36  37
HETATM   37  N1  UNL     1       4.330  -0.821  -0.051  1.00  0.00    -0.411 N 
BRANCH  37  38
HETATM   38  C2  UNL     1       5.281  -1.824   0.334  1.00  0.00     0.112 C 
HETATM   39  C1  UNL     1       5.237  -3.003  -0.611  1.00  0.00     0.026 C 
ENDBRANCH  37  38
BRANCH  37  40
HETATM   40  C3  UNL     1       4.747  -0.240  -1.283  1.00  0.00     0.144 C 
BRANCH  40  41
HETATM   41  C4  UNL     1       6.020   0.534  -1.262  1.00  0.00     0.248 C 
BRANCH  41  42
HETATM   42  N2  UNL     1       6.004   1.637  -0.367  1.00  0.00    -0.078 N 
ATOM     43  H23 UNL     1       5.214   2.250  -0.566  1.00  0.00     0.274 HD
ATOM     44  H22 UNL     1       5.752   1.333   0.574  1.00  0.00     0.274 HD
ATOM     45  H21 UNL     1       6.875   2.167  -0.353  1.00  0.00     0.274 HD
ENDBRANCH  41  42
ENDBRANCH  40  41
ENDBRANCH  37  40
ENDBRANCH  36  37
ENDBRANCH  32  36
ENDBRANCH   1  30
BRANCH   5  46
HETATM   46  N9  UNL     1      -4.363  -2.595  -0.166  1.00  0.00    -0.326 N 
HETATM   47  C16 UNL     1      -5.177  -3.738  -0.412  1.00  0.00     0.481 C 
HETATM   48  N10 UNL     1      -4.935  -4.849   0.495  1.00  0.00    -0.033 N 
HETATM   49  N11 UNL     1      -5.153  -4.218  -1.772  1.00  0.00    -0.033 N 
ATOM     50 3H10 UNL     1      -3.948  -5.106   0.489  1.00  0.00     0.278 HD
ATOM     51 2H10 UNL     1      -5.030  -4.546   1.464  1.00  0.00     0.278 HD
ATOM     52 1H10 UNL     1      -5.518  -5.667   0.319  1.00  0.00     0.278 HD
ATOM     53 3H11 UNL     1      -5.397  -3.466  -2.416  1.00  0.00     0.278 HD
ATOM     54 2H11 UNL     1      -4.193  -4.398  -2.066  1.00  0.00     0.278 HD
ATOM     55 1H11 UNL     1      -5.736  -5.036  -1.948  1.00  0.00     0.278 HD
ATOM     56  H9  UNL     1      -4.867  -1.738   0.063  1.00  0.00     0.164 HD
ENDBRANCH   5  46
TORSDOF 10
