REMARK  11 active torsions:
REMARK  status: ('A' for Active; 'I' for Inactive)
REMARK    1  A    between atoms: C5_8  and  O1_9 
REMARK    2  A    between atoms: N3_12  and  C7_13 
REMARK    3  A    between atoms: C7_13  and  C8_14 
REMARK    4  A    between atoms: C8_14  and  N4_15 
REMARK    5  A    between atoms: N7_23  and  C12_25 
REMARK    6  A    between atoms: C12_25  and  C13_26 
REMARK    7  A    between atoms: C13_26  and  O2_27 
REMARK    8  A    between atoms: O2_27  and  N8_28 
REMARK    9  A    between atoms: C17_36  and  N11_37 
REMARK   10  A    between atoms: C19_41  and  C20_42 
REMARK   11  A    between atoms: C20_42  and  O3_43 
ROOT
HETATM    1  N1  UNL     1       1.960   1.958   3.603  1.00  0.00    -0.188 NA
HETATM    2  C1  UNL     1       2.100   1.362   2.624  1.00  0.00     0.137 C 
HETATM    3  C2  UNL     1       2.252   0.632   1.401  1.00  0.00     0.191 A 
HETATM    4  N2  UNL     1       3.317   0.863   0.624  1.00  0.00    -0.319 N 
ATOM      5  H2  UNL     1       4.004   1.557   0.917  1.00  0.00     0.169 HD
HETATM    6  C3  UNL     1       3.505   0.204  -0.533  1.00  0.00     0.126 A 
HETATM    7  C4  UNL     1       2.575  -0.729  -0.921  1.00  0.00     0.086 A 
HETATM    8  C5  UNL     1       2.972  -1.269  -2.122  1.00  0.00     0.099 A 
HETATM    9  C6  UNL     1       4.165  -0.619  -2.424  1.00  0.00     0.130 A 
HETATM   10  N3  UNL     1       4.483   0.257  -1.478  1.00  0.00    -0.338 N 
HETATM   11  C11 UNL     1       1.469  -0.959  -0.099  1.00  0.00     0.120 A 
HETATM   12  N7  UNL     1       0.637  -1.826  -0.506  1.00  0.00    -0.373 N 
ATOM     13  H7  UNL     1       0.813  -2.299  -1.392  1.00  0.00     0.161 HD
HETATM   14  N12 UNL     1       1.330  -0.272   1.047  1.00  0.00    -0.319 N 
ATOM     15  H12 UNL     1       0.522  -0.439   1.647  1.00  0.00     0.169 HD
ENDROOT
BRANCH  10  16
HETATM   16  C7  UNL     1       5.618   1.137  -1.377  1.00  0.00     0.152 C 
BRANCH  16  17
HETATM   17  C8  UNL     1       5.348   2.484  -2.009  1.00  0.00     0.170 C 
BRANCH  17  18
HETATM   18  N4  UNL     1       6.490   3.358  -1.911  1.00  0.00    -0.285 N 
HETATM   19  C9  UNL     1       6.845   4.230  -0.975  1.00  0.00     0.201 A 
HETATM   20  N5  UNL     1       8.010   4.849  -1.291  1.00  0.00    -0.346 N 
HETATM   21  C10 UNL     1       8.370   4.325  -2.467  1.00  0.00     0.198 A 
ATOM     22  H5  UNL     1       8.503   5.559  -0.750  1.00  0.00     0.167 HD
HETATM   23  N6  UNL     1       7.438   3.412  -2.846  1.00  0.00    -0.293 N 
ATOM     24  H6  UNL     1       7.460   2.860  -3.703  1.00  0.00     0.188 HD
ENDBRANCH  17  18
ENDBRANCH  16  17
ENDBRANCH  10  16
BRANCH  12  25
HETATM   25  C12 UNL     1      -0.543  -2.164   0.236  1.00  0.00     0.149 C 
BRANCH  25  26
HETATM   26  C13 UNL     1      -1.667  -1.193  -0.155  1.00  0.00     0.213 C 
BRANCH  26  27
HETATM   27  O2  UNL     1      -2.809  -1.504   0.557  1.00  0.00    -0.301 OA
BRANCH  27  28
HETATM   28  N8  UNL     1      -3.822  -0.673   0.187  1.00  0.00    -0.186 NA
HETATM   29  C14 UNL     1      -5.008  -1.489  -0.113  1.00  0.00     0.165 C 
HETATM   30  C15 UNL     1      -5.468  -2.089   1.165  1.00  0.00     0.026 A 
HETATM   31  C16 UNL     1      -5.659  -1.177   2.197  1.00  0.00     0.038 A 
HETATM   32  C17 UNL     1      -5.752  -3.359   1.600  1.00  0.00     0.123 A 
HETATM   33  N9  UNL     1      -6.056  -1.916   3.240  1.00  0.00    -0.303 N 
HETATM   34  C18 UNL     1      -5.389   0.228   1.842  1.00  0.00     0.083 C 
HETATM   35  N10 UNL     1      -6.115  -3.198   2.903  1.00  0.00    -0.285 N 
ATOM     36  H9  UNL     1      -6.281  -1.546   4.163  1.00  0.00     0.186 HD
ATOM     37  H10 UNL     1      -6.392  -3.954   3.529  1.00  0.00     0.188 HD
HETATM   38  C19 UNL     1      -4.021   0.289   1.207  1.00  0.00     0.115 C 
BRANCH  38  39
HETATM   39  C20 UNL     1      -3.750   1.668   0.633  1.00  0.00     0.186 C 
BRANCH  39  40
HETATM   40  O3  UNL     1      -4.659   1.843  -0.422  1.00  0.00    -0.399 OA
ATOM     41  H3  UNL     1      -4.489   2.706  -0.781  1.00  0.00     0.209 HD
ENDBRANCH  39  40
ENDBRANCH  38  39
BRANCH  32  42
HETATM   42  N11 UNL     1      -5.687  -4.469   0.919  1.00  0.00    -0.384 N 
ATOM     43 2H11 UNL     1      -5.415  -4.590  -0.057  1.00  0.00     0.157 HD
ATOM     44 1H11 UNL     1      -5.898  -5.413   1.242  1.00  0.00     0.157 HD
ENDBRANCH  32  42
ENDBRANCH  27  28
ENDBRANCH  26  27
ENDBRANCH  25  26
ENDBRANCH  12  25
BRANCH   8  45
HETATM   45  O1  UNL     1       2.379  -2.226  -2.898  1.00  0.00    -0.358 OA
ATOM     46  H1  UNL     1       2.653  -2.599  -3.728  1.00  0.00     0.217 HD
ENDBRANCH   8  45
TORSDOF 11
