REMARK  10 active torsions:
REMARK  status: ('A' for Active; 'I' for Inactive)
REMARK    1  A    between atoms: C2_2  and  C3_3 
REMARK    2  A    between atoms: C3_3  and  C4_4 
REMARK    3  A    between atoms: C4_4  and  C5_5 
REMARK    4  A    between atoms: C5_5  and  C6_6 
REMARK    5  A    between atoms: C6_6  and  C7_7 
REMARK    6  A    between atoms: C8_9  and  C9_10 
REMARK    7  A    between atoms: C11_12  and  O2_13 
REMARK    8  A    between atoms: C13_19  and  C14_20 
REMARK    9  A    between atoms: C14_20  and  O3_21 
REMARK   10  A    between atoms: C15_24  and  O5_25 
ROOT
HETATM    1  C7  UNL     1       0.155  -0.500   0.047  1.00  0.00     0.177 C 
HETATM    2  O1  UNL     1      -0.769  -0.256  -0.977  1.00  0.00    -0.371 OA
HETATM    3  C8  UNL     1      -1.997  -0.661  -0.533  1.00  0.00     0.183 C 
HETATM    4  C13 UNL     1      -2.053  -1.956   0.169  1.00  0.00     0.179 C 
HETATM    5  O4  UNL     1      -0.893  -2.474   0.647  1.00  0.00    -0.349 OA
HETATM    6  C15 UNL     1       0.275  -1.989   0.090  1.00  0.00     0.286 C 
ENDROOT
BRANCH   3   7
HETATM    7  C9  UNL     1      -2.595   0.475   0.271  1.00  0.00     0.219 C 
HETATM    8  C10 UNL     1      -4.077   0.231   0.586  1.00  0.00     0.069 C 
HETATM    9  C11 UNL     1      -4.450   1.641   1.068  1.00  0.00     0.145 C 
HETATM   10  C12 UNL     1      -3.738   2.484   0.032  1.00  0.00     0.264 C 
HETATM   11  N1  UNL     1      -2.723   1.665  -0.566  1.00  0.00    -0.066 N 
ATOM     12  H12 UNL     1      -1.840   2.156  -0.705  1.00  0.00     0.277 HD
ATOM     13  H11 UNL     1      -2.906   1.450  -1.546  1.00  0.00     0.277 HD
BRANCH   9  14
HETATM   14  O2  UNL     1      -5.809   1.832   1.088  1.00  0.00    -0.394 OA
ATOM     15  H2  UNL     1      -6.040   2.704   1.386  1.00  0.00     0.210 HD
ENDBRANCH   9  14
ENDBRANCH   3   7
BRANCH   4  16
HETATM   16  C14 UNL     1      -2.664  -3.031  -0.742  1.00  0.00     0.198 C 
BRANCH  16  17
HETATM   17  O3  UNL     1      -3.853  -2.562  -1.262  1.00  0.00    -0.398 OA
ATOM     18  H3  UNL     1      -4.231  -3.227  -1.825  1.00  0.00     0.209 HD
ENDBRANCH  16  17
ENDBRANCH   4  16
BRANCH   1  19
HETATM   19  C6  UNL     1       1.420   0.258  -0.143  1.00  0.00     0.037 C 
BRANCH  19  20
HETATM   20  C5  UNL     1       2.370  -0.030   0.989  1.00  0.00     0.003 C 
BRANCH  20  21
HETATM   21  C4  UNL     1       3.672   0.736   0.846  1.00  0.00     0.000 C 
BRANCH  21  22
HETATM   22  C3  UNL     1       4.425   0.419  -0.408  1.00  0.00    -0.000 C 
BRANCH  22  23
HETATM   23  C2  UNL     1       5.701   1.272  -0.382  1.00  0.00    -0.005 C 
HETATM   24  C1  UNL     1       6.541   0.958   0.813  1.00  0.00     0.005 C 
ENDBRANCH  22  23
ENDBRANCH  21  22
ENDBRANCH  20  21
ENDBRANCH  19  20
ENDBRANCH   1  19
BRANCH   6  25
HETATM   25  O5  UNL     1       0.325  -2.502  -1.228  1.00  0.00    -0.369 OA
ATOM     26  H5  UNL     1       0.401  -3.449  -1.201  1.00  0.00     0.212 HD
ENDBRANCH   6  25
TORSDOF 10
