REMARK  8 active torsions:
REMARK  status: ('A' for Active; 'I' for Inactive)
REMARK    1  A    between atoms: C2_2  and  O1_4 
REMARK    2  A    between atoms: C2_2  and  C4_6 
REMARK    3  A    between atoms: C7_9  and  N1_10 
REMARK    4  A    between atoms: N1_10  and  C8_13 
REMARK    5  A    between atoms: C8_13  and  C9_14 
REMARK    6  A    between atoms: C9_14  and  N2_15 
REMARK    7  A    between atoms: N2_15  and  C10_17 
REMARK    8  A    between atoms: C10_17  and  C11_18 
ROOT
HETATM    1  N1  UNL     1       1.163  -1.316   0.118  1.00  0.00    -0.044 N 
ATOM      2  H11 UNL     1       0.979  -2.227   0.537  1.00  0.00     0.280 HD
ATOM      3  H12 UNL     1       1.692  -1.624  -0.698  1.00  0.00     0.280 HD
ENDROOT
BRANCH   1   4
HETATM    4  C7  UNL     1       1.959  -0.488   0.982  1.00  0.00     0.358 C 
HETATM    5  C6  UNL     1       2.442   0.786   0.364  1.00  0.00     0.067 C 
HETATM    6  C5  UNL     1       3.311   0.432  -0.844  1.00  0.00     0.042 C 
HETATM    7  C4  UNL     1       4.320  -0.566  -0.390  1.00  0.00     0.194 C 
HETATM    8  O3  UNL     1       4.205  -0.799   0.956  1.00  0.00    -0.230 OA
HETATM    9  O2  UNL     1       3.067  -1.244   1.373  1.00  0.00    -0.206 OA
BRANCH   7  10
HETATM   10  C2  UNL     1       5.713  -0.006  -0.634  1.00  0.00     0.079 C 
HETATM   11  C1  UNL     1       6.765  -1.010  -0.174  1.00  0.00     0.048 C 
HETATM   12  C3  UNL     1       5.862   1.263   0.152  1.00  0.00     0.048 C 
BRANCH  10  13
HETATM   13  O1  UNL     1       5.825   0.261  -1.978  1.00  0.00    -0.388 OA
ATOM     14  H1  UNL     1       5.170   0.886  -2.265  1.00  0.00     0.210 HD
ENDBRANCH  10  13
ENDBRANCH   7  10
ENDBRANCH   1   4
BRANCH   1  15
HETATM   15  C8  UNL     1      -0.061  -0.648  -0.262  1.00  0.00     0.254 C 
BRANCH  15  16
HETATM   16  C9  UNL     1      -1.003  -0.484   0.885  1.00  0.00     0.141 C 
BRANCH  16  17
HETATM   17  N2  UNL     1      -2.210   0.159   0.483  1.00  0.00    -0.419 N 
ATOM     18  H2  UNL     1      -2.456   1.097   0.799  1.00  0.00     0.153 HD
BRANCH  17  19
HETATM   19  C10 UNL     1      -3.056  -0.596  -0.392  1.00  0.00     0.118 C 
BRANCH  19  20
HETATM   20  C11 UNL     1      -4.320   0.207  -0.638  1.00  0.00     0.006 C 
HETATM   21  C12 UNL     1      -5.268  -0.514  -1.555  1.00  0.00     0.034 C 
HETATM   22  C13 UNL     1      -6.323   0.480  -1.991  1.00  0.00     0.232 C 
HETATM   23  N3  UNL     1      -6.950   1.057  -0.820  1.00  0.00    -0.075 N 
HETATM   24  C14 UNL     1      -6.530   0.448   0.403  1.00  0.00     0.232 C 
ATOM     25  H32 UNL     1      -6.805   2.066  -0.791  1.00  0.00     0.277 HD
ATOM     26  H31 UNL     1      -7.966   1.036  -0.905  1.00  0.00     0.277 HD
HETATM   27  C15 UNL     1      -5.058   0.468   0.657  1.00  0.00     0.034 C 
ENDBRANCH  19  20
ENDBRANCH  17  19
ENDBRANCH  16  17
ENDBRANCH  15  16
ENDBRANCH   1  15
TORSDOF 8
