REMARK  3 active torsions:
REMARK  status: ('A' for Active; 'I' for Inactive)
REMARK    1  A    between atoms: C2_2  and  C4_5 
REMARK    2  A    between atoms: C9_10  and  C10_11 
REMARK    3  A    between atoms: C10_11  and  N2_12 
ROOT
HETATM    1  C1  UNL     1      -2.462   2.073  -0.351  1.00  0.00     0.026 C 
HETATM    2  C2  UNL     1      -2.248   0.603  -0.489  1.00  0.00     0.093 C 
HETATM    3  C3  UNL     1      -3.497  -0.077  -0.119  1.00  0.00     0.064 C 
HETATM    4  N1  UNL     1      -4.493  -0.622   0.157  1.00  0.00    -0.197 NA
ENDROOT
BRANCH   2   5
HETATM    5  C4  UNL     1      -1.143   0.067   0.382  1.00  0.00     0.003 C 
HETATM    6  C5  UNL     1      -1.048  -1.420   0.133  1.00  0.00     0.006 C 
HETATM    7  C6  UNL     1      -0.086  -2.116   1.040  1.00  0.00     0.000 C 
HETATM    8  C7  UNL     1       1.293  -2.271   0.415  1.00  0.00     0.000 C 
HETATM    9  C8  UNL     1       1.965  -0.917   0.520  1.00  0.00     0.006 C 
HETATM   10  C9  UNL     1       1.221  -0.008  -0.466  1.00  0.00     0.011 C 
HETATM   11  C11 UNL     1       0.144   0.787   0.214  1.00  0.00     0.012 C 
BRANCH  10  12
HETATM   12  C10 UNL     1       2.261   0.931  -1.056  1.00  0.00     0.234 C 
BRANCH  12  13
HETATM   13  N2  UNL     1       2.877   1.713   0.013  1.00  0.00    -0.079 N 
ATOM     14  H23 UNL     1       2.185   2.209   0.575  1.00  0.00     0.274 HD
ATOM     15  H22 UNL     1       3.265   1.122   0.748  1.00  0.00     0.274 HD
ATOM     16  H21 UNL     1       3.575   2.343  -0.383  1.00  0.00     0.274 HD
ENDBRANCH  12  13
ENDBRANCH  10  12
ENDBRANCH   2   5
TORSDOF 3
