REMARK  4 active torsions:
REMARK  status: ('A' for Active; 'I' for Inactive)
REMARK    1  A    between atoms: N1_4  and  N2_6 
REMARK    2  A    between atoms: N2_6  and  C4_8 
REMARK    3  A    between atoms: C4_8  and  N3_10 
REMARK    4  A    between atoms: N3_10  and  C5_12 
ROOT
HETATM    1  C4  UNL     1       0.153   0.691   1.493  1.00  0.00     0.186 C 
HETATM    2  S1  UNL     1      -0.401   1.547   2.773  1.00  0.00    -0.040 SA
ENDROOT
BRANCH   1   3
HETATM    3  N2  UNL     1      -0.671   0.576   0.364  1.00  0.00    -0.277 N 
ATOM      4  H2  UNL     1      -0.357   0.046  -0.449  1.00  0.00     0.189 HD
BRANCH   3   5
HETATM    5  N1  UNL     1      -1.924   1.191   0.360  1.00  0.00    -0.307 N 
HETATM    6  C2  UNL     1      -2.937   0.504  -0.007  1.00  0.00    -0.004 C 
HETATM    7  C1  UNL     1      -2.751  -0.906  -0.412  1.00  0.00     0.064 C 
HETATM    8  C3  UNL     1      -4.273   1.134  -0.018  1.00  0.00     0.064 C 
ATOM      9  H1  UNL     1      -2.029   2.165   0.643  1.00  0.00     0.186 HD
ENDBRANCH   3   5
ENDBRANCH   1   3
BRANCH   1  10
HETATM   10  N3  UNL     1       1.422   0.085   1.519  1.00  0.00    -0.361 N 
ATOM     11  H3  UNL     1       2.004   0.172   2.352  1.00  0.00     0.162 HD
BRANCH  10  12
HETATM   12  C5  UNL     1       1.908  -0.652   0.392  1.00  0.00     0.083 A 
HETATM   13  C6  UNL     1       2.177   0.118  -0.877  1.00  0.00     0.025 A 
HETATM   14  C7  UNL     1       3.649  -0.151  -0.702  1.00  0.00     0.004 A 
HETATM   15  C8  UNL     1       3.365  -0.972   0.511  1.00  0.00     0.025 A 
ENDBRANCH  10  12
ENDBRANCH   1  10
TORSDOF 4
