REMARK  11 active torsions:
REMARK  status: ('A' for Active; 'I' for Inactive)
REMARK    1  A    between atoms: C2_2  and  C3_3 
REMARK    2  A    between atoms: C5_5  and  O1_6 
REMARK    3  A    between atoms: C7_8  and  O2_9 
REMARK    4  A    between atoms: C9_11  and  C10_12 
REMARK    5  A    between atoms: C10_12  and  O3_13 
REMARK    6  A    between atoms: N1_15  and  C11_17 
REMARK    7  A    between atoms: C11_17  and  C12_18 
REMARK    8  A    between atoms: C11_17  and  C22_31 
REMARK    9  A    between atoms: C12_18  and  C13_19 
REMARK   10  A    between atoms: C15_21  and  O4_22 
REMARK   11  A    between atoms: C17_24  and  O5_25 
ROOT
HETATM    1  C13 UNL     1      -3.027  -0.014   0.879  1.00  0.00    -0.032 A 
HETATM    2  C14 UNL     1      -3.933   0.715   0.143  1.00  0.00     0.048 A 
HETATM    3  C15 UNL     1      -5.197   0.250  -0.086  1.00  0.00     0.102 A 
HETATM    4  C17 UNL     1      -5.525  -1.009   0.470  1.00  0.00     0.102 A 
HETATM    5  C19 UNL     1      -4.637  -1.722   1.194  1.00  0.00     0.062 A 
HETATM    6  C20 UNL     1      -3.347  -1.224   1.412  1.00  0.00     0.053 A 
HETATM    7  C21 UNL     1      -2.419  -1.994   2.191  1.00  0.00     0.100 C 
HETATM    8  N2  UNL     1      -1.679  -2.602   2.841  1.00  0.00    -0.191 NA
ENDROOT
BRANCH   1   9
HETATM    9  C12 UNL     1      -1.647   0.527   1.062  1.00  0.00     0.076 C 
BRANCH   9  10
HETATM   10  C11 UNL     1      -0.668  -0.090   0.147  1.00  0.00     0.194 C 
BRANCH  10  11
HETATM   11  N1  UNL     1       0.695   0.459   0.327  1.00  0.00    -0.355 N 
HETATM   12  C10 UNL     1       1.763  -0.343   0.148  1.00  0.00     0.149 C 
ATOM     13  H1  UNL     1       0.825   1.437   0.585  1.00  0.00     0.162 HD
BRANCH  12  14
HETATM   14  C9  UNL     1       3.209  -0.117   0.207  1.00  0.00     0.051 A 
HETATM   15  C7  UNL     1       3.751   1.113   0.533  1.00  0.00     0.116 A 
HETATM   16  C5  UNL     1       5.102   1.290   0.718  1.00  0.00     0.103 A 
HETATM   17  C4  UNL     1       5.940   0.216   0.568  1.00  0.00     0.051 A 
HETATM   18  C3  UNL     1       5.465  -1.052   0.237  1.00  0.00    -0.033 A 
HETATM   19  C24 UNL     1       4.089  -1.191   0.062  1.00  0.00     0.030 A 
BRANCH  15  20
HETATM   20  O2  UNL     1       2.941   2.249   0.688  1.00  0.00    -0.352 OA
HETATM   21  C8  UNL     1       2.838   3.017  -0.532  1.00  0.00     0.210 C 
ENDBRANCH  15  20
BRANCH  16  22
HETATM   22  O1  UNL     1       5.571   2.561   1.055  1.00  0.00    -0.353 OA
HETATM   23  C6  UNL     1       6.957   2.803   1.268  1.00  0.00     0.210 C 
ENDBRANCH  16  22
BRANCH  18  24
HETATM   24  C2  UNL     1       6.345  -2.215   0.086  1.00  0.00     0.001 C 
HETATM   25  C1  UNL     1       7.638  -2.098   0.314  1.00  0.00     0.012 C 
ENDBRANCH  18  24
ENDBRANCH  12  14
BRANCH  12  26
HETATM   26  O3  UNL     1       1.489  -1.611  -0.157  1.00  0.00    -0.346 OA
ATOM     27  H3  UNL     1       0.551  -1.758  -0.195  1.00  0.00     0.219 HD
ENDBRANCH  12  26
ENDBRANCH  10  11
BRANCH  10  28
HETATM   28  C22 UNL     1      -1.070   0.273  -1.317  1.00  0.00     0.309 C 
HETATM   29  O6  UNL     1      -0.602   1.389  -1.642  1.00  0.00    -0.255 OA
HETATM   30  N3  UNL     1      -1.818  -0.633  -1.969  1.00  0.00    -0.419 NA
HETATM   31  C23 UNL     1      -2.584  -1.560  -2.639  1.00  0.00     0.264 C 
ENDBRANCH  10  28
ENDBRANCH   9  10
ENDBRANCH   1   9
BRANCH   4  32
HETATM   32  O5  UNL     1      -6.815  -1.441   0.214  1.00  0.00    -0.353 OA
HETATM   33  C18 UNL     1      -7.382  -2.645   0.649  1.00  0.00     0.210 C 
ENDBRANCH   4  32
BRANCH   3  34
HETATM   34  O4  UNL     1      -6.152   0.909  -0.809  1.00  0.00    -0.353 OA
HETATM   35  C16 UNL     1      -5.960   2.144  -1.409  1.00  0.00     0.210 C 
ENDBRANCH   3  34
TORSDOF 10
