REMARK  4 active torsions:
REMARK  status: ('A' for Active; 'I' for Inactive)
REMARK    1  A    between atoms: C3_3  and  C4_4 
REMARK    2  A    between atoms: C5_5  and  C6_6 
REMARK    3  A    between atoms: C9_20  and  N8_21 
REMARK    4  A    between atoms: C10_26  and  N10_27 
ROOT
HETATM    1  C1  UNL     1      -4.223  -3.485   0.251  1.00  0.00     0.112 C 
HETATM    2  C2  UNL     1      -3.177  -2.461   0.202  1.00  0.00    -0.105 C 
HETATM    3  C3  UNL     1      -2.325  -1.604   0.155  1.00  0.00    -0.061 C 
ENDROOT
BRANCH   3   4
HETATM    4  C4  UNL     1      -1.318  -0.554   0.101  1.00  0.00     0.096 A 
HETATM    5  C5  UNL     1      -1.562   0.810   0.170  1.00  0.00     0.118 A 
HETATM    6  N5  UNL     1      -0.373   1.400   0.084  1.00  0.00    -0.285 N 
HETATM    7  N6  UNL     1       0.569   0.479  -0.032  1.00  0.00    -0.220 N 
ATOM      8  H5  UNL     1      -0.213   2.407   0.104  1.00  0.00     0.188 HD
HETATM    9  C8  UNL     1       1.911   0.643  -0.147  1.00  0.00     0.164 A 
HETATM   10  C14 UNL     1       0.035  -0.763  -0.027  1.00  0.00     0.155 A 
HETATM   11  N7  UNL     1       2.459   1.881  -0.153  1.00  0.00    -0.174 N 
HETATM   12  C11 UNL     1       2.729  -0.458  -0.258  1.00  0.00     0.122 A 
HETATM   13  C9  UNL     1       3.804   2.007  -0.269  1.00  0.00     0.679 A 
ATOM     14  H7  UNL     1       1.868   2.708  -0.071  1.00  0.00     0.186 HD
HETATM   15  N9  UNL     1       4.597   0.923  -0.377  1.00  0.00    -0.176 N 
HETATM   16  C10 UNL     1       4.107  -0.316  -0.376  1.00  0.00     0.134 A 
ATOM     17  H9  UNL     1       5.605   1.055  -0.462  1.00  0.00     0.186 HD
HETATM   18  C12 UNL     1       2.134  -1.700  -0.247  1.00  0.00     0.266 A 
HETATM   19  O1  UNL     1       2.833  -2.738  -0.345  1.00  0.00    -0.267 OA
HETATM   20  N11 UNL     1       0.804  -1.862  -0.134  1.00  0.00    -0.301 N 
HETATM   21  C13 UNL     1       0.223  -3.182  -0.127  1.00  0.00     0.161 C 
BRANCH   5  22
HETATM   22  C6  UNL     1      -2.890   1.371   0.308  1.00  0.00     0.166 A 
HETATM   23  N1  UNL     1      -4.066   0.726   0.391  1.00  0.00    -0.265 N 
HETATM   24  N2  UNL     1      -5.048   1.601   0.508  1.00  0.00    -0.005 NA
ATOM     25  H1  UNL     1      -4.183  -0.287   0.367  1.00  0.00     0.186 HD
HETATM   26  N3  UNL     1      -4.479   2.793   0.498  1.00  0.00    -0.223 N 
HETATM   27  N4  UNL     1      -3.170   2.682   0.378  1.00  0.00    -0.265 N 
ATOM     28  H3  UNL     1      -4.982   3.677   0.573  1.00  0.00     0.206 HD
HETATM   29  C7  UNL     1      -2.258   3.773   0.333  1.00  0.00     0.181 C 
ENDBRANCH   5  22
BRANCH  13  30
HETATM   30  N8  UNL     1       4.347   3.178  -0.277  1.00  0.00    -0.234 N 
ATOM     31  H82 UNL     1       3.747   3.999  -0.195  1.00  0.00     0.174 HD
ATOM     32  H81 UNL     1       5.359   3.273  -0.364  1.00  0.00     0.174 HD
ENDBRANCH  13  30
BRANCH  16  33
HETATM   33  N10 UNL     1       4.822  -1.367  -0.476  1.00  0.00    -0.384 N 
ATOM     34 2H10 UNL     1       5.833  -1.263  -0.563  1.00  0.00     0.157 HD
ATOM     35 1H10 UNL     1       4.447  -2.316  -0.475  1.00  0.00     0.157 HD
ENDBRANCH  16  33
ENDBRANCH   3   4
TORSDOF 4
