REMARK  3 active torsions:
REMARK  status: ('A' for Active; 'I' for Inactive)
REMARK    1  A    between atoms: S1_2  and  C2_3 
REMARK    2  A    between atoms: C5_10  and  N2_11 
REMARK    3  A    between atoms: C6_18  and  O2_19 
ROOT
HETATM    1  C2  UNL     1       1.974   0.885   0.531  1.00  0.00     0.157 C 
HETATM    2  S2  UNL     1       0.479   0.694   1.551  1.00  0.00    -0.120 SA
HETATM    3  C3  UNL     1      -0.419  -0.217   0.256  1.00  0.00     0.183 C 
HETATM    4  C4  UNL     1      -0.811   0.827  -0.762  1.00  0.00     0.247 C 
HETATM    5  O1  UNL     1      -0.002   1.189  -1.630  1.00  0.00    -0.271 OA
HETATM    6  N1  UNL     1      -2.128   1.324  -0.632  1.00  0.00    -0.310 N 
ATOM      7  H1  UNL     1      -2.540   1.828  -1.417  1.00  0.00     0.166 HD
HETATM    8  C5  UNL     1      -2.905   1.149   0.553  1.00  0.00     0.490 C 
HETATM    9  N3  UNL     1      -2.491   0.055   1.383  1.00  0.00     0.019 N 
ATOM     10  H31 UNL     1      -3.299  -0.420   1.785  1.00  0.00     0.286 HD
ATOM     11  H32 UNL     1      -2.053   0.396   2.239  1.00  0.00     0.286 HD
HETATM   12  C6  UNL     1      -1.627  -0.887   0.703  1.00  0.00     0.345 C 
HETATM   13  C7  UNL     1      -2.385  -1.321  -0.499  1.00  0.00     0.131 C 
HETATM   14  N4  UNL     1      -2.963  -1.648  -1.443  1.00  0.00    -0.192 NA
HETATM   15  C8  UNL     1       0.693  -1.053  -0.273  1.00  0.00     0.175 C 
HETATM   16  C9  UNL     1       1.089  -2.002   0.794  1.00  0.00     0.072 C 
HETATM   17  N5  UNL     1       1.419  -2.746   1.624  1.00  0.00    -0.196 NA
HETATM   18  C10 UNL     1       1.839  -0.169  -0.485  1.00  0.00     0.040 C 
HETATM   19  N6  UNL     1       2.672  -0.290  -1.476  1.00  0.00    -0.298 N 
ATOM     20  H6  UNL     1       3.446   0.370  -1.551  1.00  0.00     0.177 HD
HETATM   21  C11 UNL     1       2.544  -1.294  -2.443  1.00  0.00     0.181 C 
HETATM   22  N7  UNL     1       2.442  -2.137  -3.235  1.00  0.00    -0.172 NA
ENDROOT
BRANCH  12  23
HETATM   23  O2  UNL     1      -1.494  -1.991   1.502  1.00  0.00    -0.352 OA
ATOM     24  H2  UNL     1      -2.284  -2.429   1.794  1.00  0.00     0.213 HD
ENDBRANCH  12  23
BRANCH   8  25
HETATM   25  N2  UNL     1      -4.326   1.002   0.273  1.00  0.00    -0.032 N 
ATOM     26  H23 UNL     1      -4.673   1.785  -0.281  1.00  0.00     0.278 HD
ATOM     27  H22 UNL     1      -4.493   0.245  -0.390  1.00  0.00     0.278 HD
ATOM     28  H21 UNL     1      -4.881   0.877   1.120  1.00  0.00     0.278 HD
ENDBRANCH   8  25
BRANCH   1  29
HETATM   29  S1  UNL     1       3.484   0.791   1.484  1.00  0.00    -0.152 SA
HETATM   30  C1  UNL     1       4.879   0.997   0.340  1.00  0.00     0.091 C 
ENDBRANCH   1  29
TORSDOF 3
