REMARK  0 active torsions:
REMARK  status: ('A' for Active; 'I' for Inactive)
ROOT
HETATM    1  N1  UNL     1      -1.839   2.503   2.692  1.00  0.00    -0.062 NA
HETATM    2  C1  UNL     1      -1.541   2.211   1.298  1.00  0.00     0.209 C 
HETATM    3  N2  UNL     1      -0.708   2.932   0.694  1.00  0.00    -0.338 N 
ATOM      4  H2  UNL     1      -0.325   3.669   1.286  1.00  0.00     0.168 HD
HETATM    5  C2  UNL     1      -0.183   2.957  -0.609  1.00  0.00     0.107 C 
HETATM    6  C3  UNL     1       1.068   3.780  -0.583  1.00  0.00     0.100 C 
HETATM    7  N3  UNL     1       2.238   3.306  -0.633  1.00  0.00    -0.396 N 
ATOM      8  H3  UNL     1       3.019   3.961  -0.609  1.00  0.00     0.158 HD
HETATM    9  C4  UNL     1       2.539   1.905  -0.722  1.00  0.00     0.146 C 
HETATM   10  C5  UNL     1       3.941   1.686  -0.211  1.00  0.00     0.251 C 
HETATM   11  N4  UNL     1       4.113   0.334   0.313  1.00  0.00    -0.072 N 
ATOM     12  H41 UNL     1       3.700   0.245   1.241  1.00  0.00     0.277 HD
ATOM     13  H42 UNL     1       5.089   0.153   0.550  1.00  0.00     0.277 HD
HETATM   14  C6  UNL     1       3.602  -0.672  -0.580  1.00  0.00     0.259 C 
HETATM   15  C7  UNL     1       3.779  -2.014   0.085  1.00  0.00     0.259 C 
HETATM   16  N5  UNL     1       2.522  -2.445   0.618  1.00  0.00    -0.072 N 
ATOM     17  H51 UNL     1       1.856  -1.673   0.632  1.00  0.00     0.277 HD
ATOM     18  H52 UNL     1       2.600  -2.624   1.619  1.00  0.00     0.277 HD
HETATM   19  C8  UNL     1       1.962  -3.581  -0.054  1.00  0.00     0.258 C 
HETATM   20  C9  UNL     1       0.614  -3.226  -0.627  1.00  0.00     0.195 C 
HETATM   21  O1  UNL     1      -0.312  -3.097   0.388  1.00  0.00    -0.384 OA
HETATM   22  C10 UNL     1      -1.310  -2.171   0.041  1.00  0.00     0.214 C 
HETATM   23  C11 UNL     1      -0.827  -0.760   0.308  1.00  0.00     0.114 C 
HETATM   24  N6  UNL     1      -1.777   0.165  -0.115  1.00  0.00    -0.278 N 
HETATM   25  C12 UNL     1      -2.339   0.083  -1.398  1.00  0.00     0.114 C 
HETATM   26  C13 UNL     1      -3.725  -0.529  -1.370  1.00  0.00     0.214 C 
HETATM   27  O2  UNL     1      -4.595   0.340  -0.727  1.00  0.00    -0.384 OA
HETATM   28  C14 UNL     1      -4.503   0.100   0.640  1.00  0.00     0.190 C 
HETATM   29  C15 UNL     1      -3.612   1.120   1.307  1.00  0.00     0.178 C 
HETATM   30  N7  UNL     1      -2.245   1.105   0.757  1.00  0.00    -0.257 N 
ENDROOT
TORSDOF 0
