REMARK  3 active torsions:
REMARK  status: ('A' for Active; 'I' for Inactive)
REMARK    1  A    between atoms: C2_3  and  C3_4 
REMARK    2  A    between atoms: N2_10  and  C9_11 
REMARK    3  A    between atoms: C11_20  and  N6_21 
ROOT
HETATM    1  N1  UNL     1      -2.534   3.956   0.785  1.00  0.00    -0.197 NA
HETATM    2  C1  UNL     1      -2.000   2.965   0.518  1.00  0.00     0.061 C 
HETATM    3  C2  UNL     1      -1.312   1.712   0.155  1.00  0.00     0.149 C 
ENDROOT
BRANCH   3   4
HETATM    4  C3  UNL     1      -2.266   0.513   0.350  1.00  0.00     0.116 C 
HETATM    5  C4  UNL     1      -3.413   0.761  -0.521  1.00  0.00     0.027 C 
HETATM    6  C5  UNL     1      -4.714   0.020  -0.404  1.00  0.00     0.013 C 
HETATM    7  C6  UNL     1      -4.592  -1.449  -0.938  1.00  0.00     0.081 C 
HETATM    8  C7  UNL     1      -3.254  -1.856  -0.751  1.00  0.00    -0.163 C 
HETATM    9  C8  UNL     1      -1.867  -1.931  -0.446  1.00  0.00     0.221 C 
HETATM   10  N2  UNL     1      -1.460  -0.668   0.215  1.00  0.00    -0.201 N 
BRANCH  10  11
HETATM   11  C9  UNL     1      -0.186  -0.672   0.771  1.00  0.00     0.710 A 
HETATM   12  N3  UNL     1       0.000  -1.018   2.067  1.00  0.00    -0.021 N 
HETATM   13  C10 UNL     1       1.199  -1.059   2.660  1.00  0.00     0.705 A 
ATOM     14  H3  UNL     1      -0.820  -1.261   2.623  1.00  0.00     0.203 HD
HETATM   15  N4  UNL     1       1.415  -1.389   3.872  1.00  0.00    -0.234 N 
HETATM   16  N5  UNL     1       2.284  -0.724   1.892  1.00  0.00    -0.022 N 
ATOM     17  H42 UNL     1       0.608  -1.638   4.443  1.00  0.00     0.174 HD
ATOM     18  H41 UNL     1       2.329  -1.420   4.324  1.00  0.00     0.174 HD
HETATM   19  C11 UNL     1       2.147  -0.378   0.620  1.00  0.00     0.709 A 
ATOM     20  H5  UNL     1       3.215  -0.741   2.308  1.00  0.00     0.203 HD
HETATM   21  N7  UNL     1       0.906  -0.358   0.075  1.00  0.00    -0.021 N 
ATOM     22  H7  UNL     1       0.804  -0.093  -0.905  1.00  0.00     0.203 HD
BRANCH  19  23
HETATM   23  N6  UNL     1       3.272  -0.010  -0.196  1.00  0.00    -0.217 N 
HETATM   24  C12 UNL     1       3.400   1.213  -0.985  1.00  0.00     0.141 C 
HETATM   25  C13 UNL     1       4.856   1.514  -0.903  1.00  0.00     0.022 C 
HETATM   26  C14 UNL     1       5.541   0.315  -0.324  1.00  0.00     0.022 C 
HETATM   27  C15 UNL     1       4.483  -0.756  -0.401  1.00  0.00     0.141 C 
ENDBRANCH  19  23
ENDBRANCH  10  11
ENDBRANCH   3   4
TORSDOF 3
