REMARK  4 active torsions:
REMARK  status: ('A' for Active; 'I' for Inactive)
REMARK    1  A    between atoms: C2_2  and  C3_3 
REMARK    2  A    between atoms: C3_3  and  C4_4 
REMARK    3  A    between atoms: C4_4  and  C5_5 
REMARK    4  A    between atoms: C13_15  and  O3_16 
ROOT
HETATM    1  C5  UNL     1       2.176   0.166   1.396  1.00  0.00     0.114 A 
HETATM    2  C6  UNL     1       2.373   1.386   0.656  1.00  0.00     0.054 A 
HETATM    3  C7  UNL     1       1.111   1.733   0.820  1.00  0.00     0.139 A 
HETATM    4  O1  UNL     1      -0.058   2.505   0.719  1.00  0.00    -0.328 OA
HETATM    5  C8  UNL     1      -1.064   2.015   1.591  1.00  0.00     0.156 C 
HETATM    6  C9  UNL     1      -2.376   1.834   0.902  1.00  0.00     0.044 C 
HETATM    7  C10 UNL     1      -2.808   0.448   1.267  1.00  0.00     0.051 C 
HETATM    8  C11 UNL     1      -3.587  -0.229   0.160  1.00  0.00     0.159 C 
HETATM    9  O2  UNL     1      -4.365   0.709  -0.459  1.00  0.00    -0.380 OA
HETATM   10  C12 UNL     1      -4.151   0.671  -1.810  1.00  0.00     0.202 C 
HETATM   11  C13 UNL     1      -2.824   0.028  -2.073  1.00  0.00     0.173 C 
HETATM   12  C14 UNL     1      -2.494  -0.648  -0.785  1.00  0.00     0.182 C 
HETATM   13  O4  UNL     1      -1.280  -0.211  -0.229  1.00  0.00    -0.373 OA
HETATM   14  C15 UNL     1      -1.467  -0.312   1.145  1.00  0.00     0.154 C 
HETATM   15  C16 UNL     1      -0.577   0.626   1.932  1.00  0.00     0.146 C 
HETATM   16  N1  UNL     1       0.807   0.597   1.546  1.00  0.00    -0.344 N 
ENDROOT
BRANCH   1  17
HETATM   17  C4  UNL     1       2.248  -1.123   0.674  1.00  0.00     0.029 C 
BRANCH  17  18
HETATM   18  C3  UNL     1       3.492  -1.522  -0.000  1.00  0.00     0.002 C 
BRANCH  18  19
HETATM   19  C2  UNL     1       4.036  -0.675  -1.085  1.00  0.00    -0.004 C 
HETATM   20  C1  UNL     1       5.308  -1.413  -1.581  1.00  0.00     0.005 C 
ENDBRANCH  18  19
ENDBRANCH  17  18
ENDBRANCH   1  17
BRANCH  11  21
HETATM   21  O3  UNL     1      -2.941  -0.933  -3.103  1.00  0.00    -0.391 OA
ATOM     22  H3  UNL     1      -2.099  -1.341  -3.270  1.00  0.00     0.210 HD
ENDBRANCH  11  21
TORSDOF 4
