REMARK  4 active torsions:
REMARK  status: ('A' for Active; 'I' for Inactive)
REMARK    1  A    between atoms: S1_2  and  C2_3 
REMARK    2  A    between atoms: N1_5  and  C4_6 
REMARK    3  A    between atoms: C10_12  and  C11_13 
REMARK    4  A    between atoms: C11_13  and  O1_14 
ROOT
HETATM    1  C2  UNL     1       3.274   0.401  -0.894  1.00  0.00     0.084 A 
HETATM    2  C3  UNL     1       1.981   0.440  -0.405  1.00  0.00     0.122 A 
HETATM    3  N1  UNL     1       1.121  -0.570  -0.635  1.00  0.00    -0.281 N 
HETATM    4  C12 UNL     1       1.577  -1.610  -1.357  1.00  0.00     0.331 A 
HETATM    5  O3  UNL     1       0.799  -2.566  -1.587  1.00  0.00    -0.246 OA
HETATM    6  N2  UNL     1       2.828  -1.669  -1.841  1.00  0.00    -0.274 N 
ATOM      7  H2  UNL     1       3.112  -2.486  -2.381  1.00  0.00     0.173 HD
HETATM    8  C13 UNL     1       3.722  -0.675  -1.632  1.00  0.00     0.267 A 
HETATM    9  O4  UNL     1       4.888  -0.738  -2.086  1.00  0.00    -0.267 OA
ENDROOT
BRANCH   3  10
HETATM   10  C4  UNL     1      -0.258  -0.543  -0.123  1.00  0.00     0.232 C 
HETATM   11  C5  UNL     1      -0.290  -1.512   1.063  1.00  0.00     0.054 C 
HETATM   12  C6  UNL     1      -1.514  -1.107   1.896  1.00  0.00     0.004 C 
HETATM   13  C7  UNL     1      -2.718  -1.286   1.046  1.00  0.00     0.000 C 
HETATM   14  C8  UNL     1      -3.518  -0.077   0.778  1.00  0.00     0.002 C 
HETATM   15  C9  UNL     1      -2.800   1.226   0.888  1.00  0.00     0.034 C 
HETATM   16  C10 UNL     1      -1.629   1.354  -0.060  1.00  0.00     0.147 C 
HETATM   17  O2  UNL     1      -0.517   0.694   0.334  1.00  0.00    -0.359 OA
BRANCH  16  18
HETATM   18  C11 UNL     1      -2.121   1.092  -1.447  1.00  0.00     0.196 C 
BRANCH  18  19
HETATM   19  O1  UNL     1      -3.277   1.895  -1.609  1.00  0.00    -0.398 OA
ATOM     20  H1  UNL     1      -3.590   1.728  -2.490  1.00  0.00     0.209 HD
ENDBRANCH  18  19
ENDBRANCH  16  18
ENDBRANCH   3  10
BRANCH   1  21
HETATM   21  S1  UNL     1       4.370   1.770  -0.556  1.00  0.00    -0.128 SA
HETATM   22  C1  UNL     1       5.266   1.477   0.992  1.00  0.00     0.096 C 
ENDBRANCH   1  21
TORSDOF 4
