REMARK  12 active torsions:
REMARK  status: ('A' for Active; 'I' for Inactive)
REMARK    1  A    between atoms: C2_2  and  C4_4 
REMARK    2  A    between atoms: C4_4  and  C5_5 
REMARK    3  A    between atoms: C5_5  and  C6_6 
REMARK    4  A    between atoms: C6_6  and  C7_7 
REMARK    5  A    between atoms: C7_7  and  C8_8 
REMARK    6  A    between atoms: C13_13  and  O1_14 
REMARK    7  A    between atoms: O1_14  and  C14_15 
REMARK    8  A    between atoms: C15_16  and  O2_17 
REMARK    9  A    between atoms: C16_19  and  C17_20 
REMARK   10  A    between atoms: C17_20  and  O3_21 
REMARK   11  A    between atoms: C19_26  and  O6_28 
REMARK   12  A    between atoms: C22_31  and  O7_32 
ROOT
HETATM    1  C8  UNL     1      -1.222  -0.841  -0.406  1.00  0.00     0.014 C 
HETATM    2  C9  UNL     1      -1.536  -1.699   0.764  1.00  0.00     0.007 C 
HETATM    3  C10 UNL     1      -0.606  -2.911   0.693  1.00  0.00     0.001 C 
HETATM    4  C11 UNL     1       0.514  -2.669   1.656  1.00  0.00     0.002 C 
HETATM    5  C12 UNL     1       1.849  -2.392   0.946  1.00  0.00     0.032 C 
HETATM    6  C13 UNL     1       2.022  -0.911   0.736  1.00  0.00     0.124 C 
HETATM    7  C21 UNL     1       1.250  -0.424  -0.479  1.00  0.00     0.064 C 
HETATM    8  C22 UNL     1      -0.105   0.140  -0.108  1.00  0.00     0.124 C 
ENDROOT
BRANCH   6   9
HETATM    9  O1  UNL     1       3.327  -0.524   0.737  1.00  0.00    -0.374 OA
BRANCH   9  10
HETATM   10  C14 UNL     1       3.712   0.371   1.697  1.00  0.00     0.197 C 
HETATM   11  C15 UNL     1       4.052   1.694   0.945  1.00  0.00     0.182 C 
HETATM   12  C16 UNL     1       4.780   1.270  -0.282  1.00  0.00     0.186 C 
HETATM   13  O4  UNL     1       6.049   0.782   0.105  1.00  0.00    -0.309 OA
HETATM   14  C18 UNL     1       6.082  -0.120   1.176  1.00  0.00     0.296 C 
HETATM   15  O5  UNL     1       6.970  -1.001   1.258  1.00  0.00    -0.262 OA
HETATM   16  C19 UNL     1       5.046  -0.053   2.262  1.00  0.00     0.170 C 
HETATM   17  C20 UNL     1       5.044  -1.363   2.972  1.00  0.00     0.060 C 
BRANCH  11  18
HETATM   18  O2  UNL     1       2.939   2.453   0.742  1.00  0.00    -0.390 OA
ATOM     19  H2  UNL     1       3.146   3.259   0.284  1.00  0.00     0.210 HD
ENDBRANCH  11  18
BRANCH  12  20
HETATM   20  C17 UNL     1       4.884   2.361  -1.320  1.00  0.00     0.199 C 
BRANCH  20  21
HETATM   21  O3  UNL     1       5.520   1.888  -2.468  1.00  0.00    -0.398 OA
ATOM     22  H3  UNL     1       5.585   2.575  -3.121  1.00  0.00     0.209 HD
ENDBRANCH  20  21
ENDBRANCH  12  20
BRANCH  16  23
HETATM   23  O6  UNL     1       5.495   0.901   3.218  1.00  0.00    -0.377 OA
ATOM     24  H6  UNL     1       6.335   0.634   3.574  1.00  0.00     0.211 HD
ENDBRANCH  16  23
ENDBRANCH   9  10
ENDBRANCH   6   9
BRANCH   8  25
HETATM   25  O7  UNL     1      -0.383   1.309  -0.813  1.00  0.00    -0.395 OA
ATOM     26  H7  UNL     1       0.317   1.924  -0.626  1.00  0.00     0.210 HD
ENDBRANCH   8  25
BRANCH   1  27
HETATM   27  C7  UNL     1      -2.434  -0.057  -0.819  1.00  0.00     0.007 C 
BRANCH  27  28
HETATM   28  C6  UNL     1      -3.549  -0.951  -1.214  1.00  0.00     0.000 C 
BRANCH  28  29
HETATM   29  C5  UNL     1      -4.788  -0.183  -1.648  1.00  0.00     0.000 C 
BRANCH  29  30
HETATM   30  C4  UNL     1      -5.311   0.699  -0.546  1.00  0.00     0.004 C 
BRANCH  30  31
HETATM   31  C2  UNL     1      -6.537   1.417  -1.080  1.00  0.00    -0.023 C 
HETATM   32  C1  UNL     1      -7.624   0.474  -1.504  1.00  0.00     0.009 C 
HETATM   33  C3  UNL     1      -6.207   2.329  -2.236  1.00  0.00     0.009 C 
ENDBRANCH  30  31
ENDBRANCH  29  30
ENDBRANCH  28  29
ENDBRANCH  27  28
ENDBRANCH   1  27
TORSDOF 12
