REMARK  13 active torsions:
REMARK  status: ('A' for Active; 'I' for Inactive)
REMARK    1  A    between atoms: C2_2  and  C3_3 
REMARK    2  A    between atoms: C3_3  and  C4_4 
REMARK    3  A    between atoms: C4_4  and  C5_5 
REMARK    4  A    between atoms: C5_5  and  C6_6 
REMARK    5  A    between atoms: C6_6  and  C8_8 
REMARK    6  A    between atoms: C9_9  and  C10_10 
REMARK    7  A    between atoms: C10_10  and  O2_12 
REMARK    8  A    between atoms: O2_12  and  C11_13 
REMARK    9  A    between atoms: C13_16  and  C14_17 
REMARK   10  A    between atoms: C14_17  and  O4_18 
REMARK   11  A    between atoms: C15_20  and  C16_21 
REMARK   12  A    between atoms: C21_26  and  O5_27 
REMARK   13  A    between atoms: C22_29  and  O6_30 
ROOT
HETATM    1  C14 UNL     1      -1.911   1.212  -0.142  1.00  0.00     0.074 C 
HETATM    2  C15 UNL     1      -3.116   0.782  -0.168  1.00  0.00     0.035 C 
ENDROOT
BRANCH   1   3
HETATM    3  C13 UNL     1      -0.735   0.367   0.108  1.00  0.00     0.209 C 
HETATM    4  C11 UNL     1       0.472   0.814  -0.714  1.00  0.00     0.191 C 
HETATM    5  C12 UNL     1      -0.053  -0.090  -1.779  1.00  0.00     0.204 C 
HETATM    6  O3  UNL     1      -0.779  -0.756  -0.765  1.00  0.00    -0.374 OA
BRANCH   4   7
HETATM    7  O2  UNL     1       1.709   0.510  -0.158  1.00  0.00    -0.307 OA
BRANCH   7   8
HETATM    8  C10 UNL     1       2.687   1.425   0.122  1.00  0.00     0.283 C 
HETATM    9  O1  UNL     1       2.459   2.628  -0.139  1.00  0.00    -0.260 OA
BRANCH   8  10
HETATM   10  C9  UNL     1       3.996   1.046   0.720  1.00  0.00     0.079 C 
HETATM   11  C8  UNL     1       4.873   1.976   0.956  1.00  0.00    -0.012 C 
BRANCH  11  12
HETATM   12  C6  UNL     1       6.224   1.906   1.522  1.00  0.00     0.026 C 
HETATM   13  C7  UNL     1       6.088   2.640   2.917  1.00  0.00     0.018 C 
BRANCH  12  14
HETATM   14  C5  UNL     1       6.914   0.662   1.772  1.00  0.00    -0.023 C 
BRANCH  14  15
HETATM   15  C4  UNL     1       7.394  -0.228   0.707  1.00  0.00    -0.030 C 
BRANCH  15  16
HETATM   16  C3  UNL     1       6.532  -0.815  -0.320  1.00  0.00     0.026 C 
BRANCH  16  17
HETATM   17  C2  UNL     1       7.406  -1.727  -1.222  1.00  0.00    -0.001 C 
HETATM   18  C1  UNL     1       8.491  -0.895  -1.860  1.00  0.00     0.005 C 
ENDBRANCH  16  17
ENDBRANCH  15  16
ENDBRANCH  14  15
ENDBRANCH  12  14
ENDBRANCH  11  12
ENDBRANCH   8  10
ENDBRANCH   7   8
ENDBRANCH   4   7
ENDBRANCH   1   3
BRANCH   1  19
HETATM   19  O4  UNL     1      -1.661   2.583  -0.359  1.00  0.00    -0.362 OA
ATOM     20  H4  UNL     1      -2.421   3.129  -0.521  1.00  0.00     0.217 HD
ENDBRANCH   1  19
BRANCH   2  21
HETATM   21  C16 UNL     1      -3.509  -0.587   0.046  1.00  0.00     0.016 C 
HETATM   22  C17 UNL     1      -4.767  -0.981   0.003  1.00  0.00     0.020 C 
HETATM   23  C18 UNL     1      -5.830   0.005  -0.275  1.00  0.00     0.067 C 
HETATM   24  C23 UNL     1      -5.163  -2.358   0.222  1.00  0.00     0.306 C 
HETATM   25  C19 UNL     1      -7.108  -0.768  -0.503  1.00  0.00     0.097 C 
HETATM   26  C20 UNL     1      -8.314   0.127  -0.578  1.00  0.00     0.058 C 
HETATM   27  N1  UNL     1      -7.429  -1.631   0.617  1.00  0.00    -0.151 NA
HETATM   28  C21 UNL     1      -9.429  -0.796  -0.137  1.00  0.00     0.165 C 
HETATM   29  C22 UNL     1      -8.756  -2.094   0.261  1.00  0.00     0.247 C 
HETATM   30  O7  UNL     1      -6.503  -2.667   0.569  1.00  0.00    -0.218 OA
HETATM   31  O8  UNL     1      -4.293  -3.256   0.096  1.00  0.00    -0.258 OA
BRANCH  28  32
HETATM   32  O5  UNL     1     -10.329  -0.982  -1.185  1.00  0.00    -0.392 OA
ATOM     33  H5  UNL     1     -11.029  -1.561  -0.908  1.00  0.00     0.210 HD
ENDBRANCH  28  32
BRANCH  29  34
HETATM   34  O6  UNL     1      -8.651  -2.964  -0.825  1.00  0.00    -0.377 OA
ATOM     35  H6  UNL     1      -8.229  -3.778  -0.575  1.00  0.00     0.211 HD
ENDBRANCH  29  34
ENDBRANCH   2  21
TORSDOF 13
