REMARK  15 active torsions:
REMARK  status: ('A' for Active; 'I' for Inactive)
REMARK    1  A    between atoms: C6_7  and  C7_8 
REMARK    2  A    between atoms: C7_8  and  O2_9 
REMARK    3  A    between atoms: C8_12  and  C9_13 
REMARK    4  A    between atoms: C10_14  and  C11_15 
REMARK    5  A    between atoms: C12_16  and  C13_17 
REMARK    6  A    between atoms: C13_17  and  C14_18 
REMARK    7  A    between atoms: C14_18  and  C15_19 
REMARK    8  A    between atoms: C15_19  and  O4_20 
REMARK    9  A    between atoms: C15_19  and  N1_22 
REMARK   10  A    between atoms: N1_22  and  C16_24 
REMARK   11  A    between atoms: C16_24  and  C17_25 
REMARK   12  A    between atoms: C17_25  and  N2_26 
REMARK   13  A    between atoms: C19_28  and  O5_29 
REMARK   14  A    between atoms: C23_33  and  O6_34 
REMARK   15  A    between atoms: O6_34  and  O7_35 
ROOT
HETATM    1  C14 UNL     1       0.325   2.562  -0.802  1.00  0.00     0.055 C 
ENDROOT
BRANCH   1   2
HETATM    2  C13 UNL     1      -0.793   1.938  -0.921  1.00  0.00     0.004 C 
BRANCH   2   3
HETATM    3  C12 UNL     1      -1.151   0.667  -0.346  1.00  0.00     0.000 C 
HETATM    4  C11 UNL     1      -2.317   0.084  -0.507  1.00  0.00    -0.000 C 
BRANCH   4   5
HETATM    5  C10 UNL     1      -3.390   0.610  -1.262  1.00  0.00    -0.001 C 
HETATM    6  C9  UNL     1      -4.566   0.076  -1.447  1.00  0.00     0.009 C 
BRANCH   6   7
HETATM    7  C8  UNL     1      -5.082  -1.201  -0.925  1.00  0.00     0.176 C 
HETATM    8  C2  UNL     1      -5.188  -1.273   0.546  1.00  0.00    -0.057 C 
HETATM    9  C1  UNL     1      -4.892  -2.405   1.120  1.00  0.00     0.017 C 
HETATM   10  C3  UNL     1      -5.612  -0.196   1.446  1.00  0.00     0.039 C 
HETATM   11  C4  UNL     1      -6.631   0.714   0.771  1.00  0.00     0.042 C 
HETATM   12  C5  UNL     1      -7.635  -0.021  -0.020  1.00  0.00     0.190 A 
HETATM   13  O1  UNL     1      -7.621   0.497  -1.425  1.00  0.00    -0.340 OA
HETATM   14  C6  UNL     1      -7.413  -0.838  -1.097  1.00  0.00     0.213 A 
HETATM   15  O3  UNL     1      -6.318  -1.536  -1.417  1.00  0.00    -0.337 OA
BRANCH  14  16
HETATM   16  C7  UNL     1      -8.658  -1.642  -1.601  1.00  0.00     0.235 C 
BRANCH  16  17
HETATM   17  O2  UNL     1      -9.810  -1.160  -0.985  1.00  0.00    -0.395 OA
ATOM     18  H2  UNL     1     -10.566  -1.648  -1.291  1.00  0.00     0.209 HD
ENDBRANCH  16  17
ENDBRANCH  14  16
ENDBRANCH   6   7
ENDBRANCH   4   5
ENDBRANCH   2   3
ENDBRANCH   1   2
BRANCH   1  19
HETATM   19  C15 UNL     1       1.557   2.340  -0.152  1.00  0.00     0.135 C 
BRANCH  19  20
HETATM   20  O4  UNL     1       2.434   3.311  -0.334  1.00  0.00    -0.346 OA
ATOM     21  H4  UNL     1       3.264   3.161   0.104  1.00  0.00     0.219 HD
ENDBRANCH  19  20
BRANCH  19  22
HETATM   22  N1  UNL     1       2.060   1.320   0.644  1.00  0.00    -0.369 N 
ATOM     23  H1  UNL     1       1.452   0.528   0.853  1.00  0.00     0.161 HD
BRANCH  22  24
HETATM   24  C16 UNL     1       3.412   1.318   1.200  1.00  0.00     0.152 C 
BRANCH  24  25
HETATM   25  C17 UNL     1       4.467   1.279   0.141  1.00  0.00     0.295 C 
BRANCH  25  26
HETATM   26  N2  UNL     1       5.787   1.264   0.753  1.00  0.00     0.124 N 
HETATM   27  C18 UNL     1       6.088   0.057   1.448  1.00  0.00     0.307 C 
HETATM   28  C19 UNL     1       5.898  -1.183   0.603  1.00  0.00     0.149 C 
HETATM   29  C21 UNL     1       6.586  -1.054  -0.738  1.00  0.00     0.038 C 
HETATM   30  C22 UNL     1       6.586   0.330  -1.297  1.00  0.00     0.070 C 
HETATM   31  C23 UNL     1       6.761   1.424  -0.295  1.00  0.00     0.395 C 
BRANCH  28  32
HETATM   32  O5  UNL     1       6.521  -2.256   1.242  1.00  0.00    -0.389 OA
HETATM   33  C20 UNL     1       5.637  -3.280   1.565  1.00  0.00     0.202 C 
ENDBRANCH  28  32
BRANCH  31  34
HETATM   34  O6  UNL     1       8.063   1.517   0.177  1.00  0.00    -0.206 OA
BRANCH  34  35
HETATM   35  O7  UNL     1       8.621   2.676  -0.126  1.00  0.00    -0.248 OA
ATOM     36  H7  UNL     1       9.512   2.740   0.197  1.00  0.00     0.253 HD
ENDBRANCH  34  35
ENDBRANCH  31  34
ENDBRANCH  25  26
ENDBRANCH  24  25
ENDBRANCH  22  24
ENDBRANCH  19  22
ENDBRANCH   1  19
TORSDOF 15
