REMARK  9 active torsions:
REMARK  status: ('A' for Active; 'I' for Inactive)
REMARK    1  A    between atoms: C2_2  and  C5_5 
REMARK    2  A    between atoms: C5_5  and  C6_7 
REMARK    3  A    between atoms: C10_13  and  N1_14 
REMARK       I    between atoms: N1_14  and  C11_16 
REMARK    4  A    between atoms: C11_16  and  C12_18 
REMARK    5  A    between atoms: C13_21  and  C14_22 
REMARK    6  A    between atoms: C15_25  and  N4_26 
REMARK    7  A    between atoms: C16_30  and  N5_31 
REMARK    8  A    between atoms: C20_42  and  O8_43 
REMARK    9  A    between atoms: O8_43  and  S3_44 
ROOT
HETATM    1  C12 UNL     1       2.183  -0.275   0.168  1.00  0.00     0.247 C 
HETATM    2  O3  UNL     1       2.985   0.813  -0.170  1.00  0.00    -0.250 OA
HETATM    3  N2  UNL     1       4.213   0.772   0.438  1.00  0.00    -0.077 NA
HETATM    4  C13 UNL     1       5.165   0.084  -0.290  1.00  0.00     0.251 C 
HETATM    5  C17 UNL     1       4.655  -0.438  -1.594  1.00  0.00     0.246 C 
HETATM    6  O6  UNL     1       5.357  -0.193  -2.585  1.00  0.00    -0.271 OA
HETATM    7  N6  UNL     1       3.450  -1.172  -1.758  1.00  0.00    -0.343 N 
ATOM      8  H6  UNL     1       3.408  -1.716  -2.620  1.00  0.00     0.163 HD
HETATM    9  C18 UNL     1       2.278  -1.290  -0.933  1.00  0.00     0.223 C 
HETATM   10  C19 UNL     1       2.391  -2.525  -0.096  1.00  0.00     0.216 C 
HETATM   11  O7  UNL     1       2.163  -3.705  -0.316  1.00  0.00    -0.283 OA
HETATM   12  S2  UNL     1       2.967  -1.508   1.243  1.00  0.00    -0.037 SA
ENDROOT
BRANCH   1  13
HETATM   13  C11 UNL     1       0.823   0.113   0.595  1.00  0.00     0.273 C 
HETATM   14  N1  UNL     1      -0.201  -0.774   1.011  1.00  0.00    -0.319 N 
ATOM     15  H1  UNL     1       0.008  -1.772   1.014  1.00  0.00     0.169 HD
HETATM   16  O2  UNL     1       0.537   1.337   0.595  1.00  0.00    -0.269 OA
BRANCH  14  17
HETATM   17  C10 UNL     1      -1.478  -0.375   1.417  1.00  0.00     0.110 A 
HETATM   18  C9  UNL     1      -1.716  -0.126   2.766  1.00  0.00     0.148 A 
HETATM   19  C8  UNL     1      -2.942   0.306   3.191  1.00  0.00     0.088 A 
HETATM   20  F2  UNL     1      -0.751  -0.301   3.697  1.00  0.00    -0.203 F 
HETATM   21  C7  UNL     1      -3.986   0.512   2.301  1.00  0.00     0.136 A 
HETATM   22  C6  UNL     1      -3.799   0.282   0.961  1.00  0.00     0.086 A 
HETATM   23  F1  UNL     1      -5.176   0.960   2.791  1.00  0.00    -0.205 F 
HETATM   24  C20 UNL     1      -2.526  -0.166   0.562  1.00  0.00     0.138 A 
BRANCH  22  25
HETATM   25  C5  UNL     1      -4.789   0.484  -0.053  1.00  0.00     0.173 C 
HETATM   26  O1  UNL     1      -4.413   0.302  -1.281  1.00  0.00    -0.291 OA
BRANCH  25  27
HETATM   27  C2  UNL     1      -6.208   0.867   0.013  1.00  0.00     0.015 C 
HETATM   28  C1  UNL     1      -7.042  -0.162   0.746  1.00  0.00     0.023 C 
HETATM   29  C3  UNL     1      -6.813   0.824  -1.437  1.00  0.00     0.023 C 
HETATM   30  C4  UNL     1      -6.475   2.286   0.434  1.00  0.00     0.023 C 
ENDBRANCH  25  27
ENDBRANCH  22  25
BRANCH  24  31
HETATM   31  O8  UNL     1      -2.227  -0.455  -0.794  1.00  0.00    -0.211 OA
BRANCH  31  32
HETATM   32  S3  UNL     1      -2.393  -2.004  -1.462  1.00  0.00     0.257 S 
HETATM   33  O9  UNL     1      -3.484  -2.826  -0.895  1.00  0.00    -0.572 OA
HETATM   34  O10 UNL     1      -2.610  -1.838  -2.960  1.00  0.00    -0.572 OA
HETATM   35  O11 UNL     1      -1.000  -2.942  -1.332  1.00  0.00    -0.572 OA
ENDBRANCH  31  32
ENDBRANCH  24  31
ENDBRANCH  14  17
ENDBRANCH   1  13
BRANCH   4  36
HETATM   36  C14 UNL     1       6.540   0.687  -0.440  1.00  0.00     0.083 A 
HETATM   37  N3  UNL     1       7.462  -0.074  -1.046  1.00  0.00    -0.336 N 
HETATM   38  C15 UNL     1       8.683   0.373  -1.184  1.00  0.00     0.144 A 
ATOM     39  H3  UNL     1       7.212  -0.998  -1.398  1.00  0.00     0.168 HD
HETATM   40  S1  UNL     1       8.631   1.896  -0.472  1.00  0.00    -0.028 SA
HETATM   41  C16 UNL     1       6.930   1.903   0.007  1.00  0.00     0.171 A 
BRANCH  38  42
HETATM   42  N4  UNL     1       9.701  -0.250  -1.754  1.00  0.00    -0.380 N 
ATOM     43  H42 UNL     1       9.733  -1.174  -2.186  1.00  0.00     0.158 HD
ATOM     44  H41 UNL     1      10.653   0.099  -1.862  1.00  0.00     0.158 HD
ENDBRANCH  38  42
BRANCH  41  45
HETATM   45  N5  UNL     1       6.324   3.004   0.658  1.00  0.00    -0.106 N 
HETATM   46  O4  UNL     1       7.086   3.996   0.925  1.00  0.00    -0.531 OA
HETATM   47  O5  UNL     1       5.069   3.150   1.033  1.00  0.00    -0.531 OA
ENDBRANCH  41  45
ENDBRANCH   4  36
TORSDOF 9
