REMARK  12 active torsions:
REMARK  status: ('A' for Active; 'I' for Inactive)
REMARK    1  A    between atoms: N1_2  and  C3_4 
REMARK    2  A    between atoms: C5_6  and  O1_7 
REMARK    3  A    between atoms: O1_7  and  S1_8 
REMARK    4  A    between atoms: C7_12  and  O4_13 
REMARK    5  A    between atoms: O4_13  and  C8_14 
REMARK    6  A    between atoms: C8_14  and  C9_15 
REMARK    7  A    between atoms: C9_15  and  N2_16 
REMARK    8  A    between atoms: C10_17  and  C11_18 
REMARK    9  A    between atoms: N4_27  and  O8_29 
REMARK   10  A    between atoms: C17_32  and  O9_33 
REMARK   11  A    between atoms: C20_38  and  O10_39 
REMARK   12  A    between atoms: C23_46  and  O11_47 
ROOT
HETATM    1  C3  UNL     1      -2.481  -1.609  -0.759  1.00  0.00     0.046 A 
HETATM    2  C4  UNL     1      -1.258  -2.181  -1.124  1.00  0.00     0.071 A 
HETATM    3  C5  UNL     1      -0.087  -1.805  -0.546  1.00  0.00     0.125 A 
HETATM    4  C7  UNL     1      -0.100  -0.831   0.427  1.00  0.00     0.117 A 
HETATM    5  C16 UNL     1      -1.278  -0.247   0.821  1.00  0.00     0.050 A 
HETATM    6  C17 UNL     1      -1.242   0.703   1.841  1.00  0.00     0.094 A 
HETATM    7  C18 UNL     1      -2.482   1.270   2.226  1.00  0.00     0.052 A 
HETATM    8  C19 UNL     1      -2.435   2.220   3.255  1.00  0.00     0.085 A 
HETATM    9 CL1  UNL     1      -0.938   2.667   3.990  1.00  0.00    -0.080 Cl
HETATM   10  C20 UNL     1      -3.644   2.774   3.647  1.00  0.00     0.127 A 
HETATM   11  C21 UNL     1      -4.808   2.375   3.023  1.00  0.00     0.139 A 
HETATM   12 CL2  UNL     1      -6.301   3.118   3.580  1.00  0.00    -0.061 Cl
HETATM   13  N5  UNL     1      -4.794   1.452   2.032  1.00  0.00    -0.341 N 
ATOM     14  H5  UNL     1      -5.665   1.171   1.581  1.00  0.00     0.167 HD
HETATM   15  C22 UNL     1      -3.613   0.902   1.641  1.00  0.00     0.082 A 
HETATM   16  C23 UNL     1      -3.665  -0.068   0.610  1.00  0.00     0.106 A 
HETATM   17  C24 UNL     1      -2.493  -0.647   0.207  1.00  0.00     0.042 A 
ENDROOT
BRANCH   4  18
HETATM   18  O4  UNL     1       1.123  -0.488   0.945  1.00  0.00    -0.346 OA
BRANCH  18  19
HETATM   19  C8  UNL     1       1.960   0.454   0.355  1.00  0.00     0.196 C 
BRANCH  19  20
HETATM   20  C9  UNL     1       2.521   0.244  -0.992  1.00  0.00     0.158 C 
BRANCH  20  21
HETATM   21  N2  UNL     1       3.373   1.413  -1.280  1.00  0.00    -0.322 N 
HETATM   22  C10 UNL     1       4.620   1.557  -0.617  1.00  0.00     0.105 A 
HETATM   23  C12 UNL     1       5.324   2.695  -0.815  1.00  0.00     0.094 A 
HETATM   24  C13 UNL     1       4.844   3.756  -1.677  1.00  0.00     0.228 A 
HETATM   25  O6  UNL     1       5.529   4.786  -1.826  1.00  0.00    -0.284 OA
HETATM   26  C14 UNL     1       3.575   3.620  -2.362  1.00  0.00     0.267 A 
HETATM   27  O7  UNL     1       3.171   4.529  -3.100  1.00  0.00    -0.280 OA
HETATM   28  C15 UNL     1       2.807   2.398  -2.156  1.00  0.00     0.183 A 
HETATM   29  N4  UNL     1       1.679   2.209  -2.736  1.00  0.00    -0.249 N 
ATOM     30  H4  UNL     1       1.154   1.347  -2.587  1.00  0.00     0.196 HD
BRANCH  22  31
HETATM   31  C11 UNL     1       5.245   0.535   0.189  1.00  0.00     0.281 C 
HETATM   32  N3  UNL     1       6.508   0.867   0.826  1.00  0.00    -0.056 NA
HETATM   33  O5  UNL     1       4.826  -0.628   0.414  1.00  0.00    -0.269 OA
ENDBRANCH  22  31
BRANCH  29  34
HETATM   34  O8  UNL     1       1.192   3.196  -3.564  1.00  0.00    -0.288 OA
ATOM     35  H8  UNL     1       0.356   3.056  -3.994  1.00  0.00     0.244 HD
ENDBRANCH  29  34
ENDBRANCH  20  21
ENDBRANCH  19  20
ENDBRANCH  18  19
ENDBRANCH   4  18
BRANCH   3  36
HETATM   36  O1  UNL     1       1.078  -2.411  -0.936  1.00  0.00    -0.230 OA
BRANCH  36  37
HETATM   37  S1  UNL     1       1.684  -3.809  -0.165  1.00  0.00     0.266 S 
HETATM   38  C6  UNL     1       0.381  -4.890   0.329  1.00  0.00     0.194 C 
HETATM   39  O2  UNL     1       2.498  -3.446   1.048  1.00  0.00    -0.199 OA
HETATM   40  O3  UNL     1       2.586  -4.525  -1.119  1.00  0.00    -0.199 OA
ENDBRANCH  36  37
ENDBRANCH   3  36
BRANCH   6  41
HETATM   41  O9  UNL     1      -0.154   1.114   2.497  1.00  0.00    -0.359 OA
ATOM     42  H9  UNL     1      -0.129   1.761   3.192  1.00  0.00     0.217 HD
ENDBRANCH   6  41
BRANCH   1  43
HETATM   43  N1  UNL     1      -3.612  -2.151  -1.373  1.00  0.00    -0.389 N 
HETATM   44  C1  UNL     1      -4.366  -3.208  -0.723  1.00  0.00     0.149 C 
HETATM   45  C2  UNL     1      -4.015  -1.715  -2.683  1.00  0.00     0.149 C 
ENDBRANCH   1  43
BRANCH  16  46
HETATM   46  O11 UNL     1      -4.852  -0.340   0.109  1.00  0.00    -0.357 OA
ATOM     47  H11 UNL     1      -4.887  -0.991  -0.582  1.00  0.00     0.217 HD
ENDBRANCH  16  46
BRANCH  10  48
HETATM   48  O10 UNL     1      -3.629   3.713   4.659  1.00  0.00    -0.356 OA
ATOM     49  H10 UNL     1      -4.457   4.093   4.928  1.00  0.00     0.218 HD
ENDBRANCH  10  48
TORSDOF 12
