REMARK  12 active torsions:
REMARK  status: ('A' for Active; 'I' for Inactive)
REMARK    1  A    between atoms: O1_2  and  C2_3 
REMARK    2  A    between atoms: C2_3  and  C3_5 
REMARK    3  A    between atoms: C4_8  and  C5_9 
REMARK    4  A    between atoms: C8_13  and  S1_14 
REMARK    5  A    between atoms: S1_14  and  N2_15 
REMARK    6  A    between atoms: C10_21  and  O5_22 
REMARK    7  A    between atoms: O5_22  and  S2_23 
REMARK    8  A    between atoms: S2_23  and  N3_24 
REMARK    9  A    between atoms: C11_31  and  C12_32 
REMARK   10  A    between atoms: C13_33  and  C14_34 
REMARK   11  A    between atoms: C15_37  and  N6_38 
REMARK   12  A    between atoms: C17_48  and  N10_49 
ROOT
HETATM    1  C3  UNL     1       0.634  -1.590  -0.894  1.00  0.00     0.138 A 
HETATM    2  N1  UNL     1      -0.705  -1.292  -0.976  1.00  0.00    -0.335 N 
ATOM      3  H1  UNL     1      -1.279  -1.405  -1.812  1.00  0.00     0.168 HD
HETATM    4  C4  UNL     1      -1.137  -0.841   0.177  1.00  0.00     0.119 A 
HETATM    5  N4  UNL     1      -0.069  -0.850   1.002  1.00  0.00    -0.339 N 
ATOM      6  H4  UNL     1      -0.093  -0.551   1.977  1.00  0.00     0.167 HD
HETATM    7  C11 UNL     1       1.026  -1.301   0.378  1.00  0.00     0.082 A 
ENDROOT
BRANCH   7   8
HETATM    8  C12 UNL     1       2.385  -1.448   0.993  1.00  0.00     0.056 A 
HETATM    9  C13 UNL     1       3.330  -0.477   0.836  1.00  0.00     0.067 A 
HETATM   10  S3  UNL     1       4.671  -1.094   1.688  1.00  0.00    -0.058 SA
HETATM   11  C17 UNL     1       4.005  -2.566   2.222  1.00  0.00     0.183 A 
HETATM   12  C18 UNL     1       2.738  -2.536   1.715  1.00  0.00     0.170 A 
HETATM   13  F2  UNL     1       1.886  -3.609   1.962  1.00  0.00    -0.202 F 
BRANCH   9  14
HETATM   14  C14 UNL     1       3.295   0.814   0.138  1.00  0.00     0.141 A 
HETATM   15  N5  UNL     1       2.232   1.272  -0.497  1.00  0.00    -0.175 N 
HETATM   16  C15 UNL     1       2.238   2.461  -1.122  1.00  0.00     0.679 A 
ATOM     17  H5  UNL     1       1.383   0.707  -0.513  1.00  0.00     0.186 HD
HETATM   18  N7  UNL     1       3.343   3.224  -1.117  1.00  0.00    -0.164 N 
HETATM   19  C16 UNL     1       4.446   2.791  -0.480  1.00  0.00     0.208 A 
ATOM     20  H7  UNL     1       3.346   4.126  -1.593  1.00  0.00     0.187 HD
HETATM   21  N8  UNL     1       5.649   3.538  -0.430  1.00  0.00    -0.063 NA
HETATM   22  N9  UNL     1       4.397   1.601   0.130  1.00  0.00    -0.315 N 
ATOM     23  H9  UNL     1       5.232   1.270   0.613  1.00  0.00     0.170 HD
BRANCH  16  24
HETATM   24  N6  UNL     1       1.192   2.880  -1.731  1.00  0.00    -0.234 N 
ATOM     25  H62 UNL     1       0.353   2.300  -1.735  1.00  0.00     0.174 HD
ATOM     26  H61 UNL     1       1.197   3.783  -2.206  1.00  0.00     0.174 HD
ENDBRANCH  16  24
ENDBRANCH   9  14
BRANCH  11  27
HETATM   27  N10 UNL     1       4.632  -3.596   3.019  1.00  0.00    -0.105 N 
HETATM   28  O8  UNL     1       5.811  -3.392   3.365  1.00  0.00    -0.531 OA
HETATM   29  O9  UNL     1       3.927  -4.704   3.342  1.00  0.00    -0.531 OA
ENDBRANCH  11  27
ENDBRANCH   7   8
BRANCH   1  30
HETATM   30  C2  UNL     1       1.451  -2.115  -1.967  1.00  0.00     0.312 C 
HETATM   31  O2  UNL     1       0.947  -2.336  -3.085  1.00  0.00    -0.258 OA
BRANCH  30  32
HETATM   32  O1  UNL     1       2.785  -2.368  -1.744  1.00  0.00    -0.321 OA
HETATM   33  C1  UNL     1       3.567  -2.886  -2.820  1.00  0.00     0.213 C 
ENDBRANCH  30  32
ENDBRANCH   1  30
BRANCH   4  34
HETATM   34  C5  UNL     1      -2.457  -0.373   0.603  1.00  0.00     0.046 A 
HETATM   35  C6  UNL     1      -2.663  -0.105   1.965  1.00  0.00     0.062 A 
HETATM   36  C7  UNL     1      -3.863   0.315   2.450  1.00  0.00     0.140 A 
HETATM   37  F1  UNL     1      -3.942   0.545   3.801  1.00  0.00    -0.204 F 
HETATM   38  C8  UNL     1      -4.922   0.492   1.618  1.00  0.00     0.120 A 
HETATM   39  C9  UNL     1      -4.751   0.238   0.277  1.00  0.00     0.067 A 
HETATM   40  C10 UNL     1      -3.517  -0.193  -0.230  1.00  0.00     0.106 A 
BRANCH  38  41
HETATM   41  S1  UNL     1      -6.446   1.032   2.287  1.00  0.00     0.259 S 
HETATM   42  O3  UNL     1      -7.416   1.163   1.145  1.00  0.00    -0.201 OA
HETATM   43  O4  UNL     1      -6.929   0.081   3.333  1.00  0.00    -0.201 OA
BRANCH  41  44
HETATM   44  N2  UNL     1      -6.183   2.578   3.038  1.00  0.00    -0.324 N 
ATOM     45  H22 UNL     1      -5.291   3.071   3.074  1.00  0.00     0.169 HD
ATOM     46  H21 UNL     1      -7.071   2.893   3.428  1.00  0.00     0.169 HD
ENDBRANCH  41  44
ENDBRANCH  38  41
BRANCH  40  47
HETATM   47  O5  UNL     1      -3.409  -0.427  -1.598  1.00  0.00    -0.216 OA
BRANCH  47  48
HETATM   48  S2  UNL     1      -3.027   0.878  -2.650  1.00  0.00     0.360 S 
HETATM   49  O6  UNL     1      -2.352   0.316  -3.850  1.00  0.00    -0.176 OA
HETATM   50  O7  UNL     1      -2.201   1.913  -1.993  1.00  0.00    -0.176 OA
BRANCH  48  51
HETATM   51  N3  UNL     1      -4.519   1.595  -3.179  1.00  0.00    -0.305 N 
ATOM     52  H32 UNL     1      -5.451   1.284  -2.904  1.00  0.00     0.171 HD
ATOM     53  H31 UNL     1      -4.292   2.369  -3.803  1.00  0.00     0.171 HD
ENDBRANCH  48  51
ENDBRANCH  47  48
ENDBRANCH  40  47
ENDBRANCH   4  34
TORSDOF 12
