REMARK  10 active torsions:
REMARK  status: ('A' for Active; 'I' for Inactive)
REMARK       I    between atoms: C2_2  and  N1_4 
REMARK    1  A    between atoms: N2_7  and  C5_8 
REMARK    2  A    between atoms: C6_11  and  N4_12 
REMARK    3  A    between atoms: C7_17  and  N6_18 
REMARK    4  A    between atoms: C8_21  and  N7_22 
REMARK    5  A    between atoms: C9_26  and  C10_27 
REMARK       I    between atoms: C10_27  and  N10_29 
REMARK    6  A    between atoms: N10_29  and  C11_31 
REMARK    7  A    between atoms: C11_31  and  C12_32 
REMARK    8  A    between atoms: C13_38  and  N13_39 
REMARK    9  A    between atoms: N13_39  and  C14_41 
REMARK   10  A    between atoms: C14_41  and  C15_42 
ROOT
HETATM    1  N7  UNL     1      -0.896   1.037   1.715  1.00  0.00    -0.171 N 
HETATM    2  N8  UNL     1      -1.177   2.299   1.439  1.00  0.00     0.003 NA
HETATM    3  N9  UNL     1      -0.197   2.861   0.752  1.00  0.00    -0.262 N 
ATOM      4  H9  UNL     1      -0.168   3.824   0.417  1.00  0.00     0.186 HD
HETATM    5  C9  UNL     1       0.749   1.933   0.578  1.00  0.00     0.203 A 
HETATM    6  N14 UNL     1       0.295   0.825   1.178  1.00  0.00    -0.260 N 
ATOM      7  H14 UNL     1       0.798  -0.061   1.216  1.00  0.00     0.190 HD
ENDROOT
BRANCH   1   8
HETATM    8  C8  UNL     1      -1.678   0.088   2.431  1.00  0.00     0.161 A 
HETATM    9  C5  UNL     1      -2.803  -0.453   1.845  1.00  0.00     0.153 A 
HETATM   10  N3  UNL     1      -3.544  -1.356   2.530  1.00  0.00    -0.174 N 
HETATM   11  C6  UNL     1      -3.229  -1.752   3.769  1.00  0.00     0.679 A 
ATOM     12  H3  UNL     1      -4.373  -1.749   2.085  1.00  0.00     0.186 HD
HETATM   13  N5  UNL     1      -2.130  -1.215   4.327  1.00  0.00    -0.175 N 
HETATM   14  C7  UNL     1      -1.343  -0.312   3.709  1.00  0.00     0.148 A 
ATOM     15  H5  UNL     1      -1.878  -1.507   5.271  1.00  0.00     0.186 HD
BRANCH   9  16
HETATM   16  N2  UNL     1      -3.150  -0.040   0.532  1.00  0.00    -0.362 N 
HETATM   17  C4  UNL     1      -2.672  -0.715  -0.671  1.00  0.00     0.144 C 
HETATM   18  C3  UNL     1      -3.761  -0.990  -1.646  1.00  0.00     0.145 C 
HETATM   19  N1  UNL     1      -4.917  -0.134  -1.535  1.00  0.00    -0.349 N 
HETATM   20  C2  UNL     1      -5.712   0.062  -2.689  1.00  0.00     0.215 C 
HETATM   21  C17 UNL     1      -5.293   0.526  -0.300  1.00  0.00     0.145 C 
HETATM   22  C1  UNL     1      -6.904   0.932  -2.606  1.00  0.00     0.117 C 
HETATM   23  O1  UNL     1      -5.422  -0.492  -3.783  1.00  0.00    -0.274 OA
HETATM   24  C16 UNL     1      -4.018   1.099   0.304  1.00  0.00     0.144 C 
ENDBRANCH   9  16
BRANCH  11  25
HETATM   25  N4  UNL     1      -3.900  -2.604   4.456  1.00  0.00    -0.234 N 
ATOM     26  H42 UNL     1      -4.734  -3.011   4.033  1.00  0.00     0.174 HD
ATOM     27  H41 UNL     1      -3.660  -2.906   5.400  1.00  0.00     0.174 HD
ENDBRANCH  11  25
BRANCH  14  28
HETATM   28  N6  UNL     1      -0.295   0.184   4.276  1.00  0.00    -0.383 N 
ATOM     29  H62 UNL     1      -0.047  -0.112   5.220  1.00  0.00     0.157 HD
ATOM     30  H61 UNL     1       0.301   0.867   3.808  1.00  0.00     0.157 HD
ENDBRANCH  14  28
ENDBRANCH   1   8
BRANCH   5  31
HETATM   31  C10 UNL     1       2.024   2.088  -0.122  1.00  0.00     0.288 C 
HETATM   32  O2  UNL     1       2.373   3.159  -0.658  1.00  0.00    -0.264 OA
HETATM   33  N10 UNL     1       2.917   0.976  -0.203  1.00  0.00    -0.349 N 
ATOM     34  H10 UNL     1       2.651   0.091   0.229  1.00  0.00     0.163 HD
BRANCH  33  35
HETATM   35  C11 UNL     1       4.185   1.075  -0.880  1.00  0.00     0.186 C 
BRANCH  35  36
HETATM   36  C12 UNL     1       4.874  -0.228  -0.792  1.00  0.00     0.097 A 
HETATM   37  N11 UNL     1       4.440  -1.341  -0.200  1.00  0.00    -0.240 N 
HETATM   38  O3  UNL     1       5.318  -2.264  -0.335  1.00  0.00    -0.155 OA
ATOM     39  H11 UNL     1       3.548  -1.442   0.285  1.00  0.00     0.196 HD
HETATM   40  N12 UNL     1       6.347  -1.829  -1.002  1.00  0.00    -0.224 N 
HETATM   41  C13 UNL     1       6.148  -0.551  -1.329  1.00  0.00     0.153 A 
ATOM     42  H12 UNL     1       7.174  -2.378  -1.237  1.00  0.00     0.198 HD
BRANCH  41  43
HETATM   43  N13 UNL     1       6.786   0.324  -1.944  1.00  0.00    -0.352 N 
ATOM     44  H13 UNL     1       6.278   1.208  -1.982  1.00  0.00     0.166 HD
BRANCH  43  45
HETATM   45  C14 UNL     1       7.997   0.404  -2.584  1.00  0.00     0.077 C 
BRANCH  45  46
HETATM   46  C15 UNL     1       8.833  -0.831  -2.593  1.00  0.00     0.159 C 
HETATM   47 CL1  UNL     1      10.378  -0.514  -3.482  1.00  0.00    -0.125 Cl
ENDBRANCH  45  46
ENDBRANCH  43  45
ENDBRANCH  41  43
ENDBRANCH  35  36
ENDBRANCH  33  35
ENDBRANCH   5  31
TORSDOF 10
