REMARK  9 active torsions:
REMARK  status: ('A' for Active; 'I' for Inactive)
REMARK    1  A    between atoms: C2_5  and  C3_6 
REMARK       I    between atoms: C3_6  and  N3_8 
REMARK    2  A    between atoms: N3_8  and  N4_10 
REMARK    3  A    between atoms: C4_12  and  C5_13 
REMARK    4  A    between atoms: C5_13  and  C7_21 
REMARK    5  A    between atoms: N5_14  and  N6_16 
REMARK    6  A    between atoms: N6_16  and  C6_17 
REMARK    7  A    between atoms: C6_17  and  O2_19 
REMARK    8  A    between atoms: C9_27  and  O5_28 
REMARK    9  A    between atoms: C13_36  and  C14_37 
ROOT
HETATM    1  C3  UNL     1       0.825  -1.691  -1.076  1.00  0.00     0.290 C 
HETATM    2  O1  UNL     1       1.645  -2.491  -1.587  1.00  0.00    -0.264 OA
HETATM    3  N3  UNL     1       1.221  -0.607  -0.295  1.00  0.00    -0.265 N 
ATOM      4  H3  UNL     1       0.495   0.049  -0.008  1.00  0.00     0.190 HD
ENDROOT
BRANCH   1   5
HETATM    5  C2  UNL     1      -0.628  -1.962  -1.326  1.00  0.00     0.147 A 
HETATM    6  N2  UNL     1      -1.142  -3.020  -1.923  1.00  0.00    -0.291 N 
HETATM    7  N1  UNL     1      -2.501  -2.908  -1.901  1.00  0.00    -0.292 N 
ATOM      8  H2  UNL     1      -0.613  -3.791  -2.332  1.00  0.00     0.187 HD
HETATM    9  C1  UNL     1      -3.412  -3.900  -2.414  1.00  0.00     0.178 C 
HETATM   10  C18 UNL     1      -2.838  -1.752  -1.277  1.00  0.00     0.106 A 
HETATM   11  C10 UNL     1      -1.634  -1.188  -0.926  1.00  0.00     0.097 A 
HETATM   12  C17 UNL     1      -4.034  -1.093  -0.955  1.00  0.00     0.106 A 
HETATM   13  N9  UNL     1      -1.656  -0.020  -0.282  1.00  0.00    -0.348 N 
HETATM   14  C11 UNL     1      -2.784   0.613   0.029  1.00  0.00     0.103 A 
ATOM     15  H9  UNL     1      -0.769   0.407  -0.016  1.00  0.00     0.166 HD
HETATM   16  C12 UNL     1      -3.011   1.823   0.662  1.00  0.00     0.177 A 
HETATM   17  C16 UNL     1      -4.010   0.096  -0.293  1.00  0.00     0.091 A 
HETATM   18  F1  UNL     1      -2.007   2.620   1.174  1.00  0.00    -0.201 F 
HETATM   19  C13 UNL     1      -4.353   2.020   0.721  1.00  0.00     0.141 A 
HETATM   20  N11 UNL     1      -4.976   0.953   0.134  1.00  0.00    -0.341 N 
HETATM   21  C15 UNL     1      -6.391   0.833   0.013  1.00  0.00     0.157 C 
HETATM   22  N12 UNL     1      -5.255  -1.669  -1.313  1.00  0.00    -0.097 NA
BRANCH  19  23
HETATM   23  C14 UNL     1      -5.036   3.220   1.239  1.00  0.00     0.284 C 
HETATM   24  N10 UNL     1      -4.363   4.453   1.304  1.00  0.00    -0.056 NA
HETATM   25  O6  UNL     1      -6.245   3.165   1.635  1.00  0.00    -0.269 OA
ENDBRANCH  19  23
ENDBRANCH   1   5
BRANCH   3  26
HETATM   26  N4  UNL     1       2.470  -0.351   0.112  1.00  0.00    -0.307 N 
HETATM   27  C4  UNL     1       3.485   0.224  -0.276  1.00  0.00     0.142 C 
ATOM     28  H4  UNL     1       2.630  -0.761   1.032  1.00  0.00     0.186 HD
BRANCH  27  29
HETATM   29  C5  UNL     1       4.695   0.277   0.510  1.00  0.00     0.116 C 
HETATM   30  N5  UNL     1       5.639   0.963   0.154  1.00  0.00    -0.228 N 
ATOM     31  H5  UNL     1       6.315   0.801   0.901  1.00  0.00     0.202 HD
BRANCH  30  32
HETATM   32  N6  UNL     1       6.257   1.747  -0.593  1.00  0.00    -0.283 NA
BRANCH  32  33
HETATM   33  C6  UNL     1       6.885   2.553  -1.374  1.00  0.00     0.326 C 
HETATM   34  N7  UNL     1       8.186   3.086  -0.771  1.00  0.00    -0.040 NA
BRANCH  33  35
HETATM   35  O2  UNL     1       6.882   3.136  -2.574  1.00  0.00    -0.323 OA
ATOM     36  H2  UNL     1       7.346   3.731  -3.151  1.00  0.00     0.221 HD
ENDBRANCH  33  35
ENDBRANCH  32  33
ENDBRANCH  30  32
BRANCH  29  37
HETATM   37  C7  UNL     1       4.893  -0.491   1.786  1.00  0.00     0.162 A 
HETATM   38  O3  UNL     1       5.721  -0.249   2.685  1.00  0.00    -0.254 OA
HETATM   39  C8  UNL     1       5.767  -0.951   3.721  1.00  0.00     0.372 A 
HETATM   40  O4  UNL     1       6.402  -1.033   4.805  1.00  0.00    -0.238 OA
HETATM   41  N8  UNL     1       4.739  -1.912   3.481  1.00  0.00    -0.280 N 
HETATM   42  C9  UNL     1       4.213  -1.591   2.259  1.00  0.00     0.181 A 
ATOM     43  H8  UNL     1       4.456  -2.678   4.092  1.00  0.00     0.173 HD
BRANCH  42  44
HETATM   44  O5  UNL     1       3.203  -2.308   1.684  1.00  0.00    -0.344 OA
ATOM     45  H5  UNL     1       2.734  -3.067   2.010  1.00  0.00     0.219 HD
ENDBRANCH  42  44
ENDBRANCH  29  37
ENDBRANCH  27  29
ENDBRANCH   3  26
TORSDOF 9
