REMARK  9 active torsions:
REMARK  status: ('A' for Active; 'I' for Inactive)
REMARK    1  A    between atoms: C2_5  and  C3_6 
REMARK       I    between atoms: C3_6  and  N3_8 
REMARK    2  A    between atoms: N3_8  and  C4_10 
REMARK    3  A    between atoms: C4_10  and  C5_11 
REMARK    4  A    between atoms: C5_11  and  N4_12 
REMARK    5  A    between atoms: C6_13  and  C7_14 
REMARK    6  A    between atoms: C7_14  and  N5_15 
REMARK    7  A    between atoms: C15_30  and  N9_31 
REMARK    8  A    between atoms: C16_36  and  N11_37 
REMARK    9  A    between atoms: C18_43  and  N13_44 
ROOT
HETATM    1  N4  UNL     1      -1.409  -0.680   0.161  1.00  0.00    -0.332 N 
HETATM    2  C6  UNL     1      -2.208   0.125   0.838  1.00  0.00     0.032 A 
HETATM    3  C13 UNL     1      -3.304  -0.592   1.243  1.00  0.00     0.046 A 
HETATM    4  C14 UNL     1      -3.167  -1.868   0.800  1.00  0.00     0.055 A 
HETATM    5  C15 UNL     1      -3.927  -3.026   0.891  1.00  0.00     0.128 A 
HETATM    6  N10 UNL     1      -3.467  -4.144   0.314  1.00  0.00    -0.176 N 
ATOM      7  H10 UNL     1      -4.028  -4.993   0.384  1.00  0.00     0.186 HD
HETATM    8  C16 UNL     1      -2.302  -4.199  -0.352  1.00  0.00     0.679 A 
HETATM    9  N12 UNL     1      -1.568  -3.081  -0.439  1.00  0.00    -0.176 N 
ATOM     10  H12 UNL     1      -0.680  -3.109  -0.940  1.00  0.00     0.186 HD
HETATM   11  C17 UNL     1      -1.974  -1.905   0.124  1.00  0.00     0.137 A 
ENDROOT
BRANCH   1  12
HETATM   12  C5  UNL     1      -0.112  -0.373  -0.465  1.00  0.00     0.150 C 
BRANCH  12  13
HETATM   13  C4  UNL     1       0.983  -0.638   0.562  1.00  0.00     0.143 C 
BRANCH  13  14
HETATM   14  N3  UNL     1       2.271  -0.344  -0.028  1.00  0.00    -0.354 N 
HETATM   15  C3  UNL     1       3.462  -0.514   0.736  1.00  0.00     0.273 C 
HETATM   16  O1  UNL     1       3.364  -0.920   1.917  1.00  0.00    -0.266 OA
ATOM     17  H3  UNL     1       2.327  -0.015  -0.992  1.00  0.00     0.162 HD
BRANCH  15  18
HETATM   18  C2  UNL     1       4.779  -0.235   0.199  1.00  0.00     0.160 A 
HETATM   19  N2  UNL     1       4.942   0.209  -1.084  1.00  0.00    -0.287 N 
HETATM   20  N1  UNL     1       6.148   0.458  -1.555  1.00  0.00    -0.246 N 
ATOM     21  H2  UNL     1       4.126   0.348  -1.680  1.00  0.00     0.187 HD
HETATM   22  C1  UNL     1       6.377   0.933  -2.913  1.00  0.00     0.183 C 
HETATM   23  C19 UNL     1       7.226   0.270  -0.763  1.00  0.00     0.342 A 
HETATM   24  N14 UNL     1       7.098  -0.169   0.508  1.00  0.00    -0.292 N 
HETATM   25  O2  UNL     1       8.375   0.512  -1.229  1.00  0.00    -0.245 OA
HETATM   26  C18 UNL     1       5.878  -0.427   1.006  1.00  0.00     0.137 A 
ATOM     27  H14 UNL     1       7.926  -0.304   1.088  1.00  0.00     0.172 HD
BRANCH  26  28
HETATM   28  N13 UNL     1       5.717  -0.853   2.233  1.00  0.00    -0.383 N 
ATOM     29 2H13 UNL     1       4.790  -1.049   2.611  1.00  0.00     0.157 HD
ATOM     30 1H13 UNL     1       6.531  -0.995   2.831  1.00  0.00     0.157 HD
ENDBRANCH  26  28
ENDBRANCH  15  18
ENDBRANCH  13  14
ENDBRANCH  12  13
ENDBRANCH   1  12
BRANCH   2  31
HETATM   31  C7  UNL     1      -1.986   1.568   1.122  1.00  0.00     0.188 C 
BRANCH  31  32
HETATM   32  N5  UNL     1      -2.617   2.444   0.160  1.00  0.00    -0.322 N 
HETATM   33  C8  UNL     1      -2.157   2.961  -0.988  1.00  0.00     0.185 A 
HETATM   34  N6  UNL     1      -3.079   3.735  -1.578  1.00  0.00    -0.347 N 
HETATM   35  C9  UNL     1      -4.175   3.736  -0.812  1.00  0.00     0.117 A 
ATOM     36  H6  UNL     1      -2.964   4.236  -2.459  1.00  0.00     0.167 HD
HETATM   37  C10 UNL     1      -5.407   4.351  -0.932  1.00  0.00     0.135 A 
HETATM   38  C12 UNL     1      -3.889   2.932   0.272  1.00  0.00     0.140 A 
HETATM   39 CL1  UNL     1      -5.739   5.363  -2.316  1.00  0.00    -0.062 Cl
HETATM   40  N7  UNL     1      -6.292   4.127   0.046  1.00  0.00    -0.341 N 
HETATM   41  C11 UNL     1      -6.037   3.349   1.110  1.00  0.00     0.183 A 
ATOM     42  H7  UNL     1      -7.208   4.570  -0.020  1.00  0.00     0.167 HD
HETATM   43  N8  UNL     1      -4.835   2.760   1.209  1.00  0.00    -0.336 N 
ATOM     44  H8  UNL     1      -4.636   2.168   2.015  1.00  0.00     0.168 HD
ENDBRANCH  31  32
ENDBRANCH   2  31
BRANCH   5  45
HETATM   45  N9  UNL     1      -5.042  -2.960   1.532  1.00  0.00    -0.384 N 
ATOM     46  H92 UNL     1      -5.392  -2.109   1.971  1.00  0.00     0.157 HD
ATOM     47  H91 UNL     1      -5.600  -3.811   1.599  1.00  0.00     0.157 HD
ENDBRANCH   5  45
BRANCH   8  48
HETATM   48  N11 UNL     1      -1.886  -5.298  -0.899  1.00  0.00    -0.234 N 
ATOM     49 2H11 UNL     1      -2.445  -6.149  -0.833  1.00  0.00     0.174 HD
ATOM     50 1H11 UNL     1      -1.001  -5.340  -1.405  1.00  0.00     0.174 HD
ENDBRANCH   8  48
TORSDOF 9
