REMARK  10 active torsions:
REMARK  status: ('A' for Active; 'I' for Inactive)
REMARK    1  A    between atoms: O1_2  and  C2_3 
REMARK    2  A    between atoms: C3_4  and  O2_5 
REMARK    3  A    between atoms: C10_23  and  C11_24 
REMARK    4  A    between atoms: C11_24  and  O5_25 
REMARK    5  A    between atoms: C11_24  and  C12_27 
REMARK    6  A    between atoms: C12_27  and  C13_29 
REMARK    7  A    between atoms: C13_29  and  N4_30 
REMARK    8  A    between atoms: C13_29  and  C14_34 
REMARK    9  A    between atoms: C14_34  and  C15_36 
REMARK   10  A    between atoms: N8_42  and  N9_43 
ROOT
HETATM    1  C2  UNL     1      -0.989  -1.018   0.445  1.00  0.00     0.113 A 
HETATM    2  C3  UNL     1      -1.943  -1.595   1.257  1.00  0.00     0.118 A 
HETATM    3  C4  UNL     1      -3.184  -1.037   1.384  1.00  0.00     0.063 A 
HETATM    4 BR1  UNL     1      -4.555  -1.761   2.478  1.00  0.00    -0.047 Br
HETATM    5  C5  UNL     1      -3.463   0.104   0.689  1.00  0.00     0.067 A 
HETATM    6  C6  UNL     1      -4.748   0.588   0.917  1.00  0.00     0.262 C 
HETATM    7  O3  UNL     1      -5.558  -0.293   1.287  1.00  0.00    -0.267 OA
HETATM    8  N1  UNL     1      -5.143   1.859   0.774  1.00  0.00    -0.275 N 
ATOM      9  H1  UNL     1      -6.079   2.076   1.117  1.00  0.00     0.173 HD
HETATM   10  C7  UNL     1      -4.451   2.904   0.226  1.00  0.00     0.328 C 
HETATM   11  O4  UNL     1      -4.865   4.059   0.533  1.00  0.00    -0.247 OA
HETATM   12  N2  UNL     1      -3.388   2.894  -0.597  1.00  0.00    -0.294 N 
ATOM     13  H2  UNL     1      -3.112   3.782  -1.015  1.00  0.00     0.172 HD
HETATM   14  C8  UNL     1      -2.657   1.806  -0.915  1.00  0.00     0.115 C 
HETATM   15  N3  UNL     1      -2.068   1.734  -2.044  1.00  0.00    -0.385 N 
ATOM     16  H31 UNL     1      -1.515   0.911  -2.284  1.00  0.00     0.157 HD
ATOM     17  H32 UNL     1      -2.194   2.565  -2.621  1.00  0.00     0.157 HD
HETATM   18  C9  UNL     1      -2.486   0.678  -0.132  1.00  0.00     0.037 A 
HETATM   19  C10 UNL     1      -1.212   0.156  -0.293  1.00  0.00     0.029 A 
ENDROOT
BRANCH  19  20
HETATM   20  C11 UNL     1      -0.233   0.839  -1.086  1.00  0.00     0.227 C 
BRANCH  20  21
HETATM   21  O5  UNL     1       0.348   0.321  -2.188  1.00  0.00    -0.383 OA
ATOM     22  H5  UNL     1       0.997   0.774  -2.714  1.00  0.00     0.211 HD
ENDBRANCH  20  21
BRANCH  20  23
HETATM   23  C12 UNL     1       0.991   0.925  -0.194  1.00  0.00     0.198 C 
HETATM   24  O6  UNL     1       0.849   1.119   1.033  1.00  0.00    -0.292 OA
BRANCH  23  25
HETATM   25  C13 UNL     1       2.403   0.819  -0.582  1.00  0.00     0.332 C 
BRANCH  25  26
HETATM   26  N4  UNL     1       2.618   0.309  -1.891  1.00  0.00    -0.061 N 
ATOM     27  H43 UNL     1       2.151  -0.591  -2.003  1.00  0.00     0.275 HD
ATOM     28  H42 UNL     1       2.102   0.861  -2.576  1.00  0.00     0.275 HD
ATOM     29  H41 UNL     1       3.599   0.235  -2.161  1.00  0.00     0.275 HD
ENDBRANCH  25  26
BRANCH  25  30
HETATM   30  C14 UNL     1       3.270   0.265   0.452  1.00  0.00     0.235 C 
HETATM   31  O7  UNL     1       3.095   0.495   1.694  1.00  0.00    -0.286 OA
BRANCH  30  32
HETATM   32  C15 UNL     1       4.381  -0.578   0.093  1.00  0.00     0.207 A 
HETATM   33  N5  UNL     1       4.827  -0.979  -1.107  1.00  0.00    -0.267 N 
HETATM   34  N6  UNL     1       5.886  -1.745  -1.008  1.00  0.00    -0.223 N 
ATOM     35  H5  UNL     1       4.393  -0.718  -1.992  1.00  0.00     0.190 HD
HETATM   36  N7  UNL     1       6.154  -1.858   0.281  1.00  0.00     0.018 NA
ATOM     37  H6  UNL     1       6.403  -2.171  -1.777  1.00  0.00     0.205 HD
HETATM   38  N8  UNL     1       5.256  -1.161   0.956  1.00  0.00    -0.164 N 
BRANCH  38  39
HETATM   39  N9  UNL     1       5.203  -1.034   2.355  1.00  0.00    -0.324 N 
ATOM     40  H92 UNL     1       4.510  -0.496   2.876  1.00  0.00     0.178 HD
ATOM     41  H91 UNL     1       5.859  -1.471   3.002  1.00  0.00     0.178 HD
ENDBRANCH  38  39
ENDBRANCH  30  32
ENDBRANCH  25  30
ENDBRANCH  23  25
ENDBRANCH  20  23
ENDBRANCH  19  20
BRANCH   1  42
HETATM   42  O1  UNL     1       0.268  -1.576   0.309  1.00  0.00    -0.352 OA
HETATM   43  C1  UNL     1       0.417  -2.569  -0.690  1.00  0.00     0.210 C 
ENDBRANCH   1  42
BRANCH   2  44
HETATM   44  O2  UNL     1      -1.622  -2.743   1.937  1.00  0.00    -0.357 OA
ATOM     45  H2  UNL     1      -2.279  -3.140   2.496  1.00  0.00     0.218 HD
ENDBRANCH   2  44
TORSDOF 10
