REMARK  11 active torsions:
REMARK  status: ('A' for Active; 'I' for Inactive)
REMARK    1  A    between atoms: N1_1  and  C1_4 
REMARK    2  A    between atoms: C2_7  and  N3_8 
REMARK    3  A    between atoms: N3_8  and  N4_10 
REMARK    4  A    between atoms: C6_19  and  N6_20 
REMARK    5  A    between atoms: C9_23  and  N7_24 
REMARK    6  A    between atoms: C11_29  and  O1_30 
REMARK    7  A    between atoms: O1_30  and  C12_31 
REMARK    8  A    between atoms: C12_31  and  C13_32 
REMARK    9  A    between atoms: N8_34  and  N9_35 
REMARK       I    between atoms: N10_37  and  C15_39 
REMARK   10  A    between atoms: C16_44  and  N13_45 
REMARK   11  A    between atoms: N13_45  and  N14_47 
ROOT
HETATM    1  C1  UNL     1      -2.008   2.874   1.258  1.00  0.00     0.130 A 
HETATM    2  N2  UNL     1      -2.887   3.912   1.321  1.00  0.00    -0.175 N 
ATOM      3  H2  UNL     1      -2.667   4.727   1.894  1.00  0.00     0.186 HD
HETATM    4  C2  UNL     1      -4.041   3.872   0.635  1.00  0.00     0.698 A 
HETATM    5  N5  UNL     1      -4.354   2.818  -0.122  1.00  0.00    -0.186 N 
ATOM      6  H5  UNL     1      -5.237   2.811  -0.632  1.00  0.00     0.184 HD
HETATM    7  C3  UNL     1      -3.524   1.765  -0.223  1.00  0.00     0.104 A 
HETATM    8  C4  UNL     1      -3.941   0.695  -0.977  1.00  0.00     0.146 A 
HETATM    9  F1  UNL     1      -5.123   0.762  -1.624  1.00  0.00    -0.204 F 
HETATM   10  C5  UNL     1      -3.139  -0.399  -1.045  1.00  0.00     0.077 A 
HETATM   11  C6  UNL     1      -1.905  -0.444  -0.365  1.00  0.00     0.068 A 
HETATM   12  C11 UNL     1      -1.510   0.628   0.368  1.00  0.00     0.111 A 
HETATM   13  C17 UNL     1      -2.316   1.792   0.481  1.00  0.00     0.074 A 
ENDROOT
BRANCH  12  14
HETATM   14  O1  UNL     1      -0.291   0.727   1.069  1.00  0.00    -0.347 OA
BRANCH  14  15
HETATM   15  C12 UNL     1       0.925   1.157   0.550  1.00  0.00     0.190 C 
BRANCH  15  16
HETATM   16  C13 UNL     1       1.753   0.414  -0.403  1.00  0.00     0.102 C 
HETATM   17  C14 UNL     1       2.349  -0.875   0.040  1.00  0.00     0.185 C 
HETATM   18  N8  UNL     1       3.759  -0.595   0.154  1.00  0.00    -0.217 N 
HETATM   19  N12 UNL     1       3.991   0.659  -0.386  1.00  0.00    -0.269 N 
HETATM   20  C16 UNL     1       2.938   1.268  -0.713  1.00  0.00     0.125 C 
ATOM     21  H12 UNL     1       4.925   1.052  -0.507  1.00  0.00     0.190 HD
BRANCH  18  22
HETATM   22  N9  UNL     1       4.776  -1.406   0.707  1.00  0.00    -0.222 N 
HETATM   23  N10 UNL     1       5.605  -1.952  -0.086  1.00  0.00    -0.238 N 
HETATM   24  C15 UNL     1       6.643  -2.775   0.429  1.00  0.00     0.348 C 
ATOM     25  H10 UNL     1       5.526  -1.800  -1.091  1.00  0.00     0.193 HD
HETATM   26  N11 UNL     1       6.416  -3.911   1.252  1.00  0.00    -0.038 NA
HETATM   27  O2  UNL     1       7.832  -2.486   0.142  1.00  0.00    -0.249 OA
ATOM     28  H9  UNL     1       4.843  -1.549   1.715  1.00  0.00     0.210 HD
ENDBRANCH  18  22
BRANCH  20  29
HETATM   29  N13 UNL     1       2.878   2.592  -1.301  1.00  0.00    -0.228 N 
ATOM     30  H13 UNL     1       2.419   2.709  -2.205  1.00  0.00     0.194 HD
BRANCH  29  31
HETATM   31  N14 UNL     1       3.425   3.710  -0.675  1.00  0.00    -0.037 N 
HETATM   32  O3  UNL     1       3.168   3.886   0.528  1.00  0.00    -0.516 OA
HETATM   33  O4  UNL     1       4.228   4.629  -1.296  1.00  0.00    -0.516 OA
ENDBRANCH  29  31
ENDBRANCH  20  29
ENDBRANCH  15  16
ENDBRANCH  14  15
ENDBRANCH  12  14
BRANCH  11  34
HETATM   34  N6  UNL     1      -1.230  -1.688  -0.415  1.00  0.00    -0.376 N 
HETATM   35  C7  UNL     1      -0.718  -2.346  -1.567  1.00  0.00     0.125 C 
HETATM   36  C8  UNL     1      -0.166  -3.680  -1.114  1.00  0.00     0.054 C 
HETATM   37  C9  UNL     1      -0.976  -3.935   0.140  1.00  0.00     0.202 C 
HETATM   38  C10 UNL     1      -1.032  -2.537   0.742  1.00  0.00     0.155 C 
BRANCH  37  39
HETATM   39  N7  UNL     1      -0.349  -4.896   1.001  1.00  0.00    -0.073 N 
ATOM     40  H73 UNL     1      -0.153  -5.765   0.504  1.00  0.00     0.274 HD
ATOM     41  H72 UNL     1       0.607  -4.621   1.228  1.00  0.00     0.274 HD
ATOM     42  H71 UNL     1      -0.895  -5.068   1.846  1.00  0.00     0.274 HD
ENDBRANCH  37  39
ENDBRANCH  11  34
BRANCH   1  43
HETATM   43  N1  UNL     1      -0.971   2.892   2.000  1.00  0.00    -0.384 N 
ATOM     44  H12 UNL     1      -0.741   3.699   2.580  1.00  0.00     0.157 HD
ATOM     45  H11 UNL     1      -0.313   2.114   1.953  1.00  0.00     0.157 HD
ENDBRANCH   1  43
BRANCH   4  46
HETATM   46  N3  UNL     1      -4.915   4.972   0.733  1.00  0.00    -0.138 N 
ATOM     47  H3  UNL     1      -4.657   5.768   1.316  1.00  0.00     0.205 HD
BRANCH  46  48
HETATM   48  N4  UNL     1      -6.134   4.990   0.042  1.00  0.00    -0.331 N 
ATOM     49  H42 UNL     1      -6.377   4.186  -0.537  1.00  0.00     0.177 HD
ATOM     50  H41 UNL     1      -6.767   5.787   0.113  1.00  0.00     0.177 HD
ENDBRANCH  46  48
ENDBRANCH   4  46
TORSDOF 11
