REMARK  7 active torsions:
REMARK  status: ('A' for Active; 'I' for Inactive)
REMARK    1  A    between atoms: C1_4  and  N2_5 
REMARK    2  A    between atoms: N2_5  and  C2_7 
REMARK    3  A    between atoms: C3_8  and  O1_9 
REMARK    4  A    between atoms: C4_11  and  O2_12 
REMARK    5  A    between atoms: C5_14  and  N3_15 
REMARK    6  A    between atoms: N3_15  and  C6_17 
REMARK    7  A    between atoms: C7_19  and  N4_20 
ROOT
HETATM    1  C2  UNL     1      -0.589   0.691   1.233  1.00  0.00     0.138 C 
HETATM    2  C3  UNL     1      -1.139   1.799   0.368  1.00  0.00     0.173 C 
HETATM    3  C4  UNL     1      -1.367   1.254  -1.000  1.00  0.00     0.173 C 
HETATM    4  C5  UNL     1      -0.626  -0.068  -1.082  1.00  0.00     0.140 C 
HETATM    5  C7  UNL     1      -0.235  -0.453   0.305  1.00  0.00     0.134 C 
ENDROOT
BRANCH   1   6
HETATM    6  N2  UNL     1       0.527   1.123   2.032  1.00  0.00    -0.377 N 
ATOM      7  H2  UNL     1       0.452   1.052   3.047  1.00  0.00     0.160 HD
BRANCH   6   8
HETATM    8  C1  UNL     1       1.726   1.643   1.480  1.00  0.00     0.169 C 
HETATM    9  N1  UNL     1       2.832   1.409   2.097  1.00  0.00    -0.396 N 
ATOM     10  H12 UNL     1       2.829   0.863   2.958  1.00  0.00     0.156 HD
ATOM     11  H11 UNL     1       3.694   1.783   1.700  1.00  0.00     0.156 HD
ENDBRANCH   6   8
ENDBRANCH   1   6
BRANCH   2  12
HETATM   12  O1  UNL     1      -2.295   2.293   0.966  1.00  0.00    -0.391 OA
ATOM     13  H1  UNL     1      -2.641   2.990   0.422  1.00  0.00     0.210 HD
ENDBRANCH   2  12
BRANCH   5  14
HETATM   14  N4  UNL     1       1.149  -0.742   0.479  1.00  0.00    -0.358 N 
HETATM   15  C8  UNL     1       1.857  -1.595  -0.103  1.00  0.00     0.197 C 
HETATM   16  N5  UNL     1       3.225  -1.743   0.200  1.00  0.00    -0.067 NA
HETATM   17  N6  UNL     1       1.284  -2.430  -1.083  1.00  0.00    -0.067 NA
ATOM     18  H4  UNL     1       1.631  -0.174   1.176  1.00  0.00     0.162 HD
ENDBRANCH   5  14
BRANCH   3  19
HETATM   19  O2  UNL     1      -0.877   2.159  -1.972  1.00  0.00    -0.391 OA
ATOM     20  H2  UNL     1      -1.022   1.812  -2.844  1.00  0.00     0.210 HD
ENDBRANCH   3  19
BRANCH   4  21
HETATM   21  N3  UNL     1      -1.507  -1.025  -1.688  1.00  0.00    -0.359 N 
ATOM     22  H3  UNL     1      -1.230  -1.496  -2.549  1.00  0.00     0.162 HD
BRANCH  21  23
HETATM   23  C6  UNL     1      -2.748  -1.315  -1.100  1.00  0.00     0.349 C 
HETATM   24  O3  UNL     1      -3.209  -0.813  -0.047  1.00  0.00    -0.284 OA
ENDBRANCH  21  23
ENDBRANCH   4  21
TORSDOF 7
