REMARK  8 active torsions:
REMARK  status: ('A' for Active; 'I' for Inactive)
REMARK    1  A    between atoms: N1_1  and  N2_4 
REMARK    2  A    between atoms: C1_6  and  C2_7 
REMARK    3  A    between atoms: C2_7  and  N4_11 
REMARK    4  A    between atoms: N4_11  and  C3_13 
REMARK    5  A    between atoms: C3_13  and  C4_14 
REMARK    6  A    between atoms: C4_14  and  N5_15 
REMARK    7  A    between atoms: N5_15  and  C5_18 
REMARK    8  A    between atoms: C5_18  and  N6_19 
ROOT
HETATM    1  C4  UNL     1       0.393   1.595  -1.765  1.00  0.00     0.253 C 
ENDROOT
BRANCH   1   2
HETATM    2  C3  UNL     1       1.506   0.609  -1.510  1.00  0.00     0.149 C 
BRANCH   2   3
HETATM    3  N4  UNL     1       2.018   0.712  -0.186  1.00  0.00    -0.374 N 
ATOM      4  H4  UNL     1       1.643   1.395   0.473  1.00  0.00     0.161 HD
BRANCH   3   5
HETATM    5  C2  UNL     1       3.098  -0.192   0.198  1.00  0.00     0.111 C 
HETATM    6  N3  UNL     1       3.635  -0.856  -0.703  1.00  0.00    -0.385 N 
ATOM      7  H32 UNL     1       4.390  -1.488  -0.435  1.00  0.00     0.157 HD
ATOM      8  H31 UNL     1       3.416  -0.854  -1.699  1.00  0.00     0.157 HD
BRANCH   5   9
HETATM    9  C1  UNL     1       3.410  -0.195   1.616  1.00  0.00     0.154 C 
HETATM   10  N2  UNL     1       4.313  -0.905   2.163  1.00  0.00    -0.315 N 
ATOM     11  H2  UNL     1       4.450  -0.830   3.171  1.00  0.00     0.185 HD
BRANCH  10  12
HETATM   12  N1  UNL     1       5.111  -1.768   1.454  1.00  0.00    -0.345 N 
ATOM     13  H12 UNL     1       4.961  -1.831   0.447  1.00  0.00     0.176 HD
ATOM     14  H11 UNL     1       5.835  -2.337   1.893  1.00  0.00     0.176 HD
ENDBRANCH  10  12
ENDBRANCH   5   9
ENDBRANCH   3   5
ENDBRANCH   2   3
ENDBRANCH   1   2
BRANCH   1  15
HETATM   15  N5  UNL     1      -0.729   1.413  -0.889  1.00  0.00    -0.056 N 
ATOM     16  H52 UNL     1      -0.467   1.473   0.095  1.00  0.00     0.279 HD
ATOM     17  H51 UNL     1      -1.373   2.204  -0.914  1.00  0.00     0.279 HD
BRANCH  15  18
HETATM   18  C5  UNL     1      -1.375   0.173  -1.207  1.00  0.00     0.383 C 
BRANCH  18  19
HETATM   19  N6  UNL     1      -2.533  -0.107  -0.382  1.00  0.00    -0.234 N 
HETATM   20  N7  UNL     1      -3.774   0.262  -0.668  1.00  0.00    -0.245 N 
HETATM   21  C6  UNL     1      -4.628  -0.142   0.283  1.00  0.00     0.341 A 
ATOM     22  H7  UNL     1      -4.043   0.784  -1.502  1.00  0.00     0.192 HD
HETATM   23  O1  UNL     1      -5.888   0.063   0.287  1.00  0.00    -0.245 OA
HETATM   24  N8  UNL     1      -3.884  -0.784   1.191  1.00  0.00    -0.280 N 
HETATM   25  C7  UNL     1      -2.610  -0.763   0.787  1.00  0.00     0.215 A 
ATOM     26  H8  UNL     1      -4.231  -1.217   2.047  1.00  0.00     0.173 HD
HETATM   27  N9  UNL     1      -1.519  -1.334   1.470  1.00  0.00    -0.061 NA
ENDBRANCH  18  19
ENDBRANCH  15  18
ENDBRANCH   1  15
TORSDOF 8
