REMARK  6 active torsions:
REMARK  status: ('A' for Active; 'I' for Inactive)
REMARK    1  A    between atoms: C2_2  and  C4_10 
REMARK    2  A    between atoms: N1_3  and  N2_5 
REMARK    3  A    between atoms: C4_10  and  C5_11 
REMARK    4  A    between atoms: C4_10  and  N9_19 
REMARK    5  A    between atoms: C5_11  and  N5_12 
REMARK    6  A    between atoms: N5_12  and  N6_14 
ROOT
HETATM    1  C4  UNL     1      -0.177  -0.068  -0.780  1.00  0.00     0.149 C 
ENDROOT
BRANCH   1   2
HETATM    2  C2  UNL     1      -1.372  -0.179   0.130  1.00  0.00     0.024 C 
HETATM    3  C1  UNL     1      -1.155  -0.963   1.379  1.00  0.00     0.067 C 
HETATM    4  N1  UNL     1      -2.476   0.376  -0.183  1.00  0.00    -0.305 N 
ATOM      5  H1  UNL     1      -2.565   0.902  -1.052  1.00  0.00     0.186 HD
BRANCH   4   6
HETATM    6  N2  UNL     1      -3.553   0.250   0.681  1.00  0.00    -0.276 N 
HETATM    7  C3  UNL     1      -4.020   1.293   1.264  1.00  0.00     0.215 C 
HETATM    8  N3  UNL     1      -3.428   2.554   1.016  1.00  0.00    -0.065 NA
HETATM    9  N4  UNL     1      -5.126   1.121   2.144  1.00  0.00    -0.065 NA
ATOM     10  H2  UNL     1      -3.971  -0.665   0.852  1.00  0.00     0.189 HD
ENDBRANCH   4   6
ENDBRANCH   1   2
BRANCH   1  11
HETATM   11  C5  UNL     1       0.902   0.615   0.032  1.00  0.00     0.170 C 
BRANCH  11  12
HETATM   12  N5  UNL     1       2.100   0.770  -0.757  1.00  0.00    -0.332 N 
ATOM     13  H5  UNL     1       2.131   0.438  -1.721  1.00  0.00     0.180 HD
BRANCH  12  14
HETATM   14  N6  UNL     1       3.210   1.377  -0.186  1.00  0.00    -0.280 N 
HETATM   15  C6  UNL     1       3.978   0.720   0.608  1.00  0.00     0.215 C 
HETATM   16  N7  UNL     1       3.637  -0.647   0.871  1.00  0.00    -0.065 NA
HETATM   17  N8  UNL     1       5.128   1.307   1.215  1.00  0.00    -0.065 NA
ATOM     18  H6  UNL     1       3.418   2.353  -0.398  1.00  0.00     0.189 HD
ENDBRANCH  12  14
ENDBRANCH  11  12
ENDBRANCH   1  11
BRANCH   1  19
HETATM   19  N9  UNL     1       0.228  -1.429  -1.076  1.00  0.00    -0.355 N 
HETATM   20  C7  UNL     1       0.214  -1.881  -2.273  1.00  0.00     0.197 C 
HETATM   21  N10 UNL     1      -0.204  -1.042  -3.328  1.00  0.00    -0.067 NA
HETATM   22  N11 UNL     1       0.610  -3.206  -2.552  1.00  0.00    -0.067 NA
ATOM     23  H9  UNL     1       0.530  -2.038  -0.315  1.00  0.00     0.162 HD
ENDBRANCH   1  19
TORSDOF 6
