REMARK  5 active torsions:
REMARK  status: ('A' for Active; 'I' for Inactive)
REMARK    1  A    between atoms: C2_4  and  C3_5 
REMARK    2  A    between atoms: C3_5  and  C4_6 
REMARK    3  A    between atoms: C4_6  and  C5_7 
REMARK    4  A    between atoms: C5_7  and  C6_8 
REMARK    5  A    between atoms: C13_15  and  C14_16 
ROOT
HETATM    1  N1  UNL     1      -3.647  -2.018  -1.426  1.00  0.00    -0.093 NA
HETATM    2  C1  UNL     1      -2.503  -1.473  -0.730  1.00  0.00     0.098 A 
HETATM    3  S1  UNL     1      -0.908  -2.068  -0.686  1.00  0.00    -0.079 SA
HETATM    4  C2  UNL     1      -0.199  -0.887   0.321  1.00  0.00    -0.015 A 
HETATM    5  C12 UNL     1      -1.244  -0.054   0.595  1.00  0.00     0.029 A 
HETATM    6  C13 UNL     1      -2.433  -0.354   0.054  1.00  0.00     0.006 A 
ENDROOT
BRANCH   4   7
HETATM    7  C3  UNL     1       1.211  -0.740   0.819  1.00  0.00     0.046 C 
BRANCH   7   8
HETATM    8  C4  UNL     1       2.042  -1.854   0.293  1.00  0.00     0.010 C 
BRANCH   8   9
HETATM    9  C5  UNL     1       3.472  -1.797   0.749  1.00  0.00     0.039 C 
BRANCH   9  10
HETATM   10  C6  UNL     1       4.135  -0.547   0.315  1.00  0.00    -0.058 A 
HETATM   11  C7  UNL     1       4.764  -0.497  -0.914  1.00  0.00     0.007 A 
HETATM   12  C8  UNL     1       5.391   0.635  -1.340  1.00  0.00     0.001 A 
HETATM   13  C9  UNL     1       5.415   1.757  -0.561  1.00  0.00     0.000 A 
HETATM   14  C10 UNL     1       4.792   1.744   0.682  1.00  0.00     0.001 A 
HETATM   15  C11 UNL     1       4.174   0.596   1.080  1.00  0.00     0.007 A 
ENDBRANCH   9  10
ENDBRANCH   8   9
ENDBRANCH   7   8
ENDBRANCH   4   7
BRANCH   6  16
HETATM   16  C14 UNL     1      -3.667   0.464   0.265  1.00  0.00    -0.024 A 
HETATM   17  C15 UNL     1      -3.577   1.836   0.164  1.00  0.00     0.012 A 
HETATM   18  C16 UNL     1      -4.655   2.672   0.341  1.00  0.00     0.001 A 
HETATM   19  C17 UNL     1      -5.869   2.112   0.630  1.00  0.00     0.000 A 
HETATM   20  C18 UNL     1      -5.982   0.736   0.736  1.00  0.00     0.001 A 
HETATM   21  C19 UNL     1      -4.872  -0.097   0.552  1.00  0.00     0.012 A 
ENDBRANCH   6  16
TORSDOF 5
