REMARK  8 active torsions:
REMARK  status: ('A' for Active; 'I' for Inactive)
REMARK    1  A    between atoms: N3_4  and  C2_6 
REMARK    2  A    between atoms: C2_6  and  C3_7 
REMARK    3  A    between atoms: C3_7  and  C4_8 
REMARK    4  A    between atoms: C4_8  and  C5_9 
REMARK    5  A    between atoms: C5_9  and  C6_10 
REMARK    6  A    between atoms: N4_13  and  C9_14 
REMARK    7  A    between atoms: C9_14  and  N5_16 
REMARK    8  A    between atoms: N5_16  and  C10_18 
ROOT
HETATM    1  C6  UNL     1       1.200   0.209   0.269  1.00  0.00    -0.008 C 
HETATM    2  C7  UNL     1       0.766   1.656   0.354  1.00  0.00     0.025 C 
HETATM    3  C8  UNL     1      -0.360   1.704   1.384  1.00  0.00     0.131 C 
HETATM    4  N4  UNL     1      -1.473   1.024   0.645  1.00  0.00    -0.338 N 
HETATM    5  C15 UNL     1      -1.268  -0.362   0.502  1.00  0.00     0.067 C 
HETATM    6  C16 UNL     1       0.181  -0.782   0.653  1.00  0.00     0.049 C 
ENDROOT
BRANCH   1   7
HETATM    7  C5  UNL     1       1.686   0.006  -1.158  1.00  0.00     0.005 C 
BRANCH   7   8
HETATM    8  C4  UNL     1       2.167  -1.372  -1.450  1.00  0.00     0.002 C 
BRANCH   8   9
HETATM    9  C3  UNL     1       3.313  -1.760  -0.559  1.00  0.00     0.020 C 
BRANCH   9  10
HETATM   10  C2  UNL     1       4.473  -0.816  -0.753  1.00  0.00     0.122 C 
BRANCH  10  11
HETATM   11  N3  UNL     1       5.579  -1.200   0.111  1.00  0.00    -0.367 N 
HETATM   12  C1  UNL     1       6.533  -0.388   0.414  1.00  0.00     0.196 C 
HETATM   13  N1  UNL     1       7.559  -0.886   1.270  1.00  0.00    -0.067 NA
HETATM   14  N2  UNL     1       6.568   0.930  -0.073  1.00  0.00    -0.067 NA
ATOM     15  H3  UNL     1       5.600  -2.146   0.491  1.00  0.00     0.161 HD
ENDBRANCH  10  11
ENDBRANCH   9  10
ENDBRANCH   8   9
ENDBRANCH   7   8
ENDBRANCH   1   7
BRANCH   4  16
HETATM   16  C9  UNL     1      -2.512   1.859   0.218  1.00  0.00     0.173 C 
HETATM   17  S1  UNL     1      -2.372   3.507   0.586  1.00  0.00    -0.041 SA
BRANCH  16  18
HETATM   18  N5  UNL     1      -3.683   1.566  -0.484  1.00  0.00    -0.362 N 
ATOM     19  H5  UNL     1      -4.282   2.368  -0.679  1.00  0.00     0.162 HD
BRANCH  18  20
HETATM   20  C10 UNL     1      -4.169   0.315  -0.970  1.00  0.00     0.083 C 
HETATM   21  C11 UNL     1      -5.462   0.581  -1.768  1.00  0.00     0.025 C 
HETATM   22  C12 UNL     1      -6.378  -0.577  -1.435  1.00  0.00     0.002 C 
HETATM   23  C13 UNL     1      -6.143  -0.687   0.067  1.00  0.00     0.002 C 
HETATM   24  C14 UNL     1      -4.650  -0.570   0.135  1.00  0.00     0.025 C 
ENDBRANCH  18  20
ENDBRANCH  16  18
ENDBRANCH   4  16
TORSDOF 8
