REMARK  7 active torsions:
REMARK  status: ('A' for Active; 'I' for Inactive)
REMARK    1  A    between atoms: C3_3  and  C4_4 
REMARK    2  A    between atoms: C4_4  and  C5_5 
REMARK    3  A    between atoms: C6_6  and  C7_7 
REMARK    4  A    between atoms: C7_7  and  C8_8 
REMARK    5  A    between atoms: C8_8  and  N1_9 
REMARK       I    between atoms: N1_9  and  C9_11 
REMARK    6  A    between atoms: C9_11  and  C10_13 
REMARK    7  A    between atoms: C16_19  and  C17_20 
ROOT
HETATM    1  C1  UNL     1       9.992  -0.515  -0.161  1.00  0.00     0.012 C 
HETATM    2  C2  UNL     1       8.793  -0.372  -0.189  1.00  0.00    -0.117 C 
HETATM    3  C3  UNL     1       7.340  -0.178  -0.216  1.00  0.00     0.105 C 
ENDROOT
BRANCH   3   4
HETATM    4  C4  UNL     1       6.729  -1.455  -0.733  1.00  0.00     0.106 C 
BRANCH   4   5
HETATM    5  C5  UNL     1       5.281  -1.240  -0.752  1.00  0.00    -0.106 C 
HETATM    6  C6  UNL     1       4.088  -1.073  -0.786  1.00  0.00    -0.105 C 
BRANCH   6   7
HETATM    7  C7  UNL     1       2.617  -0.883  -0.847  1.00  0.00     0.113 C 
BRANCH   7   8
HETATM    8  C8  UNL     1       2.124  -0.708   0.571  1.00  0.00     0.134 C 
BRANCH   8   9
HETATM    9  N1  UNL     1       0.724  -0.515   0.695  1.00  0.00    -0.360 N 
HETATM   10  C9  UNL     1       0.029   0.570   0.103  1.00  0.00     0.226 C 
HETATM   11  O1  UNL     1       0.708   1.392  -0.560  1.00  0.00    -0.273 OA
ATOM     12  H1  UNL     1       0.189  -1.192   1.239  1.00  0.00     0.162 HD
BRANCH  10  13
HETATM   13  C10 UNL     1      -1.447   0.730   0.262  1.00  0.00     0.043 C 
HETATM   14  C11 UNL     1      -1.876   1.959  -0.473  1.00  0.00     0.024 C 
HETATM   15  C12 UNL     1      -3.367   2.100  -0.400  1.00  0.00    -0.012 C 
HETATM   16  C13 UNL     1      -3.813   2.201   1.047  1.00  0.00     0.009 C 
HETATM   17  C18 UNL     1      -4.007   0.889  -1.006  1.00  0.00     0.023 C 
HETATM   18  C14 UNL     1      -3.354   0.951   1.757  1.00  0.00    -0.012 C 
HETATM   19  C15 UNL     1      -3.993  -0.291   1.174  1.00  0.00     0.023 C 
HETATM   20  C20 UNL     1      -1.861   0.840   1.697  1.00  0.00     0.024 C 
HETATM   21  C16 UNL     1      -3.583  -0.371  -0.279  1.00  0.00     0.040 C 
HETATM   22  C19 UNL     1      -2.078  -0.524  -0.308  1.00  0.00     0.038 C 
BRANCH  21  23
HETATM   23  C17 UNL     1      -4.241  -1.510  -0.962  1.00  0.00     0.239 C 
HETATM   24  N2  UNL     1      -5.648  -1.631  -1.063  1.00  0.00    -0.061 NA
HETATM   25  O2  UNL     1      -3.512  -2.399  -1.468  1.00  0.00    -0.276 OA
ENDBRANCH  21  23
ENDBRANCH  10  13
ENDBRANCH   8   9
ENDBRANCH   7   8
ENDBRANCH   6   7
ENDBRANCH   4   5
ENDBRANCH   3   4
TORSDOF 7
