REMARK  2 active torsions:
REMARK  status: ('A' for Active; 'I' for Inactive)
REMARK    1  A    between atoms: C2_2  and  C3_4 
REMARK    2  A    between atoms: C3_4  and  O2_5 
ROOT
HETATM    1  C3  UNL     1       3.800   0.087  -0.525  1.00  0.00     0.125 C 
HETATM    2  C4  UNL     1       3.875  -1.369  -0.135  1.00  0.00     0.047 C 
HETATM    3  C5  UNL     1       2.455  -1.840   0.017  1.00  0.00     0.009 C 
HETATM    4  C6  UNL     1       1.730  -0.955  -0.963  1.00  0.00     0.002 C 
HETATM    5  C7  UNL     1       0.242  -0.990  -0.860  1.00  0.00    -0.003 C 
HETATM    6  C8  UNL     1      -0.290  -2.182  -0.127  1.00  0.00     0.006 C 
HETATM    7  C9  UNL     1      -1.104  -1.927   1.087  1.00  0.00     0.013 C 
HETATM    8  C10 UNL     1      -2.440  -1.291   0.828  1.00  0.00    -0.002 C 
HETATM    9  C11 UNL     1      -3.626  -1.970   1.414  1.00  0.00     0.019 C 
HETATM   10  C12 UNL     1      -2.589  -0.820  -0.604  1.00  0.00     0.054 C 
HETATM   11  C13 UNL     1      -1.790   0.377  -0.198  1.00  0.00     0.103 C 
HETATM   12  O3  UNL     1      -2.441   1.540  -0.680  1.00  0.00    -0.365 OA
HETATM   13  C14 UNL     1      -3.662   1.610  -0.081  1.00  0.00     0.065 A 
HETATM   14  C15 UNL     1      -4.348   2.939  -0.100  1.00  0.00     0.041 A 
HETATM   15  C16 UNL     1      -4.937   1.763  -0.793  1.00  0.00     0.041 A 
HETATM   16  C17 UNL     1      -3.539   0.969   1.257  1.00  0.00     0.085 C 
HETATM   17  C18 UNL     1      -2.270   0.172   1.189  1.00  0.00     0.145 C 
HETATM   18  F1  UNL     1      -1.461   0.428   2.233  1.00  0.00    -0.239 F 
HETATM   19  C19 UNL     1      -0.341   0.321  -0.457  1.00  0.00     0.028 C 
HETATM   20  C20 UNL     1       0.518   1.035   0.565  1.00  0.00     0.009 C 
HETATM   21  C21 UNL     1       1.773   1.470  -0.210  1.00  0.00     0.013 C 
HETATM   22  C22 UNL     1       2.394   0.387  -0.978  1.00  0.00    -0.002 C 
HETATM   23  C23 UNL     1       2.556   0.856  -2.464  1.00  0.00     0.019 C 
ENDROOT
BRANCH   1  24
HETATM   24  C2  UNL     1       4.355   0.923   0.529  1.00  0.00     0.158 C 
HETATM   25  C1  UNL     1       3.924   0.757   1.941  1.00  0.00     0.094 C 
HETATM   26  O1  UNL     1       5.204   1.791   0.284  1.00  0.00    -0.295 OA
ENDBRANCH   1  24
BRANCH   1  27
HETATM   27  O2  UNL     1       4.692   0.243  -1.637  1.00  0.00    -0.381 OA
ATOM     28  H2  UNL     1       4.330  -0.303  -2.325  1.00  0.00     0.211 HD
ENDBRANCH   1  27
TORSDOF 2
