REMARK  3 active torsions:
REMARK  status: ('A' for Active; 'I' for Inactive)
REMARK    1  A    between atoms: C2_2  and  O2_4 
REMARK    2  A    between atoms: O2_4  and  C3_5 
REMARK    3  A    between atoms: C8_10  and  O3_11 
ROOT
HETATM    1  C3  UNL     1       3.603  -0.689   0.112  1.00  0.00     0.140 C 
HETATM    2  C4  UNL     1       3.358  -1.635  -1.030  1.00  0.00     0.034 C 
HETATM    3  C5  UNL     1       1.846  -1.557  -1.230  1.00  0.00     0.008 C 
HETATM    4  C6  UNL     1       1.376  -1.511   0.212  1.00  0.00     0.003 C 
HETATM    5  C7  UNL     1      -0.064  -1.108   0.347  1.00  0.00     0.024 C 
HETATM    6  C8  UNL     1      -0.861  -1.799  -0.706  1.00  0.00     0.123 C 
HETATM    7  C9  UNL     1      -2.214  -1.149  -0.970  1.00  0.00     0.038 C 
HETATM    8  C10 UNL     1      -2.512  -0.279   0.166  1.00  0.00     0.010 C 
HETATM    9  C11 UNL     1      -1.573   0.898   0.216  1.00  0.00    -0.030 C 
HETATM   10  C12 UNL     1      -1.678   1.814  -0.956  1.00  0.00     0.016 C 
HETATM   11  C13 UNL     1      -2.117   1.608   1.425  1.00  0.00     0.089 C 
HETATM   12  C14 UNL     1      -3.616   1.470   1.252  1.00  0.00     0.251 C 
HETATM   13  F1  UNL     1      -4.234   2.621   0.890  1.00  0.00    -0.205 F 
HETATM   14  F2  UNL     1      -4.111   1.120   2.515  1.00  0.00    -0.205 F 
HETATM   15  C15 UNL     1      -3.842   0.325   0.286  1.00  0.00     0.023 C 
HETATM   16  C16 UNL     1      -4.507   0.745  -0.977  1.00  0.00     0.021 C 
HETATM   17  C17 UNL     1      -4.769  -0.699   0.960  1.00  0.00     0.021 C 
HETATM   18  C18 UNL     1      -0.193   0.390   0.348  1.00  0.00     0.001 C 
HETATM   19  C19 UNL     1       0.510   0.874   1.624  1.00  0.00     0.007 C 
HETATM   20  C20 UNL     1       1.986   0.660   1.342  1.00  0.00     0.012 C 
HETATM   21  C21 UNL     1       2.347  -0.724   0.981  1.00  0.00    -0.013 C 
HETATM   22  C22 UNL     1       2.744  -1.456   2.270  1.00  0.00     0.018 C 
ENDROOT
BRANCH   1  23
HETATM   23  O2  UNL     1       3.839   0.587  -0.427  1.00  0.00    -0.316 OA
BRANCH  23  24
HETATM   24  C2  UNL     1       4.989   1.301  -0.244  1.00  0.00     0.255 C 
HETATM   25  C1  UNL     1       5.207   2.660  -0.835  1.00  0.00     0.126 C 
HETATM   26  O1  UNL     1       5.911   0.813   0.445  1.00  0.00    -0.266 OA
ENDBRANCH  23  24
ENDBRANCH   1  23
BRANCH   6  27
HETATM   27  O3  UNL     1      -1.145  -3.097  -0.217  1.00  0.00    -0.395 OA
ATOM     28  H3  UNL     1      -1.653  -3.537  -0.888  1.00  0.00     0.210 HD
ENDBRANCH   6  27
TORSDOF 3
