REMARK  5 active torsions:
REMARK  status: ('A' for Active; 'I' for Inactive)
REMARK    1  A    between atoms: C4_6  and  C5_7 
REMARK    2  A    between atoms: C5_7  and  C6_8 
REMARK    3  A    between atoms: C23_29  and  O4_30 
REMARK    4  A    between atoms: C25_33  and  O5_34 
REMARK    5  A    between atoms: C29_40  and  O6_41 
ROOT
HETATM    1  C1  UNL     1       4.928  -0.235  -2.514  1.00  0.00     0.040 C 
HETATM    2  C2  UNL     1       4.191  -0.461  -1.499  1.00  0.00     0.028 C 
HETATM    3  C3  UNL     1       4.027   0.611  -0.359  1.00  0.00     0.135 C 
HETATM    4  N1  UNL     1       4.427   0.034   0.868  1.00  0.00    -0.399 N 
ATOM      5  H1  UNL     1       4.378   0.612   1.707  1.00  0.00     0.154 HD
HETATM    6  C4  UNL     1       4.889  -1.288   1.005  1.00  0.00     0.180 C 
HETATM    7  C7  UNL     1       3.921  -2.151   0.145  1.00  0.00     0.247 C 
HETATM    8  O3  UNL     1       3.704  -3.345   0.385  1.00  0.00    -0.271 OA
HETATM    9  N2  UNL     1       3.335  -1.416  -0.907  1.00  0.00    -0.318 N 
HETATM   10  C8  UNL     1       1.928  -1.393  -1.189  1.00  0.00     0.138 C 
HETATM   11  C9  UNL     1       1.602   0.131  -1.174  1.00  0.00     0.023 C 
HETATM   12  C10 UNL     1       2.607   1.015  -0.534  1.00  0.00    -0.013 C 
HETATM   13  C11 UNL     1       2.769   2.330  -1.373  1.00  0.00     0.018 C 
HETATM   14  C12 UNL     1       2.118   1.603   0.789  1.00  0.00     0.012 C 
HETATM   15  C13 UNL     1       1.182   0.574   1.408  1.00  0.00     0.007 C 
HETATM   16  C14 UNL     1      -0.122   0.659   0.597  1.00  0.00     0.006 C 
HETATM   17  C15 UNL     1       0.159   0.397  -0.823  1.00  0.00    -0.034 C 
HETATM   18  C16 UNL     1      -0.221   1.619  -1.704  1.00  0.00     0.016 C 
HETATM   19  C17 UNL     1      -0.681  -0.693  -1.449  1.00  0.00     0.010 C 
HETATM   20  C18 UNL     1      -2.115  -0.479  -1.499  1.00  0.00     0.007 C 
HETATM   21  C19 UNL     1      -2.889   0.323  -0.528  1.00  0.00     0.009 C 
HETATM   22  C20 UNL     1      -4.337   0.212  -0.927  1.00  0.00    -0.017 C 
HETATM   23  C21 UNL     1      -5.052   1.581  -0.994  1.00  0.00     0.018 C 
HETATM   24  C22 UNL     1      -4.512  -0.186  -2.413  1.00  0.00     0.018 C 
HETATM   25  C23 UNL     1      -5.194  -0.759  -0.219  1.00  0.00     0.128 C 
HETATM   26  C24 UNL     1      -4.800  -1.187   1.126  1.00  0.00     0.065 C 
HETATM   27  C25 UNL     1      -3.302  -1.203   1.362  1.00  0.00     0.131 C 
HETATM   28  C26 UNL     1      -2.597   0.061   0.915  1.00  0.00     0.013 C 
HETATM   29  C27 UNL     1      -3.280   1.177   1.724  1.00  0.00     0.072 C 
HETATM   30 BR1  UNL     1      -2.726   2.953   1.222  1.00  0.00    -0.090 Br
HETATM   31  C28 UNL     1      -2.687   0.986   3.070  1.00  0.00     0.049 C 
HETATM   32  C29 UNL     1      -1.238   0.808   2.700  1.00  0.00     0.128 C 
HETATM   33  C30 UNL     1      -1.201   0.008   1.374  1.00  0.00    -0.002 C 
HETATM   34  C31 UNL     1      -0.712  -1.335   1.865  1.00  0.00     0.019 C 
ENDROOT
BRANCH   6  35
HETATM   35  C5  UNL     1       6.290  -1.621   0.758  1.00  0.00     0.147 C 
BRANCH  35  36
HETATM   36  C6  UNL     1       7.197  -0.888   1.666  1.00  0.00     0.175 C 
HETATM   37  O1  UNL     1       8.442  -1.013   1.541  1.00  0.00    -0.648 OA
HETATM   38  O2  UNL     1       6.684  -0.069   2.648  1.00  0.00    -0.648 OA
ENDBRANCH  35  36
ENDBRANCH   6  35
BRANCH  32  39
HETATM   39  O6  UNL     1      -0.735   0.097   3.797  1.00  0.00    -0.395 OA
ATOM     40  H6  UNL     1       0.179  -0.015   3.564  1.00  0.00     0.210 HD
ENDBRANCH  32  39
BRANCH  27  41
HETATM   41  O5  UNL     1      -2.820  -2.336   0.768  1.00  0.00    -0.395 OA
ATOM     42  H5  UNL     1      -1.882  -2.346   0.916  1.00  0.00     0.210 HD
ENDBRANCH  27  41
BRANCH  25  43
HETATM   43  O4  UNL     1      -5.456  -1.939  -0.973  1.00  0.00    -0.395 OA
ATOM     44  H4  UNL     1      -6.008  -2.564  -0.517  1.00  0.00     0.210 HD
ENDBRANCH  25  43
TORSDOF 5
