REMARK  4 active torsions:
REMARK  status: ('A' for Active; 'I' for Inactive)
REMARK    1  A    between atoms: N1_1  and  N2_4 
REMARK    2  A    between atoms: N2_4  and  N3_5 
REMARK    3  A    between atoms: N3_5  and  C1_7 
REMARK    4  A    between atoms: C4_10  and  N4_11 
ROOT
HETATM    1  C1  UNL     1      -1.309  -0.336   0.041  1.00  0.00     0.114 C 
HETATM    2  C2  UNL     1      -0.387  -1.203  -0.777  1.00  0.00     0.030 C 
HETATM    3  C3  UNL     1       0.703  -0.344  -1.323  1.00  0.00     0.035 C 
HETATM    4  C4  UNL     1       1.365   0.548  -0.354  1.00  0.00     0.183 C 
HETATM    5  C5  UNL     1       0.563   1.006   0.800  1.00  0.00     0.035 C 
HETATM    6  C6  UNL     1      -0.491   0.070   1.273  1.00  0.00     0.030 C 
ENDROOT
BRANCH   1   7
HETATM    7  N3  UNL     1      -2.542  -0.961   0.386  1.00  0.00    -0.248 N 
ATOM      8  H3  UNL     1      -2.585  -1.951   0.626  1.00  0.00     0.197 HD
BRANCH   7   9
HETATM    9  N2  UNL     1      -3.570  -0.249   0.383  1.00  0.00    -0.248 NA
BRANCH   9  10
HETATM   10  N1  UNL     1      -4.562   0.476   0.305  1.00  0.00    -0.261 N 
ATOM     11  H12 UNL     1      -4.082   0.595  -0.587  1.00  0.00     0.193 HD
ATOM     12  H11 UNL     1      -5.401   1.057   0.303  1.00  0.00     0.193 HD
ENDBRANCH   9  10
ENDBRANCH   7   9
ENDBRANCH   1   7
BRANCH   4  13
HETATM   13  N4  UNL     1       2.606  -0.070   0.128  1.00  0.00    -0.075 N 
ATOM     14  H43 UNL     1       2.446  -1.001   0.512  1.00  0.00     0.274 HD
ATOM     15  H42 UNL     1       3.227  -0.331  -0.638  1.00  0.00     0.274 HD
ATOM     16  H41 UNL     1       3.064   0.547   0.799  1.00  0.00     0.274 HD
ENDBRANCH   4  13
TORSDOF 4
