REMARK  2 active torsions:
REMARK  status: ('A' for Active; 'I' for Inactive)
REMARK    1  A    between atoms: O1_1  and  O2_3 
REMARK    2  A    between atoms: O2_3  and  C1_4 
ROOT
HETATM    1  C1  UNL     1       1.755   0.205  -0.042  1.00  0.00     0.160 C 
HETATM    2  C2  UNL     1       0.917   0.489  -1.253  1.00  0.00     0.036 C 
HETATM    3  C3  UNL     1      -0.506   0.739  -1.002  1.00  0.00     0.012 C 
HETATM    4  C4  UNL     1      -1.183  -0.122  -0.009  1.00  0.00    -0.040 A 
HETATM    5  C5  UNL     1      -0.318  -0.596   1.120  1.00  0.00     0.012 C 
HETATM    6  C6  UNL     1       0.970   0.172   1.239  1.00  0.00     0.036 C 
HETATM    7  C7  UNL     1      -2.366  -0.959  -0.324  1.00  0.00     0.010 A 
HETATM    8  C8  UNL     1      -2.591   0.363   0.376  1.00  0.00     0.010 A 
ENDROOT
BRANCH   1   9
HETATM    9  O2  UNL     1       2.433  -1.006  -0.146  1.00  0.00    -0.238 OA
BRANCH   9  10
HETATM   10  O1  UNL     1       3.733  -0.820  -0.084  1.00  0.00    -0.250 OA
ATOM     11  H1  UNL     1       4.196  -1.647  -0.155  1.00  0.00     0.253 HD
ENDBRANCH   9  10
ENDBRANCH   1   9
TORSDOF 2
