REMARK  12 active torsions:
REMARK  status: ('A' for Active; 'I' for Inactive)
REMARK    1  A    between atoms: N1_1  and  C1_4 
REMARK    2  A    between atoms: N4_8  and  C2_9 
REMARK    3  A    between atoms: C2_9  and  O1_10 
REMARK    4  A    between atoms: C3_12  and  O2_13 
REMARK    5  A    between atoms: C4_18  and  C5_19 
REMARK    6  A    between atoms: C5_19  and  O3_20 
REMARK    7  A    between atoms: C5_19  and  C6_22 
REMARK    8  A    between atoms: C6_22  and  N6_23 
REMARK    9  A    between atoms: C7_30  and  N8_31 
REMARK   10  A    between atoms: N8_31  and  C8_33 
REMARK   11  A    between atoms: C9_36  and  N10_37 
REMARK   12  A    between atoms: C11_44  and  N12_45 
ROOT
HETATM    1  C2  UNL     1      -0.595   0.845   0.260  1.00  0.00     0.266 C 
HETATM    2  C3  UNL     1      -2.061   0.732  -0.234  1.00  0.00     0.384 C 
HETATM    3  N5  UNL     1      -2.736   0.036   0.876  1.00  0.00    -0.012 N 
ATOM      4  H51 UNL     1      -3.752   0.031   0.786  1.00  0.00     0.283 HD
ATOM      5  H52 UNL     1      -2.685   0.546   1.758  1.00  0.00     0.283 HD
HETATM    6  C4  UNL     1      -2.173  -1.280   0.955  1.00  0.00     0.418 C 
HETATM    7  N7  UNL     1      -1.159  -1.466  -0.060  1.00  0.00    -0.018 N 
ATOM      8  H71 UNL     1      -1.504  -1.343  -1.012  1.00  0.00     0.282 HD
ATOM      9  H72 UNL     1      -0.858  -2.435  -0.166  1.00  0.00     0.282 HD
HETATM   10  C7  UNL     1      -0.063  -0.537   0.302  1.00  0.00     0.351 C 
ENDROOT
BRANCH  10  11
HETATM   11  N8  UNL     1       1.112  -0.833  -0.418  1.00  0.00    -0.342 N 
ATOM     12  H8  UNL     1       1.013  -1.427  -1.241  1.00  0.00     0.163 HD
BRANCH  11  13
HETATM   13  C8  UNL     1       2.414  -0.383  -0.105  1.00  0.00     0.157 A 
HETATM   14  N9  UNL     1       2.732   0.377   0.956  1.00  0.00    -0.174 N 
HETATM   15  C9  UNL     1       3.984   0.773   1.222  1.00  0.00     0.680 A 
ATOM     16  H9  UNL     1       1.986   0.666   1.588  1.00  0.00     0.186 HD
HETATM   17  N11 UNL     1       5.019   0.436   0.445  1.00  0.00    -0.154 N 
HETATM   18  C10 UNL     1       4.772  -0.320  -0.627  1.00  0.00     0.296 A 
ATOM     19  H11 UNL     1       5.966   0.746   0.664  1.00  0.00     0.187 HD
HETATM   20  O4  UNL     1       5.712  -0.660  -1.383  1.00  0.00    -0.265 OA
HETATM   21  C11 UNL     1       3.506  -0.727  -0.907  1.00  0.00     0.215 A 
BRANCH  15  22
HETATM   22  N10 UNL     1       4.179   1.514   2.287  1.00  0.00    -0.234 N 
ATOM     23 2H10 UNL     1       3.390   1.771   2.880  1.00  0.00     0.174 HD
ATOM     24 1H10 UNL     1       5.132   1.815   2.490  1.00  0.00     0.174 HD
ENDBRANCH  15  22
BRANCH  21  25
HETATM   25  N12 UNL     1       3.277  -1.525  -2.040  1.00  0.00    -0.106 N 
HETATM   26  O5  UNL     1       2.738  -1.041  -3.033  1.00  0.00    -0.531 OA
HETATM   27  O6  UNL     1       3.651  -2.830  -2.037  1.00  0.00    -0.531 OA
ENDBRANCH  21  25
ENDBRANCH  11  13
ENDBRANCH  10  11
BRANCH   1  28
HETATM   28  N4  UNL     1       0.120   1.790  -0.540  1.00  0.00    -0.157 N 
HETATM   29  N3  UNL     1       0.605   1.677  -1.772  1.00  0.00     0.014 NA
HETATM   30  N2  UNL     1       1.200   2.792  -2.157  1.00  0.00    -0.114 N 
HETATM   31  C1  UNL     1       1.108   3.667  -1.156  1.00  0.00     0.704 A 
ATOM     32  H2  UNL     1       1.649   2.954  -3.058  1.00  0.00     0.203 HD
HETATM   33  N13 UNL     1       0.440   3.026  -0.172  1.00  0.00    -0.113 N 
ATOM     34  H13 UNL     1       0.212   3.436   0.733  1.00  0.00     0.207 HD
BRANCH  31  35
HETATM   35  N1  UNL     1       1.547   4.884  -1.085  1.00  0.00    -0.232 N 
ATOM     36  H12 UNL     1       2.051   5.368  -1.828  1.00  0.00     0.174 HD
ATOM     37  H11 UNL     1       1.477   5.554  -0.319  1.00  0.00     0.174 HD
ENDBRANCH  31  35
ENDBRANCH   1  28
BRANCH   1  38
HETATM   38  O1  UNL     1      -0.755   1.384   1.547  1.00  0.00    -0.362 OA
ATOM     39  H1  UNL     1      -1.230   0.756   2.079  1.00  0.00     0.213 HD
ENDBRANCH   1  38
BRANCH   2  40
HETATM   40  O2  UNL     1      -2.538   2.023  -0.388  1.00  0.00    -0.366 OA
ATOM     41  H2  UNL     1      -3.436   1.954  -0.691  1.00  0.00     0.212 HD
ENDBRANCH   2  40
BRANCH   6  42
HETATM   42  C5  UNL     1      -3.174  -2.386   1.043  1.00  0.00     0.202 C 
BRANCH  42  43
HETATM   43  O3  UNL     1      -3.920  -2.148   2.222  1.00  0.00    -0.390 OA
ATOM     44  H3  UNL     1      -4.556  -2.851   2.278  1.00  0.00     0.210 HD
ENDBRANCH  42  43
BRANCH  42  45
HETATM   45  C6  UNL     1      -4.179  -2.389  -0.072  1.00  0.00     0.265 C 
BRANCH  45  46
HETATM   46  N6  UNL     1      -3.626  -2.614  -1.371  1.00  0.00    -0.077 N 
ATOM     47  H63 UNL     1      -2.886  -1.939  -1.563  1.00  0.00     0.274 HD
ATOM     48  H62 UNL     1      -3.083  -3.478  -1.381  1.00  0.00     0.274 HD
ATOM     49  H61 UNL     1      -4.309  -2.616  -2.129  1.00  0.00     0.274 HD
ENDBRANCH  45  46
ENDBRANCH  42  45
ENDBRANCH   6  42
TORSDOF 12
