REMARK  5 active torsions:
REMARK  status: ('A' for Active; 'I' for Inactive)
REMARK    1  A    between atoms: C4_9  and  N4_10 
REMARK    2  A    between atoms: C5_12  and  O1_13 
REMARK    3  A    between atoms: C5_12  and  C6_15 
REMARK    4  A    between atoms: C6_15  and  N5_16 
REMARK    5  A    between atoms: C6_15  and  C8_21 
REMARK       I    between atoms: N5_16  and  C7_18 
ROOT
HETATM    1  N4  UNL     1       1.013  -0.194  -0.680  1.00  0.00    -0.322 N 
ATOM      2  H4  UNL     1       1.059  -0.332  -1.690  1.00  0.00     0.169 HD
HETATM    3  C5  UNL     1      -0.312  -0.207  -0.420  1.00  0.00     0.151 C 
ENDROOT
BRANCH   3   4
HETATM    4  O1  UNL     1      -1.013  -0.980  -1.196  1.00  0.00    -0.347 OA
ATOM      5  H1  UNL     1      -1.945  -0.989  -1.013  1.00  0.00     0.219 HD
ENDBRANCH   3   4
BRANCH   3   6
HETATM    6  C6  UNL     1      -1.057   0.543   0.620  1.00  0.00     0.260 C 
BRANCH   6   7
HETATM    7  N5  UNL     1      -2.240   1.184   0.281  1.00  0.00    -0.346 N 
HETATM    8  C7  UNL     1      -3.405   0.599  -0.170  1.00  0.00     0.198 C 
HETATM    9  N6  UNL     1      -3.949  -0.509   0.577  1.00  0.00    -0.067 NA
HETATM   10  N7  UNL     1      -3.515   0.380  -1.591  1.00  0.00    -0.067 NA
ATOM     11  H5  UNL     1      -2.249   2.200   0.376  1.00  0.00     0.163 HD
ENDBRANCH   6   7
BRANCH   6  12
HETATM   12  C8  UNL     1      -1.176  -0.258   1.885  1.00  0.00     0.205 C 
HETATM   13  O2  UNL     1      -2.008   0.112   2.737  1.00  0.00    -0.646 OA
HETATM   14  O3  UNL     1      -0.397  -1.360   2.091  1.00  0.00    -0.646 OA
ENDBRANCH   6  12
ENDBRANCH   3   6
BRANCH   1  15
HETATM   15  C4  UNL     1       2.171  -0.106  -0.354  1.00  0.00     0.149 A 
HETATM   16  C1  UNL     1       3.182  -0.203  -1.334  1.00  0.00     0.160 A 
HETATM   17  N1  UNL     1       2.842  -0.379  -2.702  1.00  0.00    -0.079 NA
HETATM   18  N2  UNL     1       4.455  -0.120  -0.964  1.00  0.00    -0.350 N 
HETATM   19  C2  UNL     1       4.838   0.052   0.308  1.00  0.00     0.106 A 
ATOM     20  H2  UNL     1       5.175  -0.191  -1.683  1.00  0.00     0.166 HD
HETATM   21  C3  UNL     1       3.884   0.151   1.288  1.00  0.00     0.107 A 
HETATM   22  N3  UNL     1       2.587   0.067   0.904  1.00  0.00    -0.348 N 
ATOM     23  H3  UNL     1       1.875   0.141   1.630  1.00  0.00     0.167 HD
ENDBRANCH   1  15
TORSDOF 5
