REMARK  6 active torsions:
REMARK  status: ('A' for Active; 'I' for Inactive)
REMARK       I    between atoms: C1_4  and  N3_6 
REMARK    1  A    between atoms: N3_6  and  N4_8 
REMARK    2  A    between atoms: C2_10  and  C3_11 
REMARK    3  A    between atoms: C2_10  and  N6_16 
REMARK    4  A    between atoms: C3_11  and  N5_12 
REMARK    5  A    between atoms: N6_16  and  N7_18 
REMARK    6  A    between atoms: C5_24  and  C6_25 
ROOT
HETATM    1  N4  UNL     1       1.648   0.191  -0.858  1.00  0.00    -0.284 N 
ATOM      2  H4  UNL     1       1.599   1.182  -1.096  1.00  0.00     0.188 HD
HETATM    3  C2  UNL     1       0.544  -0.397  -0.544  1.00  0.00     0.138 C 
ENDROOT
BRANCH   3   4
HETATM    4  C3  UNL     1       0.562  -1.822  -0.194  1.00  0.00     0.308 C 
BRANCH   4   5
HETATM    5  N5  UNL     1      -0.305  -2.628  -1.021  1.00  0.00    -0.073 N 
ATOM      6  H53 UNL     1      -1.258  -2.265  -1.007  1.00  0.00     0.274 HD
ATOM      7  H52 UNL     1      -0.088  -2.496  -2.009  1.00  0.00     0.274 HD
ATOM      8  H51 UNL     1      -0.292  -3.618  -0.778  1.00  0.00     0.274 HD
ENDBRANCH   4   5
ENDBRANCH   3   4
BRANCH   3   9
HETATM    9  N6  UNL     1      -0.634   0.399  -0.561  1.00  0.00    -0.263 N 
ATOM     10  H6  UNL     1      -0.650   1.214  -1.174  1.00  0.00     0.190 HD
BRANCH   9  11
HETATM   11  N7  UNL     1      -1.766   0.139   0.204  1.00  0.00    -0.175 N 
HETATM   12  N8  UNL     1      -1.902  -0.862   1.033  1.00  0.00    -0.273 N 
HETATM   13  C4  UNL     1      -3.106  -0.814   1.600  1.00  0.00     0.201 A 
ATOM     14  H8  UNL     1      -1.194  -1.572   1.218  1.00  0.00     0.190 HD
HETATM   15  N9  UNL     1      -3.741   0.249   1.108  1.00  0.00    -0.333 N 
HETATM   16  C5  UNL     1      -2.910   0.846   0.238  1.00  0.00     0.182 A 
ATOM     17  H9  UNL     1      -4.685   0.553   1.348  1.00  0.00     0.168 HD
BRANCH  16  18
HETATM   18  C6  UNL     1      -3.216   2.048  -0.525  1.00  0.00     0.160 C 
HETATM   19  N10 UNL     1      -3.091   3.335   0.035  1.00  0.00    -0.086 NA
HETATM   20  S1  UNL     1      -3.712   1.890  -2.060  1.00  0.00    -0.060 SA
ENDBRANCH  16  18
ENDBRANCH   9  11
ENDBRANCH   3   9
BRANCH   1  21
HETATM   21  N3  UNL     1       2.886  -0.406  -0.899  1.00  0.00    -0.272 N 
HETATM   22  C1  UNL     1       3.878  -0.137   0.108  1.00  0.00     0.200 C 
HETATM   23  N1  UNL     1       4.553  -1.097   0.645  1.00  0.00    -0.372 N 
HETATM   24  N2  UNL     1       4.145   1.180   0.542  1.00  0.00    -0.062 NA
ATOM     25  H12 UNL     1       5.256  -0.906   1.359  1.00  0.00     0.158 HD
ATOM     26  H11 UNL     1       4.360  -2.048   0.332  1.00  0.00     0.158 HD
ATOM     27  H3  UNL     1       3.105  -1.052  -1.658  1.00  0.00     0.189 HD
ENDBRANCH   1  21
TORSDOF 6
