REMARK  2 active torsions:
REMARK  status: ('A' for Active; 'I' for Inactive)
REMARK    1  A    between atoms: O1_1  and  C1_3 
REMARK    2  A    between atoms: N1_9  and  C7_11 
ROOT
HETATM    1  C1  UNL     1       2.476   1.197   0.511  1.00  0.00     0.123 C 
HETATM    2  C2  UNL     1       2.646   0.420  -0.765  1.00  0.00     0.032 C 
HETATM    3  C3  UNL     1       2.881  -1.044  -0.538  1.00  0.00     0.003 C 
HETATM    4  C4  UNL     1       1.732  -1.748   0.099  1.00  0.00     0.006 C 
HETATM    5  C5  UNL     1       0.446  -1.084  -0.337  1.00  0.00     0.052 C 
HETATM    6  C6  UNL     1       0.219   0.145   0.459  1.00  0.00    -0.015 C 
HETATM    7  N1  UNL     1      -0.956   0.621   0.487  1.00  0.00    -0.391 N 
ATOM      8  H1  UNL     1      -1.092   1.468   1.039  1.00  0.00     0.159 HD
HETATM    9  C11 UNL     1       1.217   0.906   1.243  1.00  0.00     0.083 C 
ENDROOT
BRANCH   7  10
HETATM   10  C7  UNL     1      -2.092   0.104  -0.164  1.00  0.00     0.091 C 
HETATM   11  C8  UNL     1      -2.911   1.208  -0.817  1.00  0.00     0.036 C 
HETATM   12  C9  UNL     1      -3.959   0.435  -1.632  1.00  0.00     0.076 C 
HETATM   13  S1  UNL     1      -4.553  -0.682  -0.297  1.00  0.00    -0.167 SA
HETATM   14  C10 UNL     1      -3.044  -0.634   0.753  1.00  0.00     0.098 C 
ENDBRANCH   7  10
BRANCH   1  15
HETATM   15  O1  UNL     1       3.596   1.042   1.316  1.00  0.00    -0.395 OA
ATOM     16  H1  UNL     1       3.489   1.533   2.122  1.00  0.00     0.210 HD
ENDBRANCH   1  15
TORSDOF 2
