REMARK  3 active torsions:
REMARK  status: ('A' for Active; 'I' for Inactive)
REMARK    1  A    between atoms: C2_2  and  C3_4 
REMARK    2  A    between atoms: C8_10  and  N1_11 
REMARK    3  A    between atoms: N1_11  and  C9_13 
ROOT
HETATM    1  C3  UNL     1      -1.701   0.084   0.277  1.00  0.00     0.045 C 
HETATM    2  C4  UNL     1      -1.884  -0.622   1.614  1.00  0.00     0.026 C 
HETATM    3  C5  UNL     1      -2.679   1.277   0.356  1.00  0.00     0.092 C 
HETATM    4  S1  UNL     1      -1.875   2.696   1.168  1.00  0.00    -0.168 SA
HETATM    5  C6  UNL     1      -0.348   2.991   0.227  1.00  0.00     0.076 C 
HETATM    6  C7  UNL     1      -0.251   1.850  -0.785  1.00  0.00     0.036 C 
HETATM    7  C8  UNL     1      -0.304   0.551   0.019  1.00  0.00     0.094 C 
ENDROOT
BRANCH   7   8
HETATM    8  N1  UNL     1       0.547  -0.401  -0.601  1.00  0.00    -0.408 N 
ATOM      9  H1  UNL     1       0.250  -0.944  -1.411  1.00  0.00     0.154 HD
BRANCH   8  10
HETATM   10  C9  UNL     1       1.833  -0.552  -0.028  1.00  0.00     0.015 C 
HETATM   11  C10 UNL     1       2.448  -1.830  -0.609  1.00  0.00     0.037 C 
HETATM   12  C11 UNL     1       1.924  -0.626   1.450  1.00  0.00     0.037 C 
HETATM   13  C12 UNL     1       2.790   0.551  -0.483  1.00  0.00     0.037 C 
ENDBRANCH   8  10
ENDBRANCH   7   8
BRANCH   1  14
HETATM   14  C2  UNL     1      -2.216  -0.870  -0.757  1.00  0.00     0.134 C 
HETATM   15  C1  UNL     1      -1.632  -2.205  -0.934  1.00  0.00     0.091 C 
HETATM   16  O1  UNL     1      -3.139  -0.528  -1.443  1.00  0.00    -0.297 OA
ENDBRANCH   1  14
TORSDOF 3
