REMARK  4 active torsions:
REMARK  status: ('A' for Active; 'I' for Inactive)
REMARK    1  A    between atoms: N1_1  and  C1_5 
REMARK    2  A    between atoms: N2_10  and  N3_11 
REMARK    3  A    between atoms: C6_13  and  C7_14 
REMARK    4  A    between atoms: C8_15  and  C9_16 
ROOT
HETATM    1  N3  UNL     1       1.669   0.869  -1.692  1.00  0.00    -0.312 N 
ATOM      2  H3  UNL     1       1.377   1.262  -2.587  1.00  0.00     0.185 HD
HETATM    3  C6  UNL     1       0.784   0.396  -0.901  1.00  0.00     0.107 C 
ENDROOT
BRANCH   1   4
HETATM    4  N2  UNL     1       3.009   0.861  -1.367  1.00  0.00    -0.298 N 
HETATM    5  C1  UNL     1       3.736  -0.368  -1.428  1.00  0.00     0.298 C 
HETATM    6  C2  UNL     1       4.274  -0.611  -0.016  1.00  0.00     0.056 C 
HETATM    7  C3  UNL     1       5.109   0.591   0.353  1.00  0.00     0.006 C 
HETATM    8  C4  UNL     1       4.246   1.821   0.416  1.00  0.00     0.022 C 
HETATM    9  C5  UNL     1       3.648   2.083  -0.973  1.00  0.00     0.145 C 
BRANCH   5  10
HETATM   10  N1  UNL     1       4.800  -0.367  -2.398  1.00  0.00    -0.057 N 
ATOM     11  H13 UNL     1       5.529   0.303  -2.154  1.00  0.00     0.276 HD
ATOM     12  H12 UNL     1       5.352  -1.223  -2.349  1.00  0.00     0.276 HD
ATOM     13  H11 UNL     1       4.441  -0.205  -3.339  1.00  0.00     0.276 HD
ENDBRANCH   5  10
ENDBRANCH   1   4
BRANCH   3  14
HETATM   14  C7  UNL     1      -0.625   0.413  -1.260  1.00  0.00     0.019 C 
HETATM   15  C8  UNL     1      -1.517  -0.104  -0.386  1.00  0.00     0.002 C 
BRANCH  15  16
HETATM   16  C9  UNL     1      -2.909  -0.077  -0.761  1.00  0.00     0.007 C 
HETATM   17  C10 UNL     1      -3.849  -0.550   0.011  1.00  0.00    -0.058 C 
HETATM   18  C11 UNL     1      -5.241  -0.498  -0.418  1.00  0.00     0.003 C 
HETATM   19  C15 UNL     1      -3.535  -1.139   1.316  1.00  0.00     0.039 C 
HETATM   20  C12 UNL     1      -6.202  -0.783   0.437  1.00  0.00    -0.026 C 
HETATM   21  C13 UNL     1      -5.959  -1.163   1.847  1.00  0.00     0.027 C 
HETATM   22  C14 UNL     1      -4.596  -0.701   2.318  1.00  0.00     0.008 C 
ENDBRANCH  15  16
ENDBRANCH   3  14
TORSDOF 4
