REMARK  5 active torsions:
REMARK  status: ('A' for Active; 'I' for Inactive)
REMARK    1  A    between atoms: C2_2  and  C4_4 
REMARK    2  A    between atoms: C11_11  and  C12_12 
REMARK    3  A    between atoms: C12_12  and  O1_13 
REMARK    4  A    between atoms: C12_12  and  O2_15 
REMARK    5  A    between atoms: C13_17  and  O3_18 
ROOT
HETATM    1  C4  UNL     1      -1.027   0.920  -0.439  1.00  0.00     0.053 C 
HETATM    2  C5  UNL     1      -1.470   0.368  -1.769  1.00  0.00     0.013 C 
HETATM    3  C6  UNL     1      -0.156  -0.298  -2.217  1.00  0.00     0.013 C 
HETATM    4  C7  UNL     1       0.082  -1.150  -0.969  1.00  0.00    -0.004 C 
HETATM    5  C8  UNL     1      -0.681  -2.413  -1.025  1.00  0.00     0.019 C 
HETATM    6  C9  UNL     1       1.533  -1.192  -0.552  1.00  0.00     0.049 C 
HETATM    7  C10 UNL     1       1.229   0.041   0.256  1.00  0.00    -0.043 C 
HETATM    8  C11 UNL     1       1.983   0.958   0.800  1.00  0.00     0.038 C 
HETATM    9  C13 UNL     1      -0.240  -0.198   0.188  1.00  0.00     0.098 C 
ENDROOT
BRANCH   8  10
HETATM   10  C12 UNL     1       3.464   0.936   0.700  1.00  0.00     0.278 C 
BRANCH  10  11
HETATM   11  O1  UNL     1       3.914   0.478  -0.532  1.00  0.00    -0.368 OA
ATOM     12  H1  UNL     1       4.862   0.464  -0.596  1.00  0.00     0.213 HD
ENDBRANCH  10  11
BRANCH  10  13
HETATM   13  O2  UNL     1       3.953   2.239   0.867  1.00  0.00    -0.368 OA
ATOM     14  H2  UNL     1       4.901   2.225   0.803  1.00  0.00     0.213 HD
ENDBRANCH  10  13
ENDBRANCH   8  10
BRANCH   9  15
HETATM   15  O3  UNL     1      -0.777  -0.753   1.313  1.00  0.00    -0.379 OA
HETATM   16  C14 UNL     1      -0.080  -1.728   1.949  1.00  0.00     0.203 C 
ENDBRANCH   9  15
BRANCH   1  17
HETATM   17  C2  UNL     1      -2.111   1.437   0.381  1.00  0.00    -0.086 C 
HETATM   18  C1  UNL     1      -2.121   2.704   0.745  1.00  0.00     0.014 C 
HETATM   19  C3  UNL     1      -3.254   0.621   0.862  1.00  0.00     0.043 C 
ENDBRANCH   1  17
TORSDOF 5
