REMARK  6 active torsions:
REMARK  status: ('A' for Active; 'I' for Inactive)
REMARK    1  A    between atoms: O1_2  and  C2_3 
REMARK    2  A    between atoms: C2_3  and  C3_5 
REMARK    3  A    between atoms: C13_16  and  O3_17 
REMARK    4  A    between atoms: O3_17  and  C14_18 
REMARK    5  A    between atoms: C19_24  and  O5_25 
REMARK    6  A    between atoms: C20_27  and  O6_28 
ROOT
HETATM    1  C3  UNL     1      -3.202   0.081   0.805  1.00  0.00     0.052 C 
HETATM    2  C4  UNL     1      -4.006  -0.975   1.539  1.00  0.00     0.026 C 
HETATM    3  C5  UNL     1      -2.294   0.791   1.783  1.00  0.00     0.022 C 
HETATM    4  C6  UNL     1      -1.294   1.417   0.865  1.00  0.00     0.028 C 
HETATM    5  C7  UNL     1      -1.056   0.384  -0.243  1.00  0.00     0.049 C 
HETATM    6 CL1  UNL     1      -1.263   1.301  -1.784  1.00  0.00    -0.118 Cl
HETATM    7  C8  UNL     1       0.315  -0.182  -0.131  1.00  0.00     0.020 C 
HETATM    8  C9  UNL     1       0.412  -1.668  -0.060  1.00  0.00     0.023 C 
HETATM    9  C10 UNL     1       1.645  -2.268  -0.633  1.00  0.00     0.008 C 
HETATM   10  C11 UNL     1       2.809  -1.374  -0.232  1.00  0.00     0.008 C 
HETATM   11  C12 UNL     1       2.662  -0.113  -0.987  1.00  0.00     0.020 C 
HETATM   12  C13 UNL     1       3.346   1.000  -0.175  1.00  0.00     0.136 C 
HETATM   13  C16 UNL     1       2.879   2.174  -0.991  1.00  0.00     0.033 C 
HETATM   14  C17 UNL     1       1.407   1.838  -1.204  1.00  0.00     0.008 C 
HETATM   15  C18 UNL     1       1.263   0.361  -1.216  1.00  0.00    -0.002 C 
HETATM   16  C19 UNL     1      -0.773  -2.361  -0.731  1.00  0.00     0.151 C 
HETATM   17  C20 UNL     1      -1.934  -1.949   0.166  1.00  0.00     0.154 C 
HETATM   18  C21 UNL     1      -2.222  -0.512  -0.175  1.00  0.00     0.059 C 
ENDROOT
BRANCH   1  19
HETATM   19  C2  UNL     1      -4.175   1.013   0.183  1.00  0.00     0.267 C 
HETATM   20  O2  UNL     1      -4.248   1.129  -1.049  1.00  0.00    -0.264 OA
BRANCH  19  21
HETATM   21  O1  UNL     1      -5.033   1.784   0.968  1.00  0.00    -0.326 OA
HETATM   22  C1  UNL     1      -5.944   2.657   0.333  1.00  0.00     0.213 C 
ENDBRANCH  19  21
ENDBRANCH   1  19
BRANCH  17  23
HETATM   23  O6  UNL     1      -3.026  -2.721  -0.206  1.00  0.00    -0.393 OA
ATOM     24  H6  UNL     1      -3.750  -2.464   0.353  1.00  0.00     0.210 HD
ENDBRANCH  17  23
BRANCH  16  25
HETATM   25  O5  UNL     1      -0.590  -3.722  -0.550  1.00  0.00    -0.393 OA
ATOM     26  H5  UNL     1      -1.327  -4.153  -0.967  1.00  0.00     0.210 HD
ENDBRANCH  16  25
BRANCH  12  27
HETATM   27  O3  UNL     1       4.724   0.763  -0.276  1.00  0.00    -0.316 OA
BRANCH  27  28
HETATM   28  C14 UNL     1       5.500   0.580   0.859  1.00  0.00     0.255 C 
HETATM   29  C15 UNL     1       6.966   0.330   0.723  1.00  0.00     0.126 C 
HETATM   30  O4  UNL     1       4.910   0.636   1.960  1.00  0.00    -0.266 OA
ENDBRANCH  27  28
ENDBRANCH  12  27
TORSDOF 6
