REMARK  5 active torsions:
REMARK  status: ('A' for Active; 'I' for Inactive)
REMARK    1  A    between atoms: S1_2  and  C2_3 
REMARK    2  A    between atoms: C2_3  and  N1_5 
REMARK    3  A    between atoms: N2_8  and  C5_9 
REMARK    4  A    between atoms: C6_12  and  N4_13 
REMARK    5  A    between atoms: C8_18  and  N5_19 
ROOT
HETATM    1  C5  UNL     1       0.064  -1.645  -0.229  1.00  0.00     0.684 A 
HETATM    2  N3  UNL     1      -0.482  -2.775   0.195  1.00  0.00    -0.175 N 
ATOM      3  H3  UNL     1       0.122  -3.586   0.329  1.00  0.00     0.186 HD
HETATM    4  C6  UNL     1      -1.807  -2.905   0.460  1.00  0.00     0.136 A 
HETATM    5  C7  UNL     1      -2.590  -1.769   0.261  1.00  0.00     0.099 A 
HETATM    6 BR1  UNL     1      -4.458  -1.840   0.603  1.00  0.00    -0.043 Br
HETATM    7  C8  UNL     1      -2.045  -0.587  -0.179  1.00  0.00     0.140 A 
HETATM    8  N6  UNL     1      -0.702  -0.576  -0.412  1.00  0.00    -0.175 N 
ATOM      9  H6  UNL     1      -0.269   0.287  -0.740  1.00  0.00     0.186 HD
ENDROOT
BRANCH   1  10
HETATM   10  N2  UNL     1       1.454  -1.575  -0.480  1.00  0.00    -0.200 N 
HETATM   11  C4  UNL     1       2.453  -2.614  -0.392  1.00  0.00     0.163 C 
HETATM   12  C3  UNL     1       3.633  -1.930   0.220  1.00  0.00     0.146 C 
HETATM   13  N1  UNL     1       3.435  -0.535  -0.097  1.00  0.00    -0.348 N 
HETATM   14  C13 UNL     1       2.226  -0.385  -0.887  1.00  0.00     0.269 C 
BRANCH  13  15
HETATM   15  C2  UNL     1       4.292   0.522   0.310  1.00  0.00     0.137 C 
HETATM   16  S2  UNL     1       5.632   0.173   1.212  1.00  0.00    -0.053 SA
BRANCH  15  17
HETATM   17  S1  UNL     1       3.997   2.222  -0.104  1.00  0.00    -0.105 SA
HETATM   18  C1  UNL     1       5.322   3.245   0.592  1.00  0.00     0.098 C 
ENDBRANCH  15  17
ENDBRANCH  13  15
ENDBRANCH   1  10
BRANCH   4  19
HETATM   19  N4  UNL     1      -2.332  -4.007   0.872  1.00  0.00    -0.384 N 
ATOM     20  H42 UNL     1      -1.759  -4.838   1.018  1.00  0.00     0.157 HD
ATOM     21  H41 UNL     1      -3.328  -4.105   1.071  1.00  0.00     0.157 HD
ENDBRANCH   4  19
BRANCH   7  22
HETATM   22  N5  UNL     1      -2.815   0.612  -0.390  1.00  0.00    -0.366 N 
HETATM   23  C9  UNL     1      -2.907   1.722   0.508  1.00  0.00     0.124 C 
HETATM   24  C10 UNL     1      -4.184   2.414   0.145  1.00  0.00     0.021 C 
HETATM   25  C11 UNL     1      -4.781   1.659  -1.006  1.00  0.00     0.021 C 
HETATM   26  C12 UNL     1      -3.614   0.881  -1.553  1.00  0.00     0.124 C 
ENDBRANCH   7  22
TORSDOF 5
