REMARK  3 active torsions:
REMARK  status: ('A' for Active; 'I' for Inactive)
REMARK    1  A    between atoms: C2_2  and  C3_4 
REMARK    2  A    between atoms: C12_16  and  O5_17 
REMARK    3  A    between atoms: C14_21  and  O6_22 
ROOT
HETATM    1  C3  UNL     1      -2.634   0.492   0.874  1.00  0.00     0.061 C 
HETATM    2  C4  UNL     1      -3.709  -0.439   0.392  1.00  0.00     0.013 C 
HETATM    3  C5  UNL     1      -3.438  -0.664  -1.086  1.00  0.00     0.010 C 
HETATM    4  C6  UNL     1      -1.953  -0.448  -1.267  1.00  0.00     0.023 C 
HETATM    5  C7  UNL     1      -1.092  -1.532  -0.743  1.00  0.00    -0.036 C 
HETATM    6  C8  UNL     1      -0.667  -2.789  -0.689  1.00  0.00     0.180 C 
HETATM    7  O2  UNL     1       0.348  -3.062   0.217  1.00  0.00    -0.207 OA
HETATM    8  O3  UNL     1       0.269  -2.544   1.437  1.00  0.00    -0.202 OA
HETATM    9  C9  UNL     1      -0.334  -1.295   1.509  1.00  0.00     0.310 C 
HETATM   10  O4  UNL     1       0.457  -0.518   2.355  1.00  0.00    -0.357 OA
HETATM   11  C10 UNL     1       1.792  -0.597   2.060  1.00  0.00     0.178 C 
HETATM   12  C11 UNL     1       2.082  -0.437   0.610  1.00  0.00     0.045 C 
HETATM   13  C12 UNL     1       3.123   0.686   0.469  1.00  0.00     0.141 C 
HETATM   14  C13 UNL     1       3.423   0.896  -0.975  1.00  0.00     0.115 C 
HETATM   15 BR1  UNL     1       3.143   2.740  -1.509  1.00  0.00    -0.086 Br
HETATM   16  C14 UNL     1       2.732  -0.022  -1.919  1.00  0.00     0.135 C 
HETATM   17  C15 UNL     1       1.270  -0.236  -1.674  1.00  0.00     0.039 C 
HETATM   18  C16 UNL     1       0.911  -0.030  -0.239  1.00  0.00     0.015 C 
HETATM   19  C17 UNL     1      -0.397  -0.584   0.194  1.00  0.00     0.047 C 
HETATM   20  C18 UNL     1      -1.499   0.372  -0.076  1.00  0.00     0.023 C 
ENDROOT
BRANCH   1  21
HETATM   21  C2  UNL     1      -3.179   1.878   0.855  1.00  0.00     0.127 C 
HETATM   22  C1  UNL     1      -2.336   3.046   1.287  1.00  0.00     0.091 C 
HETATM   23  O1  UNL     1      -4.327   2.049   0.481  1.00  0.00    -0.298 OA
ENDBRANCH   1  21
BRANCH  13  24
HETATM   24  O5  UNL     1       4.240   0.286   1.207  1.00  0.00    -0.394 OA
ATOM     25  H5  UNL     1       4.883   0.980   1.120  1.00  0.00     0.210 HD
ENDBRANCH  13  24
BRANCH  16  26
HETATM   26  O6  UNL     1       3.415  -1.240  -2.126  1.00  0.00    -0.394 OA
ATOM     27  H6  UNL     1       2.974  -1.826  -2.729  1.00  0.00     0.210 HD
ENDBRANCH  16  26
TORSDOF 3
