REMARK  9 active torsions:
REMARK  status: ('A' for Active; 'I' for Inactive)
REMARK    1  A    between atoms: C3_3  and  N1_4 
REMARK    2  A    between atoms: C5_7  and  C6_8 
REMARK    3  A    between atoms: C6_8  and  C7_9 
REMARK    4  A    between atoms: C7_9  and  C8_10 
REMARK    5  A    between atoms: C11_16  and  C12_17 
REMARK    6  A    between atoms: C12_17  and  C13_18 
REMARK    7  A    between atoms: C14_19  and  C15_20 
REMARK    8  A    between atoms: C15_20  and  C16_21 
REMARK    9  A    between atoms: C16_21  and  C17_22 
ROOT
HETATM    1  C1  UNL     1       0.304   3.369   2.608  1.00  0.00     0.098 C 
HETATM    2  C2  UNL     1      -0.121   2.313   2.165  1.00  0.00    -0.167 C 
HETATM    3  C3  UNL     1      -0.628   1.016   1.654  1.00  0.00     0.212 C 
ENDROOT
BRANCH   3   4
HETATM    4  N1  UNL     1       0.235   0.449   0.673  1.00  0.00    -0.297 N 
HETATM    5  C4  UNL     1       1.333  -0.187   1.232  1.00  0.00     0.275 A 
HETATM    6  O1  UNL     1       1.477  -0.184   2.493  1.00  0.00    -0.265 OA
HETATM    7  C5  UNL     1       2.260  -0.815   0.470  1.00  0.00     0.100 A 
HETATM    8  N2  UNL     1       2.094  -0.810  -0.845  1.00  0.00    -0.317 N 
HETATM    9  C10 UNL     1       1.039  -0.201  -1.395  1.00  0.00     0.273 A 
ATOM     10  H2  UNL     1       2.777  -1.275  -1.443  1.00  0.00     0.169 HD
HETATM   11  O2  UNL     1       0.986  -0.262  -2.663  1.00  0.00    -0.266 OA
HETATM   12  C11 UNL     1       0.045   0.466  -0.639  1.00  0.00     0.107 A 
BRANCH   7  13
HETATM   13  C6  UNL     1       3.289  -1.404   1.071  1.00  0.00     0.008 C 
BRANCH  13  14
HETATM   14  C7  UNL     1       4.338  -2.108   0.301  1.00  0.00     0.029 C 
BRANCH  14  15
HETATM   15  C8  UNL     1       5.370  -1.109  -0.149  1.00  0.00    -0.001 C 
HETATM   16  C9  UNL     1       6.456  -1.792  -0.937  1.00  0.00     0.005 C 
ENDBRANCH  14  15
ENDBRANCH  13  14
ENDBRANCH   7  13
BRANCH  12  17
HETATM   17  C12 UNL     1      -0.925   0.953  -1.290  1.00  0.00     0.049 C 
BRANCH  17  18
HETATM   18  C13 UNL     1      -2.166   1.646  -1.053  1.00  0.00    -0.009 A 
HETATM   19  C14 UNL     1      -3.356   0.952  -0.952  1.00  0.00    -0.045 A 
HETATM   20  C18 UNL     1      -4.532   1.668  -0.761  1.00  0.00     0.028 A 
HETATM   21  C19 UNL     1      -4.554   3.030  -0.671  1.00  0.00     0.030 A 
HETATM   22 BR1  UNL     1      -6.176   4.011  -0.407  1.00  0.00    -0.050 Br
HETATM   23  C20 UNL     1      -3.350   3.718  -0.777  1.00  0.00     0.046 A 
HETATM   24 BR2  UNL     1      -3.381   5.625  -0.652  1.00  0.00    -0.048 Br
HETATM   25  C21 UNL     1      -2.192   3.017  -0.966  1.00  0.00     0.040 A 
HETATM   26 BR3  UNL     1      -0.618   4.065  -1.235  1.00  0.00    -0.049 Br
BRANCH  19  27
HETATM   27  C15 UNL     1      -3.515  -0.506  -1.068  1.00  0.00     0.050 C 
BRANCH  27  28
HETATM   28  C16 UNL     1      -3.256  -1.342   0.120  1.00  0.00     0.117 C 
BRANCH  28  29
HETATM   29  C17 UNL     1      -3.526  -2.776  -0.284  1.00  0.00     0.172 C 
HETATM   30  O3  UNL     1      -3.895  -3.054  -1.445  1.00  0.00    -0.648 OA
HETATM   31  O4  UNL     1      -3.374  -3.813   0.617  1.00  0.00    -0.648 OA
ENDBRANCH  28  29
ENDBRANCH  27  28
ENDBRANCH  19  27
ENDBRANCH  17  18
ENDBRANCH  12  17
ENDBRANCH   3   4
TORSDOF 9
