REMARK  7 active torsions:
REMARK  status: ('A' for Active; 'I' for Inactive)
REMARK    1  A    between atoms: C2_2  and  C4_4 
REMARK    2  A    between atoms: C4_4  and  C5_5 
REMARK    3  A    between atoms: N2_10  and  C7_11 
REMARK    4  A    between atoms: C7_11  and  C8_12 
REMARK    5  A    between atoms: C14_21  and  N4_22 
REMARK       I    between atoms: N4_22  and  C15_24 
REMARK    6  A    between atoms: C15_24  and  C16_26 
REMARK    7  A    between atoms: C16_26  and  C17_27 
ROOT
HETATM    1  C5  UNL     1       0.249   1.991  -0.822  1.00  0.00     0.118 C 
HETATM    2  N1  UNL     1      -1.131   2.127  -1.222  1.00  0.00    -0.336 N 
ATOM      3  H1  UNL     1      -1.371   2.464  -2.154  1.00  0.00     0.164 HD
HETATM    4  C6  UNL     1      -2.145   1.784  -0.295  1.00  0.00     0.325 C 
HETATM    5  O1  UNL     1      -3.343   2.115  -0.481  1.00  0.00    -0.247 OA
HETATM    6  N2  UNL     1      -1.841   1.041   0.901  1.00  0.00    -0.268 N 
HETATM    7  C13 UNL     1      -0.472   0.698   1.054  1.00  0.00     0.252 C 
HETATM    8  O3  UNL     1       0.013   0.440   2.169  1.00  0.00    -0.270 OA
HETATM    9  C14 UNL     1       0.411   0.646  -0.160  1.00  0.00     0.200 C 
ENDROOT
BRANCH   9  10
HETATM   10  N4  UNL     1       1.753   0.322   0.193  1.00  0.00    -0.345 N 
HETATM   11  C15 UNL     1       2.361  -0.836  -0.344  1.00  0.00     0.224 C 
HETATM   12  O4  UNL     1       1.722  -1.563  -1.122  1.00  0.00    -0.273 OA
ATOM     13  H4  UNL     1       2.273   0.924   0.831  1.00  0.00     0.163 HD
BRANCH  11  14
HETATM   14  C16 UNL     1       3.754  -1.230  -0.016  1.00  0.00     0.161 C 
BRANCH  14  15
HETATM   15  C17 UNL     1       4.169  -2.463  -0.688  1.00  0.00     0.038 A 
HETATM   16  N5  UNL     1       4.275  -3.691  -0.109  1.00  0.00    -0.347 N 
HETATM   17  C18 UNL     1       4.677  -4.592  -0.997  1.00  0.00     0.122 A 
ATOM     18  H5  UNL     1       4.074  -3.891   0.871  1.00  0.00     0.167 HD
HETATM   19 CL1  UNL     1       4.951  -6.295  -0.707  1.00  0.00    -0.063 Cl
HETATM   20  C19 UNL     1       4.844  -3.947  -2.209  1.00  0.00     0.068 A 
HETATM   21 BR1  UNL     1       5.402  -4.687  -3.863  1.00  0.00    -0.046 Br
HETATM   22  C20 UNL     1       4.525  -2.620  -2.006  1.00  0.00     0.054 A 
HETATM   23 BR2  UNL     1       4.582  -1.263  -3.363  1.00  0.00    -0.047 Br
ENDBRANCH  14  15
ENDBRANCH  11  14
ENDBRANCH   9  10
BRANCH   1  24
HETATM   24  C4  UNL     1       1.238   2.281  -1.896  1.00  0.00     0.031 C 
BRANCH  24  25
HETATM   25  C2  UNL     1       1.013   3.726  -2.336  1.00  0.00    -0.021 C 
HETATM   26  C1  UNL     1       1.975   4.127  -3.431  1.00  0.00     0.009 C 
HETATM   27  C3  UNL     1       1.085   4.601  -1.129  1.00  0.00     0.009 C 
ENDBRANCH  24  25
ENDBRANCH   1  24
BRANCH   6  28
HETATM   28  C7  UNL     1      -2.868   0.698   1.857  1.00  0.00     0.143 C 
BRANCH  28  29
HETATM   29  C8  UNL     1      -3.567  -0.586   1.604  1.00  0.00     0.031 C 
HETATM   30  C9  UNL     1      -2.575  -1.725   1.633  1.00  0.00     0.110 C 
HETATM   31  C10 UNL     1      -3.517  -2.874   1.867  1.00  0.00     0.219 C 
HETATM   32  O2  UNL     1      -3.391  -3.991   1.353  1.00  0.00    -0.273 OA
HETATM   33  N3  UNL     1      -4.516  -2.383   2.766  1.00  0.00    -0.356 N 
HETATM   34  C11 UNL     1      -5.426  -3.191   3.539  1.00  0.00     0.152 C 
HETATM   35  C12 UNL     1      -4.479  -0.923   2.786  1.00  0.00     0.132 C 
ENDBRANCH  28  29
ENDBRANCH   6  28
TORSDOF 7
