REMARK  4 active torsions:
REMARK  status: ('A' for Active; 'I' for Inactive)
REMARK    1  A    between atoms: C2_2  and  C3_3 
REMARK    2  A    between atoms: C2_2  and  N2_8 
REMARK    3  A    between atoms: C3_3  and  N1_4 
REMARK    4  A    between atoms: N2_8  and  C7_10 
ROOT
HETATM    1  C1  UNL     1       1.843   1.411  -0.898  1.00  0.00     0.034 C 
HETATM    2  C2  UNL     1       0.918   0.751   0.141  1.00  0.00     0.106 C 
ENDROOT
BRANCH   2   3
HETATM    3  C3  UNL     1      -0.403   0.634  -0.515  1.00  0.00     0.296 C 
BRANCH   3   4
HETATM    4  N1  UNL     1      -1.452   0.074   0.200  1.00  0.00     0.090 N 
HETATM    5  C4  UNL     1      -1.532  -1.282   0.570  1.00  0.00     0.274 C 
HETATM    6  C5  UNL     1      -3.059  -1.107   0.612  1.00  0.00     0.060 C 
HETATM    7  C6  UNL     1      -2.807   0.182  -0.187  1.00  0.00     0.274 C 
ENDBRANCH   3   4
ENDBRANCH   2   3
BRANCH   2   8
HETATM    8  N2  UNL     1       1.559  -0.483   0.499  1.00  0.00    -0.381 N 
ATOM      9  H2  UNL     1       1.092  -1.372   0.319  1.00  0.00     0.160 HD
BRANCH   8  10
HETATM   10  C7  UNL     1       2.845  -0.465   1.104  1.00  0.00     0.169 C 
HETATM   11  N3  UNL     1       3.954  -0.288   0.478  1.00  0.00    -0.396 N 
ATOM     12  H32 UNL     1       3.888  -0.151  -0.531  1.00  0.00     0.156 HD
ATOM     13  H31 UNL     1       4.877  -0.275   0.912  1.00  0.00     0.156 HD
ENDBRANCH   8  10
ENDBRANCH   2   8
TORSDOF 4
