REMARK  13 active torsions:
REMARK  status: ('A' for Active; 'I' for Inactive)
REMARK    1  A    between atoms: S1_2  and  C2_3 
REMARK    2  A    between atoms: C2_3  and  N1_4 
REMARK    3  A    between atoms: C2_3  and  C10_29 
REMARK    4  A    between atoms: N1_4  and  C3_6 
REMARK    5  A    between atoms: C3_6  and  O1_7 
REMARK    6  A    between atoms: C3_6  and  C4_9 
REMARK    7  A    between atoms: C5_13  and  C6_14 
REMARK    8  A    between atoms: C6_14  and  N3_15 
REMARK    9  A    between atoms: C9_23  and  N6_24 
REMARK   10  A    between atoms: C10_29  and  N8_30 
REMARK   11  A    between atoms: C10_29  and  C11_34 
REMARK       I    between atoms: C11_34  and  N9_36 
REMARK   12  A    between atoms: N9_36  and  C12_38 
REMARK   13  A    between atoms: C14_45  and  N13_46 
ROOT
HETATM    1  C2  UNL     1      -1.426  -0.729   0.178  1.00  0.00     0.180 C 
ENDROOT
BRANCH   1   2
HETATM    2  S1  UNL     1      -1.965  -1.399   1.774  1.00  0.00    -0.146 SA
HETATM    3  C1  UNL     1      -1.129  -2.966   2.083  1.00  0.00     0.092 C 
ENDBRANCH   1   2
BRANCH   1   4
HETATM    4  N1  UNL     1      -0.100  -0.389   0.187  1.00  0.00    -0.376 N 
ATOM      5  H1  UNL     1       0.506  -0.866   0.854  1.00  0.00     0.157 HD
BRANCH   4   6
HETATM    6  C3  UNL     1       0.487   0.571  -0.657  1.00  0.00     0.285 C 
BRANCH   6   7
HETATM    7  O1  UNL     1       0.140   0.686  -1.967  1.00  0.00    -0.370 OA
ATOM      8  H1  UNL     1       0.536   1.334  -2.537  1.00  0.00     0.212 HD
ENDBRANCH   6   7
BRANCH   6   9
HETATM    9  C4  UNL     1       2.001   0.349  -0.581  1.00  0.00     0.152 A 
HETATM   10  N2  UNL     1       2.840   0.447  -1.602  1.00  0.00    -0.243 N 
HETATM   11  O2  UNL     1       4.044   0.170  -1.179  1.00  0.00    -0.221 OA
ATOM     12  H2  UNL     1       2.588   0.697  -2.558  1.00  0.00     0.196 HD
HETATM   13  C5  UNL     1       4.068  -0.099   0.017  1.00  0.00     0.167 A 
HETATM   14  N7  UNL     1       2.726  -0.006   0.503  1.00  0.00    -0.322 N 
ATOM     15  H7  UNL     1       2.392  -0.170   1.453  1.00  0.00     0.169 HD
BRANCH  13  16
HETATM   16  C6  UNL     1       5.147  -0.475   0.963  1.00  0.00     0.239 C 
BRANCH  16  17
HETATM   17  N3  UNL     1       6.390  -0.052   0.366  1.00  0.00    -0.125 N 
HETATM   18  C7  UNL     1       7.176  -0.970  -0.291  1.00  0.00     0.342 A 
HETATM   19  O3  UNL     1       6.843  -2.165  -0.265  1.00  0.00    -0.246 OA
HETATM   20  N4  UNL     1       8.241  -0.491  -0.903  1.00  0.00    -0.304 N 
HETATM   21  C8  UNL     1       8.601   0.787  -0.923  1.00  0.00     0.202 A 
ATOM     22  H4  UNL     1       8.835  -1.154  -1.400  1.00  0.00     0.171 HD
HETATM   23  N5  UNL     1       7.819   1.715  -0.259  1.00  0.00    -0.188 N 
HETATM   24  C9  UNL     1       6.731   1.238   0.364  1.00  0.00     0.683 A 
ATOM     25  H5  UNL     1       8.056   2.707  -0.244  1.00  0.00     0.185 HD
BRANCH  24  26
HETATM   26  N6  UNL     1       5.942   2.075   0.987  1.00  0.00    -0.234 N 
ATOM     27  H62 UNL     1       5.115   1.712   1.461  1.00  0.00     0.174 HD
ATOM     28  H61 UNL     1       6.203   3.061   0.985  1.00  0.00     0.174 HD
ENDBRANCH  24  26
ENDBRANCH  16  17
ENDBRANCH  13  16
ENDBRANCH   6   9
ENDBRANCH   4   6
ENDBRANCH   1   4
BRANCH   1  29
HETATM   29  C10 UNL     1      -1.942  -1.620  -0.926  1.00  0.00     0.307 C 
BRANCH  29  30
HETATM   30  N8  UNL     1      -1.577  -1.330  -2.256  1.00  0.00    -0.064 N 
ATOM     31  H83 UNL     1      -1.831  -0.364  -2.465  1.00  0.00     0.275 HD
ATOM     32  H82 UNL     1      -0.560  -1.284  -2.317  1.00  0.00     0.275 HD
ATOM     33  H81 UNL     1      -1.926  -1.932  -3.002  1.00  0.00     0.275 HD
ENDBRANCH  29  30
BRANCH  29  34
HETATM   34  C11 UNL     1      -3.503  -1.537  -0.840  1.00  0.00     0.269 C 
HETATM   35  O4  UNL     1      -4.140  -2.603  -0.958  1.00  0.00    -0.270 OA
HETATM   36  N9  UNL     1      -3.992  -0.303  -0.644  1.00  0.00    -0.157 N 
ATOM     37  H9  UNL     1      -3.193   0.327  -0.575  1.00  0.00     0.187 HD
BRANCH  36  38
HETATM   38  C12 UNL     1      -5.002   0.384  -0.513  1.00  0.00     0.702 A 
HETATM   39  N10 UNL     1      -6.246  -0.112  -0.553  1.00  0.00    -0.162 N 
HETATM   40  C13 UNL     1      -7.306   0.692  -0.371  1.00  0.00     0.221 A 
ATOM     41  H10 UNL     1      -6.389  -1.108  -0.723  1.00  0.00     0.187 HD
HETATM   42  N11 UNL     1      -8.645   0.206  -0.443  1.00  0.00    -0.062 NA
HETATM   43  N12 UNL     1      -7.138   2.002  -0.141  1.00  0.00    -0.163 N 
HETATM   44  C14 UNL     1      -5.872   2.546  -0.093  1.00  0.00     0.692 A 
ATOM     45  H12 UNL     1      -7.952   2.600  -0.001  1.00  0.00     0.187 HD
HETATM   46  N14 UNL     1      -4.827   1.714  -0.286  1.00  0.00    -0.022 N 
ATOM     47  H14 UNL     1      -3.880   2.093  -0.261  1.00  0.00     0.203 HD
BRANCH  44  48
HETATM   48  N13 UNL     1      -5.741   3.723   0.138  1.00  0.00    -0.234 N 
ATOM     49 2H13 UNL     1      -6.531   4.352   0.284  1.00  0.00     0.174 HD
ATOM     50 1H13 UNL     1      -4.804   4.125   0.174  1.00  0.00     0.174 HD
ENDBRANCH  44  48
ENDBRANCH  36  38
ENDBRANCH  29  34
ENDBRANCH   1  29
TORSDOF 13
