REMARK  18 active torsions:
REMARK  status: ('A' for Active; 'I' for Inactive)
REMARK    1  A    between atoms: N2_3  and  C2_5 
REMARK    2  A    between atoms: C2_5  and  N3_6 
REMARK    3  A    between atoms: C2_5  and  C3_11 
REMARK    4  A    between atoms: N3_6  and  N4_8 
REMARK    5  A    between atoms: C3_11  and  N5_12 
REMARK    6  A    between atoms: C3_11  and  O8_33 
REMARK    7  A    between atoms: N5_12  and  C4_14 
REMARK    8  A    between atoms: C6_16  and  C7_17 
REMARK    9  A    between atoms: C7_17  and  O1_18 
REMARK   10  A    between atoms: C7_17  and  O2_20 
REMARK   11  A    between atoms: C8_23  and  C9_24 
REMARK   12  A    between atoms: C9_24  and  O4_25 
REMARK   13  A    between atoms: C9_24  and  C10_27 
REMARK   14  A    between atoms: C11_30  and  O7_31 
REMARK   15  A    between atoms: O8_33  and  N6_34 
REMARK   16  A    between atoms: N6_34  and  N7_36 
REMARK   17  A    between atoms: N7_36  and  C12_38 
REMARK   18  A    between atoms: C14_44  and  C15_45 
ROOT
HETATM    1  N1  UNL     1       0.264   3.054  -3.917  1.00  0.00    -0.172 NA
HETATM    2  C1  UNL     1       0.174   2.113  -3.246  1.00  0.00     0.183 C 
HETATM    3  N2  UNL     1       0.055   0.988  -2.420  1.00  0.00    -0.278 N 
ATOM      4  H2  UNL     1      -0.772   0.398  -2.511  1.00  0.00     0.179 HD
ENDROOT
BRANCH   3   5
HETATM    5  C2  UNL     1       1.042   0.636  -1.460  1.00  0.00     0.157 C 
BRANCH   5   6
HETATM    6  N3  UNL     1       2.220   0.378  -1.917  1.00  0.00    -0.291 N 
ATOM      7  H3  UNL     1       2.951   0.123  -1.253  1.00  0.00     0.188 HD
BRANCH   6   8
HETATM    8  N4  UNL     1       2.543   0.429  -3.263  1.00  0.00    -0.344 N 
ATOM      9  H42 UNL     1       1.800   0.685  -3.913  1.00  0.00     0.176 HD
ATOM     10  H41 UNL     1       3.475   0.225  -3.624  1.00  0.00     0.176 HD
ENDBRANCH   6   8
ENDBRANCH   5   6
BRANCH   5  11
HETATM   11  C3  UNL     1       0.718   0.574   0.007  1.00  0.00     0.323 C 
BRANCH  11  12
HETATM   12  N5  UNL     1      -0.282  -0.293   0.345  1.00  0.00    -0.353 N 
ATOM     13  H5  UNL     1       0.205  -1.174   0.511  1.00  0.00     0.162 HD
BRANCH  12  14
HETATM   14  C4  UNL     1      -1.442  -0.562   0.550  1.00  0.00     0.069 A 
HETATM   15  C5  UNL     1      -1.773  -1.883   0.924  1.00  0.00     0.070 A 
HETATM   16  C6  UNL     1      -3.079  -2.257   1.173  1.00  0.00     0.110 A 
HETATM   17  O3  UNL     1      -4.043  -1.375   1.064  1.00  0.00    -0.308 OA
HETATM   18  C8  UNL     1      -3.839  -0.133   0.726  1.00  0.00     0.128 A 
HETATM   19  C11 UNL     1      -2.519   0.287   0.463  1.00  0.00     0.125 A 
BRANCH  16  20
HETATM   20  C7  UNL     1      -3.390  -3.673   1.569  1.00  0.00     0.312 C 
BRANCH  20  21
HETATM   21  O1  UNL     1      -2.672  -4.525   0.732  1.00  0.00    -0.365 OA
ATOM     22  H1  UNL     1      -2.869  -5.420   0.982  1.00  0.00     0.213 HD
ENDBRANCH  20  21
BRANCH  20  23
HETATM   23  O2  UNL     1      -4.765  -3.835   1.417  1.00  0.00    -0.365 OA
ATOM     24  H2  UNL     1      -4.962  -4.730   1.667  1.00  0.00     0.213 HD
ENDBRANCH  20  23
ENDBRANCH  16  20
BRANCH  18  25
HETATM   25  C9  UNL     1      -4.972   0.835   0.615  1.00  0.00     0.278 C 
BRANCH  25  26
HETATM   26  O4  UNL     1      -5.320   0.948  -0.734  1.00  0.00    -0.378 OA
ATOM     27  H4  UNL     1      -6.040   1.563  -0.805  1.00  0.00     0.211 HD
ENDBRANCH  25  26
BRANCH  25  28
HETATM   28  C10 UNL     1      -4.695   2.124   1.238  1.00  0.00     0.209 C 
HETATM   29  O5  UNL     1      -4.786   3.175   0.568  1.00  0.00    -0.646 OA
HETATM   30  O6  UNL     1      -4.331   2.225   2.565  1.00  0.00    -0.646 OA
ENDBRANCH  25  28
ENDBRANCH  18  25
BRANCH  19  31
HETATM   31  O7  UNL     1      -2.405   1.605   0.116  1.00  0.00    -0.356 OA
ATOM     32  H7  UNL     1      -3.150   2.192   0.056  1.00  0.00     0.218 HD
ENDBRANCH  19  31
ENDBRANCH  12  14
ENDBRANCH  11  12
BRANCH  11  33
HETATM   33  O8  UNL     1       1.938   0.067   0.608  1.00  0.00    -0.231 OA
BRANCH  33  34
HETATM   34  N6  UNL     1       2.655   0.920   1.389  1.00  0.00    -0.203 N 
ATOM     35  H6  UNL     1       2.144   1.650   1.884  1.00  0.00     0.216 HD
BRANCH  34  36
HETATM   36  N7  UNL     1       3.913   0.873   1.546  1.00  0.00    -0.264 N 
ATOM     37  H7  UNL     1       4.357   1.560   2.155  1.00  0.00     0.190 HD
BRANCH  36  38
HETATM   38  C12 UNL     1       4.726  -0.098   0.908  1.00  0.00     0.154 A 
HETATM   39  N8  UNL     1       4.786  -1.402   1.214  1.00  0.00    -0.335 N 
HETATM   40  C13 UNL     1       5.674  -1.952   0.370  1.00  0.00     0.182 A 
ATOM     41  H8  UNL     1       4.260  -1.882   1.944  1.00  0.00     0.168 HD
HETATM   42  N9  UNL     1       6.170  -0.993  -0.464  1.00  0.00    -0.345 N 
HETATM   43  C14 UNL     1       5.578   0.185  -0.134  1.00  0.00     0.144 A 
ATOM     44  H9  UNL     1       6.860  -1.134  -1.202  1.00  0.00     0.167 HD
BRANCH  43  45
HETATM   45  C15 UNL     1       5.781   1.484  -0.735  1.00  0.00     0.285 C 
HETATM   46  N10 UNL     1       5.073   2.616  -0.262  1.00  0.00    -0.056 NA
HETATM   47  O9  UNL     1       6.591   1.617  -1.686  1.00  0.00    -0.269 OA
ENDBRANCH  43  45
ENDBRANCH  36  38
ENDBRANCH  34  36
ENDBRANCH  33  34
ENDBRANCH  11  33
ENDBRANCH   5  11
ENDBRANCH   3   5
TORSDOF 18
