REMARK  8 active torsions:
REMARK  status: ('A' for Active; 'I' for Inactive)
REMARK    1  A    between atoms: C2_2  and  C3_3 
REMARK    2  A    between atoms: C4_4  and  C5_5 
REMARK    3  A    between atoms: C8_9  and  O1_10 
REMARK    4  A    between atoms: C10_12  and  O2_13 
REMARK    5  A    between atoms: C14_20  and  S1_21 
REMARK    6  A    between atoms: S1_21  and  C15_22 
REMARK    7  A    between atoms: C19_28  and  N3_29 
REMARK    8  A    between atoms: N3_29  and  N4_31 
ROOT
HETATM    1  C3  UNL     1      -0.773  -1.076  -0.407  1.00  0.00    -0.005 A 
HETATM    2  C4  UNL     1      -1.486   0.048  -0.152  1.00  0.00     0.095 A 
HETATM    3  O3  UNL     1      -0.594   1.033   0.043  1.00  0.00    -0.291 OA
HETATM    4  C13 UNL     1       0.611   0.632  -0.066  1.00  0.00     0.165 A 
HETATM    5  N1  UNL     1       1.829   1.236   0.042  1.00  0.00    -0.316 N 
ATOM      6  H1  UNL     1       1.860   2.233   0.254  1.00  0.00     0.170 HD
HETATM    7  C14 UNL     1       2.982   0.583  -0.117  1.00  0.00     0.148 A 
HETATM    8  N2  UNL     1       2.917  -0.722  -0.395  1.00  0.00    -0.321 N 
ATOM      9  H2  UNL     1       3.791  -1.234  -0.519  1.00  0.00     0.169 HD
HETATM   10  C19 UNL     1       1.738  -1.410  -0.522  1.00  0.00     0.136 A 
HETATM   11  C20 UNL     1       0.582  -0.706  -0.353  1.00  0.00     0.070 A 
ENDROOT
BRANCH   2  12
HETATM   12  C5  UNL     1      -2.901   0.359  -0.060  1.00  0.00     0.003 A 
HETATM   13  C6  UNL     1      -3.910  -0.540  -0.169  1.00  0.00     0.041 A 
HETATM   14  C7  UNL     1      -5.267  -0.146  -0.083  1.00  0.00     0.071 A 
HETATM   15 CL1  UNL     1      -6.514  -1.346  -0.231  1.00  0.00    -0.081 Cl
HETATM   16  C8  UNL     1      -5.622   1.163   0.114  1.00  0.00     0.123 A 
HETATM   17  C10 UNL     1      -4.609   2.085   0.227  1.00  0.00     0.104 A 
HETATM   18  C12 UNL     1      -3.303   1.689   0.142  1.00  0.00     0.054 A 
BRANCH  16  19
HETATM   19  O1  UNL     1      -6.935   1.597   0.205  1.00  0.00    -0.351 OA
HETATM   20  C9  UNL     1      -7.634   1.668   1.436  1.00  0.00     0.210 C 
ENDBRANCH  16  19
BRANCH  17  21
HETATM   21  O2  UNL     1      -4.905   3.425   0.428  1.00  0.00    -0.353 OA
HETATM   22  C11 UNL     1      -3.870   4.382   0.544  1.00  0.00     0.210 C 
ENDBRANCH  17  21
ENDBRANCH   2  12
BRANCH   1  23
HETATM   23  C2  UNL     1      -1.248  -2.426  -0.670  1.00  0.00     0.038 C 
HETATM   24  C1  UNL     1      -1.584  -3.254   0.533  1.00  0.00     0.010 C 
ENDBRANCH   1  23
BRANCH  10  25
HETATM   25  N3  UNL     1       1.725  -2.646  -0.775  1.00  0.00    -0.291 N 
ATOM     26  H3  UNL     1       0.803  -3.075  -0.851  1.00  0.00     0.188 HD
BRANCH  25  27
HETATM   27  N4  UNL     1       2.801  -3.494  -0.962  1.00  0.00    -0.344 N 
ATOM     28  H42 UNL     1       3.714  -3.047  -0.882  1.00  0.00     0.176 HD
ATOM     29  H41 UNL     1       2.790  -4.493  -1.167  1.00  0.00     0.176 HD
ENDBRANCH  25  27
ENDBRANCH  10  25
BRANCH   7  30
HETATM   30  S1  UNL     1       4.560   1.446   0.039  1.00  0.00    -0.085 SA
BRANCH  30  31
HETATM   31  C15 UNL     1       5.880   0.231  -0.214  1.00  0.00     0.005 C 
HETATM   32  C16 UNL     1       5.856  -0.268  -1.640  1.00  0.00     0.026 C 
HETATM   33  C17 UNL     1       7.231   0.825   0.074  1.00  0.00     0.026 C 
HETATM   34  C18 UNL     1       5.568  -0.933   0.720  1.00  0.00     0.026 C 
ENDBRANCH  30  31
ENDBRANCH   7  30
TORSDOF 8
