REMARK  7 active torsions:
REMARK  status: ('A' for Active; 'I' for Inactive)
REMARK    1  A    between atoms: C5_5  and  N1_6 
REMARK    2  A    between atoms: N2_9  and  C8_10 
REMARK    3  A    between atoms: C8_10  and  C9_11 
REMARK    4  A    between atoms: C9_11  and  C10_12 
REMARK    5  A    between atoms: C10_12  and  N3_13 
REMARK    6  A    between atoms: C11_14  and  O1_15 
REMARK    7  A    between atoms: C14_19  and  O2_20 
ROOT
HETATM    1  N3  UNL     1      -2.383  -0.270   1.157  1.00  0.00    -0.307 N 
HETATM    2  C11 UNL     1      -3.613  -0.794   1.282  1.00  0.00     0.152 A 
HETATM    3  C12 UNL     1      -4.564   0.153   0.889  1.00  0.00     0.018 A 
HETATM    4  C13 UNL     1      -3.900   1.247   0.527  1.00  0.00     0.018 A 
HETATM    5  C14 UNL     1      -2.522   0.982   0.696  1.00  0.00     0.152 A 
HETATM    6  C15 UNL     1      -4.694   2.405   0.058  1.00  0.00     0.086 C 
HETATM    7  C16 UNL     1      -4.834   2.435  -1.442  1.00  0.00     0.020 C 
HETATM    8  C17 UNL     1      -6.000   1.601  -1.936  1.00  0.00     0.002 C 
HETATM    9  C18 UNL     1      -5.766   0.133  -1.699  1.00  0.00     0.002 C 
HETATM   10  C19 UNL     1      -6.469  -0.392  -0.494  1.00  0.00     0.020 C 
HETATM   11  C20 UNL     1      -6.036   0.194   0.803  1.00  0.00     0.086 C 
HETATM   12  S1  UNL     1      -6.321   2.009   0.750  1.00  0.00    -0.150 SA
ENDROOT
BRANCH   1  13
HETATM   13  C10 UNL     1      -1.110  -0.886   1.446  1.00  0.00     0.135 C 
BRANCH  13  14
HETATM   14  C9  UNL     1      -0.520  -1.608   0.262  1.00  0.00     0.040 C 
BRANCH  14  15
HETATM   15  C8  UNL     1       0.797  -2.205   0.683  1.00  0.00     0.123 C 
BRANCH  15  16
HETATM   16  N2  UNL     1       1.771  -1.287   1.140  1.00  0.00    -0.390 N 
HETATM   17  C7  UNL     1       3.003  -1.891   1.561  1.00  0.00     0.141 C 
HETATM   18  C6  UNL     1       4.056  -1.911   0.483  1.00  0.00     0.143 C 
HETATM   19  N1  UNL     1       4.195  -0.579  -0.020  1.00  0.00    -0.369 N 
HETATM   20  C22 UNL     1       3.030   0.141  -0.418  1.00  0.00     0.167 C 
HETATM   21  C21 UNL     1       1.873  -0.029   0.533  1.00  0.00     0.078 C 
BRANCH  19  22
HETATM   22  C5  UNL     1       5.511   0.006  -0.111  1.00  0.00     0.072 A 
HETATM   23  C4  UNL     1       5.864   1.248  -0.555  1.00  0.00     0.038 A 
HETATM   24  C3  UNL     1       7.173   1.558  -0.540  1.00  0.00     0.017 A 
HETATM   25  C2  UNL     1       8.036   0.603  -0.082  1.00  0.00    -0.019 A 
HETATM   26  C1  UNL     1       9.538   0.710   0.032  1.00  0.00     0.056 C 
HETATM   27  S2  UNL     1       7.001  -0.693   0.314  1.00  0.00    -0.078 SA
ENDBRANCH  19  22
ENDBRANCH  15  16
ENDBRANCH  14  15
ENDBRANCH  13  14
ENDBRANCH   1  13
BRANCH   2  28
HETATM   28  O1  UNL     1      -3.808  -2.089   1.740  1.00  0.00    -0.345 OA
ATOM     29  H1  UNL     1      -4.678  -2.460   1.828  1.00  0.00     0.219 HD
ENDBRANCH   2  28
BRANCH   5  30
HETATM   30  O2  UNL     1      -1.469   1.851   0.438  1.00  0.00    -0.345 OA
ATOM     31  H2  UNL     1      -1.567   2.738   0.112  1.00  0.00     0.219 HD
ENDBRANCH   5  30
TORSDOF 7
