REMARK  7 active torsions:
REMARK  status: ('A' for Active; 'I' for Inactive)
REMARK    1  A    between atoms: N1_1  and  C1_5 
REMARK    2  A    between atoms: C1_5  and  C2_6 
REMARK    3  A    between atoms: C4_10  and  C5_11 
REMARK    4  A    between atoms: C6_14  and  N4_15 
REMARK    5  A    between atoms: N4_15  and  C7_17 
REMARK    6  A    between atoms: C10_20  and  N5_21 
REMARK    7  A    between atoms: C12_25  and  C13_26 
ROOT
HETATM    1  C5  UNL     1       2.419   2.146  -1.220  1.00  0.00     0.090 A 
HETATM    2  N3  UNL     1       1.779   1.227  -0.442  1.00  0.00    -0.189 N 
ATOM      3  H3  UNL     1       2.044   0.246  -0.525  1.00  0.00     0.184 HD
HETATM    4  C6  UNL     1       0.797   1.568   0.445  1.00  0.00     0.683 A 
HETATM    5  N6  UNL     1       0.419   2.845   0.585  1.00  0.00    -0.200 N 
ATOM      6  H6  UNL     1      -0.314   3.099   1.247  1.00  0.00     0.183 HD
HETATM    7  C19 UNL     1       1.019   3.784  -0.158  1.00  0.00     0.132 A 
HETATM    8  C20 UNL     1       2.027   3.431  -1.067  1.00  0.00     0.078 A 
HETATM    9 CL1  UNL     1       2.773   4.704  -1.985  1.00  0.00    -0.080 Cl
ENDROOT
BRANCH   4  10
HETATM   10  N4  UNL     1       0.252   0.610   1.112  1.00  0.00    -0.191 N 
ATOM     11  H4  UNL     1       0.576  -0.343   0.945  1.00  0.00     0.184 HD
BRANCH  10  12
HETATM   12  C7  UNL     1      -0.767   0.813   2.059  1.00  0.00     0.056 A 
HETATM   13  C8  UNL     1      -0.719   1.826   3.005  1.00  0.00     0.033 A 
HETATM   14  C9  UNL     1      -1.758   1.922   3.922  1.00  0.00     0.038 A 
HETATM   15  C10 UNL     1      -2.816   1.053   3.915  1.00  0.00     0.103 A 
HETATM   16  C11 UNL     1      -2.846   0.038   2.952  1.00  0.00     0.045 A 
HETATM   17  C12 UNL     1      -1.843  -0.090   2.033  1.00  0.00    -0.024 A 
BRANCH  15  18
HETATM   18  N5  UNL     1      -3.873   1.159   4.849  1.00  0.00    -0.116 N 
HETATM   19  O1  UNL     1      -3.908   2.039   5.735  1.00  0.00    -0.532 OA
HETATM   20  O2  UNL     1      -4.946   0.287   4.843  1.00  0.00    -0.532 OA
ENDBRANCH  15  18
BRANCH  17  21
HETATM   21  C13 UNL     1      -1.837  -1.125   0.961  1.00  0.00     0.021 C 
HETATM   22  C14 UNL     1      -2.698  -2.331   1.327  1.00  0.00     0.009 C 
HETATM   23  C15 UNL     1      -3.898  -2.489   0.448  1.00  0.00     0.001 C 
HETATM   24  C16 UNL     1      -3.382  -2.685  -0.985  1.00  0.00     0.000 C 
HETATM   25  C17 UNL     1      -2.610  -1.473  -1.382  1.00  0.00     0.001 C 
HETATM   26  C18 UNL     1      -2.425  -0.472  -0.292  1.00  0.00     0.009 C 
ENDBRANCH  17  21
ENDBRANCH  10  12
ENDBRANCH   4  10
BRANCH   1  27
HETATM   27  C4  UNL     1       3.463   1.638  -2.123  1.00  0.00     0.051 A 
HETATM   28  C3  UNL     1       4.241   2.197  -3.079  1.00  0.00     0.110 A 
HETATM   29  N2  UNL     1       5.106   1.445  -3.700  1.00  0.00    -0.361 N 
HETATM   30  C2  UNL     1       5.214   0.173  -3.397  1.00  0.00     0.077 A 
ATOM     31  H2  UNL     1       5.701   1.847  -4.424  1.00  0.00     0.165 HD
HETATM   32  S1  UNL     1       4.047  -0.005  -2.177  1.00  0.00    -0.071 SA
BRANCH  30  33
HETATM   33  C1  UNL     1       6.115  -0.882  -3.955  1.00  0.00     0.294 C 
BRANCH  33  34
HETATM   34  N1  UNL     1       6.017  -2.063  -3.081  1.00  0.00    -0.074 N 
ATOM     35  H13 UNL     1       6.214  -1.850  -2.103  1.00  0.00     0.274 HD
ATOM     36  H12 UNL     1       5.057  -2.386  -2.957  1.00  0.00     0.274 HD
ATOM     37  H11 UNL     1       6.632  -2.783  -3.462  1.00  0.00     0.274 HD
ENDBRANCH  33  34
ENDBRANCH  30  33
ENDBRANCH   1  27
TORSDOF 7
