REMARK  2 active torsions:
REMARK  status: ('A' for Active; 'I' for Inactive)
REMARK    1  A    between atoms: C1_2  and  C2_4 
REMARK    2  A    between atoms: C2_4  and  C3_5 
ROOT
HETATM    1  C3  UNL     1       2.971   0.304  -0.659  1.00  0.00    -0.006 C 
HETATM    2  C4  UNL     1       2.070   1.509  -0.487  1.00  0.00     0.010 C 
HETATM    3  C5  UNL     1       0.913   1.243   0.447  1.00  0.00     0.072 C 
HETATM    4  C6  UNL     1      -0.002   0.163  -0.089  1.00  0.00     0.200 C 
HETATM    5  C7  UNL     1       0.753  -0.570  -1.195  1.00  0.00     0.072 C 
HETATM    6  C8  UNL     1       2.112  -0.918  -0.614  1.00  0.00     0.010 C 
HETATM    7  O2  UNL     1      -0.418  -0.720   0.904  1.00  0.00    -0.197 OA
HETATM    8  O3  UNL     1      -1.594  -1.148   0.444  1.00  0.00    -0.197 OA
HETATM    9  C9  UNL     1      -2.195  -0.018  -0.060  1.00  0.00     0.200 C 
HETATM   10  C10 UNL     1      -2.820   0.857   0.968  1.00  0.00     0.071 C 
HETATM   11  C11 UNL     1      -4.177   0.451   1.413  1.00  0.00     0.006 C 
HETATM   12  C12 UNL     1      -5.033  -0.191   0.390  1.00  0.00     0.000 C 
HETATM   13  C13 UNL     1      -4.304  -1.101  -0.560  1.00  0.00     0.006 C 
HETATM   14  C14 UNL     1      -3.154  -0.344  -1.192  1.00  0.00     0.071 C 
HETATM   15  O4  UNL     1      -1.139   0.704  -0.649  1.00  0.00    -0.313 OA
ENDROOT
BRANCH   1  16
HETATM   16  C2  UNL     1       4.068   0.315   0.375  1.00  0.00     0.104 C 
BRANCH  16  17
HETATM   17  C1  UNL     1       4.982  -0.823   0.266  1.00  0.00     0.231 C 
HETATM   18  N1  UNL     1       6.068  -0.922   1.209  1.00  0.00    -0.062 NA
HETATM   19  O1  UNL     1       4.929  -1.746  -0.574  1.00  0.00    -0.277 OA
ENDBRANCH  16  17
ENDBRANCH   1  16
TORSDOF 2
