REMARK  2 active torsions:
REMARK  status: ('A' for Active; 'I' for Inactive)
REMARK    1  A    between atoms: C6_6  and  N1_7 
REMARK    2  A    between atoms: C8_9  and  C9_10 
ROOT
HETATM    1  N1  UNL     1      -1.028  -0.427   0.619  1.00  0.00    -0.282 N 
HETATM    2  C7  UNL     1      -0.261   0.591   0.238  1.00  0.00     0.139 A 
HETATM    3  C8  UNL     1       1.005   0.314   0.657  1.00  0.00     0.050 A 
HETATM    4  N3  UNL     1       0.963  -0.875   1.286  1.00  0.00    -0.289 N 
ATOM      5  H3  UNL     1       1.754  -1.355   1.714  1.00  0.00     0.188 HD
HETATM    6  N4  UNL     1      -0.268  -1.305   1.252  1.00  0.00    -0.240 N 
ATOM      7  H4  UNL     1      -0.595  -2.184   1.653  1.00  0.00     0.208 HD
ENDROOT
BRANCH   3   8
HETATM    8  C9  UNL     1       2.267   1.095   0.509  1.00  0.00     0.070 C 
HETATM    9  C10 UNL     1       2.795   1.343   1.932  1.00  0.00     0.244 C 
HETATM   10  N2  UNL     1       4.140   0.739   1.965  1.00  0.00    -0.070 N 
HETATM   11  C11 UNL     1       4.544   0.862   0.624  1.00  0.00     0.190 C 
ATOM     12  H22 UNL     1       4.780   1.143   2.649  1.00  0.00     0.277 HD
ATOM     13  H21 UNL     1       4.181  -0.207   2.345  1.00  0.00     0.277 HD
HETATM   14  C12 UNL     1       5.572  -0.038   0.082  1.00  0.00     0.033 C 
HETATM   15  C15 UNL     1       3.306   0.224  -0.052  1.00  0.00     0.028 C 
HETATM   16  C13 UNL     1       5.176  -0.092  -1.403  1.00  0.00     0.002 C 
HETATM   17  C14 UNL     1       3.716   0.391  -1.454  1.00  0.00     0.007 C 
ENDBRANCH   3   8
BRANCH   1  18
HETATM   18  C6  UNL     1      -2.448  -0.624   0.421  1.00  0.00     0.109 C 
HETATM   19  C5  UNL     1      -2.631  -1.957  -0.257  1.00  0.00     0.027 C 
HETATM   20  C4  UNL     1      -4.086  -2.363  -0.063  1.00  0.00     0.002 C 
HETATM   21  C3  UNL     1      -4.947  -1.144   0.136  1.00  0.00     0.004 C 
HETATM   22  C2  UNL     1      -4.481  -0.009  -0.769  1.00  0.00    -0.017 C 
HETATM   23  C1  UNL     1      -5.440   1.165  -0.555  1.00  0.00     0.010 C 
HETATM   24  C16 UNL     1      -3.073   0.432  -0.427  1.00  0.00     0.031 C 
ENDBRANCH   1  18
TORSDOF 2
