REMARK  2 active torsions:
REMARK  status: ('A' for Active; 'I' for Inactive)
REMARK    1  A    between atoms: C9_13  and  C10_14 
REMARK    2  A    between atoms: C10_14  and  C11_15 
ROOT
HETATM    1  C11 UNL     1       3.845   0.209   0.357  1.00  0.00    -0.015 C 
HETATM    2  C12 UNL     1       4.562   1.291   0.133  1.00  0.00     0.089 C 
HETATM    3  C13 UNL     1       3.941   2.594   0.241  1.00  0.00     0.087 C 
HETATM    4  N2  UNL     1       3.457   3.639   0.343  1.00  0.00    -0.192 NA
ENDROOT
BRANCH   1   5
HETATM    5  C10 UNL     1       2.415   0.327   0.718  1.00  0.00     0.041 C 
BRANCH   5   6
HETATM    6  C9  UNL     1       1.492  -0.345  -0.240  1.00  0.00     0.078 C 
HETATM    7  C4  UNL     1       0.072  -0.166   0.217  1.00  0.00     0.021 C 
HETATM    8  C3  UNL     1      -0.423   1.204   0.269  1.00  0.00    -0.009 C 
HETATM    9  C5  UNL     1      -0.177  -1.018   1.444  1.00  0.00     0.058 C 
HETATM   10  C14 UNL     1      -0.919  -1.105  -0.497  1.00  0.00     0.170 C 
HETATM   11  C2  UNL     1      -1.639   1.502  -0.158  1.00  0.00    -0.058 C 
HETATM   12  C1  UNL     1      -2.124   2.907  -0.096  1.00  0.00     0.046 C 
HETATM   13  C15 UNL     1      -2.574   0.483  -0.712  1.00  0.00     0.146 C 
HETATM   14  O2  UNL     1      -2.200  -0.745  -0.173  1.00  0.00    -0.372 OA
HETATM   15  C16 UNL     1      -3.957   0.850  -0.263  1.00  0.00     0.044 C 
HETATM   16  C6  UNL     1      -0.414  -2.176   0.461  1.00  0.00     0.093 C 
HETATM   17  C7  UNL     1      -1.413  -3.182   0.898  1.00  0.00     0.049 C 
HETATM   18  O1  UNL     1       0.875  -2.681   0.136  1.00  0.00    -0.326 OA
HETATM   19  C8  UNL     1       1.757  -1.783  -0.449  1.00  0.00     0.118 C 
HETATM   20  N1  UNL     1       2.744  -2.231  -1.134  1.00  0.00    -0.383 N 
ATOM     21  H12 UNL     1       2.927  -3.224  -1.278  1.00  0.00     0.158 HD
ATOM     22  H11 UNL     1       3.392  -1.571  -1.564  1.00  0.00     0.158 HD
ENDBRANCH   5   6
ENDBRANCH   1   5
TORSDOF 2
