REMARK  13 active torsions:
REMARK  status: ('A' for Active; 'I' for Inactive)
REMARK    1  A    between atoms: N1_2  and  C2_3 
REMARK    2  A    between atoms: N1_2  and  C14_42 
REMARK    3  A    between atoms: C2_3  and  C3_4 
REMARK    4  A    between atoms: C4_8  and  C5_9 
REMARK    5  A    between atoms: C5_9  and  O2_10 
REMARK    6  A    between atoms: C5_9  and  N3_12 
REMARK    7  A    between atoms: N3_12  and  C6_14 
REMARK    8  A    between atoms: C9_19  and  N5_20 
REMARK    9  A    between atoms: C10_25  and  C11_26 
REMARK   10  A    between atoms: C11_26  and  N7_27 
REMARK   11  A    between atoms: C11_26  and  N8_31 
REMARK   12  A    between atoms: C15_45  and  N14_46 
REMARK   13  A    between atoms: C16_51  and  N16_52 
ROOT
HETATM    1  N8  UNL     1       8.075   0.521  -1.871  1.00  0.00    -0.295 N 
ATOM      2  H8  UNL     1       7.872   0.641  -2.863  1.00  0.00     0.174 HD
HETATM    3  C12 UNL     1       9.026  -0.440  -1.488  1.00  0.00     0.179 C 
HETATM    4  N9  UNL     1       9.827  -1.244  -1.189  1.00  0.00    -0.172 NA
ENDROOT
BRANCH   1   5
HETATM    5  C11 UNL     1       7.376   1.343  -0.918  1.00  0.00     0.344 C 
BRANCH   5   6
HETATM    6  C10 UNL     1       6.602   0.498   0.006  1.00  0.00     0.107 A 
HETATM    7  N6  UNL     1       7.182  -0.183   1.008  1.00  0.00    -0.190 N 
HETATM    8  C9  UNL     1       6.456  -0.952   1.849  1.00  0.00     0.676 A 
ATOM      9  H6  UNL     1       8.192  -0.118   1.137  1.00  0.00     0.184 HD
HETATM   10  N4  UNL     1       5.122  -1.030   1.670  1.00  0.00    -0.190 N 
HETATM   11  C8  UNL     1       4.485  -0.371   0.686  1.00  0.00     0.083 A 
ATOM     12  H4  UNL     1       4.575  -1.611   2.305  1.00  0.00     0.184 HD
HETATM   13  C7  UNL     1       3.120  -0.432   0.478  1.00  0.00     0.082 A 
HETATM   14  C13 UNL     1       5.222   0.417  -0.178  1.00  0.00     0.102 A 
HETATM   15  C6  UNL     1       2.484   0.249  -0.535  1.00  0.00     0.120 A 
HETATM   16  N11 UNL     1       3.289   1.001  -1.337  1.00  0.00    -0.285 N 
HETATM   17  N10 UNL     1       4.595   1.081  -1.166  1.00  0.00    -0.295 N 
ATOM     18  H11 UNL     1       2.864   1.524  -2.102  1.00  0.00     0.188 HD
ATOM     19  H10 UNL     1       5.144   1.662  -1.800  1.00  0.00     0.187 HD
BRANCH   8  20
HETATM   20  N5  UNL     1       7.082  -1.575   2.785  1.00  0.00    -0.234 N 
ATOM     21  H52 UNL     1       6.534  -2.156   3.420  1.00  0.00     0.174 HD
ATOM     22  H51 UNL     1       8.091  -1.516   2.920  1.00  0.00     0.174 HD
ENDBRANCH   8  20
BRANCH  15  23
HETATM   23  N3  UNL     1       1.095   0.206  -0.774  1.00  0.00    -0.342 N 
ATOM     24  H3  UNL     1       0.707   0.749  -1.545  1.00  0.00     0.164 HD
BRANCH  23  25
HETATM   25  C5  UNL     1       0.209  -0.585   0.042  1.00  0.00     0.298 C 
BRANCH  25  26
HETATM   26  C4  UNL     1      -1.198  -0.425  -0.403  1.00  0.00     0.197 A 
HETATM   27  O1  UNL     1      -1.645   0.544  -1.147  1.00  0.00    -0.218 OA
HETATM   28  N2  UNL     1      -2.901   0.370  -1.336  1.00  0.00    -0.245 N 
HETATM   29  C3  UNL     1      -3.333  -0.741  -0.711  1.00  0.00     0.122 A 
ATOM     30  H2  UNL     1      -3.494   0.991  -1.887  1.00  0.00     0.196 HD
HETATM   31  N12 UNL     1      -2.228  -1.233  -0.121  1.00  0.00    -0.322 N 
ATOM     32  H12 UNL     1      -2.183  -2.080   0.446  1.00  0.00     0.169 HD
BRANCH  29  33
HETATM   33  C2  UNL     1      -4.722  -1.296  -0.682  1.00  0.00     0.219 C 
BRANCH  33  34
HETATM   34  N1  UNL     1      -5.482  -0.774   0.425  1.00  0.00    -0.214 N 
HETATM   35  C1  UNL     1      -5.088  -0.953   1.809  1.00  0.00     0.169 C 
BRANCH  34  36
HETATM   36  C14 UNL     1      -6.678  -0.044   0.183  1.00  0.00     0.709 A 
HETATM   37  N13 UNL     1      -6.535   1.300   0.034  1.00  0.00    -0.022 N 
HETATM   38  C15 UNL     1      -7.603   2.093  -0.200  1.00  0.00     0.705 A 
ATOM     39  H13 UNL     1      -5.606   1.716   0.100  1.00  0.00     0.203 HD
HETATM   40  N15 UNL     1      -8.821   1.526  -0.283  1.00  0.00    -0.022 N 
HETATM   41  C16 UNL     1      -8.945   0.188  -0.132  1.00  0.00     0.705 A 
ATOM     42  H15 UNL     1      -9.645   2.102  -0.459  1.00  0.00     0.203 HD
HETATM   43  N17 UNL     1      -7.876  -0.605   0.102  1.00  0.00    -0.022 N 
ATOM     44  H17 UNL     1      -7.989  -1.613   0.214  1.00  0.00     0.203 HD
BRANCH  38  45
HETATM   45  N14 UNL     1      -7.467   3.375  -0.342  1.00  0.00    -0.234 N 
ATOM     46 2H14 UNL     1      -6.544   3.805  -0.279  1.00  0.00     0.174 HD
ATOM     47 1H14 UNL     1      -8.274   3.974  -0.519  1.00  0.00     0.174 HD
ENDBRANCH  38  45
BRANCH  41  48
HETATM   48  N16 UNL     1     -10.139  -0.289  -0.223  1.00  0.00    -0.234 N 
ATOM     49 2H16 UNL     1     -10.946   0.310  -0.400  1.00  0.00     0.174 HD
ATOM     50 1H16 UNL     1     -10.233  -1.298  -0.109  1.00  0.00     0.174 HD
ENDBRANCH  41  48
ENDBRANCH  34  36
ENDBRANCH  33  34
ENDBRANCH  29  33
ENDBRANCH  25  26
BRANCH  25  51
HETATM   51  O2  UNL     1       0.629  -1.925  -0.120  1.00  0.00    -0.369 OA
ATOM     52  H2  UNL     1       1.529  -2.027   0.165  1.00  0.00     0.212 HD
ENDBRANCH  25  51
ENDBRANCH  23  25
ENDBRANCH  15  23
ENDBRANCH   5   6
BRANCH   5  53
HETATM   53  N7  UNL     1       8.337   2.152  -0.185  1.00  0.00    -0.052 N 
ATOM     54  H73 UNL     1       7.889   2.703   0.547  1.00  0.00     0.277 HD
ATOM     55  H72 UNL     1       8.943   1.580   0.404  1.00  0.00     0.277 HD
ATOM     56  H71 UNL     1       8.873   2.738  -0.825  1.00  0.00     0.277 HD
ENDBRANCH   5  53
ENDBRANCH   1   5
TORSDOF 13
