REMARK  12 active torsions:
REMARK  status: ('A' for Active; 'I' for Inactive)
REMARK    1  A    between atoms: C2_2  and  C3_4 
REMARK    2  A    between atoms: C3_4  and  N1_5 
REMARK    3  A    between atoms: C3_4  and  C4_9 
REMARK    4  A    between atoms: C4_9  and  O2_10 
REMARK    5  A    between atoms: C4_9  and  N2_12 
REMARK    6  A    between atoms: N2_12  and  C6_14 
REMARK    7  A    between atoms: C7_17  and  N4_18 
REMARK    8  A    between atoms: C9_27  and  C10_28 
REMARK    9  A    between atoms: C11_33  and  S1_34 
REMARK   10  A    between atoms: S1_34  and  C12_35 
REMARK   11  A    between atoms: N13_46  and  O3_47 
REMARK   12  A    between atoms: N14_49  and  N15_50 
ROOT
HETATM    1  C6  UNL     1      -2.405  -1.684  -1.289  1.00  0.00     0.138 A 
HETATM    2  N3  UNL     1      -3.388  -2.489  -1.795  1.00  0.00    -0.176 N 
ATOM      3  H3  UNL     1      -4.359  -2.285  -1.561  1.00  0.00     0.186 HD
HETATM    4  C7  UNL     1      -3.123  -3.530  -2.583  1.00  0.00     0.679 A 
HETATM    5  N5  UNL     1      -1.858  -3.840  -2.922  1.00  0.00    -0.176 N 
ATOM      6  H5  UNL     1      -1.650  -4.636  -3.525  1.00  0.00     0.186 HD
HETATM    7  C8  UNL     1      -0.884  -3.063  -2.436  1.00  0.00     0.132 A 
HETATM    8  N6  UNL     1       0.329  -3.327  -2.737  1.00  0.00    -0.384 N 
ATOM      9  H61 UNL     1       1.072  -2.734  -2.366  1.00  0.00     0.157 HD
ATOM     10  H62 UNL     1       0.501  -4.130  -3.342  1.00  0.00     0.157 HD
HETATM   11  C9  UNL     1      -1.121  -1.957  -1.602  1.00  0.00     0.100 A 
ENDROOT
BRANCH  11  12
HETATM   12  C10 UNL     1       0.042  -1.186  -1.127  1.00  0.00     0.161 A 
HETATM   13  N7  UNL     1       0.577  -0.099  -1.719  1.00  0.00    -0.281 N 
HETATM   14  N8  UNL     1       1.615   0.298  -1.011  1.00  0.00    -0.276 N 
ATOM     15  H7  UNL     1       0.235   0.342  -2.573  1.00  0.00     0.188 HD
HETATM   16  C11 UNL     1       1.808  -0.491   0.055  1.00  0.00     0.188 A 
ATOM     17  H8  UNL     1       2.197   1.103  -1.244  1.00  0.00     0.189 HD
HETATM   18  N14 UNL     1       0.790  -1.422  -0.052  1.00  0.00    -0.220 N 
BRANCH  16  19
HETATM   19  S1  UNL     1       3.003  -0.479   1.354  1.00  0.00    -0.025 SA
BRANCH  19  20
HETATM   20  C12 UNL     1       4.243   0.745   1.282  1.00  0.00     0.167 A 
HETATM   21  C13 UNL     1       4.860   1.020   2.469  1.00  0.00     0.169 A 
HETATM   22  N9  UNL     1       4.470   0.316   3.642  1.00  0.00    -0.079 NA
HETATM   23  N10 UNL     1       5.859   2.009   2.535  1.00  0.00    -0.175 N 
HETATM   24  C14 UNL     1       6.285   2.771   1.410  1.00  0.00     0.693 A 
ATOM     25  H10 UNL     1       6.301   2.190   3.436  1.00  0.00     0.185 HD
HETATM   26  N11 UNL     1       7.205   3.671   1.510  1.00  0.00    -0.233 N 
HETATM   27  N12 UNL     1       5.646   2.485   0.184  1.00  0.00    -0.105 N 
ATOM     28 2H11 UNL     1       7.667   3.878   2.396  1.00  0.00     0.174 HD
ATOM     29 1H11 UNL     1       7.510   4.217   0.704  1.00  0.00     0.174 HD
HETATM   30  N13 UNL     1       4.636   1.477   0.139  1.00  0.00    -0.139 N 
ATOM     31  H12 UNL     1       5.904   2.994  -0.662  1.00  0.00     0.208 HD
BRANCH  30  32
HETATM   32  O3  UNL     1       4.140   1.280  -1.100  1.00  0.00    -0.267 OA
ATOM     33  H3  UNL     1       4.404   1.772  -1.868  1.00  0.00     0.247 HD
ENDBRANCH  30  32
ENDBRANCH  19  20
ENDBRANCH  16  19
BRANCH  18  34
HETATM   34  N15 UNL     1       0.625  -2.462   0.870  1.00  0.00    -0.335 N 
ATOM     35 2H15 UNL     1      -0.125  -3.148   0.791  1.00  0.00     0.177 HD
ATOM     36 1H15 UNL     1       1.198  -2.643   1.694  1.00  0.00     0.177 HD
ENDBRANCH  18  34
ENDBRANCH  11  12
BRANCH   1  37
HETATM   37  N2  UNL     1      -2.804  -0.582  -0.438  1.00  0.00    -0.342 N 
HETATM   38  C5  UNL     1      -2.788  -0.914   0.978  1.00  0.00     0.154 C 
BRANCH  37  39
HETATM   39  C4  UNL     1      -3.187   0.624  -1.038  1.00  0.00     0.259 C 
BRANCH  39  40
HETATM   40  C3  UNL     1      -2.496   1.903  -0.743  1.00  0.00     0.300 C 
BRANCH  40  41
HETATM   41  C2  UNL     1      -2.872   2.562   0.537  1.00  0.00     0.157 C 
HETATM   42  C1  UNL     1      -2.206   2.289   1.839  1.00  0.00     0.093 C 
HETATM   43  O1  UNL     1      -3.785   3.404   0.592  1.00  0.00    -0.296 OA
ENDBRANCH  40  41
BRANCH  40  44
HETATM   44  N1  UNL     1      -3.037   2.874  -1.772  1.00  0.00    -0.064 N 
ATOM     45  H13 UNL     1      -4.028   3.096  -1.676  1.00  0.00     0.275 HD
ATOM     46  H12 UNL     1      -2.712   3.835  -1.670  1.00  0.00     0.275 HD
ATOM     47  H11 UNL     1      -2.779   2.422  -2.649  1.00  0.00     0.275 HD
ENDBRANCH  40  44
ENDBRANCH  39  40
BRANCH  39  48
HETATM   48  O2  UNL     1      -4.594   0.789  -0.872  1.00  0.00    -0.374 OA
ATOM     49  H2  UNL     1      -5.037  -0.030  -1.061  1.00  0.00     0.212 HD
ENDBRANCH  39  48
ENDBRANCH  37  39
ENDBRANCH   1  37
BRANCH   4  50
HETATM   50  N4  UNL     1      -4.064  -4.278  -3.050  1.00  0.00    -0.234 N 
ATOM     51  H42 UNL     1      -5.023  -4.043  -2.793  1.00  0.00     0.174 HD
ATOM     52  H41 UNL     1      -3.861  -5.075  -3.653  1.00  0.00     0.174 HD
ENDBRANCH   4  50
TORSDOF 12
