REMARK  17 active torsions:
REMARK  status: ('A' for Active; 'I' for Inactive)
REMARK    1  A    between atoms: C1_4  and  O1_6 
REMARK    2  A    between atoms: O1_6  and  N3_7 
REMARK    3  A    between atoms: C2_9  and  N4_10 
REMARK    4  A    between atoms: C2_9  and  C9_32 
REMARK    5  A    between atoms: N4_10  and  C3_12 
REMARK    6  A    between atoms: C3_12  and  C4_13 
REMARK    7  A    between atoms: C3_12  and  C5_20 
REMARK    8  A    between atoms: C4_13  and  O2_14 
REMARK    9  A    between atoms: N5_16  and  O3_18 
REMARK   10  A    between atoms: C5_20  and  O4_21 
REMARK   11  A    between atoms: C5_20  and  C6_23 
REMARK   12  A    between atoms: C6_23  and  O5_24 
REMARK   13  A    between atoms: C6_23  and  C7_26 
REMARK   14  A    between atoms: C7_26  and  O6_27 
REMARK   15  A    between atoms: C7_26  and  C8_29 
REMARK   16  A    between atoms: C8_29  and  O7_30 
REMARK   17  A    between atoms: C12_39  and  C13_40 
ROOT
HETATM    1  N3  UNL     1       0.397  -2.951   0.136  1.00  0.00    -0.239 N 
ATOM      2  H3  UNL     1      -0.474  -3.480   0.167  1.00  0.00     0.196 HD
HETATM    3  C2  UNL     1       0.400  -1.705  -0.192  1.00  0.00     0.157 C 
ENDROOT
BRANCH   3   4
HETATM    4  N4  UNL     1      -0.849  -1.106  -0.505  1.00  0.00    -0.358 N 
ATOM      5  H4  UNL     1      -1.258  -1.263  -1.426  1.00  0.00     0.162 HD
BRANCH   4   6
HETATM    6  C3  UNL     1      -1.568  -0.264   0.465  1.00  0.00     0.191 C 
BRANCH   6   7
HETATM    7  C4  UNL     1      -1.901  -0.993   1.689  1.00  0.00     0.161 C 
HETATM    8  N5  UNL     1      -3.111  -1.150   2.075  1.00  0.00    -0.249 N 
ATOM      9  H5  UNL     1      -3.861  -0.754   1.509  1.00  0.00     0.196 HD
BRANCH   7  10
HETATM   10  O2  UNL     1      -0.888  -1.535   2.465  1.00  0.00    -0.346 OA
ATOM     11  H2  UNL     1      -1.104  -2.008   3.260  1.00  0.00     0.219 HD
ENDBRANCH   7  10
BRANCH   8  12
HETATM   12  O3  UNL     1      -3.434  -1.822   3.206  1.00  0.00    -0.288 OA
ATOM     13  H3  UNL     1      -4.332  -1.939   3.493  1.00  0.00     0.244 HD
ENDBRANCH   8  12
ENDBRANCH   6   7
BRANCH   6  14
HETATM   14  C5  UNL     1      -2.769   0.274  -0.234  1.00  0.00     0.180 C 
BRANCH  14  15
HETATM   15  O4  UNL     1      -3.586  -0.735  -0.674  1.00  0.00    -0.390 OA
ATOM     16  H4  UNL     1      -4.352  -0.392  -1.120  1.00  0.00     0.210 HD
ENDBRANCH  14  15
BRANCH  14  17
HETATM   17  C6  UNL     1      -3.471   1.399   0.481  1.00  0.00     0.180 C 
BRANCH  17  18
HETATM   18  O5  UNL     1      -2.482   2.318   0.876  1.00  0.00    -0.390 OA
ATOM     19  H5  UNL     1      -2.925   3.027   1.327  1.00  0.00     0.210 HD
ENDBRANCH  17  18
BRANCH  17  20
HETATM   20  C7  UNL     1      -4.344   2.097  -0.572  1.00  0.00     0.173 C 
BRANCH  20  21
HETATM   21  O6  UNL     1      -5.319   1.185  -0.953  1.00  0.00    -0.391 OA
ATOM     22  H6  UNL     1      -5.859   1.617  -1.604  1.00  0.00     0.210 HD
ENDBRANCH  20  21
BRANCH  20  23
HETATM   23  C8  UNL     1      -4.943   3.353   0.022  1.00  0.00     0.198 C 
BRANCH  23  24
HETATM   24  O7  UNL     1      -5.684   2.952   1.149  1.00  0.00    -0.398 OA
ATOM     25  H7  UNL     1      -6.060   3.741   1.522  1.00  0.00     0.209 HD
ENDBRANCH  23  24
ENDBRANCH  20  23
ENDBRANCH  17  20
ENDBRANCH  14  17
ENDBRANCH   6  14
ENDBRANCH   4   6
ENDBRANCH   3   4
BRANCH   3  26
HETATM   26  C9  UNL     1       1.651  -0.911  -0.245  1.00  0.00     0.123 A 
HETATM   27  N6  UNL     1       2.740  -1.037   0.479  1.00  0.00    -0.331 N 
HETATM   28  C10 UNL     1       3.750  -0.241   0.292  1.00  0.00     0.140 A 
ATOM     29  H6  UNL     1       2.793  -1.764   1.192  1.00  0.00     0.168 HD
HETATM   30  N7  UNL     1       4.944  -0.251   0.966  1.00  0.00    -0.348 N 
HETATM   31  C14 UNL     1       3.630   0.720  -0.677  1.00  0.00     0.121 A 
HETATM   32  C11 UNL     1       5.928   0.602   0.711  1.00  0.00     0.126 A 
ATOM     33  H7  UNL     1       5.082  -0.947   1.698  1.00  0.00     0.167 HD
HETATM   34  C12 UNL     1       5.797   1.566  -0.267  1.00  0.00     0.126 A 
HETATM   35  N8  UNL     1       4.638   1.606  -0.949  1.00  0.00    -0.341 N 
ATOM     36  H8  UNL     1       4.508   2.306  -1.679  1.00  0.00     0.167 HD
HETATM   37  S1  UNL     1       2.052   0.411  -1.263  1.00  0.00    -0.047 SA
BRANCH  34  38
HETATM   38  C13 UNL     1       6.869   2.498  -0.546  1.00  0.00     0.228 C 
HETATM   39  O8  UNL     1       7.953   2.453   0.099  1.00  0.00    -0.643 OA
HETATM   40  O9  UNL     1       6.687   3.448  -1.540  1.00  0.00    -0.643 OA
ENDBRANCH  34  38
ENDBRANCH   3  26
BRANCH   1  41
HETATM   41  O1  UNL     1       1.590  -3.548   0.442  1.00  0.00    -0.203 OA
BRANCH  41  42
HETATM   42  C1  UNL     1       2.345  -4.091  -0.584  1.00  0.00     0.249 C 
HETATM   43  N1  UNL     1       1.871  -4.039  -1.775  1.00  0.00    -0.366 N 
ATOM     44  H12 UNL     1       2.427  -4.439  -2.531  1.00  0.00     0.159 HD
ATOM     45  H11 UNL     1       0.961  -3.604  -1.923  1.00  0.00     0.159 HD
HETATM   46  N2  UNL     1       3.612  -4.697  -0.378  1.00  0.00    -0.055 NA
ENDBRANCH  41  42
ENDBRANCH   1  41
TORSDOF 17
