REMARK  16 active torsions:
REMARK  status: ('A' for Active; 'I' for Inactive)
REMARK    1  A    between atoms: N1_1  and  C1_4 
REMARK    2  A    between atoms: C2_7  and  S1_8 
REMARK    3  A    between atoms: S1_8  and  C3_9 
REMARK    4  A    between atoms: C3_9  and  C4_10 
REMARK    5  A    between atoms: C4_10  and  C5_12 
REMARK    6  A    between atoms: C6_16  and  C7_17 
REMARK    7  A    between atoms: C7_17  and  C8_18 
REMARK    8  A    between atoms: C8_18  and  O3_19 
REMARK    9  A    between atoms: C8_18  and  O4_21 
REMARK   10  A    between atoms: C9_23  and  O5_24 
REMARK   11  A    between atoms: C10_28  and  N5_29 
REMARK   12  A    between atoms: N5_29  and  C11_31 
REMARK   13  A    between atoms: C13_38  and  C14_39 
REMARK   14  A    between atoms: C14_39  and  O6_40 
REMARK   15  A    between atoms: C14_39  and  N9_42 
REMARK   16  A    between atoms: N9_42  and  N10_43 
ROOT
HETATM    1  C1  UNL     1       0.931  -0.345  -1.618  1.00  0.00     0.692 A 
HETATM    2  N2  UNL     1      -0.106   0.081  -0.857  1.00  0.00    -0.170 N 
ATOM      3  H2  UNL     1      -0.975   0.355  -1.315  1.00  0.00     0.186 HD
HETATM    4  C2  UNL     1      -0.026   0.154   0.481  1.00  0.00     0.174 A 
HETATM    5  N4  UNL     1       1.145  -0.219   1.025  1.00  0.00    -0.169 N 
ATOM      6  H4  UNL     1       1.244  -0.176   2.039  1.00  0.00     0.186 HD
HETATM    7  C10 UNL     1       2.205  -0.651   0.288  1.00  0.00     0.700 A 
HETATM    8  N11 UNL     1       2.095  -0.713  -1.045  1.00  0.00    -0.022 N 
ATOM      9  H11 UNL     1       2.877  -1.033  -1.616  1.00  0.00     0.203 HD
ENDROOT
BRANCH   4  10
HETATM   10  S1  UNL     1      -1.371   0.719   1.513  1.00  0.00    -0.085 SA
BRANCH  10  11
HETATM   11  C3  UNL     1      -2.376  -0.761   1.919  1.00  0.00     0.168 C 
BRANCH  11  12
HETATM   12  C4  UNL     1      -3.472  -0.370   2.798  1.00  0.00     0.190 C 
HETATM   13  O1  UNL     1      -3.360  -0.519   4.076  1.00  0.00    -0.290 OA
BRANCH  12  14
HETATM   14  C5  UNL     1      -4.716   0.192   2.331  1.00  0.00     0.137 A 
HETATM   15  N3  UNL     1      -5.738   0.557   3.170  1.00  0.00    -0.255 N 
HETATM   16  O2  UNL     1      -6.723   1.029   2.506  1.00  0.00    -0.239 OA
ATOM     17  H3  UNL     1      -5.715   0.464   4.186  1.00  0.00     0.195 HD
HETATM   18  C6  UNL     1      -6.485   1.033   1.227  1.00  0.00     0.116 A 
HETATM   19  C9  UNL     1      -5.188   0.494   1.081  1.00  0.00     0.130 A 
BRANCH  18  20
HETATM   20  C7  UNL     1      -7.363   1.495   0.129  1.00  0.00     0.130 C 
BRANCH  20  21
HETATM   21  C8  UNL     1      -8.023   0.372  -0.624  1.00  0.00     0.260 C 
BRANCH  21  22
HETATM   22  O3  UNL     1      -8.827   0.930  -1.639  1.00  0.00    -0.371 OA
ATOM     23  H3  UNL     1      -9.244   0.221  -2.114  1.00  0.00     0.212 HD
ENDBRANCH  21  22
BRANCH  21  24
HETATM   24  O4  UNL     1      -7.125  -0.465  -1.245  1.00  0.00    -0.371 OA
ATOM     25  H4  UNL     1      -7.542  -1.174  -1.720  1.00  0.00     0.212 HD
ENDBRANCH  21  24
ENDBRANCH  20  21
ENDBRANCH  18  20
BRANCH  19  26
HETATM   26  O5  UNL     1      -4.584   0.337  -0.128  1.00  0.00    -0.356 OA
ATOM     27  H5  UNL     1      -4.911   0.546  -0.995  1.00  0.00     0.218 HD
ENDBRANCH  19  26
ENDBRANCH  12  14
ENDBRANCH  11  12
ENDBRANCH  10  11
ENDBRANCH   4  10
BRANCH   1  28
HETATM   28  N1  UNL     1       0.838  -0.415  -2.924  1.00  0.00    -0.234 N 
ATOM     29  H12 UNL     1      -0.042  -0.137  -3.357  1.00  0.00     0.174 HD
ATOM     30  H11 UNL     1       1.619  -0.736  -3.497  1.00  0.00     0.174 HD
ENDBRANCH   1  28
BRANCH   7  31
HETATM   31  N5  UNL     1       3.309  -0.998   0.871  1.00  0.00    -0.174 N 
ATOM     32  H5  UNL     1       3.367  -0.940   1.888  1.00  0.00     0.186 HD
BRANCH  31  33
HETATM   33  C11 UNL     1       4.437  -1.454   0.149  1.00  0.00     0.149 A 
HETATM   34  N6  UNL     1       4.567  -2.618  -0.518  1.00  0.00    -0.283 N 
HETATM   35  N7  UNL     1       5.756  -2.672  -1.045  1.00  0.00    -0.286 N 
ATOM     36  H6  UNL     1       3.850  -3.339  -0.597  1.00  0.00     0.188 HD
HETATM   37  C12 UNL     1       6.461  -1.566  -0.758  1.00  0.00     0.144 A 
ATOM     38  H7  UNL     1       6.106  -3.451  -1.602  1.00  0.00     0.188 HD
HETATM   39  N8  UNL     1       7.812  -1.280  -1.176  1.00  0.00    -0.081 NA
HETATM   40  C13 UNL     1       5.630  -0.785   0.001  1.00  0.00     0.076 A 
BRANCH  40  41
HETATM   41  C14 UNL     1       6.023   0.550   0.536  1.00  0.00     0.271 C 
BRANCH  41  42
HETATM   42  O6  UNL     1       7.320   0.404   1.080  1.00  0.00    -0.374 OA
ATOM     43  H6  UNL     1       7.570   1.255   1.421  1.00  0.00     0.212 HD
ENDBRANCH  41  42
BRANCH  41  44
HETATM   44  N9  UNL     1       6.175   1.420  -0.623  1.00  0.00    -0.111 NA
BRANCH  44  45
HETATM   45  N10 UNL     1       6.550   2.701  -0.280  1.00  0.00    -0.346 N 
ATOM     46 2H10 UNL     1       6.701   2.993   0.686  1.00  0.00     0.172 HD
ATOM     47 1H10 UNL     1       6.656   3.310  -1.091  1.00  0.00     0.172 HD
ENDBRANCH  44  45
ENDBRANCH  41  44
ENDBRANCH  40  41
ENDBRANCH  31  33
ENDBRANCH   7  31
TORSDOF 16
