REMARK  0 active torsions:
REMARK  status: ('A' for Active; 'I' for Inactive)
ROOT
HETATM    1  C1  UNL     1      -1.052  -0.891  -0.606  1.00  0.00     0.036 C 
HETATM    2  C2  UNL     1      -0.802   0.536  -1.075  1.00  0.00     0.273 C 
HETATM    3  N1  UNL     1      -0.268   1.255   0.081  1.00  0.00     0.088 N 
HETATM    4  C3  UNL     1       1.185   1.012   0.044  1.00  0.00     0.273 C 
HETATM    5  C4  UNL     1       1.246  -0.521   0.088  1.00  0.00     0.036 C 
HETATM    6  C5  UNL     1      -0.094  -0.922   0.580  1.00  0.00     0.017 C 
HETATM    7  C6  UNL     1      -0.579   0.384   1.233  1.00  0.00     0.277 C 
ENDROOT
TORSDOF 0
