REMARK  0 active torsions:
REMARK  status: ('A' for Active; 'I' for Inactive)
ROOT
HETATM    1  C1  UNL     1      -0.201   1.445   0.154  1.00  0.00    -0.030 C 
HETATM    2  C2  UNL     1       0.761   1.246   0.138  1.00  0.00    -0.030 C 
HETATM    3  C3  UNL     1       1.923   0.502   0.095  1.00  0.00     0.026 C 
HETATM    4  C4  UNL     1       1.101  -0.978   0.190  1.00  0.00     0.004 C 
HETATM    5  C5  UNL     1      -0.157  -0.708  -0.588  1.00  0.00     0.001 C 
HETATM    6  C6  UNL     1      -1.411  -0.455   0.197  1.00  0.00     0.004 C 
HETATM    7  C7  UNL     1      -1.559   1.219   0.152  1.00  0.00     0.026 C 
ENDROOT
TORSDOF 0
