REMARK  4 active torsions:
REMARK  status: ('A' for Active; 'I' for Inactive)
REMARK    1  A    between atoms: N1_6  and  C6_7 
REMARK    2  A    between atoms: C6_7  and  C7_8 
REMARK    3  A    between atoms: C9_13  and  O1_14 
REMARK    4  A    between atoms: O1_14  and  O2_15 
ROOT
HETATM    1  C7  UNL     1       0.927  -1.169  -1.193  1.00  0.00     0.108 C 
HETATM    2  N2  UNL     1       0.200  -1.363  -2.421  1.00  0.00    -0.375 N 
ATOM      3  H2  UNL     1       0.644  -1.622  -3.302  1.00  0.00     0.160 HD
HETATM    4  C8  UNL     1      -1.058  -1.177  -2.294  1.00  0.00     0.115 C 
HETATM    5 CL1  UNL     1      -2.078  -1.381  -3.709  1.00  0.00    -0.066 Cl
HETATM    6  C9  UNL     1      -1.397  -0.826  -0.906  1.00  0.00     0.158 C 
HETATM    7  C10 UNL     1      -0.043  -0.439  -0.350  1.00  0.00     0.055 C 
HETATM    8  C11 UNL     1       0.129  -0.598   1.107  1.00  0.00     0.011 C 
HETATM    9  C12 UNL     1      -1.062  -0.752   1.969  1.00  0.00     0.005 C 
HETATM   10  C13 UNL     1      -2.082   0.316   1.853  1.00  0.00    -0.014 C 
HETATM   11  C14 UNL     1      -1.427   1.650   2.153  1.00  0.00     0.010 C 
HETATM   12  C15 UNL     1      -2.918   0.393   0.659  1.00  0.00    -0.003 C 
HETATM   13  C16 UNL     1      -4.059  -0.570   0.547  1.00  0.00     0.006 C 
HETATM   14  C17 UNL     1      -4.378  -0.613  -0.951  1.00  0.00     0.005 C 
HETATM   15  C18 UNL     1      -3.500   0.465  -1.548  1.00  0.00    -0.011 C 
HETATM   16  C19 UNL     1      -4.126   1.844  -1.272  1.00  0.00     0.010 C 
HETATM   17  C20 UNL     1      -2.275   0.345  -0.693  1.00  0.00     0.039 C 
ENDROOT
BRANCH   1  18
HETATM   18  C6  UNL     1       2.207  -0.498  -1.553  1.00  0.00     0.154 C 
BRANCH  18  19
HETATM   19  N1  UNL     1       3.132  -0.203  -0.525  1.00  0.00    -0.352 N 
HETATM   20  C4  UNL     1       4.045  -1.080  -0.037  1.00  0.00     0.008 A 
HETATM   21  C3  UNL     1       4.817  -0.459   0.914  1.00  0.00     0.033 A 
HETATM   22  C5  UNL     1       4.229  -2.518  -0.436  1.00  0.00     0.068 C 
HETATM   23  C2  UNL     1       4.375   0.828   1.018  1.00  0.00    -0.038 A 
HETATM   24  C1  UNL     1       4.869   1.913   1.898  1.00  0.00     0.050 C 
HETATM   25  C21 UNL     1       3.332   0.953   0.113  1.00  0.00     0.014 A 
HETATM   26  C22 UNL     1       2.596   2.250  -0.074  1.00  0.00     0.069 C 
ENDBRANCH  18  19
ENDBRANCH   1  18
BRANCH   6  27
HETATM   27  O1  UNL     1      -1.909  -2.012  -0.375  1.00  0.00    -0.224 OA
BRANCH  27  28
HETATM   28  O2  UNL     1      -1.058  -3.005  -0.437  1.00  0.00    -0.249 OA
ATOM     29  H2  UNL     1      -1.406  -3.812  -0.076  1.00  0.00     0.253 HD
ENDBRANCH  27  28
ENDBRANCH   6  27
TORSDOF 4
