REMARK  5 active torsions:
REMARK  status: ('A' for Active; 'I' for Inactive)
REMARK    1  A    between atoms: C2_2  and  S1_3 
REMARK    2  A    between atoms: S1_3  and  C3_4 
REMARK    3  A    between atoms: C8_10  and  N1_11 
REMARK    4  A    between atoms: C9_12  and  O1_13 
REMARK    5  A    between atoms: C10_15  and  C11_16 
ROOT
HETATM    1  N1  UNL     1       0.088   0.722  -0.609  1.00  0.00    -0.251 N 
HETATM    2  C9  UNL     1      -0.984   0.356   0.077  1.00  0.00     0.164 A 
HETATM    3  C10 UNL     1      -1.982  -0.282  -0.602  1.00  0.00     0.047 A 
HETATM    4  S2  UNL     1      -1.370  -0.343  -2.190  1.00  0.00    -0.028 SA
HETATM    5  C15 UNL     1       0.114   0.441  -1.910  1.00  0.00     0.297 A 
HETATM    6  O2  UNL     1       1.054   0.709  -2.750  1.00  0.00    -0.259 OA
ENDROOT
BRANCH   1   7
HETATM    7  C8  UNL     1       1.247   1.416  -0.026  1.00  0.00     0.062 A 
HETATM    8  C3  UNL     1       2.181   0.669   0.658  1.00  0.00     0.029 A 
HETATM    9  C4  UNL     1       3.248   1.365   1.186  1.00  0.00     0.040 A 
HETATM   10  C5  UNL     1       3.377   2.729   1.041  1.00  0.00     0.012 A 
HETATM   11 BR1  UNL     1       4.860   3.691   1.773  1.00  0.00    -0.051 Br
HETATM   12  C6  UNL     1       2.436   3.435   0.359  1.00  0.00     0.021 A 
HETATM   13  C7  UNL     1       1.351   2.782  -0.186  1.00  0.00     0.033 A 
BRANCH   8  14
HETATM   14  S1  UNL     1       2.014  -1.095   0.848  1.00  0.00    -0.128 SA
BRANCH  14  15
HETATM   15  C2  UNL     1       2.828  -1.981  -0.513  1.00  0.00     0.075 C 
HETATM   16  C1  UNL     1       4.341  -1.771  -0.455  1.00  0.00     0.016 C 
ENDBRANCH  14  15
ENDBRANCH   8  14
ENDBRANCH   1   7
BRANCH   2  17
HETATM   17  O1  UNL     1      -1.118   0.608   1.483  1.00  0.00    -0.345 OA
ATOM     18  H1  UNL     1      -1.887   0.345   1.975  1.00  0.00     0.219 HD
ENDBRANCH   2  17
BRANCH   3  19
HETATM   19  C11 UNL     1      -3.297  -0.793  -0.049  1.00  0.00    -0.013 C 
HETATM   20  C12 UNL     1      -4.035  -1.417  -1.203  1.00  0.00     0.020 C 
HETATM   21  C13 UNL     1      -3.029  -1.717   1.090  1.00  0.00     0.020 C 
HETATM   22  C14 UNL     1      -4.152   0.376   0.427  1.00  0.00     0.020 C 
ENDBRANCH   3  19
TORSDOF 5
