REMARK  4 active torsions:
REMARK  status: ('A' for Active; 'I' for Inactive)
REMARK    1  A    between atoms: C2_2  and  N1_3 
REMARK       I    between atoms: N1_3  and  C3_4 
REMARK    2  A    between atoms: N1_3  and  C10_19 
REMARK    3  A    between atoms: C3_4  and  C4_6 
REMARK    4  A    between atoms: C10_19  and  C13_22 
ROOT
HETATM    1  N1  UNL     1       0.850  -0.806   0.778  1.00  0.00    -0.338 N 
HETATM    2  C3  UNL     1       1.580   0.376   0.605  1.00  0.00     0.271 C 
HETATM    3  O1  UNL     1       1.008   1.470   0.978  1.00  0.00    -0.266 OA
ENDROOT
BRANCH   1   4
HETATM    4  C2  UNL     1       1.434  -2.083   0.431  1.00  0.00     0.122 C 
HETATM    5  C1  UNL     1       1.270  -2.498  -0.993  1.00  0.00     0.026 C 
ENDBRANCH   1   4
BRANCH   1   6
HETATM    6  C10 UNL     1      -0.510  -0.716   1.314  1.00  0.00     0.034 C 
HETATM    7  C11 UNL     1      -1.044  -2.123   1.573  1.00  0.00     0.039 C 
HETATM    8  C12 UNL     1      -0.447  -0.058   2.709  1.00  0.00     0.039 C 
BRANCH   6   9
HETATM    9  C13 UNL     1      -1.457   0.112   0.537  1.00  0.00     0.047 C 
HETATM   10  C14 UNL     1      -1.686  -0.294  -0.898  1.00  0.00     0.011 C 
HETATM   11  C15 UNL     1      -2.592   0.688  -1.579  1.00  0.00     0.009 C 
HETATM   12  C16 UNL     1      -3.804   1.106  -0.841  1.00  0.00    -0.045 C 
HETATM   13  C17 UNL     1      -4.188   2.505  -1.352  1.00  0.00     0.015 C 
HETATM   14  C18 UNL     1      -5.013   0.235  -1.125  1.00  0.00     0.015 C 
HETATM   15  C19 UNL     1      -3.572   1.301   0.650  1.00  0.00     0.046 C 
HETATM   16  C20 UNL     1      -2.857   0.046   1.175  1.00  0.00     0.177 C 
HETATM   17  F1  UNL     1      -3.577  -1.004   0.607  1.00  0.00    -0.249 F 
ENDBRANCH   6   9
ENDBRANCH   1   6
BRANCH   2  18
HETATM   18  C4  UNL     1       2.920   0.522   0.047  1.00  0.00     0.103 A 
HETATM   19  C5  UNL     1       3.485   1.781  -0.040  1.00  0.00     0.067 A 
HETATM   20  C6  UNL     1       4.777   2.005  -0.567  1.00  0.00     0.071 A 
HETATM   21  N2  UNL     1       5.360   3.223  -0.666  1.00  0.00    -0.310 N 
HETATM   22  C7  UNL     1       5.507   0.967  -1.009  1.00  0.00     0.089 A 
HETATM   23  S1  UNL     1       6.853   2.907  -1.347  1.00  0.00     0.068 SA
ATOM     24  H2  UNL     1       4.976   4.126  -0.389  1.00  0.00     0.176 HD
HETATM   25  N3  UNL     1       6.721   1.244  -1.497  1.00  0.00    -0.309 N 
ATOM     26  H3  UNL     1       7.409   0.592  -1.874  1.00  0.00     0.176 HD
HETATM   27  C8  UNL     1       4.911  -0.304  -0.911  1.00  0.00     0.035 A 
HETATM   28  C9  UNL     1       5.664  -1.492  -1.382  1.00  0.00     0.070 C 
HETATM   29  N4  UNL     1       3.687  -0.476  -0.406  1.00  0.00    -0.353 N 
ATOM     30  H4  UNL     1       3.315  -1.425  -0.363  1.00  0.00     0.166 HD
ENDBRANCH   2  18
TORSDOF 4
