REMARK  5 active torsions:
REMARK  status: ('A' for Active; 'I' for Inactive)
REMARK    1  A    between atoms: C2_2  and  C3_3 
REMARK    2  A    between atoms: C3_3  and  C4_4 
REMARK    3  A    between atoms: C4_4  and  C5_5 
REMARK    4  A    between atoms: C5_5  and  C7_7 
REMARK    5  A    between atoms: N1_16  and  O1_18 
ROOT
HETATM    1  C7  UNL     1       1.935  -0.358   0.030  1.00  0.00    -0.002 C 
HETATM    2  C8  UNL     1       1.154  -0.167  -1.255  1.00  0.00     0.011 C 
HETATM    3  C9  UNL     1       0.188   0.586  -0.325  1.00  0.00    -0.001 C 
HETATM    4  C10 UNL     1      -1.207   0.638  -0.692  1.00  0.00    -0.004 C 
HETATM    5  C11 UNL     1      -1.908   1.771   0.008  1.00  0.00     0.007 C 
HETATM    6  C12 UNL     1      -3.376   1.924  -0.420  1.00  0.00     0.017 C 
HETATM    7  C13 UNL     1      -4.033   0.640  -0.115  1.00  0.00     0.019 C 
HETATM    8  C14 UNL     1      -4.191   0.320   1.326  1.00  0.00     0.023 C 
HETATM    9  C15 UNL     1      -5.213   0.185  -0.855  1.00  0.00     0.022 C 
HETATM   10  N1  UNL     1      -6.298   0.746  -1.254  1.00  0.00    -0.277 N 
ATOM     11  H1  UNL     1      -6.970   0.174  -1.765  1.00  0.00     0.193 HD
HETATM   12  C16 UNL     1      -4.531  -1.148  -0.886  1.00  0.00     0.082 C 
HETATM   13  C17 UNL     1      -3.310  -0.381  -0.993  1.00  0.00     0.058 C 
HETATM   14 CL1  UNL     1      -3.258   0.349  -2.656  1.00  0.00    -0.117 Cl
HETATM   15  C18 UNL     1      -1.982  -0.684  -0.573  1.00  0.00     0.015 C 
HETATM   16  C19 UNL     1      -1.669  -1.281   0.730  1.00  0.00     0.008 C 
HETATM   17  C20 UNL     1      -0.177  -1.681   0.672  1.00  0.00     0.010 C 
HETATM   18  C21 UNL     1       0.620  -0.444   0.723  1.00  0.00    -0.036 C 
HETATM   19  C22 UNL     1       0.705   0.170   2.091  1.00  0.00     0.016 C 
ENDROOT
BRANCH   1  20
HETATM   20  C5  UNL     1       2.946  -1.399   0.091  1.00  0.00    -0.014 C 
HETATM   21  C6  UNL     1       2.516  -2.810  -0.138  1.00  0.00     0.010 C 
BRANCH  20  22
HETATM   22  C4  UNL     1       3.996  -1.114  -0.975  1.00  0.00     0.005 C 
BRANCH  22  23
HETATM   23  C3  UNL     1       4.557   0.274  -0.896  1.00  0.00     0.000 C 
BRANCH  23  24
HETATM   24  C2  UNL     1       5.237   0.576   0.403  1.00  0.00    -0.005 C 
HETATM   25  C1  UNL     1       5.746   2.008   0.334  1.00  0.00     0.005 C 
ENDBRANCH  23  24
ENDBRANCH  22  23
ENDBRANCH  20  22
ENDBRANCH   1  20
BRANCH  10  26
HETATM   26  O1  UNL     1      -6.608   2.046  -1.041  1.00  0.00    -0.290 OA
ATOM     27  H1  UNL     1      -7.410   2.461  -1.336  1.00  0.00     0.244 HD
ENDBRANCH  10  26
TORSDOF 5
