REMARK  5 active torsions:
REMARK  status: ('A' for Active; 'I' for Inactive)
REMARK    1  A    between atoms: C2_2  and  C3_3 
REMARK    2  A    between atoms: C3_3  and  C4_4 
REMARK    3  A    between atoms: C12_12  and  C14_14 
REMARK    4  A    between atoms: C14_14  and  O1_16 
REMARK    5  A    between atoms: C14_14  and  C16_18 
ROOT
HETATM    1  C4  UNL     1      -2.890  -0.356   0.668  1.00  0.00    -0.054 C 
HETATM    2  C5  UNL     1      -2.984   0.602   1.616  1.00  0.00    -0.080 C 
HETATM    3  C6  UNL     1      -3.925   0.343   2.760  1.00  0.00     0.043 C 
HETATM    4  C7  UNL     1      -2.299   1.889   1.645  1.00  0.00     0.034 C 
HETATM    5  C8  UNL     1      -1.120   2.000   0.695  1.00  0.00     0.011 C 
HETATM    6  C9  UNL     1      -0.697   0.599   0.424  1.00  0.00     0.021 C 
HETATM    7  C10 UNL     1       0.562   0.341  -0.208  1.00  0.00     0.029 C 
HETATM    8  C11 UNL     1       1.732   1.222   0.139  1.00  0.00     0.049 C 
HETATM    9  C12 UNL     1       2.758   0.631  -0.840  1.00  0.00     0.089 C 
HETATM   10  C13 UNL     1       3.431   1.856  -1.475  1.00  0.00     0.049 C 
HETATM   11  O2  UNL     1       2.068  -0.129  -1.752  1.00  0.00    -0.366 OA
HETATM   12  C18 UNL     1       0.698   0.228  -1.684  1.00  0.00     0.062 C 
HETATM   13  C19 UNL     1       0.506   1.387  -2.558  1.00  0.00     0.046 C 
HETATM   14  C20 UNL     1      -0.232  -0.876  -2.085  1.00  0.00     0.040 C 
HETATM   15  C21 UNL     1      -1.276  -1.223  -1.057  1.00  0.00     0.034 C 
HETATM   16  C22 UNL     1      -1.874  -0.043  -0.366  1.00  0.00     0.065 C 
HETATM   17 CL1  UNL     1      -2.615   1.160  -1.409  1.00  0.00    -0.114 Cl
ENDROOT
BRANCH   9  18
HETATM   18  C14 UNL     1       3.868  -0.102  -0.146  1.00  0.00     0.085 C 
HETATM   19  C15 UNL     1       4.641   0.833   0.744  1.00  0.00     0.049 C 
BRANCH  18  20
HETATM   20  O1  UNL     1       4.749  -0.506  -1.172  1.00  0.00    -0.387 OA
ATOM     21  H1  UNL     1       5.452  -0.970  -0.733  1.00  0.00     0.210 HD
ENDBRANCH  18  20
BRANCH  18  22
HETATM   22  C16 UNL     1       3.451  -1.272   0.680  1.00  0.00     0.036 C 
HETATM   23  C17 UNL     1       4.704  -1.870   1.290  1.00  0.00     0.008 C 
ENDBRANCH  18  22
ENDBRANCH   9  18
BRANCH   1  24
HETATM   24  C3  UNL     1      -3.708  -1.538   0.842  1.00  0.00     0.036 C 
BRANCH  24  25
HETATM   25  C2  UNL     1      -4.963  -1.718   0.103  1.00  0.00    -0.000 C 
HETATM   26  C1  UNL     1      -5.003  -1.764  -1.364  1.00  0.00     0.005 C 
ENDBRANCH  24  25
ENDBRANCH   1  24
TORSDOF 5
