REMARK  6 active torsions:
REMARK  status: ('A' for Active; 'I' for Inactive)
REMARK       I    between atoms: C1_2  and  N1_3 
REMARK    1  A    between atoms: C1_2  and  S1_11 
REMARK    2  A    between atoms: N1_3  and  C2_5 
REMARK    3  A    between atoms: S1_11  and  C8_12 
REMARK    4  A    between atoms: C8_12  and  C17_21 
REMARK    5  A    between atoms: C9_13  and  C10_14 
REMARK    6  A    between atoms: C10_14  and  C11_15 
ROOT
HETATM    1  C8  UNL     1      -0.992   1.068  -1.103  1.00  0.00     0.016 C 
HETATM    2  C9  UNL     1      -2.253   0.602  -1.037  1.00  0.00    -0.007 C 
ENDROOT
BRANCH   1   3
HETATM    3  S1  UNL     1       0.352  -0.075  -1.080  1.00  0.00    -0.029 SA
BRANCH   3   4
HETATM    4  C1  UNL     1       1.691   0.425  -0.042  1.00  0.00     0.285 C 
HETATM    5  O1  UNL     1       1.531   1.376   0.776  1.00  0.00    -0.260 OA
HETATM    6  N1  UNL     1       2.964  -0.237  -0.104  1.00  0.00    -0.347 N 
ATOM      7  H1  UNL     1       3.095  -1.005  -0.763  1.00  0.00     0.163 HD
BRANCH   6   8
HETATM    8  C2  UNL     1       4.047   0.153   0.732  1.00  0.00     0.085 C 
HETATM    9  C3  UNL     1       4.545  -0.930   1.637  1.00  0.00     0.025 C 
HETATM   10  C4  UNL     1       5.577  -1.827   1.042  1.00  0.00     0.002 C 
HETATM   11  C5  UNL     1       5.739  -1.748  -0.434  1.00  0.00     0.000 C 
HETATM   12  C6  UNL     1       5.767  -0.364  -0.993  1.00  0.00     0.002 C 
HETATM   13  C7  UNL     1       5.225   0.677  -0.061  1.00  0.00     0.025 C 
ENDBRANCH   6   8
ENDBRANCH   3   4
ENDBRANCH   1   3
BRANCH   1  14
HETATM   14  C17 UNL     1      -0.754   2.500  -1.074  1.00  0.00    -0.019 A 
HETATM   15  C18 UNL     1      -1.702   3.416  -0.724  1.00  0.00     0.016 A 
HETATM   16  C19 UNL     1      -1.428   4.753  -0.799  1.00  0.00     0.043 A 
HETATM   17  C20 UNL     1      -0.207   5.259  -1.223  1.00  0.00     0.116 A 
HETATM   18  F1  UNL     1       0.024   6.598  -1.283  1.00  0.00    -0.206 F 
HETATM   19  C21 UNL     1       0.737   4.341  -1.572  1.00  0.00     0.043 A 
HETATM   20  C22 UNL     1       0.479   2.990  -1.503  1.00  0.00     0.016 A 
ENDBRANCH   1  14
BRANCH   2  21
HETATM   21  C10 UNL     1      -2.557  -0.828  -0.947  1.00  0.00     0.033 C 
BRANCH  21  22
HETATM   22  C11 UNL     1      -3.319  -1.209   0.294  1.00  0.00    -0.011 C 
HETATM   23  C12 UNL     1      -3.557  -2.707   0.246  1.00  0.00     0.005 C 
HETATM   24  C13 UNL     1      -4.962  -3.014  -0.248  1.00  0.00     0.000 C 
HETATM   25  C14 UNL     1      -5.920  -2.635   0.854  1.00  0.00     0.000 C 
HETATM   26  C15 UNL     1      -5.506  -1.282   1.394  1.00  0.00     0.000 C 
HETATM   27  C16 UNL     1      -4.651  -0.527   0.397  1.00  0.00     0.005 C 
ENDBRANCH  21  22
ENDBRANCH   2  21
TORSDOF 6
