REMARK  4 active torsions:
REMARK  status: ('A' for Active; 'I' for Inactive)
REMARK    1  A    between atoms: C2_2  and  C3_3 
REMARK    2  A    between atoms: C4_4  and  N1_5 
REMARK    3  A    between atoms: N1_5  and  C5_7 
REMARK    4  A    between atoms: N2_19  and  C16_20 
ROOT
HETATM    1  C3  UNL     1      -0.633  -0.383  -0.439  1.00  0.00     0.007 C 
HETATM    2  C4  UNL     1      -1.806  -0.763   0.447  1.00  0.00     0.131 C 
HETATM    3  C12 UNL     1      -1.406  -1.344   1.772  1.00  0.00     0.011 C 
HETATM    4  C13 UNL     1      -1.140  -2.823   1.763  1.00  0.00     0.012 C 
HETATM    5  C14 UNL     1      -0.245  -0.654   2.405  1.00  0.00     0.026 C 
HETATM    6  C15 UNL     1       0.269   0.471   1.565  1.00  0.00     0.123 C 
HETATM    7  N2  UNL     1       0.462   0.169   0.182  1.00  0.00    -0.381 N 
ENDROOT
BRANCH   2   8
HETATM    8  N1  UNL     1      -2.751   0.295   0.668  1.00  0.00    -0.379 N 
ATOM      9  H1  UNL     1      -2.691   0.743   1.582  1.00  0.00     0.160 HD
BRANCH   8  10
HETATM   10  C5  UNL     1      -3.737   0.803  -0.174  1.00  0.00     0.034 A 
HETATM   11  C6  UNL     1      -4.097   0.152  -1.321  1.00  0.00     0.033 A 
HETATM   12  C7  UNL     1      -5.123   0.661  -2.123  1.00  0.00     0.044 A 
HETATM   13  C8  UNL     1      -5.796   1.815  -1.790  1.00  0.00     0.117 A 
HETATM   14  F1  UNL     1      -6.798   2.323  -2.562  1.00  0.00    -0.206 F 
HETATM   15  C9  UNL     1      -5.434   2.470  -0.633  1.00  0.00     0.051 A 
HETATM   16  C10 UNL     1      -4.414   1.952   0.150  1.00  0.00    -0.033 A 
HETATM   17  C11 UNL     1      -4.052   2.692   1.386  1.00  0.00     0.050 C 
ENDBRANCH   8  10
ENDBRANCH   2   8
BRANCH   1  18
HETATM   18  C2  UNL     1      -0.545  -1.214  -1.658  1.00  0.00     0.050 C 
HETATM   19  C1  UNL     1      -0.457  -2.681  -1.561  1.00  0.00     0.011 C 
ENDBRANCH   1  18
BRANCH   7  20
HETATM   20  C16 UNL     1       1.777   0.115  -0.243  1.00  0.00     0.084 C 
HETATM   21  C17 UNL     1       2.458  -1.210  -0.230  1.00  0.00     0.025 C 
HETATM   22  C18 UNL     1       3.783  -1.277   0.476  1.00  0.00     0.002 C 
HETATM   23  C19 UNL     1       4.865  -0.695  -0.381  1.00  0.00     0.000 C 
HETATM   24  C20 UNL     1       5.436   0.529   0.304  1.00  0.00     0.000 C 
HETATM   25  C21 UNL     1       4.961   1.825  -0.278  1.00  0.00     0.000 C 
HETATM   26  C22 UNL     1       3.537   1.747  -0.779  1.00  0.00     0.002 C 
HETATM   27  C23 UNL     1       2.657   1.220   0.322  1.00  0.00     0.025 C 
ENDBRANCH   7  20
TORSDOF 4
