REMARK  3 active torsions:
REMARK  status: ('A' for Active; 'I' for Inactive)
REMARK    1  A    between atoms: C2_2  and  C4_4 
REMARK    2  A    between atoms: C6_6  and  O1_7 
REMARK    3  A    between atoms: C6_6  and  C7_9 
ROOT
HETATM    1  C4  UNL     1       2.085  -0.111   0.027  1.00  0.00     0.087 C 
HETATM    2  C5  UNL     1       1.479   1.039  -0.770  1.00  0.00     0.056 C 
HETATM    3  C6  UNL     1       0.015   1.280  -0.364  1.00  0.00     0.077 C 
HETATM    4  C8  UNL     1      -0.770   0.057  -0.573  1.00  0.00     0.044 C 
HETATM    5  C9  UNL     1      -2.245   0.168  -0.324  1.00  0.00    -0.040 C 
HETATM    6  C10 UNL     1      -3.049  -0.784  -1.231  1.00  0.00     0.015 C 
HETATM    7  C11 UNL     1      -2.828   1.522  -0.655  1.00  0.00     0.015 C 
HETATM    8  C12 UNL     1      -2.646  -0.156   1.089  1.00  0.00     0.009 C 
HETATM    9  C13 UNL     1      -1.851  -1.200   1.768  1.00  0.00     0.002 C 
HETATM   10  C14 UNL     1      -0.404  -1.303   1.447  1.00  0.00     0.017 C 
HETATM   11  C15 UNL     1      -0.176  -1.206  -0.020  1.00  0.00     0.025 C 
HETATM   12  C16 UNL     1      -0.714  -2.485  -0.621  1.00  0.00     0.024 C 
HETATM   13  C17 UNL     1       1.293  -1.256  -0.386  1.00  0.00     0.143 C 
HETATM   14  O2  UNL     1       1.782  -2.176  -0.978  1.00  0.00    -0.296 OA
ENDROOT
BRANCH   3  15
HETATM   15  O1  UNL     1      -0.392   2.213  -1.367  1.00  0.00    -0.388 OA
ATOM     16  H1  UNL     1      -1.296   2.362  -1.116  1.00  0.00     0.210 HD
ENDBRANCH   3  15
BRANCH   3  17
HETATM   17  C7  UNL     1       0.066   2.007   0.898  1.00  0.00     0.152 C 
HETATM   18 CL1  UNL     1       0.949   3.566   0.584  1.00  0.00    -0.127 Cl
ENDBRANCH   3  17
BRANCH   1  19
HETATM   19  C2  UNL     1       3.510  -0.077  -0.129  1.00  0.00    -0.082 C 
HETATM   20  C1  UNL     1       4.290  -0.987  -0.619  1.00  0.00     0.015 C 
HETATM   21  C3  UNL     1       4.190   1.205   0.345  1.00  0.00     0.043 C 
ENDBRANCH   1  19
TORSDOF 3
