REMARK  7 active torsions:
REMARK  status: ('A' for Active; 'I' for Inactive)
REMARK    1  A    between atoms: N1_4  and  C4_5 
REMARK    2  A    between atoms: C4_5  and  N2_7 
REMARK    3  A    between atoms: N2_7  and  C5_9 
REMARK    4  A    between atoms: N3_17  and  C14_19 
REMARK    5  A    between atoms: C14_19  and  C15_20 
REMARK    6  A    between atoms: C15_20  and  C16_21 
REMARK    7  A    between atoms: C16_21  and  C17_22 
ROOT
HETATM    1  C17 UNL     1      -6.239   1.905   0.739  1.00  0.00     0.124 C 
HETATM    2  C18 UNL     1      -5.491   3.129   0.863  1.00  0.00     0.059 C 
HETATM    3  N4  UNL     1      -4.898   4.116   0.980  1.00  0.00    -0.197 NA
ENDROOT
BRANCH   1   4
HETATM    4  C16 UNL     1      -5.412   0.680   1.038  1.00  0.00     0.016 C 
BRANCH   4   5
HETATM    5  C15 UNL     1      -4.231   0.543   0.111  1.00  0.00     0.029 C 
BRANCH   5   6
HETATM    6  C14 UNL     1      -3.489  -0.708   0.507  1.00  0.00     0.237 C 
BRANCH   6   7
HETATM    7  N3  UNL     1      -2.320  -0.968  -0.307  1.00  0.00    -0.064 N 
HETATM    8  C2  UNL     1      -1.396   0.134  -0.193  1.00  0.00     0.204 C 
HETATM    9  C1  UNL     1      -1.028   0.515   1.196  1.00  0.00     0.042 C 
HETATM   10  C3  UNL     1      -0.129  -0.219  -0.987  1.00  0.00     0.158 C 
HETATM   11  N1  UNL     1       0.504  -1.293  -0.249  1.00  0.00    -0.355 N 
HETATM   12  C11 UNL     1      -0.337  -2.285   0.347  1.00  0.00     0.153 C 
HETATM   13  C12 UNL     1      -1.780  -2.223   0.076  1.00  0.00     0.257 C 
HETATM   14  C13 UNL     1      -2.758  -1.002  -1.701  1.00  0.00     0.273 C 
BRANCH  11  15
HETATM   15  C4  UNL     1       1.901  -1.412  -0.093  1.00  0.00     0.170 C 
HETATM   16  S1  UNL     1       2.510  -2.653   0.755  1.00  0.00    -0.041 SA
BRANCH  15  17
HETATM   17  N2  UNL     1       2.794  -0.473  -0.659  1.00  0.00    -0.363 N 
ATOM     18  H2  UNL     1       2.412   0.307  -1.194  1.00  0.00     0.162 HD
BRANCH  17  19
HETATM   19  C5  UNL     1       4.236  -0.579  -0.507  1.00  0.00     0.083 C 
HETATM   20  C6  UNL     1       4.954   0.541  -1.216  1.00  0.00     0.025 C 
HETATM   21  C7  UNL     1       4.856   1.817  -0.431  1.00  0.00     0.002 C 
HETATM   22  C8  UNL     1       5.497   1.642   0.906  1.00  0.00     0.000 C 
HETATM   23  C9  UNL     1       5.882   0.186   1.135  1.00  0.00     0.002 C 
HETATM   24  C10 UNL     1       4.682  -0.704   0.912  1.00  0.00     0.025 C 
ENDBRANCH  17  19
ENDBRANCH  15  17
ENDBRANCH  11  15
ENDBRANCH   6   7
ENDBRANCH   5   6
ENDBRANCH   4   5
ENDBRANCH   1   4
TORSDOF 7
