REMARK  7 active torsions:
REMARK  status: ('A' for Active; 'I' for Inactive)
REMARK    1  A    between atoms: O1_2  and  C2_3 
REMARK    2  A    between atoms: C2_3  and  C3_4 
REMARK    3  A    between atoms: C4_5  and  C5_6 
REMARK    4  A    between atoms: N1_13  and  C13_15 
REMARK    5  A    between atoms: C13_15  and  C14_16 
REMARK       I    between atoms: C14_16  and  N2_18 
REMARK    6  A    between atoms: N2_18  and  C15_20 
REMARK    7  A    between atoms: C15_20  and  C16_21 
ROOT
HETATM    1  C2  UNL     1      -2.098  -0.587  -0.057  1.00  0.00     0.125 C 
HETATM    2  C9  UNL     1      -1.801  -1.956   0.432  1.00  0.00     0.053 C 
HETATM    3  C10 UNL     1      -0.329  -2.266   0.531  1.00  0.00     0.032 C 
HETATM    4  C11 UNL     1       0.234  -1.504   1.671  1.00  0.00     0.237 C 
HETATM    5  N1  UNL     1       0.873  -0.244   1.325  1.00  0.00    -0.062 N 
HETATM    6  C12 UNL     1       1.146   0.469   2.562  1.00  0.00     0.273 C 
HETATM    7  C19 UNL     1       0.069   0.581   0.485  1.00  0.00     0.241 C 
HETATM    8  C20 UNL     1      -1.412   0.485   0.772  1.00  0.00     0.079 C 
ENDROOT
BRANCH   5   9
HETATM    9  C13 UNL     1       2.121  -0.566   0.701  1.00  0.00     0.339 C 
BRANCH   9  10
HETATM   10  C14 UNL     1       3.060   0.554   0.517  1.00  0.00     0.243 C 
HETATM   11  O2  UNL     1       2.739   1.697   0.896  1.00  0.00    -0.272 OA
HETATM   12  N2  UNL     1       4.338   0.346  -0.091  1.00  0.00    -0.359 N 
ATOM     13  H2  UNL     1       4.610  -0.586  -0.404  1.00  0.00     0.162 HD
BRANCH  12  14
HETATM   14  C15 UNL     1       5.243   1.459  -0.261  1.00  0.00     0.126 C 
BRANCH  14  15
HETATM   15  C16 UNL     1       6.523   1.055  -0.908  1.00  0.00    -0.005 C 
HETATM   16  C17 UNL     1       7.247   0.016  -0.086  1.00  0.00     0.011 C 
HETATM   17  C18 UNL     1       6.369   0.659  -2.342  1.00  0.00     0.011 C 
ENDBRANCH  14  15
ENDBRANCH  12  14
ENDBRANCH   9  10
ENDBRANCH   5   9
BRANCH   1  18
HETATM   18  O1  UNL     1      -1.778  -0.425  -1.382  1.00  0.00    -0.372 OA
HETATM   19  C1  UNL     1      -2.412  -1.236  -2.275  1.00  0.00     0.204 C 
ENDBRANCH   1  18
BRANCH   1  20
HETATM   20  C3  UNL     1      -3.548  -0.359   0.165  1.00  0.00    -0.063 C 
HETATM   21  C4  UNL     1      -4.730  -0.185   0.366  1.00  0.00    -0.075 C 
BRANCH  21  22
HETATM   22  C5  UNL     1      -6.134   0.023   0.633  1.00  0.00     0.066 C 
HETATM   23  C6  UNL     1      -6.833   0.763  -0.210  1.00  0.00    -0.080 C 
HETATM   24  C7  UNL     1      -8.291   0.986   0.056  1.00  0.00     0.043 C 
HETATM   25  C8  UNL     1      -6.245   1.384  -1.408  1.00  0.00     0.043 C 
ENDBRANCH  21  22
ENDBRANCH   1  20
TORSDOF 7
