REMARK  7 active torsions:
REMARK  status: ('A' for Active; 'I' for Inactive)
REMARK    1  A    between atoms: N1_6  and  C6_7 
REMARK    2  A    between atoms: C6_7  and  O1_8 
REMARK    3  A    between atoms: C6_7  and  C7_10 
REMARK       I    between atoms: N2_14  and  C11_15 
REMARK    4  A    between atoms: C11_15  and  C12_17 
REMARK    5  A    between atoms: C12_17  and  C13_18 
REMARK    6  A    between atoms: C13_18  and  C14_19 
REMARK    7  A    between atoms: C14_19  and  C15_20 
ROOT
HETATM    1  C7  UNL     1      -2.833  -0.363  -2.467  1.00  0.00     0.161 C 
HETATM    2  C8  UNL     1      -3.706  -1.462  -3.064  1.00  0.00     0.035 C 
HETATM    3  C9  UNL     1      -2.817  -2.680  -2.956  1.00  0.00     0.022 C 
HETATM    4  C10 UNL     1      -2.104  -2.402  -1.631  1.00  0.00     0.127 C 
HETATM    5  N2  UNL     1      -1.725  -1.009  -1.859  1.00  0.00    -0.340 N 
HETATM    6  C11 UNL     1      -0.471  -0.449  -1.551  1.00  0.00     0.220 C 
HETATM    7  O2  UNL     1      -0.241   0.772  -1.833  1.00  0.00    -0.273 OA
ENDROOT
BRANCH   1   8
HETATM    8  C6  UNL     1      -3.609   0.580  -1.674  1.00  0.00     0.137 C 
BRANCH   8   9
HETATM    9  N1  UNL     1      -3.529   0.905  -0.321  1.00  0.00    -0.359 N 
HETATM   10  C2  UNL     1      -4.426   1.933   0.274  1.00  0.00     0.082 C 
HETATM   11  C1  UNL     1      -3.711   3.222   0.516  1.00  0.00     0.032 C 
HETATM   12  C3  UNL     1      -4.843   1.220   1.536  1.00  0.00     0.026 C 
HETATM   13  C4  UNL     1      -3.506   0.758   2.053  1.00  0.00     0.022 C 
HETATM   14  C5  UNL     1      -2.725   0.460   0.785  1.00  0.00     0.125 C 
ENDBRANCH   8   9
BRANCH   8  15
HETATM   15  O1  UNL     1      -4.530   1.227  -2.343  1.00  0.00    -0.348 OA
ATOM     16  H1  UNL     1      -4.585   1.005  -3.265  1.00  0.00     0.219 HD
ENDBRANCH   8  15
ENDBRANCH   1   8
BRANCH   6  17
HETATM   17  C12 UNL     1       0.618  -1.223  -0.902  1.00  0.00     0.103 C 
BRANCH  17  18
HETATM   18  C13 UNL     1       1.817  -0.351  -0.702  1.00  0.00     0.010 C 
BRANCH  18  19
HETATM   19  C14 UNL     1       2.922  -1.143  -0.042  1.00  0.00     0.005 C 
BRANCH  19  20
HETATM   20  C15 UNL     1       4.156  -0.310   0.183  1.00  0.00    -0.014 C 
HETATM   21  C16 UNL     1       3.834   0.872   1.079  1.00  0.00     0.004 C 
HETATM   22  C17 UNL     1       5.073   1.644   1.401  1.00  0.00     0.000 C 
HETATM   23  C18 UNL     1       6.162   0.793   1.974  1.00  0.00     0.000 C 
HETATM   24  C19 UNL     1       5.670  -0.646   2.160  1.00  0.00     0.000 C 
HETATM   25  C20 UNL     1       5.224  -1.156   0.805  1.00  0.00     0.004 C 
ENDBRANCH  19  20
ENDBRANCH  18  19
ENDBRANCH  17  18
ENDBRANCH   6  17
TORSDOF 7
