REMARK  5 active torsions:
REMARK  status: ('A' for Active; 'I' for Inactive)
REMARK       I    between atoms: C1_2  and  N1_3 
REMARK    1  A    between atoms: C1_2  and  C18_23 
REMARK    2  A    between atoms: N1_3  and  C2_5 
REMARK    3  A    between atoms: C2_5  and  C3_6 
REMARK    4  A    between atoms: C3_6  and  C4_7 
REMARK       I    between atoms: N2_13  and  C10_14 
REMARK    5  A    between atoms: C10_14  and  C11_16 
ROOT
HETATM    1  C4  UNL     1       0.482  -1.122  -0.279  1.00  0.00     0.012 C 
HETATM    2  C5  UNL     1      -0.288  -1.574  -1.506  1.00  0.00     0.032 C 
HETATM    3  C6  UNL     1      -1.451  -0.598  -1.620  1.00  0.00     0.088 C 
HETATM    4  C7  UNL     1      -0.865   0.665  -2.218  1.00  0.00     0.027 C 
HETATM    5  C8  UNL     1      -0.007   1.185  -1.067  1.00  0.00     0.028 C 
HETATM    6  C9  UNL     1      -0.210   0.178   0.059  1.00  0.00     0.091 C 
HETATM    7  N2  UNL     1      -1.574  -0.199  -0.242  1.00  0.00    -0.342 N 
HETATM    8  C10 UNL     1      -2.708  -0.191   0.566  1.00  0.00     0.225 C 
HETATM    9  O2  UNL     1      -2.591   0.209   1.778  1.00  0.00    -0.273 OA
ENDROOT
BRANCH   1  10
HETATM   10  C3  UNL     1       1.948  -0.993  -0.536  1.00  0.00     0.026 C 
BRANCH  10  11
HETATM   11  C2  UNL     1       2.713  -0.542   0.686  1.00  0.00     0.123 C 
BRANCH  11  12
HETATM   12  N1  UNL     1       4.129  -0.448   0.330  1.00  0.00    -0.361 N 
HETATM   13  C1  UNL     1       5.108  -0.049   1.267  1.00  0.00     0.221 C 
HETATM   14  O1  UNL     1       4.789   0.240   2.441  1.00  0.00    -0.273 OA
ATOM     15  H1  UNL     1       4.417  -0.677  -0.621  1.00  0.00     0.162 HD
BRANCH  13  16
HETATM   16  C18 UNL     1       6.524   0.031   0.858  1.00  0.00     0.078 C 
HETATM   17  C19 UNL     1       7.480   0.466   1.935  1.00  0.00     0.014 C 
HETATM   18  C20 UNL     1       8.147   1.364   0.904  1.00  0.00     0.002 C 
HETATM   19  C21 UNL     1       6.810   1.364   0.157  1.00  0.00     0.014 C 
ENDBRANCH  13  16
ENDBRANCH  11  12
ENDBRANCH  10  11
ENDBRANCH   1  10
BRANCH   8  20
HETATM   20  C11 UNL     1      -4.043  -0.612   0.125  1.00  0.00     0.082 C 
HETATM   21  C12 UNL     1      -4.607   0.232  -1.007  1.00  0.00     0.019 C 
HETATM   22  C13 UNL     1      -5.844   0.910  -0.460  1.00  0.00    -0.013 C 
HETATM   23  C14 UNL     1      -6.927  -0.105  -0.333  1.00  0.00     0.005 C 
HETATM   24  C17 UNL     1      -5.417   1.055   1.013  1.00  0.00     0.010 C 
HETATM   25  C15 UNL     1      -6.357  -1.064   0.709  1.00  0.00     0.006 C 
HETATM   26  C16 UNL     1      -5.073  -0.433   1.200  1.00  0.00    -0.001 C 
ENDBRANCH   8  20
TORSDOF 5
