REMARK  4 active torsions:
REMARK  status: ('A' for Active; 'I' for Inactive)
REMARK    1  A    between atoms: C10_11  and  O1_12 
REMARK    2  A    between atoms: C14_17  and  N2_18 
REMARK    3  A    between atoms: N2_18  and  N3_20 
REMARK    4  A    between atoms: N3_20  and  N4_21 
ROOT
HETATM    1  C1  UNL     1      -3.743  -0.779  -1.419  1.00  0.00     0.018 C 
HETATM    2  C2  UNL     1      -2.542  -0.301  -0.572  1.00  0.00    -0.016 C 
HETATM    3  C3  UNL     1      -2.103  -1.400   0.332  1.00  0.00     0.012 C 
HETATM    4  C4  UNL     1      -0.794  -2.016   0.033  1.00  0.00     0.008 C 
HETATM    5  C5  UNL     1       0.291  -1.151  -0.459  1.00  0.00     0.025 C 
HETATM    6  C6  UNL     1      -0.110   0.129  -1.100  1.00  0.00     0.229 C 
HETATM    7  C7  UNL     1      -1.511   0.103  -1.595  1.00  0.00     0.048 C 
HETATM    8  N1  UNL     1       0.232   1.208  -0.242  1.00  0.00     0.103 N 
HETATM    9  C8  UNL     1      -0.647   1.457   0.860  1.00  0.00     0.276 C 
HETATM   10  C9  UNL     1      -2.001   1.913   0.534  1.00  0.00     0.062 C 
HETATM   11  C10 UNL     1      -3.017   0.930   0.112  1.00  0.00     0.128 C 
HETATM   12  C11 UNL     1       1.509   0.778   0.311  1.00  0.00     0.162 C 
HETATM   13  C12 UNL     1       1.853   1.463   1.588  1.00  0.00     0.049 C 
HETATM   14  C13 UNL     1       2.636   0.846  -0.651  1.00  0.00     0.069 C 
HETATM   15  C14 UNL     1       3.411  -0.441  -0.453  1.00  0.00     0.117 C 
HETATM   16  C15 UNL     1       2.620  -1.296   0.493  1.00  0.00     0.035 C 
HETATM   17  C16 UNL     1       1.257  -0.688   0.624  1.00  0.00     0.032 C 
ENDROOT
BRANCH  15  18
HETATM   18  N2  UNL     1       4.730  -0.189   0.126  1.00  0.00    -0.248 N 
ATOM     19  H2  UNL     1       4.786   0.015   1.124  1.00  0.00     0.197 HD
BRANCH  18  20
HETATM   20  N3  UNL     1       5.761  -0.209  -0.511  1.00  0.00    -0.248 NA
BRANCH  20  21
HETATM   21  N4  UNL     1       6.841  -0.444  -1.056  1.00  0.00    -0.261 N 
ATOM     22  H42 UNL     1       6.886  -1.341  -0.572  1.00  0.00     0.193 HD
ATOM     23  H41 UNL     1       7.709  -0.461  -1.592  1.00  0.00     0.193 HD
ENDBRANCH  20  21
ENDBRANCH  18  20
ENDBRANCH  15  18
BRANCH  11  24
HETATM   24  O1  UNL     1      -3.933   0.615   1.144  1.00  0.00    -0.395 OA
ATOM     25  H1  UNL     1      -4.237   1.402   1.581  1.00  0.00     0.210 HD
ENDBRANCH  11  24
TORSDOF 4
