REMARK  2 active torsions:
REMARK  status: ('A' for Active; 'I' for Inactive)
REMARK    1  A    between atoms: C6_7  and  C7_8 
REMARK    2  A    between atoms: C7_8  and  N1_9 
REMARK       I    between atoms: N1_9  and  C8_11 
REMARK       I    between atoms: C8_11  and  N2_13 
ROOT
HETATM    1  C1  UNL     1      -4.333   1.435  -0.681  1.00  0.00     0.016 C 
HETATM    2  C2  UNL     1      -3.156   0.760  -0.010  1.00  0.00    -0.034 C 
HETATM    3  C3  UNL     1      -3.197   0.969   1.492  1.00  0.00     0.083 C 
HETATM    4  S1  UNL     1      -1.430   0.615   1.884  1.00  0.00    -0.163 SA
HETATM    5  C4  UNL     1      -0.803   0.630   0.175  1.00  0.00     0.058 C 
HETATM    6  C5  UNL     1      -1.876   1.389  -0.512  1.00  0.00     0.026 C 
HETATM    7  C6  UNL     1      -0.647  -0.809  -0.242  1.00  0.00    -0.008 C 
HETATM    8  C12 UNL     1      -0.840  -1.223  -1.626  1.00  0.00     0.013 C 
HETATM    9  C13 UNL     1      -1.648  -2.433  -1.087  1.00  0.00     0.006 C 
HETATM   10  C14 UNL     1      -2.009  -1.499   0.051  1.00  0.00    -0.003 C 
HETATM   11  C15 UNL     1      -3.182  -0.681  -0.353  1.00  0.00     0.015 C 
ENDROOT
BRANCH   7  12
HETATM   12  C7  UNL     1       0.375  -1.460   0.628  1.00  0.00     0.135 C 
BRANCH  12  13
HETATM   13  N1  UNL     1       1.642  -0.828   0.630  1.00  0.00    -0.342 N 
HETATM   14  C8  UNL     1       2.576  -0.600  -0.392  1.00  0.00     0.320 C 
HETATM   15  O1  UNL     1       2.476  -0.934  -1.594  1.00  0.00    -0.247 OA
HETATM   16  N2  UNL     1       3.788   0.089  -0.058  1.00  0.00    -0.311 N 
HETATM   17  C9  UNL     1       4.867   0.418  -0.961  1.00  0.00     0.156 C 
HETATM   18  C11 UNL     1       4.169   0.587   1.240  1.00  0.00     0.297 C 
HETATM   19  C10 UNL     1       5.579   1.516  -0.199  1.00  0.00     0.190 C 
HETATM   20  O2  UNL     1       5.462   1.021   1.117  1.00  0.00    -0.370 OA
ATOM     21  H1  UNL     1       1.929  -0.473   1.542  1.00  0.00     0.164 HD
ENDBRANCH  12  13
ENDBRANCH   7  12
TORSDOF 2
