REMARK  10 active torsions:
REMARK  status: ('A' for Active; 'I' for Inactive)
REMARK    1  A    between atoms: O1_2  and  C2_3 
REMARK    2  A    between atoms: C4_5  and  C5_6 
REMARK    3  A    between atoms: C5_6  and  N1_7 
REMARK    4  A    between atoms: C5_6  and  C18_36 
REMARK    5  A    between atoms: N1_7  and  C6_9 
REMARK    6  A    between atoms: C7_12  and  N3_13 
REMARK    7  A    between atoms: C12_23  and  N6_24 
REMARK    8  A    between atoms: C15_27  and  N7_28 
REMARK    9  A    between atoms: C23_44  and  O2_45 
REMARK   10  A    between atoms: C25_47  and  O3_48 
ROOT
HETATM    1  C6  UNL     1       0.323   0.704  -0.140  1.00  0.00     0.707 A 
HETATM    2  N2  UNL     1       0.882   1.810   0.357  1.00  0.00    -0.021 N 
ATOM      3  H2  UNL     1       0.286   2.625   0.502  1.00  0.00     0.203 HD
HETATM    4  C7  UNL     1       2.206   1.915   0.683  1.00  0.00     0.709 A 
HETATM    5  N5  UNL     1       2.936   0.822   0.473  1.00  0.00    -0.021 N 
ATOM      6  H5  UNL     1       3.930   0.845   0.699  1.00  0.00     0.203 HD
HETATM    7  C12 UNL     1       2.410  -0.318  -0.029  1.00  0.00     0.709 A 
HETATM    8  N8  UNL     1       1.096  -0.370  -0.335  1.00  0.00    -0.021 N 
ATOM      9  H8  UNL     1       0.693  -1.227  -0.714  1.00  0.00     0.203 HD
ENDROOT
BRANCH   1  10
HETATM   10  N1  UNL     1      -0.941   0.718  -0.409  1.00  0.00    -0.216 N 
ATOM     11  H1  UNL     1      -1.469   1.573  -0.233  1.00  0.00     0.178 HD
BRANCH  10  12
HETATM   12  C5  UNL     1      -1.638  -0.431  -0.950  1.00  0.00     0.139 C 
BRANCH  12  13
HETATM   13  C4  UNL     1      -2.810  -0.621  -0.017  1.00  0.00    -0.029 A 
HETATM   14  C3  UNL     1      -3.183  -1.808   0.506  1.00  0.00     0.049 A 
HETATM   15  C2  UNL     1      -4.293  -1.935   1.377  1.00  0.00     0.104 A 
HETATM   16  C25 UNL     1      -5.035  -0.772   1.708  1.00  0.00     0.135 A 
HETATM   17  C23 UNL     1      -4.639   0.414   1.167  1.00  0.00     0.104 A 
HETATM   18  C22 UNL     1      -3.557   0.514   0.323  1.00  0.00     0.049 A 
BRANCH  15  19
HETATM   19  O1  UNL     1      -4.638  -3.062   1.868  1.00  0.00    -0.353 OA
HETATM   20  C1  UNL     1      -4.769  -4.292   2.221  1.00  0.00     0.210 C 
ENDBRANCH  15  19
BRANCH  16  21
HETATM   21  O3  UNL     1      -6.129  -0.895   2.568  1.00  0.00    -0.351 OA
HETATM   22  C26 UNL     1      -7.387  -1.157   1.979  1.00  0.00     0.210 C 
ENDBRANCH  16  21
BRANCH  17  23
HETATM   23  O2  UNL     1      -5.372   1.545   1.499  1.00  0.00    -0.353 OA
HETATM   24  C24 UNL     1      -5.001   2.791   0.968  1.00  0.00     0.210 C 
ENDBRANCH  17  23
ENDBRANCH  12  13
BRANCH  12  25
HETATM   25  C18 UNL     1      -2.227  -0.187  -2.286  1.00  0.00     0.038 C 
HETATM   26  C19 UNL     1      -3.093  -1.288  -2.826  1.00  0.00     0.128 C 
HETATM   27  N9  UNL     1      -3.229  -0.883  -4.216  1.00  0.00    -0.381 N 
HETATM   28  C20 UNL     1      -2.226  -0.160  -4.583  1.00  0.00     0.089 C 
ATOM     29  H9  UNL     1      -4.012  -1.136  -4.819  1.00  0.00     0.160 HD
HETATM   30  N10 UNL     1      -1.998   0.420  -5.856  1.00  0.00    -0.088 NA
HETATM   31  C21 UNL     1      -1.276  -0.005  -3.424  1.00  0.00     0.081 C 
ENDBRANCH  12  25
ENDBRANCH  10  12
ENDBRANCH   1  10
BRANCH   4  32
HETATM   32  N3  UNL     1       2.710   3.128   1.219  1.00  0.00    -0.213 N 
HETATM   33  C8  UNL     1       1.786   4.202   1.508  1.00  0.00     0.168 C 
HETATM   34  C9  UNL     1       2.568   5.266   2.274  1.00  0.00     0.252 C 
HETATM   35  N4  UNL     1       3.601   5.745   1.399  1.00  0.00    -0.072 N 
HETATM   36  C10 UNL     1       4.525   4.726   0.995  1.00  0.00     0.252 C 
ATOM     37  H42 UNL     1       3.198   6.211   0.586  1.00  0.00     0.277 HD
ATOM     38  H41 UNL     1       4.093   6.533   1.819  1.00  0.00     0.277 HD
HETATM   39  C11 UNL     1       4.104   3.332   1.473  1.00  0.00     0.168 C 
ENDBRANCH   4  32
BRANCH   7  40
HETATM   40  N6  UNL     1       3.214  -1.469  -0.228  1.00  0.00    -0.217 N 
HETATM   41  C13 UNL     1       4.013  -1.650  -1.392  1.00  0.00     0.143 C 
HETATM   42  C14 UNL     1       4.712  -2.968  -1.394  1.00  0.00     0.053 C 
HETATM   43  C15 UNL     1       5.321  -3.377  -0.096  1.00  0.00     0.186 C 
HETATM   44  C16 UNL     1       4.675  -2.766   1.122  1.00  0.00     0.053 C 
HETATM   45  C17 UNL     1       3.221  -2.501   0.787  1.00  0.00     0.143 C 
BRANCH  43  46
HETATM   46  N7  UNL     1       6.778  -3.155  -0.064  1.00  0.00    -0.075 N 
ATOM     47  H73 UNL     1       7.238  -3.618  -0.848  1.00  0.00     0.274 HD
ATOM     48  H72 UNL     1       7.007  -2.187  -0.289  1.00  0.00     0.274 HD
ATOM     49  H71 UNL     1       7.195  -3.435   0.824  1.00  0.00     0.274 HD
ENDBRANCH  43  46
ENDBRANCH   7  40
TORSDOF 10
