REMARK  14 active torsions:
REMARK  status: ('A' for Active; 'I' for Inactive)
REMARK    1  A    between atoms: C2_2  and  C3_3 
REMARK    2  A    between atoms: C3_3  and  C4_5 
REMARK    3  A    between atoms: C4_5  and  O3_7 
REMARK    4  A    between atoms: O3_7  and  C5_8 
REMARK    5  A    between atoms: C6_9  and  O4_10 
REMARK    6  A    between atoms: C12_16  and  O5_17 
REMARK    7  A    between atoms: C15_20  and  O6_21 
REMARK    8  A    between atoms: C18_26  and  O8_27 
REMARK    9  A    between atoms: O8_27  and  C19_28 
REMARK   10  A    between atoms: C19_28  and  O9_30 
REMARK   11  A    between atoms: C19_28  and  C21_32 
REMARK   12  A    between atoms: C21_32  and  O10_33 
REMARK   13  A    between atoms: C21_32  and  O11_35 
REMARK   14  A    between atoms: C21_32  and  C22_37 
ROOT
HETATM    1  C5  UNL     1       3.151  -0.399   0.311  1.00  0.00     0.196 C 
HETATM    2  C6  UNL     1       2.056  -1.211  -0.440  1.00  0.00     0.158 C 
HETATM    3  C8  UNL     1       0.675  -0.764  -0.106  1.00  0.00     0.029 C 
HETATM    4  C9  UNL     1       0.276   0.621  -0.355  1.00  0.00     0.001 C 
HETATM    5  C10 UNL     1       1.346   1.505  -0.789  1.00  0.00     0.009 C 
HETATM    6  C11 UNL     1       2.171   1.767   0.496  1.00  0.00     0.042 C 
HETATM    7  C12 UNL     1       2.535   0.565   1.276  1.00  0.00     0.096 C 
HETATM    8  C14 UNL     1       1.553  -0.198   2.054  1.00  0.00     0.062 C 
HETATM    9  C15 UNL     1       0.470   0.372   2.893  1.00  0.00     0.160 C 
HETATM   10  C16 UNL     1      -0.590  -0.369   2.051  1.00  0.00     0.091 C 
HETATM   11  C17 UNL     1      -1.283  -1.380   2.991  1.00  0.00     0.049 C 
HETATM   12  O7  UNL     1      -1.512   0.322   1.400  1.00  0.00    -0.347 OA
HETATM   13  C18 UNL     1      -1.951  -0.071   0.129  1.00  0.00     0.269 C 
HETATM   14  C25 UNL     1      -1.081   0.558  -0.984  1.00  0.00     0.042 C 
HETATM   15  C26 UNL     1      -1.130  -0.218  -2.258  1.00  0.00     0.015 C 
HETATM   16  C27 UNL     1       0.521  -1.020   1.367  1.00  0.00     0.039 C 
ENDROOT
BRANCH  13  17
HETATM   17  O8  UNL     1      -3.193   0.453  -0.116  1.00  0.00    -0.320 OA
BRANCH  17  18
HETATM   18  C19 UNL     1      -4.264  -0.342  -0.291  1.00  0.00     0.218 C 
HETATM   19  C20 UNL     1      -4.324  -1.209  -1.498  1.00  0.00     0.085 C 
BRANCH  18  20
HETATM   20  O9  UNL     1      -4.412  -1.099   0.898  1.00  0.00    -0.361 OA
ATOM     21  H9  UNL     1      -5.168  -1.660   0.774  1.00  0.00     0.213 HD
ENDBRANCH  18  20
BRANCH  18  22
HETATM   22  C21 UNL     1      -5.478   0.602  -0.243  1.00  0.00     0.220 C 
BRANCH  22  23
HETATM   23  O10 UNL     1      -5.366   1.545  -1.269  1.00  0.00    -0.361 OA
ATOM     24  H10 UNL     1      -6.116   2.128  -1.239  1.00  0.00     0.213 HD
ENDBRANCH  22  23
BRANCH  22  25
HETATM   25  O11 UNL     1      -5.449   1.345   0.943  1.00  0.00    -0.361 OA
ATOM     26  H11 UNL     1      -6.199   1.928   0.973  1.00  0.00     0.213 HD
ENDBRANCH  22  25
BRANCH  22  27
HETATM   27  C22 UNL     1      -6.776  -0.069  -0.368  1.00  0.00     0.045 C 
HETATM   28  C23 UNL     1      -7.843   1.041  -0.296  1.00  0.00     0.015 C 
HETATM   29  C24 UNL     1      -7.144  -1.071   0.662  1.00  0.00     0.015 C 
ENDBRANCH  22  27
ENDBRANCH  18  22
ENDBRANCH  17  18
ENDBRANCH  13  17
BRANCH   9  30
HETATM   30  O6  UNL     1       0.470   0.020   4.246  1.00  0.00    -0.392 OA
ATOM     31  H6  UNL     1      -0.223   0.385   4.783  1.00  0.00     0.210 HD
ENDBRANCH   9  30
BRANCH   2  32
HETATM   32  O4  UNL     1       2.336  -1.285  -1.785  1.00  0.00    -0.388 OA
HETATM   33  C7  UNL     1       2.641  -2.564  -2.222  1.00  0.00     0.202 C 
ENDBRANCH   2  32
BRANCH   7  34
HETATM   34  O5  UNL     1       3.468   0.961   2.198  1.00  0.00    -0.382 OA
HETATM   35  C13 UNL     1       4.595   1.575   1.976  1.00  0.00     0.202 C 
ENDBRANCH   7  34
BRANCH   1  36
HETATM   36  O3  UNL     1       3.958   0.206  -0.694  1.00  0.00    -0.304 OA
BRANCH  36  37
HETATM   37  C4  UNL     1       5.256  -0.182  -0.952  1.00  0.00     0.329 C 
HETATM   38  O2  UNL     1       5.702  -1.135  -0.225  1.00  0.00    -0.256 OA
BRANCH  37  39
HETATM   39  C3  UNL     1       6.097   0.420  -1.968  1.00  0.00     0.223 C 
HETATM   40  O1  UNL     1       5.646   1.349  -2.666  1.00  0.00    -0.287 OA
BRANCH  39  41
HETATM   41  C2  UNL     1       7.473  -0.076  -2.161  1.00  0.00     0.085 C 
HETATM   42  C1  UNL     1       8.510   0.858  -1.544  1.00  0.00     0.013 C 
ENDBRANCH  39  41
ENDBRANCH  37  39
ENDBRANCH  36  37
ENDBRANCH   1  36
TORSDOF 14
