REMARK  13 active torsions:
REMARK  status: ('A' for Active; 'I' for Inactive)
REMARK    1  A    between atoms: C2_2  and  C3_3 
REMARK    2  A    between atoms: C3_3  and  O2_5 
REMARK    3  A    between atoms: O2_5  and  C4_6 
REMARK    4  A    between atoms: C5_7  and  O3_8 
REMARK    5  A    between atoms: O3_8  and  C6_9 
REMARK    6  A    between atoms: C8_12  and  O5_13 
REMARK    7  A    between atoms: C9_15  and  O6_16 
REMARK    8  A    between atoms: C10_18  and  O7_19 
REMARK    9  A    between atoms: C19_32  and  C20_33 
REMARK   10  A    between atoms: C20_33  and  O11_34 
REMARK   11  A    between atoms: C20_33  and  C21_36 
REMARK   12  A    between atoms: C21_36  and  C23_38 
REMARK   13  A    between atoms: C23_38  and  C25_40 
ROOT
HETATM    1  C4  UNL     1       1.118  -1.603   0.780  1.00  0.00     0.178 C 
HETATM    2  C5  UNL     1      -0.310  -1.328   0.454  1.00  0.00     0.218 C 
HETATM    3  C11 UNL     1       0.046   0.147   0.634  1.00  0.00     0.212 C 
HETATM    4  O8  UNL     1      -0.463   0.729   1.772  1.00  0.00    -0.292 OA
HETATM    5  C12 UNL     1      -1.256   1.536   0.927  1.00  0.00     0.287 C 
HETATM    6  C13 UNL     1      -2.725   1.299   1.039  1.00  0.00     0.103 C 
HETATM    7  C14 UNL     1      -3.519   2.559   1.285  1.00  0.00     0.014 C 
HETATM    8  C15 UNL     1      -2.953   3.423   2.387  1.00  0.00     0.011 C 
HETATM    9  C16 UNL     1      -3.049   4.867   1.888  1.00  0.00     0.012 C 
HETATM   10  C17 UNL     1      -1.483   3.104   2.500  1.00  0.00     0.127 C 
HETATM   11  C18 UNL     1      -0.696   4.214   3.135  1.00  0.00     0.040 C 
HETATM   12  O9  UNL     1      -1.040   2.887   1.174  1.00  0.00    -0.327 OA
HETATM   13  O10 UNL     1      -0.601   1.011  -0.176  1.00  0.00    -0.292 OA
HETATM   14  C19 UNL     1       1.490  -0.114   0.550  1.00  0.00     0.113 C 
ENDROOT
BRANCH   2  15
HETATM   15  O3  UNL     1      -0.791  -1.540  -0.771  1.00  0.00    -0.345 OA
BRANCH  15  16
HETATM   16  C6  UNL     1      -2.003  -2.080  -0.967  1.00  0.00     0.291 C 
HETATM   17  O4  UNL     1      -2.815  -1.286  -1.788  1.00  0.00    -0.356 OA
HETATM   18  C7  UNL     1      -4.122  -1.770  -1.660  1.00  0.00     0.205 C 
HETATM   19  C8  UNL     1      -4.228  -3.221  -1.999  1.00  0.00     0.173 C 
HETATM   20  C9  UNL     1      -2.941  -3.772  -2.556  1.00  0.00     0.182 C 
HETATM   21  C10 UNL     1      -1.766  -3.433  -1.670  1.00  0.00     0.204 C 
BRANCH  19  22
HETATM   22  O5  UNL     1      -4.511  -3.976  -0.843  1.00  0.00    -0.391 OA
ATOM     23  H5  UNL     1      -4.578  -4.899  -1.059  1.00  0.00     0.210 HD
ENDBRANCH  19  22
BRANCH  20  24
HETATM   24  O6  UNL     1      -2.686  -3.336  -3.851  1.00  0.00    -0.390 OA
ATOM     25  H6  UNL     1      -1.875  -3.683  -4.202  1.00  0.00     0.210 HD
ENDBRANCH  20  24
BRANCH  21  26
HETATM   26  O7  UNL     1      -0.640  -3.351  -2.494  1.00  0.00    -0.388 OA
ATOM     27  H7  UNL     1      -0.494  -4.184  -2.927  1.00  0.00     0.210 HD
ENDBRANCH  21  26
ENDBRANCH  15  16
ENDBRANCH   2  15
BRANCH   1  28
HETATM   28  O2  UNL     1       1.248  -2.010   2.130  1.00  0.00    -0.312 OA
BRANCH  28  29
HETATM   29  C3  UNL     1       2.049  -3.089   2.465  1.00  0.00     0.258 C 
HETATM   30  O1  UNL     1       2.645  -3.685   1.560  1.00  0.00    -0.265 OA
BRANCH  29  31
HETATM   31  C2  UNL     1       2.151  -3.477   3.897  1.00  0.00     0.106 C 
HETATM   32  C1  UNL     1       1.330  -2.588   4.780  1.00  0.00     0.015 C 
ENDBRANCH  29  31
ENDBRANCH  28  29
ENDBRANCH   1  28
BRANCH  14  33
HETATM   33  C20 UNL     1       2.213   0.095  -0.744  1.00  0.00     0.134 C 
BRANCH  33  34
HETATM   34  O11 UNL     1       1.523  -0.233  -1.878  1.00  0.00    -0.395 OA
ATOM     35  H11 UNL     1       1.982  -0.100  -2.699  1.00  0.00     0.210 HD
ENDBRANCH  33  34
BRANCH  33  36
HETATM   36  C21 UNL     1       2.927   1.381  -0.877  1.00  0.00     0.015 C 
HETATM   37  C22 UNL     1       2.130   2.631  -0.785  1.00  0.00     0.013 C 
BRANCH  36  38
HETATM   38  C23 UNL     1       3.757   1.470  -2.139  1.00  0.00    -0.013 C 
HETATM   39  C24 UNL     1       2.967   1.331  -3.396  1.00  0.00     0.010 C 
BRANCH  38  40
HETATM   40  C25 UNL     1       4.905   0.504  -2.161  1.00  0.00     0.000 C 
HETATM   41  C26 UNL     1       5.663   0.680  -3.462  1.00  0.00     0.005 C 
ENDBRANCH  38  40
ENDBRANCH  36  38
ENDBRANCH  33  36
ENDBRANCH  14  33
TORSDOF 13
