REMARK  13 active torsions:
REMARK  status: ('A' for Active; 'I' for Inactive)
REMARK    1  A    between atoms: C2_2  and  C3_3 
REMARK    2  A    between atoms: C3_3  and  S1_5 
REMARK    3  A    between atoms: S1_5  and  C5_6 
REMARK    4  A    between atoms: C5_6  and  O1_7 
REMARK    5  A    between atoms: C6_9  and  O2_11 
REMARK    6  A    between atoms: C8_13  and  O3_14 
REMARK    7  A    between atoms: C11_17  and  O4_18 
REMARK    8  A    between atoms: O4_18  and  C12_19 
REMARK    9  A    between atoms: C17_27  and  O8_28 
REMARK   10  A    between atoms: C19_31  and  O9_32 
REMARK   11  A    between atoms: C19_31  and  C20_34 
REMARK   12  A    between atoms: C23_37  and  O10_38 
REMARK   13  A    between atoms: O10_38  and  C24_39 
ROOT
HETATM    1  C5  UNL     1       2.357  -0.489  -0.703  1.00  0.00     0.197 C 
HETATM    2  C6  UNL     1       1.779   0.644  -1.456  1.00  0.00     0.133 C 
HETATM    3  C7  UNL     1       2.109   2.021  -0.937  1.00  0.00     0.053 C 
HETATM    4  C8  UNL     1       0.277   0.450  -1.534  1.00  0.00     0.117 A 
HETATM    5  C10 UNL     1      -0.506   0.646  -0.292  1.00  0.00     0.088 A 
HETATM    6  C11 UNL     1      -2.034   0.504  -0.495  1.00  0.00     0.166 C 
HETATM    7  C14 UNL     1      -2.129  -0.609  -1.482  1.00  0.00     0.179 C 
HETATM    8  O6  UNL     1      -2.791  -0.690  -2.481  1.00  0.00    -0.293 OA
HETATM    9  C15 UNL     1      -1.158  -1.618  -0.877  1.00  0.00     0.092 C 
HETATM   10  C16 UNL     1      -0.422  -2.453  -1.809  1.00  0.00     0.193 C 
HETATM   11  O7  UNL     1       0.973  -2.284  -1.598  1.00  0.00    -0.350 OA
HETATM   12  C17 UNL     1       1.139  -1.428  -0.523  1.00  0.00     0.219 C 
HETATM   13  C18 UNL     1      -0.052  -0.647  -0.508  1.00  0.00     0.084 A 
HETATM   14  C19 UNL     1      -1.926  -2.195   0.230  1.00  0.00     0.078 C 
HETATM   15  C22 UNL     1      -1.892  -1.154   1.343  1.00  0.00     0.075 C 
HETATM   16  C23 UNL     1      -2.675   0.054   0.784  1.00  0.00     0.178 C 
ENDROOT
BRANCH   1  17
HETATM   17  S1  UNL     1       2.907  -0.060   0.931  1.00  0.00    -0.118 SA
BRANCH  17  18
HETATM   18  C3  UNL     1       4.396   0.906   1.049  1.00  0.00     0.046 C 
HETATM   19  C4  UNL     1       4.650   1.289   2.512  1.00  0.00     0.021 C 
BRANCH  18  20
HETATM   20  C2  UNL     1       5.631   0.148   0.592  1.00  0.00     0.010 C 
HETATM   21  C1  UNL     1       5.860  -1.092   1.428  1.00  0.00     0.006 C 
ENDBRANCH  18  20
ENDBRANCH  17  18
ENDBRANCH   1  17
BRANCH   1  22
HETATM   22  O1  UNL     1       3.280  -1.270  -1.408  1.00  0.00    -0.371 OA
ATOM     23  H1  UNL     1       2.986  -1.499  -2.282  1.00  0.00     0.212 HD
ENDBRANCH   1  22
BRANCH   2  24
HETATM   24  O2  UNL     1       2.365   0.557  -2.749  1.00  0.00    -0.383 OA
ATOM     25  H2  UNL     1       1.994   1.285  -3.233  1.00  0.00     0.210 HD
ENDBRANCH   2  24
BRANCH  12  26
HETATM   26  O8  UNL     1       1.498  -2.172   0.593  1.00  0.00    -0.361 OA
ATOM     27  H8  UNL     1       0.751  -2.748   0.703  1.00  0.00     0.213 HD
ENDBRANCH  12  26
BRANCH   4  28
HETATM   28  O3  UNL     1      -0.262   0.508  -2.763  1.00  0.00    -0.380 OA
HETATM   29  C9  UNL     1      -0.140   1.704  -3.410  1.00  0.00     0.202 C 
ENDBRANCH   4  28
BRANCH   6  30
HETATM   30  O4  UNL     1      -2.498   1.716  -0.973  1.00  0.00    -0.299 OA
BRANCH  30  31
HETATM   31  C12 UNL     1      -3.794   2.032  -1.319  1.00  0.00     0.256 C 
HETATM   32  C13 UNL     1      -4.075   3.409  -1.807  1.00  0.00     0.126 C 
HETATM   33  O5  UNL     1      -4.664   1.160  -1.207  1.00  0.00    -0.266 OA
ENDBRANCH  30  31
ENDBRANCH   6  30
BRANCH  14  34
HETATM   34  O9  UNL     1      -3.314  -2.166  -0.165  1.00  0.00    -0.388 OA
ATOM     35  H9  UNL     1      -3.812  -2.540   0.553  1.00  0.00     0.210 HD
ENDBRANCH  14  34
BRANCH  14  36
HETATM   36  C20 UNL     1      -1.702  -3.576   0.675  1.00  0.00     0.035 C 
HETATM   37  C21 UNL     1      -2.659  -3.904   1.845  1.00  0.00     0.008 C 
ENDBRANCH  14  36
BRANCH  16  38
HETATM   38  O10 UNL     1      -2.703   1.075   1.765  1.00  0.00    -0.313 OA
BRANCH  38  39
HETATM   39  C24 UNL     1      -3.894   1.395   2.378  1.00  0.00     0.255 C 
HETATM   40  C25 UNL     1      -3.957   2.474   3.417  1.00  0.00     0.126 C 
HETATM   41  O11 UNL     1      -4.973   0.828   2.119  1.00  0.00    -0.266 OA
ENDBRANCH  38  39
ENDBRANCH  16  38
TORSDOF 13
