REMARK  10 active torsions:
REMARK  status: ('A' for Active; 'I' for Inactive)
REMARK    1  A    between atoms: C3_3  and  O1_4 
REMARK    2  A    between atoms: C4_6  and  O2_7 
REMARK    3  A    between atoms: C6_10  and  O3_11 
REMARK    4  A    between atoms: O3_11  and  C7_12 
REMARK    5  A    between atoms: C7_12  and  C8_13 
REMARK    6  A    between atoms: C8_13  and  O4_14 
REMARK    7  A    between atoms: C11_21  and  C12_22 
REMARK    8  A    between atoms: C12_22  and  C14_25 
REMARK    9  A    between atoms: C14_25  and  O7_27 
REMARK   10  A    between atoms: N3_29  and  O8_30 
ROOT
HETATM    1  C12 UNL     1       4.458  -0.067   0.611  1.00  0.00     0.165 C 
HETATM    2  C13 UNL     1       5.050   0.688  -0.528  1.00  0.00     0.110 C 
HETATM    3  N2  UNL     1       5.488   1.273  -1.416  1.00  0.00    -0.191 NA
ENDROOT
BRANCH   1   4
HETATM    4  C11 UNL     1       3.154  -0.189   0.587  1.00  0.00     0.164 A 
HETATM    5  N1  UNL     1       2.329   0.321  -0.393  1.00  0.00    -0.332 N 
HETATM    6  C10 UNL     1       1.065   0.059  -0.178  1.00  0.00     0.140 A 
ATOM      7  H1  UNL     1       2.668   0.846  -1.199  1.00  0.00     0.168 HD
HETATM    8  C9  UNL     1      -0.075   0.307  -0.782  1.00  0.00     0.121 A 
HETATM    9  C16 UNL     1       1.072  -0.673   1.026  1.00  0.00     0.303 A 
HETATM   10  C2  UNL     1      -0.279   1.022  -1.991  1.00  0.00     0.027 A 
HETATM   11  O5  UNL     1      -1.254  -0.189  -0.169  1.00  0.00    -0.302 OA
HETATM   12  C1  UNL     1       0.661   1.556  -2.707  1.00  0.00     0.029 C 
HETATM   13  C3  UNL     1      -1.660   1.207  -2.533  1.00  0.00     0.114 A 
HETATM   14  C4  UNL     1      -2.697   0.719  -1.909  1.00  0.00     0.136 A 
HETATM   15  C5  UNL     1      -2.519  -0.018  -0.667  1.00  0.00     0.134 A 
HETATM   16  C6  UNL     1      -3.594  -0.509  -0.044  1.00  0.00     0.174 C 
HETATM   17  N3  UNL     1       2.345  -0.791   1.437  1.00  0.00    -0.167 N 
HETATM   18  O9  UNL     1       0.083  -1.144   1.631  1.00  0.00    -0.263 OA
BRANCH  13  19
HETATM   19  O1  UNL     1      -1.872   1.911  -3.726  1.00  0.00    -0.357 OA
ATOM     20  H1  UNL     1      -2.750   2.029  -4.070  1.00  0.00     0.217 HD
ENDBRANCH  13  19
BRANCH  14  21
HETATM   21  O2  UNL     1      -3.991   0.890  -2.411  1.00  0.00    -0.356 OA
ATOM     22  H2  UNL     1      -4.746   0.535  -1.957  1.00  0.00     0.218 HD
ENDBRANCH  14  21
BRANCH  16  23
HETATM   23  O3  UNL     1      -4.847  -0.327  -0.558  1.00  0.00    -0.358 OA
BRANCH  23  24
HETATM   24  C7  UNL     1      -5.997  -0.094   0.253  1.00  0.00     0.200 C 
BRANCH  24  25
HETATM   25  C8  UNL     1      -6.226  -1.255   1.201  1.00  0.00     0.190 C 
BRANCH  25  26
HETATM   26  O4  UNL     1      -7.352  -1.000   1.979  1.00  0.00    -0.399 OA
ATOM     27  H4  UNL     1      -7.495  -1.727   2.573  1.00  0.00     0.209 HD
ENDBRANCH  25  26
ENDBRANCH  24  25
ENDBRANCH  23  24
ENDBRANCH  16  23
BRANCH  17  28
HETATM   28  O8  UNL     1       2.645  -1.473   2.610  1.00  0.00    -0.278 OA
ATOM     29  H8  UNL     1       2.062  -1.907   3.222  1.00  0.00     0.245 HD
ENDBRANCH  17  28
ENDBRANCH   1   4
BRANCH   1  30
HETATM   30  C14 UNL     1       5.404  -0.551   1.568  1.00  0.00     0.307 C 
HETATM   31  O6  UNL     1       5.187  -1.200   2.597  1.00  0.00    -0.258 OA
BRANCH  30  32
HETATM   32  O7  UNL     1       6.797  -0.291   1.380  1.00  0.00    -0.322 OA
HETATM   33  C15 UNL     1       7.734  -0.767   2.323  1.00  0.00     0.213 C 
ENDBRANCH  30  32
ENDBRANCH   1  30
TORSDOF 10
