REMARK  9 active torsions:
REMARK  status: ('A' for Active; 'I' for Inactive)
REMARK    1  A    between atoms: C3_3  and  C4_4 
REMARK    2  A    between atoms: C4_4  and  O1_5 
REMARK    3  A    between atoms: C8_13  and  C9_14 
REMARK    4  A    between atoms: C9_14  and  O5_15 
REMARK    5  A    between atoms: C9_14  and  C10_17 
REMARK    6  A    between atoms: C10_17  and  O6_18 
REMARK    7  A    between atoms: C10_17  and  C11_20 
REMARK    8  A    between atoms: C14_25  and  O9_26 
REMARK    9  A    between atoms: C17_30  and  O10_31 
ROOT
HETATM    1  C9  UNL     1       0.399  -1.168  -0.003  1.00  0.00     0.181 C 
ENDROOT
BRANCH   1   2
HETATM    2  C8  UNL     1       1.830  -1.426   0.286  1.00  0.00     0.197 C 
HETATM    3  C6  UNL     1       2.804  -0.788  -0.642  1.00  0.00     0.147 A 
HETATM    4  C2  UNL     1       4.215  -0.912  -0.250  1.00  0.00    -0.011 A 
HETATM    5  C5  UNL     1       2.961   0.676  -0.693  1.00  0.00     0.206 A 
HETATM    6  O3  UNL     1       2.461  -1.421  -1.841  1.00  0.00    -0.346 OA
HETATM    7  C1  UNL     1       5.051  -1.873   0.040  1.00  0.00     0.021 C 
HETATM    8  C3  UNL     1       4.316   0.551  -0.312  1.00  0.00     0.138 A 
HETATM    9  O2  UNL     1       3.425   1.320   0.423  1.00  0.00    -0.358 OA
HETATM   10  C7  UNL     1       2.266  -2.730  -1.475  1.00  0.00     0.340 C 
HETATM   11  O4  UNL     1       2.050  -2.784  -0.123  1.00  0.00    -0.356 OA
BRANCH   8  12
HETATM   12  C4  UNL     1       5.500   1.261  -0.852  1.00  0.00     0.209 C 
BRANCH  12  13
HETATM   13  O1  UNL     1       6.217   1.794   0.239  1.00  0.00    -0.397 OA
ATOM     14  H1  UNL     1       6.976   2.249  -0.107  1.00  0.00     0.209 HD
ENDBRANCH  12  13
ENDBRANCH   8  12
ENDBRANCH   1   2
BRANCH   1  15
HETATM   15  O5  UNL     1       0.142  -1.268  -1.355  1.00  0.00    -0.390 OA
ATOM     16  H5  UNL     1      -0.775  -1.103  -1.540  1.00  0.00     0.210 HD
ENDBRANCH   1  15
BRANCH   1  17
HETATM   17  C10 UNL     1      -0.235  -0.000   0.683  1.00  0.00     0.181 C 
BRANCH  17  18
HETATM   18  O6  UNL     1       0.093   1.238   0.179  1.00  0.00    -0.390 OA
ATOM     19  H6  UNL     1      -0.310   1.980   0.615  1.00  0.00     0.210 HD
ENDBRANCH  17  18
BRANCH  17  20
HETATM   20  C11 UNL     1      -1.758  -0.164   0.776  1.00  0.00     0.187 C 
HETATM   21  O7  UNL     1      -2.277  -0.029  -0.494  1.00  0.00    -0.348 OA
HETATM   22  C12 UNL     1      -2.783   1.237  -0.651  1.00  0.00     0.289 C 
HETATM   23  O8  UNL     1      -2.560   1.934   0.522  1.00  0.00    -0.348 OA
HETATM   24  C17 UNL     1      -4.272   1.164  -0.894  1.00  0.00     0.173 C 
HETATM   25  C13 UNL     1      -2.343   0.996   1.516  1.00  0.00     0.185 C 
HETATM   26  C14 UNL     1      -3.588   0.649   2.288  1.00  0.00     0.150 C 
HETATM   27  C15 UNL     1      -4.815   1.077   1.521  1.00  0.00     0.037 C 
HETATM   28  C16 UNL     1      -4.948   0.360   0.207  1.00  0.00     0.039 C 
BRANCH  26  29
HETATM   29  O9  UNL     1      -3.626  -0.669   2.693  1.00  0.00    -0.393 OA
ATOM     30  H9  UNL     1      -4.412  -0.888   3.180  1.00  0.00     0.210 HD
ENDBRANCH  26  29
BRANCH  24  31
HETATM   31  O10 UNL     1      -4.483   0.504  -2.089  1.00  0.00    -0.391 OA
ATOM     32  H10 UNL     1      -5.420   0.458  -2.242  1.00  0.00     0.210 HD
ENDBRANCH  24  31
ENDBRANCH  17  20
ENDBRANCH   1  17
TORSDOF 9
