REMARK  0 active torsions:
REMARK  status: ('A' for Active; 'I' for Inactive)
ROOT
HETATM    1  C1  UNL     1       1.921   0.128  -0.079  1.00  0.00     0.040 C 
HETATM    2  C2  UNL     1       0.466   0.147  -0.349  1.00  0.00     0.186 C 
HETATM    3  C3  UNL     1      -0.324  -1.098  -0.125  1.00  0.00     0.077 C 
HETATM    4  C4  UNL     1      -1.393  -0.075   0.288  1.00  0.00     0.260 C 
HETATM    5  S1  UNL     1      -2.120   0.799  -1.105  1.00  0.00    -0.062 SA
HETATM    6  N1  UNL     1      -0.253   0.703   0.810  1.00  0.00    -0.057 N 
ATOM      7  H11 UNL     1      -0.310   1.705   0.992  1.00  0.00     0.279 HD
ATOM      8  H12 UNL     1       0.087   0.604   1.766  1.00  0.00     0.279 HD
ENDROOT
TORSDOF 0
