REMARK  8 active torsions:
REMARK  status: ('A' for Active; 'I' for Inactive)
REMARK    1  A    between atoms: C9_9  and  O1_10 
REMARK    2  A    between atoms: C11_13  and  O2_14 
REMARK    3  A    between atoms: O2_14  and  C12_15 
REMARK    4  A    between atoms: C12_15  and  C13_17 
REMARK    5  A    between atoms: C13_17  and  C14_18 
REMARK    6  A    between atoms: C14_18  and  C15_19 
REMARK    7  A    between atoms: C15_19  and  C16_20 
REMARK    8  A    between atoms: C16_20  and  C17_21 
ROOT
HETATM    1  C1  UNL     1      -5.494  -2.292  -0.665  1.00  0.00     0.015 C 
HETATM    2  C2  UNL     1      -5.235  -0.836  -0.300  1.00  0.00    -0.040 C 
HETATM    3  C3  UNL     1      -6.319  -0.336   0.637  1.00  0.00     0.010 C 
HETATM    4  C4  UNL     1      -5.365  -0.667   1.786  1.00  0.00     0.006 C 
HETATM    5  C5  UNL     1      -4.207  -0.751   0.778  1.00  0.00    -0.002 C 
HETATM    6  C6  UNL     1      -3.400   0.536   0.739  1.00  0.00    -0.005 C 
HETATM    7  C7  UNL     1      -2.438   0.512   1.878  1.00  0.00     0.008 C 
HETATM    8  C8  UNL     1      -1.129  -0.108   1.617  1.00  0.00     0.039 C 
HETATM    9  C9  UNL     1      -0.726  -0.237   0.189  1.00  0.00     0.068 C 
HETATM   10  C10 UNL     1       0.774  -0.210   0.110  1.00  0.00     0.071 C 
HETATM   11  C11 UNL     1       1.380   1.154   0.250  1.00  0.00     0.134 C 
HETATM   12  C18 UNL     1       0.747   2.189  -0.625  1.00  0.00     0.033 C 
HETATM   13  C19 UNL     1      -0.761   2.128  -0.376  1.00  0.00     0.015 C 
HETATM   14  C20 UNL     1      -1.340   0.786  -0.694  1.00  0.00    -0.009 C 
HETATM   15  C21 UNL     1      -0.948   0.478  -2.146  1.00  0.00     0.019 C 
HETATM   16  C22 UNL     1      -2.829   0.854  -0.587  1.00  0.00     0.001 C 
HETATM   17  C23 UNL     1      -3.425  -0.024  -1.699  1.00  0.00     0.007 C 
HETATM   18  C24 UNL     1      -4.943   0.046  -1.477  1.00  0.00     0.010 C 
ENDROOT
BRANCH  11  19
HETATM   19  O2  UNL     1       2.755   0.974   0.039  1.00  0.00    -0.316 OA
BRANCH  19  20
HETATM   20  C12 UNL     1       3.751   1.146   0.936  1.00  0.00     0.259 C 
HETATM   21  O3  UNL     1       3.478   1.500   2.084  1.00  0.00    -0.265 OA
BRANCH  20  22
HETATM   22  C13 UNL     1       5.159   0.912   0.543  1.00  0.00     0.111 C 
BRANCH  22  23
HETATM   23  C14 UNL     1       5.625  -0.463   1.016  1.00  0.00     0.010 C 
BRANCH  23  24
HETATM   24  C15 UNL     1       7.046  -0.750   0.648  1.00  0.00     0.011 C 
BRANCH  24  25
HETATM   25  C16 UNL     1       7.281  -0.724  -0.827  1.00  0.00     0.113 C 
BRANCH  25  26
HETATM   26  C17 UNL     1       8.713  -1.022  -1.095  1.00  0.00     0.172 C 
HETATM   27  O4  UNL     1       9.508  -1.244  -0.155  1.00  0.00    -0.648 OA
HETATM   28  O5  UNL     1       9.195  -1.059  -2.392  1.00  0.00    -0.648 OA
ENDBRANCH  25  26
ENDBRANCH  24  25
ENDBRANCH  23  24
ENDBRANCH  22  23
ENDBRANCH  20  22
ENDBRANCH  19  20
ENDBRANCH  11  19
BRANCH   9  29
HETATM   29  O1  UNL     1      -1.077  -1.505  -0.341  1.00  0.00    -0.389 OA
ATOM     30  H1  UNL     1      -0.820  -1.587  -1.252  1.00  0.00     0.210 HD
ENDBRANCH   9  29
TORSDOF 8
