REMARK  7 active torsions:
REMARK  status: ('A' for Active; 'I' for Inactive)
REMARK    1  A    between atoms: C2_2  and  C3_3 
REMARK    2  A    between atoms: C3_3  and  C4_4 
REMARK    3  A    between atoms: C4_4  and  S1_5 
REMARK    4  A    between atoms: S1_5  and  C5_6 
REMARK    5  A    between atoms: C7_8  and  O1_9 
REMARK    6  A    between atoms: C19_23  and  C20_24 
REMARK    7  A    between atoms: C20_24  and  O3_25 
ROOT
HETATM    1  C5  UNL     1       2.064  -0.986  -0.017  1.00  0.00     0.034 C 
HETATM    2  C6  UNL     1       2.494  -2.386   0.440  1.00  0.00     0.030 C 
HETATM    3  C7  UNL     1       2.592  -0.785  -1.399  1.00  0.00     0.136 C 
HETATM    4  C8  UNL     1       2.218   0.633  -1.766  1.00  0.00     0.034 C 
HETATM    5  C9  UNL     1       0.757   0.883  -1.774  1.00  0.00     0.008 C 
HETATM    6  C10 UNL     1      -0.091  -0.048  -0.990  1.00  0.00    -0.004 C 
HETATM    7  C11 UNL     1      -0.984   0.804  -0.114  1.00  0.00    -0.005 C 
HETATM    8  C12 UNL     1      -1.718   1.780  -1.016  1.00  0.00     0.006 C 
HETATM    9  C13 UNL     1      -3.096   2.005  -0.440  1.00  0.00     0.018 C 
HETATM   10  C14 UNL     1      -3.831   0.697  -0.492  1.00  0.00     0.027 C 
HETATM   11  C15 UNL     1      -4.013   0.339  -1.955  1.00  0.00     0.024 C 
HETATM   12  C16 UNL     1      -5.200   0.921   0.055  1.00  0.00     0.136 C 
HETATM   13  O2  UNL     1      -5.941   1.778  -0.364  1.00  0.00    -0.297 OA
HETATM   14  C17 UNL     1      -5.462  -0.036   1.132  1.00  0.00     0.080 C 
HETATM   15  C18 UNL     1      -4.110  -0.501   1.537  1.00  0.00     0.020 C 
HETATM   16  C19 UNL     1      -3.187  -0.375   0.314  1.00  0.00    -0.001 C 
HETATM   17  C21 UNL     1      -1.857   0.096   0.838  1.00  0.00     0.002 C 
HETATM   18  C22 UNL     1      -1.075  -0.889   1.612  1.00  0.00     0.006 C 
HETATM   19  C23 UNL     1      -0.079  -1.715   0.905  1.00  0.00     0.007 C 
HETATM   20  C24 UNL     1       0.517  -1.206  -0.343  1.00  0.00     0.011 C 
ENDROOT
BRANCH   1  21
HETATM   21  S1  UNL     1       2.215   0.248   1.163  1.00  0.00    -0.156 SA
BRANCH  21  22
HETATM   22  C4  UNL     1       3.561   0.779   2.049  1.00  0.00     0.075 C 
BRANCH  22  23
HETATM   23  C3  UNL     1       4.735   1.512   1.539  1.00  0.00     0.010 C 
BRANCH  23  24
HETATM   24  C2  UNL     1       5.547   0.768   0.557  1.00  0.00    -0.004 C 
HETATM   25  C1  UNL     1       6.789   1.571   0.129  1.00  0.00     0.005 C 
ENDBRANCH  23  24
ENDBRANCH  22  23
ENDBRANCH  21  22
ENDBRANCH   1  21
BRANCH   3  26
HETATM   26  O1  UNL     1       1.992  -1.645  -2.350  1.00  0.00    -0.394 OA
ATOM     27  H1  UNL     1       2.328  -1.517  -3.229  1.00  0.00     0.210 HD
ENDBRANCH   3  26
BRANCH  16  28
HETATM   28  C20 UNL     1      -3.201  -1.720  -0.312  1.00  0.00     0.175 C 
BRANCH  28  29
HETATM   29  O3  UNL     1      -4.564  -2.060  -0.507  1.00  0.00    -0.400 OA
ATOM     30  H3  UNL     1      -4.573  -2.921  -0.908  1.00  0.00     0.209 HD
ENDBRANCH  28  29
ENDBRANCH  16  28
TORSDOF 7
