REMARK  6 active torsions:
REMARK  status: ('A' for Active; 'I' for Inactive)
REMARK    1  A    between atoms: C3_3  and  N1_4 
REMARK    2  A    between atoms: N1_4  and  C4_6 
REMARK    3  A    between atoms: C7_9  and  N2_10 
REMARK    4  A    between atoms: N2_10  and  C8_12 
REMARK    5  A    between atoms: C20_24  and  C21_25 
REMARK    6  A    between atoms: C21_25  and  N3_26 
ROOT
HETATM    1  C4  UNL     1      -0.118   0.596  -1.178  1.00  0.00     0.082 C 
HETATM    2  C5  UNL     1      -1.363   0.664  -2.061  1.00  0.00     0.027 C 
HETATM    3  C6  UNL     1      -2.508   0.004  -1.302  1.00  0.00     0.027 C 
HETATM    4  C7  UNL     1      -2.387   0.293   0.165  1.00  0.00     0.077 C 
HETATM    5  C16 UNL     1      -1.277  -0.593   0.690  1.00  0.00     0.027 C 
HETATM    6  C17 UNL     1      -0.236  -0.704  -0.403  1.00  0.00     0.027 C 
ENDROOT
BRANCH   1   7
HETATM    7  N1  UNL     1       1.025   0.485  -2.051  1.00  0.00    -0.385 N 
ATOM      8  H1  UNL     1       0.897   0.327  -3.051  1.00  0.00     0.160 HD
BRANCH   7   9
HETATM    9  C3  UNL     1       2.327   0.598  -1.505  1.00  0.00     0.028 A 
HETATM   10  C2  UNL     1       2.557   0.930  -0.192  1.00  0.00     0.029 A 
HETATM   11  C1  UNL     1       3.849   1.036   0.311  1.00  0.00     0.011 A 
HETATM   12  C20 UNL     1       4.966   0.816  -0.471  1.00  0.00    -0.030 A 
HETATM   13  C19 UNL     1       4.743   0.483  -1.789  1.00  0.00     0.011 A 
HETATM   14  C18 UNL     1       3.465   0.377  -2.291  1.00  0.00     0.029 A 
BRANCH  12  15
HETATM   15  C21 UNL     1       6.329   0.959   0.122  1.00  0.00     0.311 C 
BRANCH  15  16
HETATM   16  N3  UNL     1       7.383   0.439  -0.659  1.00  0.00     0.096 N 
HETATM   17  C22 UNL     1       7.362  -0.948  -0.894  1.00  0.00     0.299 C 
HETATM   18  C23 UNL     1       8.243  -1.802  -0.042  1.00  0.00     0.198 C 
HETATM   19  O1  UNL     1       9.499  -1.278   0.160  1.00  0.00    -0.388 OA
HETATM   20  C24 UNL     1       9.316  -0.034   0.773  1.00  0.00     0.198 C 
HETATM   21  C25 UNL     1       8.651   0.910  -0.190  1.00  0.00     0.299 C 
ENDBRANCH  15  16
ENDBRANCH  12  15
ENDBRANCH   7   9
ENDBRANCH   1   7
BRANCH   4  22
HETATM   22  N2  UNL     1      -3.532   0.349   0.945  1.00  0.00    -0.413 N 
ATOM     23  H2  UNL     1      -3.754   1.245   1.379  1.00  0.00     0.154 HD
BRANCH  22  24
HETATM   24  C8  UNL     1      -4.401  -0.700   1.188  1.00  0.00     0.077 C 
HETATM   25  C9  UNL     1      -5.201  -1.305   0.101  1.00  0.00     0.024 C 
HETATM   26  C10 UNL     1      -6.203  -0.447  -0.579  1.00  0.00     0.002 C 
HETATM   27  C11 UNL     1      -7.583  -0.584   0.018  1.00  0.00     0.000 C 
HETATM   28  C12 UNL     1      -7.959   0.758   0.612  1.00  0.00     0.000 C 
HETATM   29  C13 UNL     1      -7.511   0.799   2.032  1.00  0.00     0.000 C 
HETATM   30  C14 UNL     1      -5.998   1.007   2.168  1.00  0.00     0.002 C 
HETATM   31  C15 UNL     1      -5.337  -0.306   2.342  1.00  0.00     0.024 C 
ENDBRANCH  22  24
ENDBRANCH   4  22
TORSDOF 6
