REMARK  9 active torsions:
REMARK  status: ('A' for Active; 'I' for Inactive)
REMARK    1  A    between atoms: O1_2  and  C2_3 
REMARK    2  A    between atoms: C2_3  and  C3_4 
REMARK    3  A    between atoms: C2_3  and  C4_9 
REMARK    4  A    between atoms: C3_4  and  N1_5 
REMARK    5  A    between atoms: C4_9  and  C5_10 
REMARK    6  A    between atoms: C5_10  and  C6_11 
REMARK    7  A    between atoms: C6_11  and  C8_13 
REMARK    8  A    between atoms: C11_16  and  C12_17 
REMARK    9  A    between atoms: C12_17  and  O2_19 
ROOT
HETATM    1  C8  UNL     1       0.447   1.295   1.106  1.00  0.00     0.025 C 
HETATM    2  C9  UNL     1       0.197   2.805   1.339  1.00  0.00     0.009 C 
HETATM    3  C10 UNL     1       0.072   3.359  -0.052  1.00  0.00     0.011 C 
HETATM    4  C11 UNL     1      -0.745   2.270  -0.732  1.00  0.00     0.049 C 
HETATM    5  C14 UNL     1      -0.733   1.074   0.173  1.00  0.00     0.075 C 
HETATM    6  C15 UNL     1      -0.783  -0.259  -0.428  1.00  0.00     0.073 C 
HETATM    7  C16 UNL     1      -2.099  -0.930  -0.528  1.00  0.00    -0.074 C 
HETATM    8  C17 UNL     1      -2.101  -1.800  -1.524  1.00  0.00    -0.023 C 
HETATM    9  C18 UNL     1      -3.158  -2.684  -2.002  1.00  0.00     0.027 C 
HETATM   10  C19 UNL     1      -4.371  -2.536  -1.121  1.00  0.00     0.004 C 
HETATM   11  C20 UNL     1      -4.042  -2.914   0.294  1.00  0.00     0.001 C 
HETATM   12  C21 UNL     1      -3.721  -1.751   1.170  1.00  0.00     0.012 C 
HETATM   13  C22 UNL     1      -3.138  -0.571   0.430  1.00  0.00     0.048 C 
HETATM   14  C23 UNL     1      -2.615   0.398   1.466  1.00  0.00     0.062 C 
HETATM   15  C24 UNL     1      -2.167  -0.264   2.735  1.00  0.00     0.046 C 
HETATM   16  C25 UNL     1      -3.900   1.140   1.926  1.00  0.00     0.046 C 
HETATM   17  O3  UNL     1      -1.807   1.344   1.045  1.00  0.00    -0.368 OA
ENDROOT
BRANCH   1  18
HETATM   18  C6  UNL     1       1.810   1.176   0.708  1.00  0.00    -0.012 C 
HETATM   19  C7  UNL     1       2.664   1.688   1.863  1.00  0.00     0.010 C 
BRANCH  18  20
HETATM   20  C5  UNL     1       2.412  -0.153   0.383  1.00  0.00     0.007 C 
BRANCH  20  21
HETATM   21  C4  UNL     1       3.870  -0.033  -0.027  1.00  0.00     0.034 C 
BRANCH  21  22
HETATM   22  C2  UNL     1       4.348  -1.461  -0.329  1.00  0.00     0.146 C 
BRANCH  22  23
HETATM   23  O1  UNL     1       3.609  -2.039  -1.350  1.00  0.00    -0.389 OA
HETATM   24  C1  UNL     1       3.007  -3.240  -0.939  1.00  0.00     0.202 C 
ENDBRANCH  22  23
BRANCH  22  25
HETATM   25  C3  UNL     1       5.798  -1.445  -0.768  1.00  0.00     0.261 C 
BRANCH  25  26
HETATM   26  N1  UNL     1       6.652  -0.853   0.248  1.00  0.00    -0.077 N 
ATOM     27  H13 UNL     1       6.330   0.079   0.511  1.00  0.00     0.274 HD
ATOM     28  H12 UNL     1       6.539  -1.318   1.149  1.00  0.00     0.274 HD
ATOM     29  H11 UNL     1       7.628  -0.842  -0.048  1.00  0.00     0.274 HD
ENDBRANCH  25  26
ENDBRANCH  22  25
ENDBRANCH  21  22
ENDBRANCH  20  21
ENDBRANCH  18  20
ENDBRANCH   1  18
BRANCH   4  30
HETATM   30  C12 UNL     1      -0.291   2.119  -2.142  1.00  0.00     0.121 C 
HETATM   31  C13 UNL     1      -0.528   3.537  -2.738  1.00  0.00     0.040 C 
BRANCH  30  32
HETATM   32  O2  UNL     1      -1.188   1.369  -2.917  1.00  0.00    -0.395 OA
ATOM     33  H2  UNL     1      -0.898   1.273  -3.817  1.00  0.00     0.210 HD
ENDBRANCH  30  32
ENDBRANCH   4  30
TORSDOF 9
