REMARK  8 active torsions:
REMARK  status: ('A' for Active; 'I' for Inactive)
REMARK    1  A    between atoms: C2_2  and  C4_4 
REMARK    2  A    between atoms: C7_7  and  C8_8 
REMARK    3  A    between atoms: C8_8  and  C9_9 
REMARK    4  A    between atoms: C9_9  and  C10_10 
REMARK    5  A    between atoms: C10_10  and  C11_11 
REMARK    6  A    between atoms: C11_11  and  O2_13 
REMARK    7  A    between atoms: C19_21  and  O3_22 
REMARK    8  A    between atoms: C25_29  and  O4_30 
ROOT
HETATM    1  C4  UNL     1       1.116  -2.785  -0.002  1.00  0.00     0.043 C 
HETATM    2  C5  UNL     1       1.830  -2.922   1.350  1.00  0.00     0.014 C 
HETATM    3  C6  UNL     1       1.953  -1.495   1.856  1.00  0.00     0.018 C 
HETATM    4  C7  UNL     1       1.107  -0.649   0.965  1.00  0.00     0.011 C 
HETATM    5  C13 UNL     1       0.215  -1.656   0.310  1.00  0.00    -0.057 C 
HETATM    6  C14 UNL     1      -1.008  -1.181   0.170  1.00  0.00    -0.065 C 
HETATM    7  C15 UNL     1      -2.208  -1.689  -0.511  1.00  0.00     0.036 C 
HETATM    8  C16 UNL     1      -3.378  -0.798  -0.342  1.00  0.00     0.009 C 
HETATM    9  C17 UNL     1      -3.163   0.650  -0.264  1.00  0.00    -0.007 C 
HETATM   10  C18 UNL     1      -3.423   1.397  -1.578  1.00  0.00     0.037 C 
HETATM   11  C19 UNL     1      -3.508   2.872  -1.242  1.00  0.00     0.118 C 
HETATM   12  C20 UNL     1      -3.136   3.176   0.165  1.00  0.00     0.032 C 
HETATM   13  C21 UNL     1      -1.909   2.465   0.683  1.00  0.00     0.009 C 
HETATM   14  C22 UNL     1      -1.739   1.089   0.140  1.00  0.00     0.005 C 
HETATM   15  C23 UNL     1      -1.216   0.045   1.033  1.00  0.00     0.011 C 
HETATM   16  C24 UNL     1      -2.243  -0.298   2.129  1.00  0.00     0.023 C 
HETATM   17  C25 UNL     1       0.072   0.198   1.726  1.00  0.00     0.143 C 
ENDROOT
BRANCH   4  18
HETATM   18  C8  UNL     1       1.848   0.292   0.116  1.00  0.00     0.017 C 
BRANCH  18  19
HETATM   19  C9  UNL     1       2.827  -0.156  -0.890  1.00  0.00     0.011 C 
BRANCH  19  20
HETATM   20  C10 UNL     1       3.482   1.066  -1.529  1.00  0.00     0.111 C 
BRANCH  20  21
HETATM   21  C11 UNL     1       4.286   1.873  -0.606  1.00  0.00     0.258 C 
HETATM   22  O1  UNL     1       4.603   1.603   0.568  1.00  0.00    -0.265 OA
BRANCH  21  23
HETATM   23  O2  UNL     1       4.754   3.097  -1.110  1.00  0.00    -0.326 OA
HETATM   24  C12 UNL     1       5.537   3.947  -0.298  1.00  0.00     0.213 C 
ENDBRANCH  21  23
ENDBRANCH  20  21
ENDBRANCH  19  20
ENDBRANCH  18  19
ENDBRANCH   4  18
BRANCH  17  25
HETATM   25  O4  UNL     1       0.478   1.476   1.955  1.00  0.00    -0.393 OA
ATOM     26  H4  UNL     1      -0.161   1.999   2.425  1.00  0.00     0.210 HD
ENDBRANCH  17  25
BRANCH   1  27
HETATM   27  C2  UNL     1       0.506  -4.054  -0.411  1.00  0.00    -0.085 C 
HETATM   28  C1  UNL     1       0.655  -5.170   0.290  1.00  0.00     0.014 C 
HETATM   29  C3  UNL     1      -0.292  -4.232  -1.680  1.00  0.00     0.043 C 
ENDBRANCH   1  27
BRANCH  11  30
HETATM   30  O3  UNL     1      -2.810   3.639  -2.174  1.00  0.00    -0.396 OA
ATOM     31  H3  UNL     1      -2.863   4.564  -1.963  1.00  0.00     0.210 HD
ENDBRANCH  11  30
TORSDOF 8
