REMARK  9 active torsions:
REMARK  status: ('A' for Active; 'I' for Inactive)
REMARK    1  A    between atoms: C2_2  and  C3_3 
REMARK    2  A    between atoms: C3_3  and  C5_5 
REMARK    3  A    between atoms: C5_5  and  C6_6 
REMARK    4  A    between atoms: C6_6  and  O1_7 
REMARK    5  A    between atoms: C6_6  and  C7_9 
REMARK    6  A    between atoms: C8_10  and  C9_11 
REMARK    7  A    between atoms: C9_11  and  C11_13 
REMARK    8  A    between atoms: C16_18  and  O2_19 
REMARK    9  A    between atoms: C19_22  and  O3_23 
ROOT
HETATM    1  C11 UNL     1      -0.841   0.068   0.505  1.00  0.00    -0.006 C 
HETATM    2  C12 UNL     1      -0.540  -1.406   0.791  1.00  0.00     0.019 C 
HETATM    3  C13 UNL     1      -1.015   0.334  -0.937  1.00  0.00     0.013 C 
HETATM    4  C14 UNL     1      -2.187  -0.218  -1.646  1.00  0.00     0.010 C 
HETATM    5  C15 UNL     1      -3.562   0.102  -1.099  1.00  0.00     0.044 C 
HETATM    6  C16 UNL     1      -3.493   1.519  -0.605  1.00  0.00     0.130 C 
HETATM    7  C18 UNL     1      -2.741   1.714   0.656  1.00  0.00     0.071 C 
HETATM    8  C19 UNL     1      -2.050   0.548   1.278  1.00  0.00     0.069 C 
HETATM    9  C20 UNL     1      -2.965  -0.502   1.841  1.00  0.00     0.053 C 
HETATM   10  C21 UNL     1      -4.276  -0.692   1.201  1.00  0.00     0.011 C 
HETATM   11  C22 UNL     1      -5.423   0.171   1.654  1.00  0.00     0.020 C 
HETATM   12  C23 UNL     1      -4.894  -2.045   1.000  1.00  0.00     0.128 C 
HETATM   13  C24 UNL     1      -4.139  -3.282   1.036  1.00  0.00     0.040 C 
HETATM   14  O4  UNL     1      -5.313  -1.504  -0.254  1.00  0.00    -0.379 OA
HETATM   15  C25 UNL     1      -4.060  -0.928  -0.253  1.00  0.00     0.139 C 
ENDROOT
BRANCH   1  16
HETATM   16  C9  UNL     1       0.461   0.721   0.948  1.00  0.00     0.015 C 
HETATM   17  C10 UNL     1       0.564   2.196   0.836  1.00  0.00     0.015 C 
BRANCH  16  18
HETATM   18  C8  UNL     1       1.642   0.210   0.196  1.00  0.00    -0.023 C 
HETATM   19  C7  UNL     1       2.677  -0.397   0.755  1.00  0.00     0.001 C 
BRANCH  19  20
HETATM   20  C6  UNL     1       3.822  -0.887  -0.018  1.00  0.00     0.141 C 
BRANCH  20  21
HETATM   21  C5  UNL     1       4.977   0.042   0.153  1.00  0.00     0.040 C 
BRANCH  21  22
HETATM   22  C3  UNL     1       6.186  -0.351  -0.655  1.00  0.00    -0.016 C 
HETATM   23  C4  UNL     1       6.704  -1.715  -0.309  1.00  0.00     0.010 C 
BRANCH  22  24
HETATM   24  C2  UNL     1       7.295   0.651  -0.411  1.00  0.00    -0.000 C 
HETATM   25  C1  UNL     1       8.508   0.376  -1.241  1.00  0.00     0.005 C 
ENDBRANCH  22  24
ENDBRANCH  21  22
ENDBRANCH  20  21
BRANCH  20  26
HETATM   26  O1  UNL     1       3.473  -0.876  -1.387  1.00  0.00    -0.392 OA
ATOM     27  H1  UNL     1       2.738  -1.467  -1.496  1.00  0.00     0.210 HD
ENDBRANCH  20  26
ENDBRANCH  19  20
ENDBRANCH  16  18
ENDBRANCH   1  16
BRANCH   8  28
HETATM   28  O3  UNL     1      -1.479   1.144   2.446  1.00  0.00    -0.389 OA
ATOM     29  H3  UNL     1      -2.238   1.445   2.931  1.00  0.00     0.210 HD
ENDBRANCH   8  28
BRANCH   6  30
HETATM   30  O2  UNL     1      -4.737   2.153  -0.609  1.00  0.00    -0.390 OA
HETATM   31  C17 UNL     1      -4.894   3.122  -1.560  1.00  0.00     0.202 C 
ENDBRANCH   6  30
TORSDOF 9
