REMARK  9 active torsions:
REMARK  status: ('A' for Active; 'I' for Inactive)
REMARK    1  A    between atoms: C10_10  and  O1_11 
REMARK    2  A    between atoms: C11_13  and  O2_14 
REMARK    3  A    between atoms: C13_17  and  O3_18 
REMARK    4  A    between atoms: O3_18  and  S1_19 
REMARK    5  A    between atoms: C17_26  and  C19_28 
REMARK    6  A    between atoms: C19_28  and  O8_30 
REMARK    7  A    between atoms: O8_30  and  C20_31 
REMARK    8  A    between atoms: C20_31  and  C21_32 
REMARK    9  A    between atoms: C22_33  and  C23_34 
ROOT
HETATM    1  C1  UNL     1       3.144  -1.995   0.370  1.00  0.00     0.013 C 
HETATM    2  C2  UNL     1       2.305  -1.123   0.251  1.00  0.00    -0.106 C 
HETATM    3  C3  UNL     1       1.253  -0.073   0.102  1.00  0.00     0.040 C 
HETATM    4  C4  UNL     1       1.356   0.726   1.360  1.00  0.00     0.031 C 
HETATM    5  C5  UNL     1      -0.052  -0.721  -0.169  1.00  0.00     0.014 C 
HETATM    6  C6  UNL     1      -0.636  -1.401   1.093  1.00  0.00     0.008 C 
HETATM    7  C7  UNL     1      -1.731  -2.239   0.539  1.00  0.00     0.015 C 
HETATM    8  C8  UNL     1      -2.915  -1.308   0.249  1.00  0.00     0.018 C 
HETATM    9  C9  UNL     1      -3.871  -2.186  -0.510  1.00  0.00     0.021 C 
HETATM   10  C10 UNL     1      -3.503  -1.026   1.618  1.00  0.00     0.158 C 
HETATM   11  C11 UNL     1      -3.384   0.432   1.866  1.00  0.00     0.150 C 
HETATM   12  C12 UNL     1      -2.600   1.005   0.725  1.00  0.00     0.075 C 
HETATM   13  C13 UNL     1      -2.515  -0.035  -0.383  1.00  0.00     0.099 C 
HETATM   14  C14 UNL     1      -1.070  -0.054  -0.967  1.00  0.00     0.028 C 
HETATM   15  C15 UNL     1      -0.787   1.356  -1.409  1.00  0.00     0.009 C 
HETATM   16  C16 UNL     1       0.620   1.783  -1.399  1.00  0.00     0.022 C 
HETATM   17  C17 UNL     1       1.642   0.740  -1.080  1.00  0.00     0.063 C 
HETATM   18  C18 UNL     1       1.920  -0.170  -2.259  1.00  0.00     0.028 C 
ENDROOT
BRANCH  17  19
HETATM   19  C19 UNL     1       2.909   1.469  -0.728  1.00  0.00     0.269 C 
HETATM   20  O7  UNL     1       2.958   2.747  -0.721  1.00  0.00    -0.264 OA
BRANCH  19  21
HETATM   21  O8  UNL     1       4.086   0.838  -0.393  1.00  0.00    -0.309 OA
BRANCH  21  22
HETATM   22  C20 UNL     1       5.255   1.568  -0.069  1.00  0.00     0.272 C 
BRANCH  22  23
HETATM   23  C21 UNL     1       6.370   0.709   0.249  1.00  0.00    -0.077 C 
HETATM   24  C22 UNL     1       7.292  -0.023   0.503  1.00  0.00    -0.073 C 
BRANCH  24  25
HETATM   25  C23 UNL     1       8.407  -0.929   0.793  1.00  0.00     0.315 C 
HETATM   26  F1  UNL     1       9.603  -0.422   0.348  1.00  0.00    -0.242 F 
ENDBRANCH  24  25
ENDBRANCH  22  23
ENDBRANCH  21  22
ENDBRANCH  19  21
ENDBRANCH  17  19
BRANCH  13  27
HETATM   27  O3  UNL     1      -3.275   0.306  -1.413  1.00  0.00    -0.244 OA
BRANCH  27  28
HETATM   28  S1  UNL     1      -4.738   0.691  -1.696  1.00  0.00     0.252 S 
HETATM   29  O4  UNL     1      -5.900   0.123  -0.930  1.00  0.00    -0.572 OA
HETATM   30  O5  UNL     1      -5.084   0.228  -3.136  1.00  0.00    -0.572 OA
HETATM   31  O6  UNL     1      -5.019   2.393  -1.898  1.00  0.00    -0.572 OA
ENDBRANCH  27  28
ENDBRANCH  13  27
BRANCH  10  32
HETATM   32  O1  UNL     1      -4.782  -1.465   1.800  1.00  0.00    -0.392 OA
ATOM     33  H1  UNL     1      -5.150  -1.288   2.658  1.00  0.00     0.210 HD
ENDBRANCH  10  32
BRANCH  11  34
HETATM   34  O2  UNL     1      -4.612   1.072   2.051  1.00  0.00    -0.393 OA
ATOM     35  H2  UNL     1      -4.536   2.006   2.210  1.00  0.00     0.210 HD
ENDBRANCH  11  34
TORSDOF 9
