REMARK  6 active torsions:
REMARK  status: ('A' for Active; 'I' for Inactive)
REMARK    1  A    between atoms: C2_2  and  C3_3 
REMARK    2  A    between atoms: C7_8  and  C8_9 
REMARK    3  A    between atoms: C13_15  and  C14_16 
REMARK    4  A    between atoms: C14_16  and  O3_18 
REMARK    5  A    between atoms: C16_20  and  O4_21 
REMARK    6  A    between atoms: C18_24  and  O5_26 
ROOT
HETATM    1  C3  UNL     1       2.549   0.317   0.599  1.00  0.00     0.051 C 
HETATM    2  C4  UNL     1       2.613  -0.822  -0.348  1.00  0.00     0.076 C 
HETATM    3  C5  UNL     1       2.386  -2.103   0.460  1.00  0.00     0.048 C 
HETATM    4  C6  UNL     1       1.313  -1.565   1.430  1.00  0.00     0.161 C 
HETATM    5  O1  UNL     1       0.318  -1.155   0.754  1.00  0.00    -0.346 OA
HETATM    6  C7  UNL     1      -0.963  -1.419   0.602  1.00  0.00     0.177 C 
HETATM    7  O2  UNL     1      -1.675  -0.666   1.554  1.00  0.00    -0.324 OA
HETATM    8  C11 UNL     1      -2.842  -0.126   1.337  1.00  0.00     0.265 C 
HETATM    9  C12 UNL     1      -2.740   1.412   1.392  1.00  0.00     0.078 C 
HETATM   10  C13 UNL     1      -1.821   1.553   0.146  1.00  0.00     0.042 C 
HETATM   11  C16 UNL     1      -0.534   1.963   0.666  1.00  0.00     0.134 C 
HETATM   12  C17 UNL     1       0.682   2.050  -0.147  1.00  0.00     0.071 C 
HETATM   13  C18 UNL     1       1.990   1.591   0.306  1.00  0.00     0.071 C 
HETATM   14  C19 UNL     1       2.317   2.546   1.479  1.00  0.00     0.047 C 
HETATM   15  C20 UNL     1      -2.135   0.344  -0.575  1.00  0.00     0.148 C 
HETATM   16  O6  UNL     1      -3.364  -0.080   0.030  1.00  0.00    -0.354 OA
HETATM   17  C21 UNL     1      -1.418  -0.915  -0.715  1.00  0.00     0.083 C 
HETATM   18  C22 UNL     1      -0.599  -1.047  -1.945  1.00  0.00     0.004 C 
HETATM   19  C23 UNL     1      -1.372  -1.641  -3.148  1.00  0.00     0.011 C 
HETATM   20  C24 UNL     1       0.703  -1.709  -1.904  1.00  0.00     0.056 C 
HETATM   21  C25 UNL     1       1.026  -2.318  -3.287  1.00  0.00     0.018 C 
HETATM   22  C26 UNL     1       1.851  -0.805  -1.584  1.00  0.00     0.136 C 
HETATM   23  O7  UNL     1       2.151  -0.000  -2.448  1.00  0.00    -0.297 OA
HETATM   24  C27 UNL     1       2.221  -0.394   1.877  1.00  0.00     0.215 C 
HETATM   25  F1  UNL     1       1.877   0.252   2.963  1.00  0.00    -0.245 F 
ENDROOT
BRANCH  10  26
HETATM   26  C14 UNL     1      -2.466   2.672  -0.648  1.00  0.00     0.128 C 
HETATM   27  C15 UNL     1      -2.656   3.988  -0.090  1.00  0.00     0.040 C 
BRANCH  26  28
HETATM   28  O3  UNL     1      -1.783   2.763  -1.895  1.00  0.00    -0.395 OA
ATOM     29  H3  UNL     1      -2.187   3.464  -2.393  1.00  0.00     0.210 HD
ENDBRANCH  26  28
ENDBRANCH  10  26
BRANCH  11  30
HETATM   30  O4  UNL     1      -0.739   3.210   1.318  1.00  0.00    -0.395 OA
ATOM     31  H4  UNL     1       0.106   3.479   1.659  1.00  0.00     0.210 HD
ENDBRANCH  11  30
BRANCH  13  32
HETATM   32  O5  UNL     1       2.873   2.140  -0.700  1.00  0.00    -0.389 OA
ATOM     33  H5  UNL     1       2.499   2.991  -0.896  1.00  0.00     0.210 HD
ENDBRANCH  13  32
BRANCH   6  34
HETATM   34  C8  UNL     1      -1.338  -2.825   0.945  1.00  0.00     0.041 C 
HETATM   35  C9  UNL     1      -2.778  -3.217   0.719  1.00  0.00     0.015 C 
HETATM   36  C10 UNL     1      -1.207  -3.067   2.472  1.00  0.00     0.015 C 
ENDBRANCH   6  34
BRANCH   1  37
HETATM   37  C2  UNL     1       4.053   0.639   0.829  1.00  0.00    -0.021 C 
HETATM   38  C1  UNL     1       4.895   0.731  -0.161  1.00  0.00     0.008 C 
ENDBRANCH   1  37
TORSDOF 6
