REMARK  12 active torsions:
REMARK  status: ('A' for Active; 'I' for Inactive)
REMARK    1  A    between atoms: C2_2  and  S1_4 
REMARK    2  A    between atoms: S1_4  and  C3_5 
REMARK    3  A    between atoms: C3_5  and  C4_6 
REMARK    4  A    between atoms: C4_6  and  C5_7 
REMARK    5  A    between atoms: C5_7  and  C6_8 
REMARK    6  A    between atoms: C6_8  and  C7_9 
REMARK    7  A    between atoms: C7_9  and  C8_10 
REMARK    8  A    between atoms: C8_10  and  C9_11 
REMARK    9  A    between atoms: C9_11  and  C10_12 
REMARK       I    between atoms: C10_12  and  N1_14 
REMARK   10  A    between atoms: N1_14  and  C11_16 
REMARK   11  A    between atoms: C27_33  and  O3_34 
REMARK   12  A    between atoms: C33_41  and  N2_43 
ROOT
HETATM    1  C11 UNL     1       0.953   0.059  -0.430  1.00  0.00     0.124 C 
HETATM    2  C12 UNL     1       0.417   1.282  -1.090  1.00  0.00     0.029 C 
HETATM    3  C13 UNL     1      -1.064   0.976  -1.393  1.00  0.00     0.012 C 
HETATM    4  C14 UNL     1      -1.799   1.039  -0.108  1.00  0.00    -0.031 C 
HETATM    5  C15 UNL     1      -1.331   2.349   0.561  1.00  0.00     0.016 C 
HETATM    6  C16 UNL     1      -3.278   1.042  -0.133  1.00  0.00     0.034 C 
HETATM    7  C17 UNL     1      -3.848   0.089   0.921  1.00  0.00     0.001 C 
HETATM    8  C18 UNL     1      -3.191   0.202   2.240  1.00  0.00     0.006 C 
HETATM    9  C19 UNL     1      -1.717   0.014   2.180  1.00  0.00     0.009 C 
HETATM   10  C20 UNL     1      -1.301  -0.139   0.711  1.00  0.00     0.036 C 
HETATM   11  C21 UNL     1       0.143  -0.407   0.734  1.00  0.00     0.124 C 
HETATM   12  C22 UNL     1       0.361  -1.915   0.865  1.00  0.00     0.054 C 
HETATM   13  F1  UNL     1       0.729   0.129   1.891  1.00  0.00    -0.241 F 
HETATM   14  C23 UNL     1      -5.347   0.349   1.132  1.00  0.00    -0.035 C 
HETATM   15  C24 UNL     1      -5.665   1.710   1.598  1.00  0.00     0.016 C 
HETATM   16  C25 UNL     1      -5.782  -0.635   2.209  1.00  0.00     0.012 C 
HETATM   17  C26 UNL     1      -7.313  -0.730   2.241  1.00  0.00     0.033 C 
HETATM   18  C27 UNL     1      -7.760  -1.279   0.931  1.00  0.00     0.126 C 
HETATM   19  C28 UNL     1      -7.412  -0.281  -0.169  1.00  0.00    -0.017 C 
HETATM   20  C29 UNL     1      -7.780  -0.994  -1.479  1.00  0.00     0.018 C 
HETATM   21  C30 UNL     1      -8.255   0.948  -0.097  1.00  0.00     0.018 C 
HETATM   22  C31 UNL     1      -5.955  -0.050  -0.186  1.00  0.00     0.007 C 
HETATM   23  C32 UNL     1      -5.489   0.927  -1.197  1.00  0.00     0.045 C 
HETATM   24  C33 UNL     1      -3.969   0.854  -1.438  1.00  0.00     0.125 C 
HETATM   25  C34 UNL     1      -3.734  -0.422  -2.155  1.00  0.00     0.046 C 
ENDROOT
BRANCH   1  26
HETATM   26  N1  UNL     1       2.335   0.330  -0.083  1.00  0.00    -0.353 N 
HETATM   27  C10 UNL     1       3.447  -0.292  -0.639  1.00  0.00     0.217 C 
HETATM   28  O2  UNL     1       3.313  -1.165  -1.519  1.00  0.00    -0.274 OA
ATOM     29  H1  UNL     1       2.506   1.038   0.631  1.00  0.00     0.163 HD
BRANCH  27  30
HETATM   30  C9  UNL     1       4.803   0.069  -0.198  1.00  0.00     0.103 C 
BRANCH  30  31
HETATM   31  C8  UNL     1       5.797  -0.764  -0.974  1.00  0.00     0.009 C 
BRANCH  31  32
HETATM   32  C7  UNL     1       7.240  -0.443  -0.548  1.00  0.00     0.000 C 
BRANCH  32  33
HETATM   33  C6  UNL     1       8.111  -1.318  -1.384  1.00  0.00     0.000 C 
BRANCH  33  34
HETATM   34  C5  UNL     1       9.565  -1.206  -1.227  1.00  0.00     0.001 C 
BRANCH  34  35
HETATM   35  C4  UNL     1      10.243  -1.513   0.037  1.00  0.00     0.010 C 
BRANCH  35  36
HETATM   36  C3  UNL     1       9.933  -0.735   1.259  1.00  0.00     0.082 C 
BRANCH  36  37
HETATM   37  S1  UNL     1      10.197   1.042   1.085  1.00  0.00    -0.093 SA
BRANCH  37  38
HETATM   38  C2  UNL     1      11.896   1.450   0.905  1.00  0.00     0.182 C 
HETATM   39  C1  UNL     1      12.950   0.415   0.953  1.00  0.00     0.104 C 
HETATM   40  O1  UNL     1      12.292   2.605   0.732  1.00  0.00    -0.286 OA
ENDBRANCH  37  38
ENDBRANCH  36  37
ENDBRANCH  35  36
ENDBRANCH  34  35
ENDBRANCH  33  34
ENDBRANCH  32  33
ENDBRANCH  31  32
ENDBRANCH  30  31
ENDBRANCH  27  30
ENDBRANCH   1  26
BRANCH  24  41
HETATM   41  N2  UNL     1      -3.808   2.028  -2.321  1.00  0.00    -0.070 N 
ATOM     42  H23 UNL     1      -4.115   2.884  -1.859  1.00  0.00     0.275 HD
ATOM     43  H22 UNL     1      -2.824   2.261  -2.453  1.00  0.00     0.275 HD
ATOM     44  H21 UNL     1      -4.281   1.899  -3.215  1.00  0.00     0.275 HD
ENDBRANCH  24  41
BRANCH  18  45
HETATM   45  O3  UNL     1      -7.047  -2.445   0.658  1.00  0.00    -0.395 OA
ATOM     46  H3  UNL     1      -7.332  -2.795  -0.178  1.00  0.00     0.210 HD
ENDBRANCH  18  45
TORSDOF 12
