REMARK  12 active torsions:
REMARK  status: ('A' for Active; 'I' for Inactive)
REMARK    1  A    between atoms: C5_5  and  O1_6 
REMARK    2  A    between atoms: N1_21  and  N2_23 
REMARK    3  A    between atoms: N2_23  and  C18_25 
REMARK    4  A    between atoms: C18_25  and  N3_27 
REMARK    5  A    between atoms: N3_27  and  C19_29 
REMARK    6  A    between atoms: C19_29  and  C20_30 
REMARK    7  A    between atoms: C20_30  and  C21_31 
REMARK    8  A    between atoms: C21_31  and  C22_32 
REMARK    9  A    between atoms: C22_32  and  C23_33 
REMARK   10  A    between atoms: C23_33  and  C24_34 
REMARK   11  A    between atoms: C24_34  and  C25_35 
REMARK   12  A    between atoms: C25_35  and  C26_36 
ROOT
HETATM    1  C1  UNL     1      -5.902  -0.589  -1.503  1.00  0.00     0.016 C 
HETATM    2  C2  UNL     1      -5.163  -0.938  -0.233  1.00  0.00    -0.035 C 
HETATM    3  C3  UNL     1      -5.302  -2.460  -0.082  1.00  0.00     0.012 C 
HETATM    4  C4  UNL     1      -6.734  -2.869   0.042  1.00  0.00     0.032 C 
HETATM    5  C5  UNL     1      -7.586  -2.000   0.893  1.00  0.00     0.118 C 
HETATM    6  C6  UNL     1      -7.314  -0.532   0.797  1.00  0.00     0.037 C 
HETATM    7  C7  UNL     1      -5.811  -0.355   0.996  1.00  0.00     0.003 C 
HETATM    8  C8  UNL     1      -5.408   1.041   1.301  1.00  0.00     0.084 C 
HETATM    9  C9  UNL     1      -4.604   1.670   0.202  1.00  0.00     0.132 C 
HETATM   10  O2  UNL     1      -4.763   2.865   0.053  1.00  0.00    -0.298 OA
HETATM   11  C10 UNL     1      -3.678   0.943  -0.661  1.00  0.00     0.069 C 
HETATM   12  C11 UNL     1      -3.728  -0.569  -0.404  1.00  0.00     0.006 C 
HETATM   13  C12 UNL     1      -2.913  -0.986   0.765  1.00  0.00     0.007 C 
HETATM   14  C13 UNL     1      -1.550  -0.420   0.850  1.00  0.00     0.011 C 
HETATM   15  C14 UNL     1      -1.385   0.980   0.387  1.00  0.00    -0.031 C 
HETATM   16  C15 UNL     1      -1.507   1.908   1.607  1.00  0.00     0.016 C 
HETATM   17  C16 UNL     1       0.068   1.150  -0.036  1.00  0.00     0.064 C 
HETATM   18  C17 UNL     1       0.383   0.274  -1.173  1.00  0.00     0.004 C 
HETATM   19  N1  UNL     1       1.575  -0.186  -1.317  1.00  0.00    -0.307 N 
ATOM     20  H1  UNL     1       1.786  -0.794  -2.108  1.00  0.00     0.186 HD
HETATM   21  C27 UNL     1      -0.720  -0.027  -2.111  1.00  0.00     0.055 C 
HETATM   22  C28 UNL     1      -1.755   1.065  -2.116  1.00  0.00     0.016 C 
HETATM   23  C29 UNL     1      -2.269   1.420  -0.730  1.00  0.00    -0.025 C 
HETATM   24  C30 UNL     1      -2.273   2.948  -0.716  1.00  0.00     0.016 C 
ENDROOT
BRANCH  19  25
HETATM   25  N2  UNL     1       2.591   0.136  -0.401  1.00  0.00    -0.277 N 
ATOM     26  H2  UNL     1       2.644   1.074  -0.004  1.00  0.00     0.189 HD
BRANCH  25  27
HETATM   27  C18 UNL     1       3.530  -0.836  -0.035  1.00  0.00     0.186 C 
HETATM   28  S1  UNL     1       3.392  -2.337  -0.694  1.00  0.00    -0.040 SA
BRANCH  27  29
HETATM   29  N3  UNL     1       4.586  -0.604   0.863  1.00  0.00    -0.366 N 
ATOM     30  H3  UNL     1       5.195  -1.398   1.062  1.00  0.00     0.161 HD
BRANCH  29  31
HETATM   31  C19 UNL     1       4.902   0.624   1.529  1.00  0.00     0.122 C 
BRANCH  31  32
HETATM   32  C20 UNL     1       5.410   1.745   0.759  1.00  0.00     0.020 C 
BRANCH  32  33
HETATM   33  C21 UNL     1       6.682   1.733   0.013  1.00  0.00     0.002 C 
BRANCH  33  34
HETATM   34  C22 UNL     1       7.940   1.559   0.721  1.00  0.00     0.000 C 
BRANCH  34  35
HETATM   35  C23 UNL     1       8.446   0.360   1.368  1.00  0.00     0.000 C 
BRANCH  35  36
HETATM   36  C24 UNL     1       8.910  -0.806   0.593  1.00  0.00     0.001 C 
BRANCH  36  37
HETATM   37  C25 UNL     1       8.012  -1.527  -0.304  1.00  0.00     0.011 C 
BRANCH  37  38
HETATM   38  C26 UNL     1       8.759  -2.705  -0.985  1.00  0.00     0.085 C 
HETATM   39 BR1  UNL     1      10.239  -1.983  -1.994  1.00  0.00    -0.097 Br
ENDBRANCH  37  38
ENDBRANCH  36  37
ENDBRANCH  35  36
ENDBRANCH  34  35
ENDBRANCH  33  34
ENDBRANCH  32  33
ENDBRANCH  31  32
ENDBRANCH  29  31
ENDBRANCH  27  29
ENDBRANCH  25  27
ENDBRANCH  19  25
BRANCH   5  40
HETATM   40  O1  UNL     1      -8.936  -2.194   0.523  1.00  0.00    -0.396 OA
ATOM     41  H1  UNL     1      -9.481  -1.638   1.067  1.00  0.00     0.210 HD
ENDBRANCH   5  40
TORSDOF 12
