REMARK  14 active torsions:
REMARK  status: ('A' for Active; 'I' for Inactive)
REMARK    1  A    between atoms: C3_3  and  O1_4 
REMARK    2  A    between atoms: O1_4  and  C4_5 
REMARK    3  A    between atoms: C6_8  and  C7_9 
REMARK    4  A    between atoms: C7_9  and  C8_10 
REMARK    5  A    between atoms: C8_10  and  C10_12 
REMARK    6  A    between atoms: C10_12  and  C11_13 
REMARK    7  A    between atoms: C11_13  and  C12_14 
REMARK    8  A    between atoms: C12_14  and  C13_15 
REMARK    9  A    between atoms: C13_15  and  N1_17 
REMARK       I    between atoms: N1_17  and  C15_19 
REMARK   10  A    between atoms: C15_19  and  C16_21 
REMARK   11  A    between atoms: C16_21  and  N2_22 
REMARK   12  A    between atoms: C16_21  and  C17_26 
REMARK   13  A    between atoms: C17_26  and  C19_28 
REMARK   14  A    between atoms: C34_43  and  O4_44 
ROOT
HETATM    1  C1  UNL     1      -0.803   3.147  -1.634  1.00  0.00     0.017 C 
HETATM    2  C2  UNL     1      -1.315   1.991  -1.269  1.00  0.00    -0.055 C 
HETATM    3  C3  UNL     1      -0.569   0.719  -1.626  1.00  0.00     0.164 C 
HETATM    4  C6  UNL     1      -0.302   0.086  -0.275  1.00  0.00     0.020 C 
HETATM    5  C21 UNL     1      -1.711  -0.302   0.240  1.00  0.00     0.017 C 
HETATM    6  C22 UNL     1      -2.459   0.936   0.680  1.00  0.00    -0.032 C 
HETATM    7  C23 UNL     1      -1.676   1.552   1.805  1.00  0.00     0.016 C 
HETATM    8  C24 UNL     1      -2.562   1.819  -0.537  1.00  0.00     0.025 C 
HETATM    9  C25 UNL     1      -3.261   3.073  -0.139  1.00  0.00     0.011 C 
HETATM   10  C26 UNL     1      -4.701   2.667   0.137  1.00  0.00     0.013 C 
HETATM   11  C27 UNL     1      -4.850   1.611   1.172  1.00  0.00    -0.003 C 
HETATM   12  C28 UNL     1      -4.916   2.337   2.520  1.00  0.00     0.019 C 
HETATM   13  C29 UNL     1      -3.816   0.555   1.196  1.00  0.00     0.006 C 
HETATM   14  C30 UNL     1      -4.238  -0.760   0.550  1.00  0.00     0.007 C 
HETATM   15  C31 UNL     1      -5.508  -1.318   1.116  1.00  0.00     0.008 C 
HETATM   16  C32 UNL     1      -6.381  -0.282   1.741  1.00  0.00     0.029 C 
HETATM   17  C33 UNL     1      -7.792  -0.692   1.936  1.00  0.00     0.039 C 
HETATM   18  C34 UNL     1      -8.740  -0.170   0.886  1.00  0.00     0.118 C 
HETATM   19  C35 UNL     1      -8.619   1.301   0.654  1.00  0.00     0.035 C 
HETATM   20  C36 UNL     1      -7.360   1.888   1.308  1.00  0.00     0.047 C 
HETATM   21  C37 UNL     1      -6.233   0.984   0.937  1.00  0.00     0.115 C 
HETATM   22  F1  UNL     1      -6.258   0.692  -0.435  1.00  0.00    -0.242 F 
ENDROOT
BRANCH   4  23
HETATM   23  C7  UNL     1       0.585  -1.093  -0.292  1.00  0.00     0.012 C 
BRANCH  23  24
HETATM   24  C8  UNL     1       1.938  -0.778  -0.850  1.00  0.00    -0.018 C 
HETATM   25  C9  UNL     1       2.695   0.267  -0.102  1.00  0.00     0.010 C 
BRANCH  24  26
HETATM   26  C10 UNL     1       2.788  -2.040  -0.936  1.00  0.00     0.004 C 
BRANCH  26  27
HETATM   27  C11 UNL     1       4.150  -1.620  -1.510  1.00  0.00     0.002 C 
BRANCH  27  28
HETATM   28  C12 UNL     1       5.047  -2.817  -1.587  1.00  0.00     0.024 C 
BRANCH  28  29
HETATM   29  C13 UNL     1       6.408  -2.476  -2.126  1.00  0.00     0.080 C 
HETATM   30  C14 UNL     1       6.408  -1.897  -3.504  1.00  0.00     0.032 C 
BRANCH  29  31
HETATM   31  N1  UNL     1       7.029  -1.494  -1.216  1.00  0.00    -0.355 N 
HETATM   32  C15 UNL     1       7.866  -1.909  -0.172  1.00  0.00     0.248 C 
HETATM   33  O3  UNL     1       8.037  -3.183  -0.065  1.00  0.00    -0.271 OA
ATOM     34  H1  UNL     1       6.846  -0.499  -1.349  1.00  0.00     0.162 HD
BRANCH  32  35
HETATM   35  C16 UNL     1       8.521  -0.987   0.748  1.00  0.00     0.278 C 
BRANCH  35  36
HETATM   36  N2  UNL     1       9.490  -1.764   1.548  1.00  0.00    -0.066 N 
ATOM     37  H23 UNL     1       9.065  -2.561   2.021  1.00  0.00     0.275 HD
ATOM     38  H22 UNL     1      10.151  -2.286   0.973  1.00  0.00     0.275 HD
ATOM     39  H21 UNL     1       9.948  -1.119   2.192  1.00  0.00     0.275 HD
ENDBRANCH  35  36
BRANCH  35  40
HETATM   40  C17 UNL     1       7.683  -0.223   1.711  1.00  0.00     0.021 C 
HETATM   41  C18 UNL     1       6.851  -1.069   2.626  1.00  0.00     0.012 C 
BRANCH  40  42
HETATM   42  C19 UNL     1       6.839   0.836   1.074  1.00  0.00     0.002 C 
HETATM   43  C20 UNL     1       6.088   1.532   2.228  1.00  0.00     0.005 C 
ENDBRANCH  40  42
ENDBRANCH  35  40
ENDBRANCH  32  35
ENDBRANCH  29  31
ENDBRANCH  28  29
ENDBRANCH  27  28
ENDBRANCH  26  27
ENDBRANCH  24  26
ENDBRANCH  23  24
ENDBRANCH   4  23
BRANCH   3  44
HETATM   44  O1  UNL     1      -1.490  -0.028  -2.391  1.00  0.00    -0.311 OA
BRANCH  44  45
HETATM   45  C4  UNL     1      -1.244  -0.395  -3.709  1.00  0.00     0.255 C 
HETATM   46  C5  UNL     1      -2.205  -1.180  -4.523  1.00  0.00     0.126 C 
HETATM   47  O2  UNL     1      -0.150  -0.030  -4.200  1.00  0.00    -0.266 OA
ENDBRANCH  44  45
ENDBRANCH   3  44
BRANCH  18  48
HETATM   48  O4  UNL     1      -8.684  -0.921  -0.298  1.00  0.00    -0.396 OA
ATOM     49  H4  UNL     1      -9.281  -0.592  -0.960  1.00  0.00     0.210 HD
ENDBRANCH  18  48
TORSDOF 14
