REMARK  14 active torsions:
REMARK  status: ('A' for Active; 'I' for Inactive)
REMARK    1  A    between atoms: C2_2  and  C3_3 
REMARK    2  A    between atoms: C2_2  and  C20_26 
REMARK    3  A    between atoms: C5_5  and  O1_6 
REMARK    4  A    between atoms: C8_10  and  C9_11 
REMARK    5  A    between atoms: C14_18  and  O4_19 
REMARK    6  A    between atoms: C23_29  and  C24_30 
REMARK    7  A    between atoms: C24_30  and  C25_31 
REMARK    8  A    between atoms: C24_30  and  C28_35 
REMARK    9  A    between atoms: C25_31  and  C26_32 
REMARK   10  A    between atoms: C28_35  and  O5_36 
REMARK   11  A    between atoms: C28_35  and  C29_38 
REMARK   12  A    between atoms: C29_38  and  C30_39 
REMARK   13  A    between atoms: C30_39  and  C32_41 
REMARK   14  A    between atoms: C32_41  and  C33_42 
ROOT
HETATM    1  C1  UNL     1      -1.257   2.867   1.521  1.00  0.00     0.020 C 
HETATM    2  C2  UNL     1      -1.020   1.745   0.823  1.00  0.00    -0.052 C 
ENDROOT
BRANCH   2   3
HETATM    3  C3  UNL     1      -2.200   1.035   0.351  1.00  0.00    -0.012 A 
HETATM    4  C4  UNL     1      -2.425   0.928  -0.997  1.00  0.00     0.050 A 
HETATM    5  C5  UNL     1      -3.540   0.219  -1.450  1.00  0.00     0.075 A 
HETATM    6  C6  UNL     1      -4.394  -0.360  -0.567  1.00  0.00     0.010 A 
HETATM    7  C7  UNL     1      -4.194  -0.270   0.789  1.00  0.00     0.093 A 
HETATM    8  C19 UNL     1      -5.610  -1.134  -1.015  1.00  0.00     0.053 C 
HETATM    9  C8  UNL     1      -3.070   0.445   1.240  1.00  0.00     0.046 A 
HETATM   10  O3  UNL     1      -5.071  -0.863   1.685  1.00  0.00    -0.339 OA
HETATM   11  C10 UNL     1      -6.352  -1.358   1.345  1.00  0.00     0.069 C 
HETATM   12  C11 UNL     1      -6.313  -2.849   1.405  1.00  0.00     0.047 C 
HETATM   13  C12 UNL     1      -7.370  -0.790   2.304  1.00  0.00     0.041 C 
HETATM   14  C18 UNL     1      -6.683  -0.815  -0.026  1.00  0.00     0.035 C 
HETATM   15  C13 UNL     1      -8.755  -1.233   1.908  1.00  0.00     0.035 C 
HETATM   16  C14 UNL     1      -9.116  -0.942   0.497  1.00  0.00     0.126 C 
HETATM   17  C15 UNL     1      -8.051  -1.176  -0.508  1.00  0.00    -0.015 C 
HETATM   18  C16 UNL     1      -8.348  -0.254  -1.702  1.00  0.00     0.018 C 
HETATM   19  C17 UNL     1      -8.156  -2.584  -1.037  1.00  0.00     0.018 C 
BRANCH   5  20
HETATM   20  O1  UNL     1      -3.797   0.091  -2.808  1.00  0.00    -0.360 OA
ATOM     21  H1  UNL     1      -4.555  -0.391  -3.116  1.00  0.00     0.217 HD
ENDBRANCH   5  20
BRANCH   9  22
HETATM   22  C9  UNL     1      -2.910   0.487   2.685  1.00  0.00     0.273 C 
HETATM   23  O2  UNL     1      -3.379   1.347   3.455  1.00  0.00    -0.301 OA
ENDBRANCH   9  22
BRANCH  16  24
HETATM   24  O4  UNL     1     -10.219  -1.744   0.159  1.00  0.00    -0.395 OA
ATOM     25  H4  UNL     1     -10.450  -1.558  -0.744  1.00  0.00     0.210 HD
ENDBRANCH  16  24
ENDBRANCH   2   3
BRANCH   2  26
HETATM   26  C20 UNL     1       0.358   1.291   0.592  1.00  0.00     0.025 C 
HETATM   27  C21 UNL     1       1.306   2.141   1.396  1.00  0.00     0.010 C 
HETATM   28  C22 UNL     1       2.742   1.649   1.240  1.00  0.00     0.013 C 
HETATM   29  C23 UNL     1       3.082   1.980  -0.232  1.00  0.00     0.062 C 
HETATM   30  C36 UNL     1       2.238   1.058  -1.008  1.00  0.00     0.132 C 
HETATM   31  O6  UNL     1       2.638   0.200  -1.762  1.00  0.00    -0.298 OA
HETATM   32  C37 UNL     1       0.752   1.192  -0.851  1.00  0.00     0.088 C 
BRANCH  29  33
HETATM   33  C24 UNL     1       4.528   1.971  -0.517  1.00  0.00     0.027 C 
BRANCH  33  34
HETATM   34  C25 UNL     1       4.870   2.294  -1.914  1.00  0.00     0.027 C 
BRANCH  34  35
HETATM   35  C26 UNL     1       4.464   3.614  -2.456  1.00  0.00     0.079 C 
HETATM   36  C27 UNL     1       5.016   4.804  -1.706  1.00  0.00     0.026 C 
HETATM   37 CL1  UNL     1       2.777   3.864  -2.805  1.00  0.00    -0.125 Cl
ENDBRANCH  34  35
ENDBRANCH  33  34
BRANCH  33  38
HETATM   38  C28 UNL     1       5.246   0.742   0.015  1.00  0.00     0.123 C 
BRANCH  38  39
HETATM   39  O5  UNL     1       5.140   0.645   1.394  1.00  0.00    -0.395 OA
ATOM     40  H5  UNL     1       5.589  -0.123   1.727  1.00  0.00     0.210 HD
ENDBRANCH  38  39
BRANCH  38  41
HETATM   41  C29 UNL     1       6.668   0.656  -0.369  1.00  0.00     0.036 C 
BRANCH  41  42
HETATM   42  C30 UNL     1       7.347  -0.575   0.219  1.00  0.00    -0.016 C 
HETATM   43  C31 UNL     1       8.816  -0.525  -0.243  1.00  0.00     0.010 C 
BRANCH  42  44
HETATM   44  C32 UNL     1       6.744  -1.839  -0.245  1.00  0.00     0.008 C 
BRANCH  44  45
HETATM   45  C33 UNL     1       7.296  -3.119   0.259  1.00  0.00    -0.023 C 
HETATM   46  C34 UNL     1       8.706  -3.449  -0.028  1.00  0.00     0.009 C 
HETATM   47  C35 UNL     1       7.059  -3.303   1.754  1.00  0.00     0.009 C 
ENDBRANCH  44  45
ENDBRANCH  42  44
ENDBRANCH  41  42
ENDBRANCH  38  41
ENDBRANCH  33  38
ENDBRANCH  29  33
ENDBRANCH   2  26
TORSDOF 14
