REMARK  13 active torsions:
REMARK  status: ('A' for Active; 'I' for Inactive)
REMARK    1  A    between atoms: C13_13  and  C14_14 
REMARK    2  A    between atoms: C15_15  and  C16_16 
REMARK    3  A    between atoms: C16_16  and  C17_18 
REMARK    4  A    between atoms: C17_18  and  C19_20 
REMARK    5  A    between atoms: C19_20  and  O2_21 
REMARK    6  A    between atoms: C19_20  and  C20_23 
REMARK    7  A    between atoms: C20_23  and  N1_24 
REMARK    8  A    between atoms: C20_23  and  O3_31 
REMARK    9  A    between atoms: C21_26  and  C22_27 
REMARK   10  A    between atoms: C22_27  and  C23_28 
REMARK   11  A    between atoms: C23_28  and  C24_29 
REMARK   12  A    between atoms: O3_31  and  C26_32 
REMARK   13  A    between atoms: C36_43  and  O5_44 
ROOT
HETATM    1  C1  UNL     1      -9.637   0.098  -0.438  1.00  0.00     0.015 C 
HETATM    2  C2  UNL     1      -8.430  -0.165  -0.930  1.00  0.00    -0.074 C 
HETATM    3  C3  UNL     1      -8.236  -0.704  -2.310  1.00  0.00     0.039 C 
HETATM    4  C4  UNL     1      -6.837  -0.122  -2.589  1.00  0.00     0.040 C 
HETATM    5  C5  UNL     1      -6.175  -0.518  -1.264  1.00  0.00    -0.061 C 
HETATM    6  C6  UNL     1      -4.718  -0.400  -1.215  1.00  0.00    -0.067 C 
HETATM    7  C7  UNL     1      -4.203  -1.435  -0.265  1.00  0.00     0.036 C 
HETATM    8  C8  UNL     1      -2.730  -1.475  -0.011  1.00  0.00     0.011 C 
HETATM    9  C9  UNL     1      -2.301  -0.057   0.129  1.00  0.00     0.007 C 
HETATM   10  C10 UNL     1      -0.950   0.159   0.779  1.00  0.00    -0.016 C 
HETATM   11  C11 UNL     1      -1.021   1.323   1.813  1.00  0.00     0.020 C 
HETATM   12  C12 UNL     1      -0.678  -1.040   1.632  1.00  0.00     0.020 C 
HETATM   13  C13 UNL     1       0.137   0.522  -0.111  1.00  0.00    -0.053 C 
HETATM   14  C28 UNL     1      -0.286   1.426  -1.077  1.00  0.00    -0.018 C 
HETATM   15  C29 UNL     1      -1.694   1.878  -1.081  1.00  0.00     0.038 C 
HETATM   16  C30 UNL     1      -2.548   0.684  -1.140  1.00  0.00    -0.025 C 
HETATM   17  C31 UNL     1      -2.101  -0.102  -2.373  1.00  0.00     0.017 C 
HETATM   18  C32 UNL     1      -4.053   0.924  -1.237  1.00  0.00    -0.012 C 
HETATM   19  C33 UNL     1      -4.278   1.508  -2.648  1.00  0.00     0.021 C 
HETATM   20  C34 UNL     1      -4.502   1.957  -0.295  1.00  0.00     0.017 C 
HETATM   21  C35 UNL     1      -5.578   1.629   0.694  1.00  0.00     0.034 C 
HETATM   22  C36 UNL     1      -6.945   1.437   0.090  1.00  0.00     0.135 C 
HETATM   23  C37 UNL     1      -7.090  -0.001  -0.257  1.00  0.00     0.028 C 
HETATM   24  C38 UNL     1      -7.268  -0.877   0.989  1.00  0.00     0.027 C 
ENDROOT
BRANCH  13  25
HETATM   25  C14 UNL     1       1.519   0.177  -0.177  1.00  0.00     0.011 C 
HETATM   26  C15 UNL     1       2.494  -0.479   0.273  1.00  0.00     0.051 C 
BRANCH  26  27
HETATM   27  C16 UNL     1       2.994  -1.402   1.205  1.00  0.00     0.155 C 
HETATM   28  O1  UNL     1       2.369  -2.016   2.079  1.00  0.00    -0.293 OA
BRANCH  27  29
HETATM   29  C17 UNL     1       4.509  -1.731   1.199  1.00  0.00     0.088 C 
HETATM   30  C18 UNL     1       4.696  -2.902   2.104  1.00  0.00     0.021 C 
BRANCH  29  31
HETATM   31  C19 UNL     1       5.227  -0.501   1.756  1.00  0.00     0.178 C 
BRANCH  31  32
HETATM   32  O2  UNL     1       5.027   0.600   0.998  1.00  0.00    -0.390 OA
ATOM     33  H2  UNL     1       5.473   1.364   1.344  1.00  0.00     0.210 HD
ENDBRANCH  31  32
BRANCH  31  34
HETATM   34  C20 UNL     1       6.608  -0.821   2.201  1.00  0.00     0.259 C 
BRANCH  34  35
HETATM   35  N1  UNL     1       7.586  -1.146   1.333  1.00  0.00    -0.374 N 
HETATM   36  C21 UNL     1       8.215  -0.512   0.339  1.00  0.00     0.058 C 
ATOM     37  H1  UNL     1       7.926  -2.099   1.466  1.00  0.00     0.161 HD
BRANCH  36  38
HETATM   38  C22 UNL     1       7.552  -0.239  -0.972  1.00  0.00     0.044 C 
BRANCH  38  39
HETATM   39  C23 UNL     1       8.631   0.437  -1.842  1.00  0.00     0.005 C 
BRANCH  39  40
HETATM   40  C24 UNL     1       8.110   0.763  -3.216  1.00  0.00    -0.004 C 
HETATM   41  C25 UNL     1       7.662  -0.479  -3.951  1.00  0.00     0.005 C 
ENDBRANCH  39  40
ENDBRANCH  38  39
ENDBRANCH  36  38
ENDBRANCH  34  35
BRANCH  34  42
HETATM   42  O3  UNL     1       7.000   0.324   3.034  1.00  0.00    -0.293 OA
BRANCH  42  43
HETATM   43  C26 UNL     1       7.076   0.206   4.374  1.00  0.00     0.256 C 
HETATM   44  C27 UNL     1       7.473   1.341   5.276  1.00  0.00     0.126 C 
HETATM   45  O4  UNL     1       6.819  -0.870   4.970  1.00  0.00    -0.266 OA
ENDBRANCH  42  43
ENDBRANCH  34  42
ENDBRANCH  31  34
ENDBRANCH  29  31
ENDBRANCH  27  29
ENDBRANCH  26  27
ENDBRANCH  13  25
BRANCH  22  46
HETATM   46  O5  UNL     1      -7.881   1.831   1.042  1.00  0.00    -0.394 OA
ATOM     47  H5  UNL     1      -8.743   1.710   0.661  1.00  0.00     0.210 HD
ENDBRANCH  22  46
TORSDOF 13
