REMARK  15 active torsions:
REMARK  status: ('A' for Active; 'I' for Inactive)
REMARK    1  A    between atoms: C2_2  and  C3_3 
REMARK    2  A    between atoms: C3_3  and  N1_4 
REMARK    3  A    between atoms: C3_3  and  C4_8 
REMARK       I    between atoms: C4_8  and  N2_10 
REMARK    4  A    between atoms: N2_10  and  C5_12 
REMARK    5  A    between atoms: C5_12  and  N3_13 
REMARK    6  A    between atoms: C5_12  and  C6_17 
REMARK    7  A    between atoms: C10_28  and  C11_29 
REMARK    8  A    between atoms: C11_29  and  O3_31 
REMARK    9  A    between atoms: C13_33  and  C14_34 
REMARK   10  A    between atoms: C14_34  and  O4_35 
REMARK   11  A    between atoms: O4_35  and  C15_36 
REMARK   12  A    between atoms: C16_40  and  C17_41 
REMARK   13  A    between atoms: C17_41  and  C18_42 
REMARK   14  A    between atoms: C18_42  and  N8_43 
REMARK   15  A    between atoms: S3_49  and  N11_50 
ROOT
HETATM    1  C6  UNL     1       0.981  -0.166   0.542  1.00  0.00     0.157 C 
HETATM    2  N4  UNL     1       1.102  -1.563   0.906  1.00  0.00    -0.296 N 
HETATM    3  C7  UNL     1       0.831  -2.081   2.195  1.00  0.00     0.174 C 
HETATM    4  N5  UNL     1       0.242  -1.493   3.239  1.00  0.00    -0.277 N 
ATOM      5  H5  UNL     1       0.108  -1.976   4.128  1.00  0.00     0.189 HD
HETATM    6  N6  UNL     1      -0.169  -0.211   3.045  1.00  0.00    -0.274 N 
ATOM      7  H6  UNL     1       0.616   0.318   3.426  1.00  0.00     0.189 HD
HETATM    8  C8  UNL     1      -0.896   0.655   2.697  1.00  0.00     0.218 C 
HETATM    9  N7  UNL     1      -2.198   0.529   2.084  1.00  0.00    -0.331 N 
ATOM     10  H7  UNL     1      -2.951   0.116   2.634  1.00  0.00     0.168 HD
HETATM   11  C9  UNL     1      -2.501   0.968   0.695  1.00  0.00     0.074 C 
HETATM   12  C10 UNL     1      -3.845   0.788   0.283  1.00  0.00     0.081 C 
HETATM   13  C13 UNL     1      -4.320   1.643  -0.634  1.00  0.00     0.032 C 
HETATM   14  S1  UNL     1      -3.187   2.987  -1.201  1.00  0.00    -0.056 SA
HETATM   15  S2  UNL     1      -1.315   2.049  -1.456  1.00  0.00    -0.048 SA
HETATM   16  C16 UNL     1      -1.351   0.598  -0.268  1.00  0.00     0.176 C 
HETATM   17  N9  UNL     1      -0.054   0.676   0.331  1.00  0.00    -0.236 N 
HETATM   18  N10 UNL     1       0.188   2.086   0.836  1.00  0.00    -0.232 N 
ATOM     19  H10 UNL     1       0.494   2.846   0.229  1.00  0.00     0.199 HD
HETATM   20  S3  UNL     1      -0.083   2.283   2.431  1.00  0.00     0.185 S 
HETATM   21  O6  UNL     1      -1.024   3.355   2.644  1.00  0.00    -0.219 OA
HETATM   22  S4  UNL     1       1.313  -3.847   2.396  1.00  0.00    -0.018 SA
HETATM   23  S5  UNL     1       0.892  -4.205   0.381  1.00  0.00    -0.064 SA
HETATM   24  C19 UNL     1       1.661  -2.565   0.008  1.00  0.00     0.162 C 
HETATM   25  C20 UNL     1       1.610  -2.518  -1.413  1.00  0.00     0.045 C 
ENDROOT
BRANCH   1  26
HETATM   26  C5  UNL     1       2.100   0.239  -0.458  1.00  0.00     0.354 C 
BRANCH  26  27
HETATM   27  N2  UNL     1       3.417   0.020   0.076  1.00  0.00    -0.326 N 
HETATM   28  C4  UNL     1       4.608  -0.182  -0.652  1.00  0.00     0.250 C 
HETATM   29  O1  UNL     1       4.554  -0.170  -1.906  1.00  0.00    -0.271 OA
ATOM     30  H2  UNL     1       3.499   0.010   1.093  1.00  0.00     0.165 HD
BRANCH  28  31
HETATM   31  C3  UNL     1       5.925  -0.408  -0.023  1.00  0.00     0.274 C 
BRANCH  31  32
HETATM   32  C2  UNL     1       6.863   0.722  -0.409  1.00  0.00     0.038 C 
HETATM   33  C1  UNL     1       7.094   0.742  -1.903  1.00  0.00     0.007 C 
ENDBRANCH  31  32
BRANCH  31  34
HETATM   34  N1  UNL     1       5.741  -0.379   1.413  1.00  0.00    -0.067 N 
ATOM     35  H13 UNL     1       6.624  -0.411   1.922  1.00  0.00     0.275 HD
ATOM     36  H12 UNL     1       5.420   0.529   1.749  1.00  0.00     0.275 HD
ATOM     37  H11 UNL     1       5.111  -1.138   1.672  1.00  0.00     0.275 HD
ENDBRANCH  31  34
ENDBRANCH  28  31
ENDBRANCH  26  27
BRANCH  26  38
HETATM   38  N3  UNL     1       2.021   1.726  -0.462  1.00  0.00    -0.051 N 
ATOM     39  H33 UNL     1       2.205   2.173   0.436  1.00  0.00     0.277 HD
ATOM     40  H32 UNL     1       2.775   2.200  -0.959  1.00  0.00     0.277 HD
ATOM     41  H31 UNL     1       1.087   1.881  -0.841  1.00  0.00     0.277 HD
ENDBRANCH  26  38
ENDBRANCH   1  26
BRANCH  16  42
HETATM   42  C17 UNL     1      -1.751  -0.485  -1.123  1.00  0.00     0.041 C 
BRANCH  42  43
HETATM   43  C18 UNL     1      -2.101  -1.801  -0.661  1.00  0.00     0.080 C 
BRANCH  43  44
HETATM   44  N8  UNL     1      -2.725  -2.611  -1.463  1.00  0.00    -0.408 N 
ATOM     45  H82 UNL     1      -2.957  -2.301  -2.407  1.00  0.00     0.155 HD
ATOM     46  H81 UNL     1      -2.973  -3.544  -1.135  1.00  0.00     0.155 HD
ENDBRANCH  43  44
ENDBRANCH  42  43
ENDBRANCH  16  42
BRANCH  20  47
HETATM   47  N11 UNL     1       1.378   2.340   3.293  1.00  0.00    -0.337 N 
ATOM     48 2H11 UNL     1       1.737   1.578   3.868  1.00  0.00     0.167 HD
ATOM     49 1H11 UNL     1       1.829   3.243   3.145  1.00  0.00     0.167 HD
ENDBRANCH  20  47
BRANCH  12  50
HETATM   50  C11 UNL     1      -4.740  -0.231   0.760  1.00  0.00     0.296 C 
HETATM   51  O2  UNL     1      -4.364  -1.057   1.670  1.00  0.00    -0.259 OA
BRANCH  50  52
HETATM   52  O3  UNL     1      -6.042  -0.470   0.347  1.00  0.00    -0.322 OA
HETATM   53  C12 UNL     1      -6.781  -1.517   0.919  1.00  0.00     0.213 C 
ENDBRANCH  50  52
ENDBRANCH  12  50
BRANCH  13  54
HETATM   54  C14 UNL     1      -5.640   1.685  -1.224  1.00  0.00     0.225 C 
BRANCH  54  55
HETATM   55  O4  UNL     1      -5.566   1.505  -2.659  1.00  0.00    -0.323 OA
BRANCH  55  56
HETATM   56  C15 UNL     1      -6.773   1.528  -3.331  1.00  0.00     0.398 C 
HETATM   57  O5  UNL     1      -7.873   1.692  -2.754  1.00  0.00    -0.276 OA
ENDBRANCH  55  56
ENDBRANCH  54  55
ENDBRANCH  13  54
TORSDOF 15
