REMARK  12 active torsions:
REMARK  status: ('A' for Active; 'I' for Inactive)
REMARK    1  A    between atoms: C2_2  and  C7_16 
REMARK    2  A    between atoms: N1_3  and  O1_5 
REMARK    3  A    between atoms: O1_5  and  C3_6 
REMARK    4  A    between atoms: C3_6  and  C5_8 
REMARK    5  A    between atoms: C3_6  and  C6_13 
REMARK    6  A    between atoms: C5_8  and  S1_9 
REMARK       I    between atoms: C7_16  and  N2_18 
REMARK    7  A    between atoms: C8_20  and  C9_21 
REMARK    8  A    between atoms: C9_21  and  N3_22 
REMARK    9  A    between atoms: C10_25  and  C11_26 
REMARK       I    between atoms: C11_26  and  N5_28 
REMARK   10  A    between atoms: N5_28  and  C12_30 
REMARK   11  A    between atoms: C14_34  and  N7_35 
REMARK   12  A    between atoms: C15_40  and  N9_41 
REMARK       I    between atoms: N10_44  and  C18_45 
ROOT
HETATM    1  N3  UNL     1      -1.492  -0.385  -1.546  1.00  0.00    -0.114 N 
HETATM    2  N4  UNL     1      -0.988   0.455  -0.671  1.00  0.00    -0.262 N 
ATOM      3  H4  UNL     1      -1.494   0.852   0.120  1.00  0.00     0.189 HD
HETATM    4  C10 UNL     1       0.306   0.715  -0.978  1.00  0.00     0.230 A 
HETATM    5  N13 UNL     1       0.627   0.025  -2.076  1.00  0.00    -0.044 N 
HETATM    6  N14 UNL     1       1.537  -0.301  -2.979  1.00  0.00    -0.204 N 
ATOM      7  H14 UNL     1       2.497   0.042  -3.007  1.00  0.00     0.211 HD
HETATM    8  N15 UNL     1       1.001  -1.133  -3.826  1.00  0.00    -0.213 N 
ATOM      9  H15 UNL     1       1.492  -1.540  -4.622  1.00  0.00     0.210 HD
HETATM   10  N16 UNL     1      -0.251  -1.381  -3.525  1.00  0.00    -0.113 N 
ATOM     11  H16 UNL     1      -0.898  -1.993  -4.022  1.00  0.00     0.207 HD
HETATM   12  C21 UNL     1      -0.500  -0.650  -2.412  1.00  0.00     0.739 A 
ENDROOT
BRANCH   4  13
HETATM   13  C11 UNL     1       1.216   1.599  -0.218  1.00  0.00     0.294 C 
HETATM   14  O8  UNL     1       0.717   2.175   0.804  1.00  0.00    -0.264 OA
HETATM   15  N5  UNL     1       2.545   1.761  -0.632  1.00  0.00    -0.316 N 
ATOM     16  H5  UNL     1       2.835   1.246  -1.463  1.00  0.00     0.169 HD
BRANCH  15  17
HETATM   17  C12 UNL     1       3.527   2.575  -0.004  1.00  0.00     0.096 A 
HETATM   18  C13 UNL     1       3.095   3.656   0.762  1.00  0.00     0.139 A 
HETATM   19  N6  UNL     1       4.038   4.498   1.251  1.00  0.00    -0.200 N 
HETATM   20  C14 UNL     1       5.350   4.331   1.025  1.00  0.00     0.677 A 
ATOM     21  H6  UNL     1       3.737   5.293   1.815  1.00  0.00     0.183 HD
HETATM   22  N8  UNL     1       5.740   3.285   0.287  1.00  0.00    -0.175 N 
HETATM   23  C15 UNL     1       4.870   2.373  -0.251  1.00  0.00     0.147 A 
ATOM     24  H8  UNL     1       6.738   3.160   0.116  1.00  0.00     0.186 HD
BRANCH  20  25
HETATM   25  N7  UNL     1       6.171   5.183   1.526  1.00  0.00    -0.234 N 
ATOM     26  H72 UNL     1       5.874   5.980   2.089  1.00  0.00     0.174 HD
ATOM     27  H71 UNL     1       7.168   5.056   1.354  1.00  0.00     0.174 HD
ENDBRANCH  20  25
BRANCH  23  28
HETATM   28  N9  UNL     1       5.377   1.256  -0.935  1.00  0.00    -0.362 N 
HETATM   29  C16 UNL     1       6.669   1.485  -1.639  1.00  0.00     0.144 C 
HETATM   30  C17 UNL     1       7.725   0.808  -0.796  1.00  0.00     0.145 C 
HETATM   31  N10 UNL     1       7.225  -0.476  -0.373  1.00  0.00    -0.353 N 
HETATM   32  C18 UNL     1       8.037  -1.204   0.545  1.00  0.00     0.184 C 
HETATM   33  C19 UNL     1       6.008  -1.060  -0.809  1.00  0.00     0.145 C 
HETATM   34  N11 UNL     1       8.287  -2.455   0.323  1.00  0.00    -0.374 N 
HETATM   35  N12 UNL     1       8.569  -0.561   1.691  1.00  0.00    -0.064 NA
ATOM     36 2H11 UNL     1       7.904  -2.918  -0.502  1.00  0.00     0.158 HD
ATOM     37 1H11 UNL     1       8.868  -2.976   0.980  1.00  0.00     0.158 HD
HETATM   38  C20 UNL     1       4.869  -0.075  -0.997  1.00  0.00     0.144 C 
ENDBRANCH  23  28
ENDBRANCH  15  17
ENDBRANCH   4  13
BRANCH   1  39
HETATM   39  C9  UNL     1      -2.853  -0.914  -1.515  1.00  0.00     0.212 C 
BRANCH  39  40
HETATM   40  C8  UNL     1      -2.897  -2.130  -0.682  1.00  0.00     0.086 C 
HETATM   41  N2  UNL     1      -3.806  -2.983  -0.765  1.00  0.00    -0.334 N 
HETATM   42  C7  UNL     1      -4.901  -2.897  -1.655  1.00  0.00     0.269 C 
ATOM     43  H2  UNL     1      -3.755  -3.795  -0.150  1.00  0.00     0.168 HD
HETATM   44  O7  UNL     1      -4.740  -3.294  -2.873  1.00  0.00    -0.266 OA
BRANCH  42  45
HETATM   45  C2  UNL     1      -6.209  -2.387  -1.278  1.00  0.00     0.096 C 
HETATM   46  C1  UNL     1      -7.264  -2.437  -2.392  1.00  0.00     0.076 C 
HETATM   47  N1  UNL     1      -6.569  -1.941  -0.153  1.00  0.00    -0.264 N 
ATOM     48  H1  UNL     1      -7.545  -1.652  -0.085  1.00  0.00     0.194 HD
BRANCH  47  49
HETATM   49  O1  UNL     1      -5.844  -1.796   0.962  1.00  0.00    -0.257 OA
BRANCH  49  50
HETATM   50  C3  UNL     1      -6.069  -0.758   1.901  1.00  0.00     0.188 C 
HETATM   51  C4  UNL     1      -5.951   0.574   1.182  1.00  0.00     0.062 C 
BRANCH  50  52
HETATM   52  C5  UNL     1      -7.204  -0.881   2.821  1.00  0.00     0.217 C 
BRANCH  52  53
HETATM   53  S1  UNL     1      -8.817  -1.043   2.198  1.00  0.00     0.105 S 
HETATM   54  O2  UNL     1      -9.256   0.142   1.372  1.00  0.00    -0.595 OA
HETATM   55  O3  UNL     1      -9.759  -1.176   3.393  1.00  0.00    -0.595 OA
HETATM   56  O4  UNL     1      -8.979  -2.453   1.309  1.00  0.00    -0.595 OA
ENDBRANCH  52  53
ENDBRANCH  50  52
BRANCH  50  57
HETATM   57  C6  UNL     1      -4.836  -0.778   2.812  1.00  0.00     0.212 C 
HETATM   58  O5  UNL     1      -3.927  -1.612   2.695  1.00  0.00    -0.646 OA
HETATM   59  O6  UNL     1      -4.799   0.201   3.782  1.00  0.00    -0.646 OA
ENDBRANCH  50  57
ENDBRANCH  49  50
ENDBRANCH  47  49
ENDBRANCH  42  45
ENDBRANCH  39  40
ENDBRANCH   1  39
TORSDOF 12
