REMARK  10 active torsions:
REMARK  status: ('A' for Active; 'I' for Inactive)
REMARK    1  A    between atoms: C2_2  and  N1_3 
REMARK    2  A    between atoms: C2_2  and  C17_40 
REMARK    3  A    between atoms: N1_3  and  C3_5 
REMARK    4  A    between atoms: C6_8  and  O1_9 
REMARK    5  A    between atoms: O1_9  and  S1_10 
REMARK    6  A    between atoms: C7_14  and  C8_15 
REMARK    7  A    between atoms: C9_17  and  N2_18 
REMARK    8  A    between atoms: C11_20  and  C12_21 
REMARK    9  A    between atoms: C12_21  and  N3_22 
REMARK   10  A    between atoms: C15_34  and  C16_35 
REMARK       I    between atoms: C17_40  and  N11_42 
ROOT
HETATM    1  C3  UNL     1      -2.504   0.057  -0.211  1.00  0.00     0.102 A 
HETATM    2  C4  UNL     1      -2.934  -0.747   0.812  1.00  0.00     0.051 A 
HETATM    3  C5  UNL     1      -2.037  -1.238   1.741  1.00  0.00     0.044 A 
HETATM    4  C6  UNL     1      -0.693  -0.893   1.607  1.00  0.00     0.117 A 
HETATM    5  C7  UNL     1      -0.260  -0.092   0.590  1.00  0.00     0.076 A 
HETATM    6  N10 UNL     1      -1.167   0.360  -0.287  1.00  0.00    -0.342 N 
ATOM      7  H10 UNL     1      -0.848   0.959  -1.049  1.00  0.00     0.167 HD
ENDROOT
BRANCH   5   8
HETATM    8  C8  UNL     1       1.132   0.292   0.440  1.00  0.00     0.189 C 
HETATM    9  O5  UNL     1       1.989  -0.707  -0.018  1.00  0.00    -0.353 OA
HETATM   10  C9  UNL     1       3.152   0.072  -0.219  1.00  0.00     0.246 C 
HETATM   11  C14 UNL     1       2.647   1.077  -1.203  1.00  0.00     0.072 C 
HETATM   12  C15 UNL     1       1.249   1.369  -0.656  1.00  0.00     0.114 C 
BRANCH  10  13
HETATM   13  N2  UNL     1       4.280  -0.689  -0.642  1.00  0.00    -0.258 N 
HETATM   14  C10 UNL     1       5.424  -0.857   0.058  1.00  0.00     0.143 A 
HETATM   15  C11 UNL     1       6.282  -1.649  -0.660  1.00  0.00     0.064 A 
HETATM   16  N7  UNL     1       5.614  -1.946  -1.806  1.00  0.00    -0.287 N 
HETATM   17  N8  UNL     1       4.429  -1.356  -1.753  1.00  0.00    -0.238 N 
ATOM     18  H7  UNL     1       5.964  -2.522  -2.572  1.00  0.00     0.188 HD
ATOM     19  H8  UNL     1       3.723  -1.416  -2.487  1.00  0.00     0.208 HD
BRANCH  15  20
HETATM   20  C12 UNL     1       7.655  -2.110  -0.306  1.00  0.00     0.209 C 
BRANCH  20  21
HETATM   21  N3  UNL     1       8.641  -1.141  -0.790  1.00  0.00    -0.246 N 
HETATM   22  N4  UNL     1       9.244  -1.129  -1.967  1.00  0.00    -0.004 NA
HETATM   23  N5  UNL     1      10.063  -0.094  -2.020  1.00  0.00    -0.006 NA
HETATM   24  N6  UNL     1       9.992   0.568  -0.871  1.00  0.00    -0.261 N 
HETATM   25  C13 UNL     1       9.110  -0.080  -0.106  1.00  0.00     0.204 A 
ATOM     26  H6  UNL     1      10.511   1.410  -0.621  1.00  0.00     0.186 HD
HETATM   27  S2  UNL     1       8.699   0.389   1.421  1.00  0.00    -0.038 SA
ENDBRANCH  20  21
ENDBRANCH  15  20
ENDBRANCH  10  13
BRANCH  12  28
HETATM   28  C16 UNL     1       1.186   2.675   0.036  1.00  0.00     0.238 C 
HETATM   29  N9  UNL     1       2.152   3.005   1.013  1.00  0.00    -0.062 NA
HETATM   30  O6  UNL     1       0.236   3.456  -0.296  1.00  0.00    -0.276 OA
ENDBRANCH  12  28
ENDBRANCH   5   8
BRANCH   4  31
HETATM   31  O1  UNL     1       0.191  -1.382   2.534  1.00  0.00    -0.212 OA
BRANCH  31  32
HETATM   32  S1  UNL     1       0.904  -2.904   2.296  1.00  0.00     0.257 S 
HETATM   33  O2  UNL     1       0.388  -3.885   3.356  1.00  0.00    -0.572 OA
HETATM   34  O3  UNL     1       2.392  -2.871   2.513  1.00  0.00    -0.572 OA
HETATM   35  O4  UNL     1       0.491  -3.591   0.821  1.00  0.00    -0.572 OA
ENDBRANCH  31  32
ENDBRANCH   4  31
BRANCH   1  36
HETATM   36  N1  UNL     1      -3.323   0.611  -1.210  1.00  0.00    -0.363 N 
ATOM     37  H1  UNL     1      -2.867   1.187  -1.917  1.00  0.00     0.162 HD
BRANCH  36  38
HETATM   38  C2  UNL     1      -4.737   0.440  -1.325  1.00  0.00     0.173 C 
HETATM   39  C1  UNL     1      -5.103  -1.017  -1.404  1.00  0.00     0.042 C 
BRANCH  38  40
HETATM   40  C17 UNL     1      -5.461   1.109  -0.239  1.00  0.00     0.269 C 
HETATM   41  O7  UNL     1      -4.751   1.687   0.656  1.00  0.00    -0.269 OA
HETATM   42  N11 UNL     1      -6.877   1.176  -0.091  1.00  0.00    -0.167 N 
HETATM   43  N12 UNL     1      -7.675   0.634  -0.977  1.00  0.00    -0.248 N 
HETATM   44  C20 UNL     1      -7.400   1.799   1.008  1.00  0.00     0.351 A 
HETATM   45  C18 UNL     1      -9.017   0.706  -0.776  1.00  0.00     0.328 A 
ATOM     46  H12 UNL     1      -7.297   0.167  -1.801  1.00  0.00     0.191 HD
HETATM   47  O8  UNL     1      -9.765   0.177  -1.641  1.00  0.00    -0.261 OA
HETATM   48  C19 UNL     1      -9.519   1.333   0.329  1.00  0.00     0.319 A 
HETATM   49  O9  UNL     1     -10.776   1.379   0.480  1.00  0.00    -0.262 OA
HETATM   50  N13 UNL     1      -8.709   1.892   1.242  1.00  0.00    -0.269 N 
ATOM     51  H13 UNL     1      -9.075   2.362   2.070  1.00  0.00     0.174 HD
HETATM   52  O10 UNL     1      -6.618   2.315   1.848  1.00  0.00    -0.244 OA
ENDBRANCH  38  40
ENDBRANCH  36  38
ENDBRANCH   1  36
TORSDOF 10
