REMARK  3 active torsions:
REMARK  status: ('A' for Active; 'I' for Inactive)
REMARK    1  A    between atoms: C2_2  and  O1_3 
REMARK    2  A    between atoms: N1_7  and  C5_8 
REMARK       I    between atoms: N2_12  and  C9_13 
REMARK    3  A    between atoms: C9_13  and  C10_15 
ROOT
HETATM    1  C5  UNL     1      -0.848  -0.310  -0.586  1.00  0.00     0.241 C 
HETATM    2  C6  UNL     1      -0.240  -1.398   0.235  1.00  0.00     0.039 C 
HETATM    3  C7  UNL     1       0.899  -2.017  -0.582  1.00  0.00     0.022 C 
HETATM    4  C8  UNL     1       1.573  -0.889  -1.336  1.00  0.00     0.126 C 
HETATM    5  N2  UNL     1       1.420   0.375  -0.679  1.00  0.00    -0.350 N 
HETATM    6  C9  UNL     1       2.517   1.087  -0.191  1.00  0.00     0.224 C 
HETATM    7  O2  UNL     1       2.328   2.206   0.363  1.00  0.00    -0.273 OA
HETATM    8  C15 UNL     1       0.061   0.900  -0.533  1.00  0.00     0.161 C 
ENDROOT
BRANCH   1   9
HETATM    9  N1  UNL     1      -2.197   0.015  -0.282  1.00  0.00     0.095 N 
HETATM   10  C4  UNL     1      -2.458   0.513   1.027  1.00  0.00     0.276 C 
HETATM   11  C3  UNL     1      -3.698   1.389   0.936  1.00  0.00     0.067 C 
HETATM   12  C2  UNL     1      -4.841   0.479   0.539  1.00  0.00     0.057 C 
HETATM   13  C1  UNL     1      -5.758   0.388   1.761  1.00  0.00     0.045 C 
HETATM   14  C17 UNL     1      -4.420  -0.909   0.185  1.00  0.00     0.067 C 
HETATM   15  C16 UNL     1      -3.172  -0.950  -0.667  1.00  0.00     0.276 C 
BRANCH  12  16
HETATM   16  O1  UNL     1      -5.595   1.070  -0.482  1.00  0.00    -0.390 OA
ATOM     17  H1  UNL     1      -5.026   1.126  -1.241  1.00  0.00     0.210 HD
ENDBRANCH  12  16
ENDBRANCH   1   9
BRANCH   6  18
HETATM   18  C10 UNL     1       3.888   0.559  -0.305  1.00  0.00     0.078 C 
HETATM   19  C11 UNL     1       4.884   1.657   0.114  1.00  0.00     0.014 C 
HETATM   20  C12 UNL     1       6.115   0.842   0.404  1.00  0.00     0.001 C 
HETATM   21  C13 UNL     1       5.658  -0.515   0.830  1.00  0.00     0.001 C 
HETATM   22  C14 UNL     1       4.127  -0.508   0.745  1.00  0.00     0.014 C 
ENDBRANCH   6  18
TORSDOF 3
