REMARK  2 active torsions:
REMARK  status: ('A' for Active; 'I' for Inactive)
REMARK    1  A    between atoms: N1_4  and  C4_5 
REMARK    2  A    between atoms: N2_9  and  C7_10 
ROOT
HETATM    1  C4  UNL     1       0.927   0.326  -0.071  1.00  0.00     0.365 C 
HETATM    2  O1  UNL     1       0.943  -0.166  -1.380  1.00  0.00    -0.349 OA
HETATM    3  C5  UNL     1       0.086  -1.245  -1.436  1.00  0.00     0.161 C 
HETATM    4  C6  UNL     1      -1.378  -0.855  -1.355  1.00  0.00     0.305 C 
HETATM    5  N2  UNL     1      -1.603   0.086  -0.306  1.00  0.00     0.096 N 
HETATM    6  C12 UNL     1      -1.140  -0.404   0.971  1.00  0.00     0.283 C 
HETATM    7  C13 UNL     1       0.337  -0.747   0.803  1.00  0.00     0.084 C 
HETATM    8  C14 UNL     1       0.383  -1.935  -0.123  1.00  0.00    -0.003 A 
HETATM    9  C15 UNL     1      -0.274  -3.173   0.291  1.00  0.00     0.013 A 
HETATM   10  C16 UNL     1       1.219  -3.096   0.021  1.00  0.00     0.013 A 
ENDROOT
BRANCH   1  11
HETATM   11  N1  UNL     1       2.201   0.808   0.372  1.00  0.00     0.117 N 
HETATM   12  C3  UNL     1       2.756   1.625  -0.689  1.00  0.00     0.276 C 
HETATM   13  C2  UNL     1       3.951   2.413  -0.170  1.00  0.00     0.030 C 
HETATM   14  C1  UNL     1       5.019   1.379   0.174  1.00  0.00     0.003 C 
HETATM   15  C18 UNL     1       4.412   0.474   1.209  1.00  0.00     0.030 C 
HETATM   16  C17 UNL     1       3.152  -0.212   0.689  1.00  0.00     0.276 C 
ENDBRANCH   1  11
BRANCH   5  17
HETATM   17  C7  UNL     1      -2.951   0.556  -0.277  1.00  0.00     0.223 C 
HETATM   18  C8  UNL     1      -3.977  -0.448   0.120  1.00  0.00     0.036 C 
HETATM   19  C9  UNL     1      -4.986   0.351   0.947  1.00  0.00     0.002 C 
HETATM   20  C10 UNL     1      -4.681   1.802   0.697  1.00  0.00     0.002 C 
HETATM   21  C11 UNL     1      -3.162   1.782   0.556  1.00  0.00     0.036 C 
ENDBRANCH   5  17
TORSDOF 2
