REMARK  2 active torsions:
REMARK  status: ('A' for Active; 'I' for Inactive)
REMARK       I    between atoms: C1_2  and  N1_3 
REMARK       I    between atoms: C1_2  and  N3_18 
REMARK    1  A    between atoms: N1_3  and  C2_5 
REMARK    2  A    between atoms: N2_11  and  C7_12 
ROOT
HETATM    1  C2  UNL     1       0.863  -0.625   1.035  1.00  0.00     0.094 C 
HETATM    2  C3  UNL     1       0.287  -1.636   0.074  1.00  0.00     0.089 C 
HETATM    3  C4  UNL     1      -1.222  -1.618   0.187  1.00  0.00     0.366 C 
HETATM    4  O2  UNL     1      -1.573  -1.309   1.507  1.00  0.00    -0.321 OA
HETATM    5  C5  UNL     1      -1.529   0.045   1.126  1.00  0.00     0.366 C 
HETATM    6  C6  UNL     1      -0.100   0.503   1.324  1.00  0.00     0.089 C 
HETATM    7  N2  UNL     1      -1.738  -0.331  -0.239  1.00  0.00     0.150 N 
ENDROOT
BRANCH   1   8
HETATM    8  N1  UNL     1       2.081  -0.051   0.485  1.00  0.00    -0.338 N 
HETATM    9  C1  UNL     1       3.344  -0.223   1.111  1.00  0.00     0.318 C 
HETATM   10  O1  UNL     1       3.457  -0.891   2.184  1.00  0.00    -0.247 OA
HETATM   11  N3  UNL     1       4.498   0.356   0.535  1.00  0.00    -0.334 N 
HETATM   12  C13 UNL     1       4.522   1.139  -0.680  1.00  0.00     0.127 C 
HETATM   13  C16 UNL     1       5.861   0.259   1.072  1.00  0.00     0.127 C 
HETATM   14  C14 UNL     1       5.986   1.366  -0.985  1.00  0.00     0.022 C 
HETATM   15  C15 UNL     1       6.653   0.238  -0.238  1.00  0.00     0.022 C 
ATOM     16  H1  UNL     1       2.026   0.492  -0.377  1.00  0.00     0.164 HD
ENDBRANCH   1   8
BRANCH   7  17
HETATM   17  C7  UNL     1      -3.091  -0.375  -0.709  1.00  0.00     0.229 C 
HETATM   18  C8  UNL     1      -3.511   0.994  -1.116  1.00  0.00     0.036 C 
HETATM   19  C9  UNL     1      -4.942   1.130  -1.499  1.00  0.00     0.002 C 
HETATM   20  C10 UNL     1      -5.890   0.319  -0.669  1.00  0.00     0.000 C 
HETATM   21  C11 UNL     1      -5.393  -1.099  -0.455  1.00  0.00     0.002 C 
HETATM   22  C12 UNL     1      -4.059  -0.955   0.291  1.00  0.00     0.036 C 
ENDBRANCH   7  17
TORSDOF 2
