REMARK  4 active torsions:
REMARK  status: ('A' for Active; 'I' for Inactive)
REMARK    1  A    between atoms: C2_2  and  C3_3 
REMARK    2  A    between atoms: C2_2  and  C9_12 
REMARK    3  A    between atoms: C2_2  and  C10_15 
REMARK    4  A    between atoms: C3_3  and  C4_4 
REMARK       I    between atoms: C4_4  and  N1_6 
ROOT
HETATM    1  C1  UNL     1       0.428   2.613   0.127  1.00  0.00     0.032 C 
HETATM    2  C2  UNL     1       0.021   1.249  -0.371  1.00  0.00     0.076 C 
ENDROOT
BRANCH   2   3
HETATM    3  C3  UNL     1       0.975   0.176  -0.016  1.00  0.00     0.127 C 
BRANCH   3   4
HETATM    4  C4  UNL     1       2.361   0.460  -0.564  1.00  0.00     0.221 C 
HETATM    5  O1  UNL     1       2.611   1.550  -1.090  1.00  0.00    -0.273 OA
HETATM    6  N1  UNL     1       3.373  -0.523  -0.475  1.00  0.00    -0.348 N 
HETATM    7  C5  UNL     1       4.714  -0.318  -0.978  1.00  0.00     0.152 C 
HETATM    8  C8  UNL     1       3.077  -1.801   0.141  1.00  0.00     0.152 C 
HETATM    9  C6  UNL     1       5.761  -0.642   0.064  1.00  0.00     0.187 C 
HETATM   10  O2  UNL     1       5.265  -1.540   1.005  1.00  0.00    -0.388 OA
HETATM   11  C7  UNL     1       4.436  -2.473   0.372  1.00  0.00     0.187 C 
ENDBRANCH   3   4
ENDBRANCH   2   3
BRANCH   2  12
HETATM   12  C9  UNL     1       0.271   1.371  -1.899  1.00  0.00     0.186 C 
HETATM   13  O3  UNL     1       0.557   0.381  -2.595  1.00  0.00    -0.647 OA
HETATM   14  O4  UNL     1       0.172   2.600  -2.504  1.00  0.00    -0.647 OA
ENDBRANCH   2  12
BRANCH   2  15
HETATM   15  C10 UNL     1      -1.414   0.980  -0.366  1.00  0.00    -0.058 C 
HETATM   16  C11 UNL     1      -2.009   0.208   0.512  1.00  0.00    -0.072 C 
HETATM   17  C12 UNL     1      -1.311  -0.462   1.586  1.00  0.00     0.035 C 
HETATM   18  C16 UNL     1      -3.502  -0.104   0.492  1.00  0.00     0.015 C 
HETATM   19  C13 UNL     1      -2.333  -1.059   2.590  1.00  0.00     0.004 C 
HETATM   20  C14 UNL     1      -3.193  -2.103   1.922  1.00  0.00     0.001 C 
HETATM   21  C15 UNL     1      -3.740  -1.599   0.604  1.00  0.00     0.009 C 
HETATM   22  C17 UNL     1      -4.186   0.389  -0.735  1.00  0.00     0.009 C 
HETATM   23  C18 UNL     1      -3.712   1.830  -0.890  1.00  0.00     0.005 C 
HETATM   24  C19 UNL     1      -2.299   1.720  -1.383  1.00  0.00     0.036 C 
ENDBRANCH   2  15
TORSDOF 4
