REMARK  4 active torsions:
REMARK  status: ('A' for Active; 'I' for Inactive)
REMARK    1  A    between atoms: S1_2  and  N1_4 
REMARK    2  A    between atoms: S1_2  and  C14_20 
REMARK    3  A    between atoms: N1_4  and  C1_6 
REMARK    4  A    between atoms: N2_9  and  C4_10 
ROOT
HETATM    1  C1  UNL     1       1.267  -0.440  -1.757  1.00  0.00     0.096 C 
HETATM    2  C2  UNL     1      -0.047  -0.706  -2.487  1.00  0.00     0.056 C 
HETATM    3  C3  UNL     1      -1.068   0.251  -1.915  1.00  0.00     0.275 C 
HETATM    4  N2  UNL     1      -0.881   0.398  -0.504  1.00  0.00     0.093 N 
HETATM    5  C12 UNL     1       0.293   1.199  -0.202  1.00  0.00     0.275 C 
HETATM    6  C13 UNL     1       1.273   1.017  -1.370  1.00  0.00     0.056 C 
ENDROOT
BRANCH   1   7
HETATM    7  N1  UNL     1       2.397  -0.868  -2.471  1.00  0.00    -0.314 N 
ATOM      8  H1  UNL     1       2.623  -0.428  -3.363  1.00  0.00     0.172 HD
BRANCH   7   9
HETATM    9  S1  UNL     1       3.376  -2.085  -1.884  1.00  0.00     0.231 S 
HETATM   10  O1  UNL     1       2.567  -3.330  -1.618  1.00  0.00    -0.206 OA
HETATM   11  O2  UNL     1       4.545  -2.412  -2.802  1.00  0.00    -0.206 OA
BRANCH   9  12
HETATM   12  C14 UNL     1       4.118  -1.636  -0.338  1.00  0.00     0.129 C 
HETATM   13  C15 UNL     1       3.192  -1.551   0.813  1.00  0.00     0.022 C 
HETATM   14  C16 UNL     1       4.135  -1.648   2.022  1.00  0.00     0.001 C 
HETATM   15  C17 UNL     1       5.207  -2.600   1.579  1.00  0.00     0.001 C 
HETATM   16  C18 UNL     1       5.085  -2.753   0.100  1.00  0.00     0.022 C 
ENDBRANCH   9  12
ENDBRANCH   7   9
ENDBRANCH   1   7
BRANCH   4  17
HETATM   17  C4  UNL     1      -2.044   0.878   0.215  1.00  0.00     0.223 C 
HETATM   18  C5  UNL     1      -2.401   2.235  -0.242  1.00  0.00     0.036 C 
HETATM   19  C6  UNL     1      -3.809   2.397  -0.750  1.00  0.00     0.002 C 
HETATM   20  C7  UNL     1      -4.839   1.587  -0.056  1.00  0.00     0.000 C 
HETATM   21  C8  UNL     1      -4.835   1.783   1.456  1.00  0.00     0.000 C 
HETATM   22  C9  UNL     1      -4.252   0.549   2.070  1.00  0.00     0.000 C 
HETATM   23  C10 UNL     1      -2.874   0.928   2.612  1.00  0.00     0.002 C 
HETATM   24  C11 UNL     1      -1.762   0.731   1.674  1.00  0.00     0.036 C 
ENDBRANCH   4  17
TORSDOF 4
