REMARK  4 active torsions:
REMARK  status: ('A' for Active; 'I' for Inactive)
REMARK       I    between atoms: N1_10  and  C10_11 
REMARK    1  A    between atoms: C10_11  and  C11_13 
REMARK    2  A    between atoms: C11_13  and  C12_14 
REMARK    3  A    between atoms: C12_14  and  C13_15 
REMARK    4  A    between atoms: C19_21  and  C20_22 
ROOT
HETATM    1  C1  UNL     1      -5.207  -0.775  -0.765  1.00  0.00     0.015 C 
HETATM    2  C2  UNL     1      -4.647   0.383  -0.033  1.00  0.00    -0.043 C 
HETATM    3  C3  UNL     1      -5.666   1.496   0.037  1.00  0.00     0.015 C 
HETATM    4  C4  UNL     1      -4.249   0.025   1.409  1.00  0.00     0.015 C 
HETATM    5  C5  UNL     1      -2.853   0.525   1.597  1.00  0.00     0.008 C 
HETATM    6  C6  UNL     1      -2.905   1.730   0.632  1.00  0.00     0.012 C 
HETATM    7  C7  UNL     1      -3.357   0.917  -0.582  1.00  0.00     0.001 C 
HETATM    8  C8  UNL     1      -2.306  -0.178  -0.563  1.00  0.00     0.029 C 
HETATM    9  C9  UNL     1      -1.065   0.228  -1.292  1.00  0.00     0.132 C 
HETATM   10  N1  UNL     1       0.020  -0.056  -0.388  1.00  0.00    -0.350 N 
HETATM   11  C10 UNL     1       1.333  -0.523  -0.663  1.00  0.00     0.219 C 
HETATM   12  O1  UNL     1       1.620  -0.728  -1.865  1.00  0.00    -0.273 OA
HETATM   13  C18 UNL     1      -0.465   0.229   0.944  1.00  0.00     0.147 C 
HETATM   14  C19 UNL     1      -1.881  -0.338   0.882  1.00  0.00     0.073 C 
ENDROOT
BRANCH  11  15
HETATM   15  C11 UNL     1       2.313  -0.758   0.389  1.00  0.00     0.103 C 
BRANCH  15  16
HETATM   16  C12 UNL     1       3.665  -1.190  -0.042  1.00  0.00     0.014 C 
BRANCH  16  17
HETATM   17  C13 UNL     1       4.413  -0.248  -0.927  1.00  0.00    -0.014 C 
HETATM   18  C14 UNL     1       5.753  -0.900  -1.231  1.00  0.00     0.004 C 
HETATM   19  C15 UNL     1       6.793  -0.119  -0.480  1.00  0.00     0.000 C 
HETATM   20  C16 UNL     1       6.194   1.239  -0.194  1.00  0.00     0.000 C 
HETATM   21  C17 UNL     1       4.714   1.063  -0.236  1.00  0.00     0.004 C 
ENDBRANCH  16  17
ENDBRANCH  15  16
ENDBRANCH  11  15
BRANCH  14  22
HETATM   22  C20 UNL     1      -1.834  -1.746   1.278  1.00  0.00     0.184 C 
HETATM   23  O2  UNL     1      -2.407  -2.148   2.304  1.00  0.00    -0.647 OA
HETATM   24  O3  UNL     1      -1.134  -2.660   0.503  1.00  0.00    -0.647 OA
ENDBRANCH  14  22
TORSDOF 4
