REMARK  5 active torsions:
REMARK  status: ('A' for Active; 'I' for Inactive)
REMARK    1  A    between atoms: C2_2  and  C3_3 
REMARK    2  A    between atoms: C3_3  and  C4_4 
REMARK    3  A    between atoms: N1_6  and  O1_7 
REMARK    4  A    between atoms: C7_11  and  C8_12 
REMARK       I    between atoms: C8_12  and  N2_14 
REMARK    5  A    between atoms: N2_14  and  C9_16 
ROOT
HETATM    1  C8  UNL     1       1.111  -0.674  -0.476  1.00  0.00     0.255 C 
HETATM    2  O2  UNL     1       0.807  -0.322  -1.634  1.00  0.00    -0.268 OA
HETATM    3  N2  UNL     1       0.125  -0.572   0.527  1.00  0.00    -0.348 N 
ATOM      4  H2  UNL     1       0.363  -0.844   1.481  1.00  0.00     0.163 HD
ENDROOT
BRANCH   1   5
HETATM    5  C7  UNL     1       2.466  -1.168  -0.206  1.00  0.00     0.071 A 
HETATM    6  C4  UNL     1       3.522  -0.663  -0.934  1.00  0.00     0.019 A 
HETATM    7  S1  UNL     1       4.857  -1.539  -0.320  1.00  0.00     0.013 SA
HETATM    8  N1  UNL     1       4.058  -2.488   0.804  1.00  0.00    -0.196 N 
HETATM    9  C5  UNL     1       2.777  -2.124   0.696  1.00  0.00     0.061 A 
HETATM   10  C6  UNL     1       1.776  -2.840   1.563  1.00  0.00     0.072 C 
BRANCH   6  11
HETATM   11  C3  UNL     1       3.566   0.372  -1.994  1.00  0.00     0.048 C 
BRANCH  11  12
HETATM   12  C2  UNL     1       3.414   1.770  -1.497  1.00  0.00     0.001 C 
HETATM   13  C1  UNL     1       4.454   2.210  -0.528  1.00  0.00     0.005 C 
ENDBRANCH  11  12
ENDBRANCH   6  11
BRANCH   8  14
HETATM   14  O1  UNL     1       4.653  -3.429   1.637  1.00  0.00    -0.276 OA
ATOM     15  H1  UNL     1       4.200  -3.968   2.275  1.00  0.00     0.246 HD
ENDBRANCH   8  14
ENDBRANCH   1   5
BRANCH   3  16
HETATM   16  C9  UNL     1      -1.225  -0.090   0.247  1.00  0.00     0.034 C 
HETATM   17  C10 UNL     1      -1.246   1.300  -0.284  1.00  0.00     0.035 C 
HETATM   18  C11 UNL     1      -2.690   1.721  -0.465  1.00  0.00    -0.012 C 
HETATM   19  C12 UNL     1      -3.476   1.723   0.805  1.00  0.00     0.009 C 
HETATM   20  C16 UNL     1      -3.349   0.821  -1.476  1.00  0.00     0.009 C 
HETATM   21  C13 UNL     1      -3.442   0.313   1.359  1.00  0.00    -0.012 C 
HETATM   22  C14 UNL     1      -4.129  -0.599   0.374  1.00  0.00     0.009 C 
HETATM   23  C18 UNL     1      -2.027  -0.095   1.552  1.00  0.00     0.035 C 
HETATM   24  C15 UNL     1      -3.362  -0.580  -0.911  1.00  0.00    -0.012 C 
HETATM   25  C17 UNL     1      -1.930  -1.025  -0.688  1.00  0.00     0.035 C 
ENDBRANCH   3  16
TORSDOF 5
