REMARK  5 active torsions:
REMARK  status: ('A' for Active; 'I' for Inactive)
REMARK    1  A    between atoms: C2_2  and  O2_4 
REMARK    2  A    between atoms: O2_4  and  C3_5 
REMARK    3  A    between atoms: C13_16  and  O4_17 
REMARK    4  A    between atoms: C16_21  and  C17_22 
REMARK    5  A    between atoms: C19_25  and  O6_26 
ROOT
HETATM    1  C3  UNL     1      -0.619   1.116  -0.893  1.00  0.00     0.144 C 
HETATM    2  C4  UNL     1       0.813   1.417  -1.384  1.00  0.00     0.039 C 
HETATM    3  C5  UNL     1       1.822   0.402  -1.003  1.00  0.00     0.004 C 
HETATM    4  C6  UNL     1       2.799   1.045  -0.047  1.00  0.00     0.043 C 
HETATM    5  C7  UNL     1       3.096   0.348   1.211  1.00  0.00     0.054 C 
HETATM    6  C8  UNL     1       3.299   1.382   2.327  1.00  0.00     0.045 C 
HETATM    7  C9  UNL     1       4.396  -0.437   1.171  1.00  0.00     0.045 C 
HETATM    8  O3  UNL     1       2.015  -0.419   1.594  1.00  0.00    -0.380 OA
HETATM    9  C10 UNL     1       1.910  -1.441   0.701  1.00  0.00     0.181 C 
HETATM   10  C11 UNL     1       1.366  -0.966  -0.672  1.00  0.00     0.013 C 
HETATM   11  C12 UNL     1       1.986  -2.027  -1.617  1.00  0.00     0.021 C 
HETATM   12  C13 UNL     1      -0.092  -1.164  -0.569  1.00  0.00     0.078 C 
HETATM   13  C14 UNL     1      -0.619  -2.490  -1.009  1.00  0.00     0.040 C 
HETATM   14  C15 UNL     1      -2.107  -2.283  -0.815  1.00  0.00     0.013 C 
HETATM   15  C16 UNL     1      -2.311  -0.800  -1.171  1.00  0.00     0.034 C 
HETATM   16  C21 UNL     1      -0.976  -0.221  -1.343  1.00  0.00     0.022 C 
HETATM   17  C22 UNL     1      -0.663  -0.295  -2.845  1.00  0.00     0.022 C 
ENDROOT
BRANCH  15  18
HETATM   18  C17 UNL     1      -3.311  -0.170  -0.337  1.00  0.00    -0.026 A 
HETATM   19  C18 UNL     1      -4.232   0.798  -0.719  1.00  0.00     0.152 A 
HETATM   20  O5  UNL     1      -5.018   1.109   0.278  1.00  0.00    -0.300 OA
HETATM   21  C19 UNL     1      -4.687   0.403   1.333  1.00  0.00     0.183 A 
HETATM   22  C20 UNL     1      -3.611  -0.417   0.983  1.00  0.00     0.073 A 
BRANCH  21  23
HETATM   23  O6  UNL     1      -5.303   0.465   2.582  1.00  0.00    -0.341 OA
ATOM     24  H6  UNL     1      -5.063  -0.046   3.346  1.00  0.00     0.220 HD
ENDBRANCH  21  23
ENDBRANCH  15  18
BRANCH   1  25
HETATM   25  O2  UNL     1      -0.632   1.401   0.488  1.00  0.00    -0.315 OA
BRANCH  25  26
HETATM   26  C2  UNL     1      -1.237   2.517   0.998  1.00  0.00     0.255 C 
HETATM   27  C1  UNL     1      -1.226   2.770   2.451  1.00  0.00     0.126 C 
HETATM   28  O1  UNL     1      -1.802   3.328   0.241  1.00  0.00    -0.266 OA
ENDBRANCH  25  26
ENDBRANCH   1  25
BRANCH  12  29
HETATM   29  O4  UNL     1      -0.448  -1.023   0.789  1.00  0.00    -0.388 OA
ATOM     30  H4  UNL     1      -1.387  -1.151   0.855  1.00  0.00     0.210 HD
ENDBRANCH  12  29
TORSDOF 5
