REMARK  4 active torsions:
REMARK  status: ('A' for Active; 'I' for Inactive)
REMARK    1  A    between atoms: C2_2  and  C3_3 
REMARK    2  A    between atoms: C3_3  and  C4_4 
REMARK    3  A    between atoms: C17_22  and  O4_23 
REMARK    4  A    between atoms: C19_27  and  C20_28 
ROOT
HETATM    1  C4  UNL     1      -1.789   1.454  -0.564  1.00  0.00     0.013 C 
HETATM    2  N1  UNL     1      -0.472   1.249  -0.908  1.00  0.00    -0.387 N 
ATOM      3  H1  UNL     1      -0.109   1.604  -1.793  1.00  0.00     0.159 HD
HETATM    4  C5  UNL     1       0.375   0.540  -0.020  1.00  0.00     0.094 C 
HETATM    5  C6  UNL     1      -0.239  -0.799   0.338  1.00  0.00     0.058 C 
HETATM    6  C7  UNL     1       0.523  -1.308   1.513  1.00  0.00     0.011 C 
HETATM    7  C8  UNL     1       1.923  -1.647   1.014  1.00  0.00     0.013 C 
HETATM    8  C9  UNL     1       2.602  -0.553   0.253  1.00  0.00    -0.002 C 
HETATM    9  C10 UNL     1       3.251   0.365   1.297  1.00  0.00     0.019 C 
HETATM   10  C11 UNL     1       1.717   0.238  -0.665  1.00  0.00     0.020 C 
HETATM   11  C12 UNL     1       1.594  -0.369  -2.018  1.00  0.00     0.007 C 
HETATM   12  C13 UNL     1       2.940  -0.157  -2.721  1.00  0.00     0.004 C 
HETATM   13  C14 UNL     1       4.081  -0.428  -1.777  1.00  0.00     0.044 C 
HETATM   14  C15 UNL     1       3.705  -1.199  -0.559  1.00  0.00     0.131 C 
HETATM   15  C16 UNL     1       4.950  -1.473   0.237  1.00  0.00     0.255 C 
HETATM   16  O1  UNL     1       4.713  -2.799   0.645  1.00  0.00    -0.208 OA
HETATM   17  O2  UNL     1       4.225  -3.310  -0.464  1.00  0.00    -0.066 OA
HETATM   18  O3  UNL     1       3.327  -2.489  -0.925  1.00  0.00    -0.196 OA
HETATM   19  C17 UNL     1      -1.714  -0.701   0.423  1.00  0.00     0.161 C 
HETATM   20  C18 UNL     1      -2.197  -0.973  -0.966  1.00  0.00     0.099 C 
HETATM   21  N2  UNL     1      -2.549  -1.195  -2.046  1.00  0.00    -0.194 NA
HETATM   22  C19 UNL     1      -2.036   0.817   0.715  1.00  0.00     0.088 C 
ENDROOT
BRANCH  19  23
HETATM   23  O4  UNL     1      -2.278  -1.500   1.330  1.00  0.00    -0.374 OA
ATOM     24  H4  UNL     1      -3.224  -1.437   1.385  1.00  0.00     0.212 HD
ENDBRANCH  19  23
BRANCH  22  25
HETATM   25  C20 UNL     1      -3.297   0.897   1.455  1.00  0.00    -0.009 C 
HETATM   26  C21 UNL     1      -3.089   0.257   2.863  1.00  0.00     0.010 C 
HETATM   27  C22 UNL     1      -4.457   0.065   0.929  1.00  0.00     0.010 C 
ENDBRANCH  22  25
BRANCH   1  28
HETATM   28  C3  UNL     1      -2.481   2.187  -1.559  1.00  0.00     0.021 C 
BRANCH  28  29
HETATM   29  C2  UNL     1      -3.606   2.734  -1.821  1.00  0.00    -0.029 C 
HETATM   30  C1  UNL     1      -4.886   2.898  -1.142  1.00  0.00     0.036 C 
ENDBRANCH  28  29
ENDBRANCH   1  28
TORSDOF 4
