REMARK  4 active torsions:
REMARK  status: ('A' for Active; 'I' for Inactive)
REMARK    1  A    between atoms: C2_2  and  N1_3 
REMARK    2  A    between atoms: N1_3  and  C3_5 
REMARK    3  A    between atoms: C3_5  and  S2_7 
REMARK    4  A    between atoms: S2_7  and  C4_8 
ROOT
HETATM    1  C4  UNL     1       1.470   0.991   0.591  1.00  0.00     0.084 C 
HETATM    2  C5  UNL     1       1.436   1.576  -0.804  1.00  0.00     0.019 C 
HETATM    3  C6  UNL     1       0.488   0.597  -1.503  1.00  0.00     0.011 C 
HETATM    4  C7  UNL     1      -0.329  -0.058  -0.428  1.00  0.00     0.054 C 
HETATM    5  C8  UNL     1      -0.019   0.671   0.827  1.00  0.00     0.146 C 
HETATM    6  O1  UNL     1      -0.640   1.799   1.113  1.00  0.00    -0.346 OA
HETATM    7  C9  UNL     1      -1.778   2.182   0.479  1.00  0.00     0.194 C 
HETATM    8  C10 UNL     1      -1.814   3.722   0.667  1.00  0.00     0.082 C 
HETATM    9  C11 UNL     1      -2.962   1.705   1.265  1.00  0.00     0.071 C 
HETATM   10  C12 UNL     1      -3.639   0.497   0.680  1.00  0.00     0.013 C 
HETATM   11  C13 UNL     1      -2.577  -0.550   0.473  1.00  0.00     0.028 C 
HETATM   12  C14 UNL     1      -3.152  -1.936   0.295  1.00  0.00    -0.012 C 
HETATM   13  C15 UNL     1      -4.427  -1.962  -0.474  1.00  0.00     0.010 C 
HETATM   14  C16 UNL     1      -2.070  -2.577  -0.587  1.00  0.00     0.008 C 
HETATM   15  C17 UNL     1      -1.903  -1.464  -1.627  1.00  0.00     0.042 C 
HETATM   16  C18 UNL     1      -1.773  -0.219  -0.740  1.00  0.00     0.106 C 
HETATM   17  O2  UNL     1      -2.272   0.907  -1.345  1.00  0.00    -0.226 OA
HETATM   18  O3  UNL     1      -1.834   2.002  -0.860  1.00  0.00    -0.200 OA
ENDROOT
BRANCH   1  19
HETATM   19  S2  UNL     1       2.318  -0.600   0.503  1.00  0.00    -0.093 SA
BRANCH  19  20
HETATM   20  C3  UNL     1       4.041  -0.469   0.151  1.00  0.00     0.134 C 
HETATM   21  S1  UNL     1       4.726   1.009   0.052  1.00  0.00    -0.053 SA
BRANCH  20  22
HETATM   22  N1  UNL     1       4.884  -1.606  -0.047  1.00  0.00    -0.376 N 
ATOM     23  H1  UNL     1       4.478  -2.540   0.012  1.00  0.00     0.160 HD
BRANCH  22  24
HETATM   24  C2  UNL     1       6.298  -1.470  -0.329  1.00  0.00     0.116 C 
HETATM   25  C1  UNL     1       7.051  -0.929   0.869  1.00  0.00     0.026 C 
ENDBRANCH  22  24
ENDBRANCH  20  22
ENDBRANCH  19  20
ENDBRANCH   1  19
TORSDOF 4
