REMARK  4 active torsions:
REMARK  status: ('A' for Active; 'I' for Inactive)
REMARK    1  A    between atoms: C2_2  and  C3_3 
REMARK    2  A    between atoms: C3_3  and  O1_4 
REMARK    3  A    between atoms: C8_13  and  C9_14 
REMARK    4  A    between atoms: C14_20  and  O6_21 
ROOT
HETATM    1  C3  UNL     1      -1.315   1.343   0.142  1.00  0.00     0.087 C 
HETATM    2  C4  UNL     1      -0.471   0.058   0.046  1.00  0.00     0.035 C 
HETATM    3  C5  UNL     1       0.366   0.198  -1.184  1.00  0.00     0.020 C 
HETATM    4  C6  UNL     1       0.104  -0.803  -2.276  1.00  0.00     0.176 C 
HETATM    5  O2  UNL     1       0.998  -1.800  -2.403  1.00  0.00    -0.355 OA
HETATM    6  C7  UNL     1       1.044  -2.826  -1.573  1.00  0.00     0.325 C 
HETATM    7  O3  UNL     1       2.021  -2.617  -0.573  1.00  0.00    -0.205 OA
HETATM    8  O4  UNL     1       2.830  -1.718  -1.043  1.00  0.00    -0.226 OA
HETATM    9  C8  UNL     1       2.625  -0.554  -0.263  1.00  0.00     0.217 C 
HETATM   10  C13 UNL     1       1.827   0.469  -0.938  1.00  0.00     0.049 C 
HETATM   11  C14 UNL     1      -0.204  -3.241  -0.861  1.00  0.00     0.176 C 
HETATM   12  C15 UNL     1      -0.505  -2.447   0.365  1.00  0.00     0.042 C 
HETATM   13  C16 UNL     1      -1.250  -1.180   0.232  1.00  0.00    -0.004 C 
HETATM   14  C17 UNL     1      -1.995  -1.028   1.583  1.00  0.00     0.005 C 
HETATM   15  C18 UNL     1      -3.392  -0.515   1.395  1.00  0.00     0.001 C 
HETATM   16  C19 UNL     1      -3.360   0.955   1.545  1.00  0.00     0.013 C 
HETATM   17  C20 UNL     1      -1.971   1.581   1.427  1.00  0.00    -0.005 A 
HETATM   18  C21 UNL     1      -1.251   2.062   2.640  1.00  0.00     0.014 A 
HETATM   19  C22 UNL     1      -2.036   3.052   1.887  1.00  0.00     0.014 A 
ENDROOT
BRANCH   9  20
HETATM   20  C9  UNL     1       3.982  -0.017  -0.032  1.00  0.00     0.084 A 
HETATM   21  C10 UNL     1       4.401   1.281  -0.134  1.00  0.00     0.037 A 
HETATM   22  C11 UNL     1       5.762   1.306   0.175  1.00  0.00     0.027 A 
HETATM   23  C12 UNL     1       6.088   0.005   0.449  1.00  0.00     0.142 A 
HETATM   24  O5  UNL     1       5.012  -0.731   0.314  1.00  0.00    -0.324 OA
ENDBRANCH   9  20
BRANCH  11  25
HETATM   25  O6  UNL     1      -1.293  -3.451  -1.687  1.00  0.00    -0.391 OA
ATOM     26  H6  UNL     1      -2.086  -3.715  -1.235  1.00  0.00     0.210 HD
ENDBRANCH  11  25
BRANCH   1  27
HETATM   27  C2  UNL     1      -2.229   1.378  -1.030  1.00  0.00     0.001 C 
HETATM   28  C1  UNL     1      -2.294   2.366  -1.874  1.00  0.00     0.010 C 
ENDBRANCH   1  27
BRANCH   1  29
HETATM   29  O1  UNL     1      -0.345   2.321  -0.084  1.00  0.00    -0.385 OA
ATOM     30  H1  UNL     1       0.239   2.299   0.665  1.00  0.00     0.211 HD
ENDBRANCH   1  29
TORSDOF 4
