REMARK  10 active torsions:
REMARK  status: ('A' for Active; 'I' for Inactive)
REMARK    1  A    between atoms: C2_2  and  C4_4 
REMARK    2  A    between atoms: C4_4  and  N1_5 
REMARK    3  A    between atoms: C4_4  and  C23_33 
REMARK       I    between atoms: N1_5  and  C5_7 
REMARK    4  A    between atoms: C5_7  and  C6_9 
REMARK    5  A    between atoms: C6_9  and  C7_10 
REMARK    6  A    between atoms: C6_9  and  S1_25 
REMARK       I    between atoms: C7_10  and  N2_12 
REMARK    7  A    between atoms: C8_14  and  C9_15 
REMARK    8  A    between atoms: S1_25  and  C17_27 
REMARK    9  A    between atoms: C23_33  and  C24_35 
REMARK   10  A    between atoms: C24_35  and  C25_38 
ROOT
HETATM    1  C6  UNL     1      -0.102   0.755  -0.700  1.00  0.00     0.268 C 
ENDROOT
BRANCH   1   2
HETATM    2  C5  UNL     1      -1.259  -0.163  -1.012  1.00  0.00     0.244 C 
HETATM    3  N1  UNL     1      -2.346  -0.282  -0.106  1.00  0.00    -0.348 N 
ATOM      4  H1  UNL     1      -2.326   0.264   0.755  1.00  0.00     0.163 HD
HETATM    5  O1  UNL     1      -1.208  -0.795  -2.081  1.00  0.00    -0.272 OA
BRANCH   3   6
HETATM    6  C4  UNL     1      -3.481  -1.146  -0.353  1.00  0.00     0.164 C 
BRANCH   6   7
HETATM    7  C2  UNL     1      -4.753  -0.355  -0.530  1.00  0.00     0.008 C 
HETATM    8  C1  UNL     1      -4.593   0.601  -1.722  1.00  0.00     0.012 C 
HETATM    9  C3  UNL     1      -5.077   0.509   0.666  1.00  0.00     0.012 C 
ENDBRANCH   6   7
BRANCH   6  10
HETATM   10  C23 UNL     1      -3.550  -2.225   0.634  1.00  0.00     0.230 C 
HETATM   11  O4  UNL     1      -2.668  -2.244   1.499  1.00  0.00    -0.288 OA
BRANCH  10  12
HETATM   12  C24 UNL     1      -4.583  -3.280   0.674  1.00  0.00     0.381 C 
HETATM   13  F1  UNL     1      -5.869  -2.758   0.890  1.00  0.00    -0.187 F 
HETATM   14  F2  UNL     1      -4.584  -4.027  -0.513  1.00  0.00    -0.187 F 
BRANCH  12  15
HETATM   15  C25 UNL     1      -4.394  -4.265   1.764  1.00  0.00     0.311 C 
HETATM   16  N4  UNL     1      -5.348  -5.308   1.874  1.00  0.00    -0.056 NA
HETATM   17  O5  UNL     1      -3.449  -4.187   2.548  1.00  0.00    -0.270 OA
ENDBRANCH  12  15
ENDBRANCH  10  12
ENDBRANCH   6  10
ENDBRANCH   3   6
ENDBRANCH   1   2
BRANCH   1  18
HETATM   18  C7  UNL     1       0.903   0.690  -1.800  1.00  0.00     0.247 C 
HETATM   19  O2  UNL     1       1.265   1.738  -2.447  1.00  0.00    -0.271 OA
HETATM   20  N2  UNL     1       1.495  -0.498  -2.182  1.00  0.00    -0.335 N 
HETATM   21  C8  UNL     1       2.551  -1.026  -1.860  1.00  0.00     0.104 C 
ATOM     22  H2  UNL     1       0.951  -1.035  -2.858  1.00  0.00     0.168 HD
BRANCH  21  23
HETATM   23  C9  UNL     1       3.557  -0.563  -0.944  1.00  0.00     0.007 A 
HETATM   24  C10 UNL     1       3.611   0.577  -0.192  1.00  0.00     0.102 A 
HETATM   25  N3  UNL     1       4.770   0.598   0.539  1.00  0.00    -0.364 N 
HETATM   26  C11 UNL     1       5.488  -0.506   0.288  1.00  0.00     0.043 A 
ATOM     27  H3  UNL     1       5.045   1.343   1.179  1.00  0.00     0.165 HD
HETATM   28  C12 UNL     1       6.721  -0.953   0.770  1.00  0.00     0.030 A 
HETATM   29  C16 UNL     1       4.760  -1.227  -0.618  1.00  0.00     0.004 A 
HETATM   30  C13 UNL     1       7.207  -2.154   0.314  1.00  0.00     0.002 A 
HETATM   31  C14 UNL     1       6.471  -2.874  -0.596  1.00  0.00     0.001 A 
HETATM   32  C15 UNL     1       5.258  -2.426  -1.065  1.00  0.00     0.014 A 
ENDBRANCH  21  23
ENDBRANCH   1  18
BRANCH   1  33
HETATM   33  S1  UNL     1      -0.703   2.376  -0.338  1.00  0.00     0.072 S 
HETATM   34  O3  UNL     1      -1.633   2.936  -1.376  1.00  0.00    -0.251 OA
BRANCH  33  35
HETATM   35  C17 UNL     1       0.581   3.507   0.043  1.00  0.00     0.032 A 
HETATM   36  C18 UNL     1       1.144   3.515   1.321  1.00  0.00     0.021 A 
HETATM   37  C19 UNL     1       2.141   4.415   1.618  1.00  0.00     0.001 A 
HETATM   38  C20 UNL     1       2.610   5.316   0.699  1.00  0.00     0.000 A 
HETATM   39  C21 UNL     1       2.057   5.305  -0.548  1.00  0.00     0.001 A 
HETATM   40  C22 UNL     1       1.042   4.402  -0.880  1.00  0.00     0.021 A 
ENDBRANCH  33  35
ENDBRANCH   1  33
TORSDOF 10
