REMARK  9 active torsions:
REMARK  status: ('A' for Active; 'I' for Inactive)
REMARK    1  A    between atoms: N1_2  and  C2_5 
REMARK    2  A    between atoms: C2_5  and  C4_7 
REMARK       I    between atoms: C4_7  and  N2_9 
REMARK    3  A    between atoms: N2_9  and  C5_11 
REMARK    4  A    between atoms: C5_11  and  C6_12 
REMARK    5  A    between atoms: C5_11  and  C13_19 
REMARK    6  A    between atoms: C6_12  and  C7_13 
REMARK       I    between atoms: C13_19  and  N3_21 
REMARK    7  A    between atoms: N3_21  and  C14_23 
REMARK    8  A    between atoms: C21_32  and  C22_33 
REMARK       I    between atoms: C22_33  and  N4_35 
REMARK    9  A    between atoms: N4_35  and  C24_37 
ROOT
HETATM    1  C13 UNL     1       0.024   0.641   0.257  1.00  0.00     0.241 C 
HETATM    2  O2  UNL     1      -0.053   1.756  -0.333  1.00  0.00    -0.271 OA
HETATM    3  N3  UNL     1      -1.164   0.138   0.830  1.00  0.00    -0.354 N 
ATOM      4  H3  UNL     1      -1.126  -0.760   1.313  1.00  0.00     0.162 HD
ENDROOT
BRANCH   1   5
HETATM    5  C5  UNL     1       1.326  -0.070   0.320  1.00  0.00     0.180 C 
BRANCH   5   6
HETATM    6  N2  UNL     1       2.333   0.714  -0.353  1.00  0.00    -0.346 N 
HETATM    7  C4  UNL     1       3.508   1.171   0.297  1.00  0.00     0.248 C 
HETATM    8  O1  UNL     1       3.725   0.901   1.521  1.00  0.00    -0.271 OA
ATOM      9  H2  UNL     1       2.194   0.949  -1.336  1.00  0.00     0.163 HD
BRANCH   7  10
HETATM   10  C2  UNL     1       4.520   1.976  -0.423  1.00  0.00     0.272 C 
HETATM   11  C3  UNL     1       4.988   1.329  -1.705  1.00  0.00     0.050 C 
BRANCH  10  12
HETATM   12  N1  UNL     1       5.635   2.329   0.430  1.00  0.00    -0.067 N 
HETATM   13  C1  UNL     1       6.389   1.179   0.852  1.00  0.00     0.267 C 
ATOM     14  H12 UNL     1       5.325   2.879   1.231  1.00  0.00     0.277 HD
ATOM     15  H11 UNL     1       6.237   3.019  -0.019  1.00  0.00     0.277 HD
ENDBRANCH  10  12
ENDBRANCH   7  10
ENDBRANCH   5   6
BRANCH   5  16
HETATM   16  C6  UNL     1       1.162  -1.404  -0.359  1.00  0.00     0.073 C 
BRANCH  16  17
HETATM   17  C7  UNL     1       2.370  -2.226  -0.391  1.00  0.00    -0.056 A 
HETATM   18  C8  UNL     1       2.702  -3.117   0.606  1.00  0.00     0.007 A 
HETATM   19  C9  UNL     1       3.857  -3.886   0.542  1.00  0.00     0.001 A 
HETATM   20  C10 UNL     1       4.713  -3.778  -0.532  1.00  0.00     0.000 A 
HETATM   21  C11 UNL     1       4.395  -2.895  -1.532  1.00  0.00     0.001 A 
HETATM   22  C12 UNL     1       3.244  -2.142  -1.450  1.00  0.00     0.007 A 
ENDBRANCH  16  17
ENDBRANCH   5  16
ENDBRANCH   1   5
BRANCH   3  23
HETATM   23  C14 UNL     1      -2.432   0.830   0.768  1.00  0.00     0.100 C 
HETATM   24  C15 UNL     1      -2.652   1.352   2.147  1.00  0.00     0.041 C 
HETATM   25  C16 UNL     1      -3.757   2.331   2.328  1.00  0.00     0.056 C 
HETATM   26  C17 UNL     1      -3.869   2.629   3.810  1.00  0.00     0.022 C 
HETATM   27  S1  UNL     1      -5.379   1.756   1.792  1.00  0.00    -0.092 SA
HETATM   28  S2  UNL     1      -5.338  -0.357   2.069  1.00  0.00    -0.087 SA
HETATM   29  C18 UNL     1      -4.232  -0.999   0.779  1.00  0.00     0.025 C 
HETATM   30  C19 UNL     1      -3.434  -2.101   1.386  1.00  0.00     0.028 C 
HETATM   31  C20 UNL     1      -5.136  -1.650  -0.259  1.00  0.00     0.028 C 
HETATM   32  C21 UNL     1      -3.511   0.084   0.111  1.00  0.00     0.119 C 
BRANCH  32  33
HETATM   33  C22 UNL     1      -3.075  -0.355  -1.244  1.00  0.00     0.231 C 
HETATM   34  O3  UNL     1      -2.838  -1.583  -1.488  1.00  0.00    -0.273 OA
HETATM   35  N4  UNL     1      -2.888   0.523  -2.345  1.00  0.00    -0.300 N 
HETATM   36  C23 UNL     1      -3.114   1.954  -2.297  1.00  0.00     0.158 C 
BRANCH  35  37
HETATM   37  C24 UNL     1      -2.436   0.022  -3.651  1.00  0.00     0.462 C 
HETATM   38  F1  UNL     1      -1.242   0.676  -3.914  1.00  0.00    -0.191 F 
HETATM   39  F2  UNL     1      -3.346   0.316  -4.645  1.00  0.00    -0.191 F 
ENDBRANCH  35  37
ENDBRANCH  32  33
ENDBRANCH   3  23
TORSDOF 9
