REMARK  13 active torsions:
REMARK  status: ('A' for Active; 'I' for Inactive)
REMARK    1  A    between atoms: C2_2  and  C3_3 
REMARK    2  A    between atoms: C3_3  and  C5_5 
REMARK    3  A    between atoms: C5_5  and  N1_6 
REMARK    4  A    between atoms: C5_5  and  C15_21 
REMARK       I    between atoms: N1_6  and  C6_8 
REMARK    5  A    between atoms: C6_8  and  C7_10 
REMARK    6  A    between atoms: N3_16  and  C11_17 
REMARK    7  A    between atoms: C15_21  and  O2_22 
REMARK    8  A    between atoms: C15_21  and  N4_24 
REMARK    9  A    between atoms: N4_24  and  C16_26 
REMARK   10  A    between atoms: C16_26  and  C18_28 
REMARK       I    between atoms: C18_28  and  N5_30 
REMARK   11  A    between atoms: N5_30  and  C19_32 
REMARK   12  A    between atoms: C19_32  and  C20_33 
REMARK   13  A    between atoms: C25_38  and  C26_39 
ROOT
HETATM    1  C15 UNL     1       0.844  -1.714   0.649  1.00  0.00     0.135 C 
ENDROOT
BRANCH   1   2
HETATM    2  C5  UNL     1       2.059  -2.467   0.318  1.00  0.00     0.163 C 
BRANCH   2   3
HETATM    3  C3  UNL     1       2.063  -2.922  -1.095  1.00  0.00     0.012 C 
HETATM    4  C4  UNL     1       0.930  -3.918  -1.365  1.00  0.00     0.012 C 
BRANCH   3   5
HETATM    5  C2  UNL     1       3.299  -3.756  -1.435  1.00  0.00     0.002 C 
HETATM    6  C1  UNL     1       3.401  -4.995  -0.560  1.00  0.00     0.005 C 
ENDBRANCH   3   5
ENDBRANCH   2   3
BRANCH   2   7
HETATM    7  N1  UNL     1       3.178  -1.637   0.676  1.00  0.00    -0.344 N 
HETATM    8  C6  UNL     1       3.959  -0.754  -0.067  1.00  0.00     0.264 C 
HETATM    9  O1  UNL     1       3.725  -0.565  -1.276  1.00  0.00    -0.267 OA
ATOM     10  H1  UNL     1       3.451  -1.708   1.656  1.00  0.00     0.163 HD
BRANCH   8  11
HETATM   11  C7  UNL     1       5.091   0.007   0.489  1.00  0.00     0.095 C 
HETATM   12  C8  UNL     1       5.016   0.275   1.949  1.00  0.00     0.112 C 
HETATM   13  N2  UNL     1       6.194   0.543   2.452  1.00  0.00    -0.396 N 
HETATM   14  C9  UNL     1       7.316   0.541   1.590  1.00  0.00     0.134 C 
ATOM     15  H2  UNL     1       6.301   0.749   3.445  1.00  0.00     0.158 HD
HETATM   16  C10 UNL     1       7.099   1.032   0.190  1.00  0.00     0.116 C 
HETATM   17  N3  UNL     1       5.668   1.064  -0.183  1.00  0.00    -0.268 NA
BRANCH  17  18
HETATM   18  C11 UNL     1       5.174   2.364  -0.240  1.00  0.00     0.007 C 
HETATM   19  C12 UNL     1       5.029   3.162   1.025  1.00  0.00     0.032 C 
HETATM   20  C13 UNL     1       3.861   2.457  -0.962  1.00  0.00     0.032 C 
HETATM   21  C14 UNL     1       6.142   3.235  -1.085  1.00  0.00     0.032 C 
ENDBRANCH  17  18
ENDBRANCH   8  11
ENDBRANCH   2   7
ENDBRANCH   1   2
BRANCH   1  22
HETATM   22  O2  UNL     1       0.955  -0.453   0.969  1.00  0.00    -0.348 OA
ATOM     23  H2  UNL     1       0.168   0.035   1.183  1.00  0.00     0.219 HD
ENDBRANCH   1  22
BRANCH   1  24
HETATM   24  N4  UNL     1      -0.489  -2.171   0.682  1.00  0.00    -0.360 N 
ATOM     25  H4  UNL     1      -0.680  -3.145   0.445  1.00  0.00     0.162 HD
BRANCH  24  26
HETATM   26  C16 UNL     1      -1.603  -1.306   1.041  1.00  0.00     0.171 C 
HETATM   27  C17 UNL     1      -2.350  -1.810   2.256  1.00  0.00     0.042 C 
BRANCH  26  28
HETATM   28  C18 UNL     1      -2.552  -1.213  -0.080  1.00  0.00     0.240 C 
HETATM   29  O3  UNL     1      -2.331  -1.836  -1.140  1.00  0.00    -0.271 OA
HETATM   30  N5  UNL     1      -3.742  -0.421  -0.001  1.00  0.00    -0.357 N 
ATOM     31  H5  UNL     1      -3.916   0.085   0.867  1.00  0.00     0.162 HD
BRANCH  30  32
HETATM   32  C19 UNL     1      -4.706  -0.287  -1.052  1.00  0.00     0.154 C 
BRANCH  32  33
HETATM   33  C20 UNL     1      -5.851   0.634  -0.637  1.00  0.00     0.140 C 
HETATM   34  C21 UNL     1      -6.876   0.594  -1.728  1.00  0.00     0.038 C 
HETATM   35  C22 UNL     1      -8.101   1.427  -1.380  1.00  0.00    -0.014 C 
HETATM   36  C23 UNL     1      -9.237   0.571  -0.879  1.00  0.00     0.010 C 
HETATM   37  C24 UNL     1      -7.723   2.438  -0.317  1.00  0.00     0.042 C 
HETATM   38  C25 UNL     1      -6.298   2.895  -0.542  1.00  0.00     0.187 C 
HETATM   39  O4  UNL     1      -5.381   1.887  -0.331  1.00  0.00    -0.373 OA
BRANCH  38  40
HETATM   40  C26 UNL     1      -6.009   4.007   0.458  1.00  0.00     0.381 C 
HETATM   41  F1  UNL     1      -6.154   3.543   1.763  1.00  0.00    -0.212 F 
HETATM   42  F2  UNL     1      -6.896   5.061   0.318  1.00  0.00    -0.212 F 
ENDBRANCH  38  40
ENDBRANCH  32  33
ENDBRANCH  30  32
ENDBRANCH  26  28
ENDBRANCH  24  26
ENDBRANCH   1  24
TORSDOF 13
