REMARK  11 active torsions:
REMARK  status: ('A' for Active; 'I' for Inactive)
REMARK    1  A    between atoms: S1_2  and  N1_5 
REMARK    2  A    between atoms: N1_5  and  C2_7 
REMARK    3  A    between atoms: C5_10  and  C6_11 
REMARK    4  A    between atoms: C6_11  and  C7_12 
REMARK    5  A    between atoms: C7_12  and  N2_13 
REMARK    6  A    between atoms: C7_12  and  C11_23 
REMARK       I    between atoms: N2_13  and  C8_15 
REMARK    7  A    between atoms: C8_15  and  C9_17 
REMARK    8  A    between atoms: C9_17  and  C10_19 
REMARK    9  A    between atoms: C11_23  and  O4_24 
REMARK   10  A    between atoms: C11_23  and  N3_26 
REMARK   11  A    between atoms: C14_29  and  N4_30 
ROOT
HETATM    1  C7  UNL     1      -0.881  -1.240   0.096  1.00  0.00     0.163 C 
ENDROOT
BRANCH   1   2
HETATM    2  C6  UNL     1      -1.036  -0.308  -1.050  1.00  0.00     0.072 C 
BRANCH   2   3
HETATM    3  C5  UNL     1      -2.474   0.134  -1.192  1.00  0.00    -0.056 A 
HETATM    4  C4  UNL     1      -3.338  -0.538  -2.004  1.00  0.00     0.009 A 
HETATM    5  C3  UNL     1      -4.675  -0.149  -2.134  1.00  0.00     0.030 A 
HETATM    6  C2  UNL     1      -5.148   0.948  -1.421  1.00  0.00     0.042 A 
HETATM    7  C23 UNL     1      -4.284   1.621  -0.608  1.00  0.00     0.030 A 
HETATM    8  C22 UNL     1      -2.956   1.210  -0.500  1.00  0.00     0.009 A 
BRANCH   6   9
HETATM    9  N1  UNL     1      -6.532   1.285  -1.584  1.00  0.00    -0.285 N 
ATOM     10  H1  UNL     1      -6.893   1.330  -2.537  1.00  0.00     0.178 HD
BRANCH   9  11
HETATM   11  S1  UNL     1      -7.622   1.616  -0.323  1.00  0.00     0.227 S 
HETATM   12  C1  UNL     1      -7.127   3.028   0.620  1.00  0.00     0.186 C 
HETATM   13  O1  UNL     1      -8.980   1.956  -0.920  1.00  0.00    -0.206 OA
HETATM   14  O2  UNL     1      -7.790   0.445   0.611  1.00  0.00    -0.206 OA
ENDBRANCH   9  11
ENDBRANCH   6   9
ENDBRANCH   2   3
ENDBRANCH   1   2
BRANCH   1  15
HETATM   15  N2  UNL     1      -1.710  -2.442  -0.012  1.00  0.00    -0.347 N 
HETATM   16  C8  UNL     1      -2.762  -2.653   0.914  1.00  0.00     0.241 C 
HETATM   17  O3  UNL     1      -3.014  -1.816   1.839  1.00  0.00    -0.272 OA
ATOM     18  H2  UNL     1      -1.531  -3.124  -0.749  1.00  0.00     0.163 HD
BRANCH  16  19
HETATM   19  C9  UNL     1      -3.630  -3.853   0.872  1.00  0.00     0.257 C 
HETATM   20  S2  UNL     1      -4.398  -4.076  -0.733  1.00  0.00    -0.073 SA
BRANCH  19  21
HETATM   21  C10 UNL     1      -4.755  -3.773   1.892  1.00  0.00     0.409 C 
HETATM   22  F1  UNL     1      -4.282  -3.668   3.184  1.00  0.00    -0.169 F 
HETATM   23  F2  UNL     1      -5.515  -4.924   1.763  1.00  0.00    -0.169 F 
HETATM   24  F3  UNL     1      -5.592  -2.707   1.616  1.00  0.00    -0.169 F 
ENDBRANCH  19  21
ENDBRANCH  16  19
ENDBRANCH   1  15
BRANCH   1  25
HETATM   25  C11 UNL     1       0.499  -1.588   0.408  1.00  0.00     0.137 C 
BRANCH  25  26
HETATM   26  O4  UNL     1       0.580  -2.690   1.148  1.00  0.00    -0.348 OA
ATOM     27  H4  UNL     1       1.480  -2.917   1.351  1.00  0.00     0.219 HD
ENDBRANCH  25  26
BRANCH  25  28
HETATM   28  N3  UNL     1       1.733  -1.043   0.116  1.00  0.00    -0.364 N 
HETATM   29  C12 UNL     1       2.928  -1.698   0.705  1.00  0.00     0.127 C 
HETATM   30  C13 UNL     1       3.696  -0.553   1.339  1.00  0.00     0.055 C 
HETATM   31  C14 UNL     1       4.406   0.155   0.206  1.00  0.00     0.226 C 
HETATM   32  C20 UNL     1       3.554   0.069  -0.997  1.00  0.00     0.055 C 
HETATM   33  C21 UNL     1       2.044   0.080  -0.707  1.00  0.00     0.127 C 
BRANCH  31  34
HETATM   34  N4  UNL     1       4.736   1.479   0.642  1.00  0.00     0.093 N 
HETATM   35  C15 UNL     1       5.632   1.373   1.773  1.00  0.00     0.273 C 
HETATM   36  C16 UNL     1       6.821   2.290   1.699  1.00  0.00     0.030 C 
HETATM   37  C17 UNL     1       7.657   2.063   0.479  1.00  0.00     0.003 C 
HETATM   38  C18 UNL     1       6.765   1.742  -0.718  1.00  0.00     0.030 C 
HETATM   39  C19 UNL     1       5.389   2.279  -0.368  1.00  0.00     0.273 C 
ENDBRANCH  31  34
ENDBRANCH  25  28
ENDBRANCH   1  25
TORSDOF 11
