REMARK  11 active torsions:
REMARK  status: ('A' for Active; 'I' for Inactive)
REMARK    1  A    between atoms: N1_2  and  C1_4 
REMARK    2  A    between atoms: C4_7  and  C5_8 
REMARK    3  A    between atoms: C5_8  and  C6_9 
REMARK    4  A    between atoms: C7_10  and  C8_11 
REMARK    5  A    between atoms: C11_14  and  O3_15 
REMARK    6  A    between atoms: O3_15  and  C12_16 
REMARK    7  A    between atoms: C13_18  and  C14_19 
REMARK    8  A    between atoms: C14_19  and  O5_20 
REMARK    9  A    between atoms: C15_22  and  O6_23 
REMARK   10  A    between atoms: C16_25  and  O7_26 
REMARK   11  A    between atoms: C17_28  and  O8_29 
ROOT
HETATM    1  C8  UNL     1       1.677  -0.135  -1.820  1.00  0.00    -0.035 A 
HETATM    2  C9  UNL     1       0.902   0.782  -2.575  1.00  0.00     0.014 A 
HETATM    3  C10 UNL     1      -0.421   0.929  -2.319  1.00  0.00     0.039 A 
HETATM    4  C11 UNL     1      -1.103   0.198  -1.310  1.00  0.00     0.089 A 
HETATM    5  C18 UNL     1      -0.364  -0.686  -0.581  1.00  0.00     0.045 A 
HETATM    6 BR1  UNL     1      -1.104  -1.770   0.833  1.00  0.00    -0.048 Br
HETATM    7  C19 UNL     1       0.999  -0.828  -0.857  1.00  0.00     0.033 A 
ENDROOT
BRANCH   4   8
HETATM    8  O3  UNL     1      -2.399   0.421  -1.144  1.00  0.00    -0.316 OA
BRANCH   8   9
HETATM    9  C12 UNL     1      -3.504   0.114  -0.463  1.00  0.00     0.298 C 
HETATM   10  O4  UNL     1      -3.975   1.262   0.195  1.00  0.00    -0.348 OA
HETATM   11  C13 UNL     1      -5.234   1.175   0.698  1.00  0.00     0.179 C 
HETATM   12  C15 UNL     1      -5.818  -0.216   0.760  1.00  0.00     0.180 C 
HETATM   13  C16 UNL     1      -5.666  -1.000  -0.500  1.00  0.00     0.183 C 
HETATM   14  C17 UNL     1      -4.597  -0.444  -1.382  1.00  0.00     0.205 C 
BRANCH  11  15
HETATM   15  C14 UNL     1      -6.207   2.150   0.057  1.00  0.00     0.198 C 
BRANCH  15  16
HETATM   16  O5  UNL     1      -5.817   3.462   0.233  1.00  0.00    -0.398 OA
ATOM     17  H5  UNL     1      -6.425   4.072  -0.168  1.00  0.00     0.209 HD
ENDBRANCH  15  16
ENDBRANCH  11  15
BRANCH  12  18
HETATM   18  O6  UNL     1      -5.320  -0.886   1.889  1.00  0.00    -0.390 OA
ATOM     19  H6  UNL     1      -5.687  -1.761   1.928  1.00  0.00     0.210 HD
ENDBRANCH  12  18
BRANCH  13  20
HETATM   20  O7  UNL     1      -6.884  -1.148  -1.188  1.00  0.00    -0.390 OA
ATOM     21  H7  UNL     1      -6.787  -1.647  -1.990  1.00  0.00     0.210 HD
ENDBRANCH  13  20
BRANCH  14  22
HETATM   22  O8  UNL     1      -4.008  -1.509  -2.071  1.00  0.00    -0.388 OA
ATOM     23  H8  UNL     1      -4.685  -1.855  -2.640  1.00  0.00     0.210 HD
ENDBRANCH  14  22
ENDBRANCH   8   9
ENDBRANCH   4   8
BRANCH   1  24
HETATM   24  C7  UNL     1       3.063  -0.339  -2.177  1.00  0.00     0.007 C 
HETATM   25  C6  UNL     1       4.002  -0.817  -1.471  1.00  0.00    -0.021 C 
BRANCH  25  26
HETATM   26  C5  UNL     1       4.048  -1.301  -0.111  1.00  0.00     0.065 C 
BRANCH  26  27
HETATM   27  C4  UNL     1       5.308  -0.714   0.510  1.00  0.00    -0.055 A 
HETATM   28  C3  UNL     1       5.272   0.517   1.109  1.00  0.00     0.010 A 
HETATM   29  C2  UNL     1       6.444   0.995   1.652  1.00  0.00     0.036 A 
HETATM   30  C1  UNL     1       7.635   0.273   1.607  1.00  0.00     0.102 A 
HETATM   31  C21 UNL     1       7.615  -0.961   0.992  1.00  0.00     0.036 A 
HETATM   32  C20 UNL     1       6.444  -1.479   0.430  1.00  0.00     0.010 A 
BRANCH  30  33
HETATM   33  N1  UNL     1       8.823   0.814   2.185  1.00  0.00    -0.116 N 
HETATM   34  O1  UNL     1       9.858   0.124   2.116  1.00  0.00    -0.532 OA
HETATM   35  O2  UNL     1       8.776   2.041   2.780  1.00  0.00    -0.532 OA
ENDBRANCH  30  33
ENDBRANCH  26  27
ENDBRANCH  25  26
ENDBRANCH   1  24
TORSDOF 11
