REMARK  12 active torsions:
REMARK  status: ('A' for Active; 'I' for Inactive)
REMARK    1  A    between atoms: C5_5  and  C6_6 
REMARK    2  A    between atoms: C8_8  and  O1_9 
REMARK    3  A    between atoms: C9_11  and  C11_13 
REMARK    4  A    between atoms: C12_14  and  C13_15 
REMARK    5  A    between atoms: C13_15  and  O2_16 
REMARK    6  A    between atoms: O2_16  and  C14_17 
REMARK    7  A    between atoms: C15_18  and  O3_19 
REMARK    8  A    between atoms: C16_21  and  O4_22 
REMARK    9  A    between atoms: C17_24  and  O5_25 
REMARK   10  A    between atoms: C18_27  and  O6_28 
REMARK   11  A    between atoms: O6_28  and  C19_29 
REMARK   12  A    between atoms: C19_29  and  C20_31 
ROOT
HETATM    1  C14 UNL     1       2.629  -1.414   0.158  1.00  0.00     0.185 C 
HETATM    2  C15 UNL     1       1.984  -2.598   0.867  1.00  0.00     0.181 C 
HETATM    3  C16 UNL     1       2.969  -2.972   1.927  1.00  0.00     0.180 C 
HETATM    4  C17 UNL     1       4.310  -2.747   1.293  1.00  0.00     0.181 C 
HETATM    5  C18 UNL     1       4.096  -1.749   0.213  1.00  0.00     0.195 C 
ENDROOT
BRANCH   1   6
HETATM    6  O2  UNL     1       2.302  -0.208   0.706  1.00  0.00    -0.377 OA
BRANCH   6   7
HETATM    7  C13 UNL     1       1.603   0.657  -0.095  1.00  0.00     0.195 C 
BRANCH   7   8
HETATM    8  C12 UNL     1       0.307   0.103  -0.532  1.00  0.00    -0.002 C 
HETATM    9  C11 UNL     1      -0.839   0.709  -0.230  1.00  0.00     0.011 C 
BRANCH   9  10
HETATM   10  C9  UNL     1      -2.134   0.128  -0.684  1.00  0.00     0.101 C 
HETATM   11  C8  UNL     1      -2.692  -0.674   0.493  1.00  0.00     0.158 C 
HETATM   12  C7  UNL     1      -3.505   0.368   1.177  1.00  0.00     0.067 C 
HETATM   13  C6  UNL     1      -3.889   1.292   0.104  1.00  0.00     0.129 C 
HETATM   14  O8  UNL     1      -3.062   1.101  -0.964  1.00  0.00    -0.368 OA
HETATM   15  C10 UNL     1      -1.883  -0.724  -1.884  1.00  0.00     0.053 C 
BRANCH  11  16
HETATM   16  O1  UNL     1      -1.656  -1.137   1.305  1.00  0.00    -0.392 OA
ATOM     17  H1  UNL     1      -1.137  -1.802   0.868  1.00  0.00     0.210 HD
ENDBRANCH  11  16
BRANCH  13  18
HETATM   18  C5  UNL     1      -5.320   1.270  -0.318  1.00  0.00     0.015 C 
HETATM   19  C4  UNL     1      -5.854   0.000  -0.833  1.00  0.00     0.007 C 
HETATM   20  C3  UNL     1      -7.361   0.080  -0.552  1.00  0.00     0.005 C 
HETATM   21  C2  UNL     1      -7.605   1.362   0.173  1.00  0.00    -0.018 C 
HETATM   22  C1  UNL     1      -8.079   2.397  -0.823  1.00  0.00     0.010 C 
HETATM   23  C26 UNL     1      -6.275   1.718   0.775  1.00  0.00     0.011 C 
ENDBRANCH  13  18
ENDBRANCH   9  10
ENDBRANCH   7   8
ENDBRANCH   6   7
ENDBRANCH   1   6
BRANCH   2  24
HETATM   24  O3  UNL     1       1.932  -3.643  -0.084  1.00  0.00    -0.390 OA
ATOM     25  H3  UNL     1       1.530  -4.381   0.358  1.00  0.00     0.210 HD
ENDBRANCH   2  24
BRANCH   5  26
HETATM   26  O6  UNL     1       4.932  -0.631   0.251  1.00  0.00    -0.307 OA
BRANCH  26  27
HETATM   27  C19 UNL     1       5.832  -0.254  -0.702  1.00  0.00     0.293 C 
HETATM   28  O7  UNL     1       5.923  -0.976  -1.712  1.00  0.00    -0.259 OA
BRANCH  27  29
HETATM   29  C20 UNL     1       6.670   0.933  -0.585  1.00  0.00     0.039 A 
HETATM   30  C21 UNL     1       7.563   1.267  -1.580  1.00  0.00     0.020 A 
HETATM   31  C22 UNL     1       8.362   2.396  -1.473  1.00  0.00     0.043 A 
HETATM   32  C23 UNL     1       8.291   3.217  -0.373  1.00  0.00     0.116 A 
HETATM   33  F1  UNL     1       9.087   4.334  -0.274  1.00  0.00    -0.206 F 
HETATM   34  C24 UNL     1       7.402   2.893   0.627  1.00  0.00     0.043 A 
HETATM   35  C25 UNL     1       6.602   1.755   0.511  1.00  0.00     0.020 A 
ENDBRANCH  27  29
ENDBRANCH  26  27
ENDBRANCH   5  26
BRANCH   3  36
HETATM   36  O4  UNL     1       2.761  -4.334   2.221  1.00  0.00    -0.390 OA
ATOM     37  H4  UNL     1       3.387  -4.572   2.895  1.00  0.00     0.210 HD
ENDBRANCH   3  36
BRANCH   4  38
HETATM   38  O5  UNL     1       5.289  -2.386   2.212  1.00  0.00    -0.390 OA
ATOM     39  H5  UNL     1       6.138  -2.244   1.811  1.00  0.00     0.210 HD
ENDBRANCH   4  38
TORSDOF 12
