REMARK  11 active torsions:
REMARK  status: ('A' for Active; 'I' for Inactive)
REMARK    1  A    between atoms: C2_2  and  C5_5 
REMARK    2  A    between atoms: C5_5  and  O2_7 
REMARK    3  A    between atoms: O2_7  and  C6_8 
REMARK    4  A    between atoms: C6_8  and  C7_9 
REMARK    5  A    between atoms: C8_11  and  C9_12 
REMARK    6  A    between atoms: C12_15  and  N1_16 
REMARK    7  A    between atoms: N1_16  and  S1_18 
REMARK    8  A    between atoms: S1_18  and  C13_21 
REMARK    9  A    between atoms: C21_30  and  O6_31 
REMARK   10  A    between atoms: C22_33  and  O7_34 
REMARK   11  A    between atoms: C23_36  and  O8_37 
ROOT
HETATM    1  C7  UNL     1      -1.715  -0.641   0.105  1.00  0.00     0.178 C 
HETATM    2  O3  UNL     1      -0.387  -1.000   0.370  1.00  0.00    -0.368 OA
HETATM    3  C8  UNL     1      -0.038  -0.288   1.517  1.00  0.00     0.186 C 
HETATM    4  C21 UNL     1      -0.689  -1.037   2.676  1.00  0.00     0.182 C 
HETATM    5  C22 UNL     1      -2.185  -0.777   2.559  1.00  0.00     0.181 C 
HETATM    6  C23 UNL     1      -2.655  -1.127   1.164  1.00  0.00     0.180 C 
ENDROOT
BRANCH   3   7
HETATM    7  C9  UNL     1       1.404  -0.116   1.710  1.00  0.00    -0.027 A 
HETATM    8  C10 UNL     1       2.324  -1.135   1.577  1.00  0.00     0.012 A 
HETATM    9  C11 UNL     1       3.669  -0.907   1.767  1.00  0.00     0.031 A 
HETATM   10  C12 UNL     1       4.175   0.347   2.100  1.00  0.00     0.042 A 
HETATM   11  C19 UNL     1       3.264   1.369   2.234  1.00  0.00     0.031 A 
HETATM   12  C20 UNL     1       1.909   1.124   2.039  1.00  0.00     0.012 A 
BRANCH  10  13
HETATM   13  N1  UNL     1       5.561   0.561   2.281  1.00  0.00    -0.281 N 
ATOM     14  H1  UNL     1       6.088  -0.089   2.865  1.00  0.00     0.179 HD
BRANCH  13  15
HETATM   15  S1  UNL     1       6.383   1.869   1.556  1.00  0.00     0.263 S 
HETATM   16  O4  UNL     1       5.827   3.208   1.953  1.00  0.00    -0.200 OA
HETATM   17  O5  UNL     1       7.858   1.782   1.932  1.00  0.00    -0.200 OA
BRANCH  15  18
HETATM   18  C13 UNL     1       6.298   1.777  -0.193  1.00  0.00     0.080 A 
HETATM   19  C14 UNL     1       7.275   1.068  -0.853  1.00  0.00     0.028 A 
HETATM   20  C15 UNL     1       7.305   0.928  -2.223  1.00  0.00     0.044 A 
HETATM   21  C16 UNL     1       6.301   1.537  -2.933  1.00  0.00     0.116 A 
HETATM   22  F1  UNL     1       6.279   1.435  -4.288  1.00  0.00    -0.206 F 
HETATM   23  C17 UNL     1       5.316   2.250  -2.284  1.00  0.00     0.044 A 
HETATM   24  C18 UNL     1       5.293   2.386  -0.906  1.00  0.00     0.028 A 
ENDBRANCH  15  18
ENDBRANCH  13  15
ENDBRANCH  10  13
ENDBRANCH   3   7
BRANCH   4  25
HETATM   25  O6  UNL     1      -0.516  -2.408   2.419  1.00  0.00    -0.390 OA
ATOM     26  H6  UNL     1      -0.921  -2.874   3.141  1.00  0.00     0.210 HD
ENDBRANCH   4  25
BRANCH   1  27
HETATM   27  C6  UNL     1      -2.201  -1.138  -1.236  1.00  0.00     0.213 C 
BRANCH  27  28
HETATM   28  O2  UNL     1      -3.545  -0.707  -1.365  1.00  0.00    -0.318 OA
BRANCH  28  29
HETATM   29  C5  UNL     1      -4.338  -0.960  -2.461  1.00  0.00     0.266 C 
HETATM   30  O1  UNL     1      -3.855  -1.610  -3.413  1.00  0.00    -0.264 OA
BRANCH  29  31
HETATM   31  C2  UNL     1      -5.747  -0.469  -2.513  1.00  0.00     0.037 C 
HETATM   32  C1  UNL     1      -6.426  -0.832  -3.795  1.00  0.00     0.025 C 
HETATM   33  C3  UNL     1      -5.728   1.029  -2.314  1.00  0.00     0.025 C 
HETATM   34  C4  UNL     1      -6.551  -1.065  -1.357  1.00  0.00     0.025 C 
ENDBRANCH  29  31
ENDBRANCH  28  29
ENDBRANCH  27  28
ENDBRANCH   1  27
BRANCH   5  35
HETATM   35  O7  UNL     1      -2.357   0.588   2.836  1.00  0.00    -0.390 OA
ATOM     36  H7  UNL     1      -3.290   0.750   2.763  1.00  0.00     0.210 HD
ENDBRANCH   5  35
BRANCH   6  37
HETATM   37  O8  UNL     1      -2.928  -2.479   1.078  1.00  0.00    -0.390 OA
ATOM     38  H8  UNL     1      -3.524  -2.787   1.750  1.00  0.00     0.210 HD
ENDBRANCH   6  37
TORSDOF 11
