REMARK  11 active torsions:
REMARK  status: ('A' for Active; 'I' for Inactive)
REMARK    1  A    between atoms: C3_3  and  O1_4 
REMARK    2  A    between atoms: O1_4  and  C4_5 
REMARK    3  A    between atoms: C4_5  and  C5_7 
REMARK    4  A    between atoms: C5_7  and  C6_8 
REMARK    5  A    between atoms: C6_8  and  C7_9 
REMARK    6  A    between atoms: C7_9  and  C8_10 
REMARK    7  A    between atoms: C8_10  and  C9_11 
REMARK    8  A    between atoms: C19_25  and  O4_26 
REMARK    9  A    between atoms: C20_28  and  O5_29 
REMARK   10  A    between atoms: C22_34  and  C23_35 
REMARK   11  A    between atoms: C23_35  and  O7_36 
ROOT
HETATM    1  C1  UNL     1       0.244  -2.108   0.992  1.00  0.00     0.017 C 
HETATM    2  C2  UNL     1      -0.215  -1.047   0.370  1.00  0.00    -0.055 C 
HETATM    3  C3  UNL     1       0.554   0.179   0.062  1.00  0.00     0.161 C 
HETATM    4  C11 UNL     1      -0.462   1.268   0.289  1.00  0.00     0.043 C 
HETATM    5  C12 UNL     1      -1.836   0.586   0.345  1.00  0.00     0.006 C 
HETATM    6  C13 UNL     1      -1.575  -0.805  -0.170  1.00  0.00     0.034 C 
HETATM    7  C14 UNL     1      -2.544  -1.839   0.267  1.00  0.00     0.084 C 
HETATM    8  C15 UNL     1      -2.394  -3.020  -0.637  1.00  0.00    -0.012 C 
HETATM    9  N1  UNL     1      -1.575  -3.027  -1.616  1.00  0.00    -0.405 N 
ATOM     10  H11 UNL     1      -1.473  -3.833  -2.233  1.00  0.00     0.155 HD
ATOM     11  H12 UNL     1      -0.993  -2.210  -1.804  1.00  0.00     0.155 HD
HETATM   12  C16 UNL     1      -3.244  -4.213  -0.363  1.00  0.00     0.060 C 
HETATM   13  C17 UNL     1      -4.684  -3.728  -0.552  1.00  0.00     0.087 C 
HETATM   14  C18 UNL     1      -4.870  -2.577   0.361  1.00  0.00     0.165 C 
HETATM   15  O3  UNL     1      -5.793  -2.605   1.154  1.00  0.00    -0.295 OA
HETATM   16  C19 UNL     1      -3.980  -1.386   0.356  1.00  0.00     0.157 C 
HETATM   17  C20 UNL     1      -4.390  -0.525  -0.802  1.00  0.00     0.211 C 
HETATM   18  C21 UNL     1      -4.157   0.940  -0.590  1.00  0.00     0.170 C 
HETATM   19 CL1  UNL     1      -4.925   1.773  -1.989  1.00  0.00    -0.085 Cl
HETATM   20  O6  UNL     1      -4.731   1.452   0.541  1.00  0.00    -0.354 OA
HETATM   21  C22 UNL     1      -4.033   2.539   0.983  1.00  0.00     0.148 C 
HETATM   22  C24 UNL     1      -2.865   2.758   0.047  1.00  0.00     0.043 C 
HETATM   23  C25 UNL     1      -2.734   1.352  -0.565  1.00  0.00     0.046 C 
ENDROOT
BRANCH   3  24
HETATM   24  O1  UNL     1       1.681   0.348   0.897  1.00  0.00    -0.311 OA
BRANCH  24  25
HETATM   25  C4  UNL     1       2.946   0.467   0.392  1.00  0.00     0.259 C 
HETATM   26  O2  UNL     1       3.136   0.429  -0.846  1.00  0.00    -0.265 OA
BRANCH  25  27
HETATM   27  C5  UNL     1       4.086   0.642   1.321  1.00  0.00     0.111 C 
BRANCH  27  28
HETATM   28  C6  UNL     1       5.359   0.747   0.492  1.00  0.00     0.010 C 
BRANCH  28  29
HETATM   29  C7  UNL     1       6.568   0.926   1.356  1.00  0.00     0.000 C 
BRANCH  29  30
HETATM   30  C8  UNL     1       7.800   1.041   0.508  1.00  0.00    -0.000 C 
BRANCH  30  31
HETATM   31  C9  UNL     1       7.996  -0.193  -0.310  1.00  0.00    -0.005 C 
HETATM   32  C10 UNL     1       9.276  -0.068  -1.162  1.00  0.00     0.005 C 
ENDBRANCH  30  31
ENDBRANCH  29  30
ENDBRANCH  28  29
ENDBRANCH  27  28
ENDBRANCH  25  27
ENDBRANCH  24  25
ENDBRANCH   3  24
BRANCH  16  33
HETATM   33  O4  UNL     1      -4.211  -0.681   1.533  1.00  0.00    -0.378 OA
ATOM     34  H4  UNL     1      -5.115  -0.396   1.589  1.00  0.00     0.211 HD
ENDBRANCH  16  33
BRANCH  17  35
HETATM   35  O5  UNL     1      -3.807  -0.903  -2.005  1.00  0.00    -0.388 OA
ATOM     36  H5  UNL     1      -4.067  -0.358  -2.738  1.00  0.00     0.210 HD
ENDBRANCH  17  35
BRANCH  21  37
HETATM   37  C23 UNL     1      -4.889   3.782   1.119  1.00  0.00     0.196 C 
BRANCH  37  38
HETATM   38  O7  UNL     1      -5.469   4.172  -0.078  1.00  0.00    -0.398 OA
ATOM     39  H7  UNL     1      -6.006   4.951   0.007  1.00  0.00     0.209 HD
ENDBRANCH  37  38
ENDBRANCH  21  37
TORSDOF 11
