REMARK  7 active torsions:
REMARK  status: ('A' for Active; 'I' for Inactive)
REMARK    1  A    between atoms: C9_9  and  O1_10 
REMARK    2  A    between atoms: C14_17  and  C15_18 
REMARK    3  A    between atoms: C15_18  and  S1_19 
REMARK    4  A    between atoms: S1_19  and  C16_20 
REMARK    5  A    between atoms: C16_20  and  C17_21 
REMARK    6  A    between atoms: C17_21  and  N1_22 
REMARK    7  A    between atoms: C17_21  and  C23_32 
REMARK       I    between atoms: N1_22  and  C18_24 
REMARK       I    between atoms: C18_24  and  N2_26 
ROOT
HETATM    1  C1  UNL     1      -1.600  -1.302   1.830  1.00  0.00     0.022 C 
HETATM    2  C2  UNL     1      -2.435  -0.093   1.463  1.00  0.00     0.003 C 
HETATM    3  C3  UNL     1      -1.802   1.047   2.325  1.00  0.00     0.022 C 
HETATM    4  C4  UNL     1      -3.776  -0.327   2.036  1.00  0.00    -0.012 C 
HETATM    5  C5  UNL     1      -5.023   0.123   1.442  1.00  0.00    -0.080 C 
HETATM    6  C6  UNL     1      -5.119   1.444   0.782  1.00  0.00     0.041 C 
HETATM    7  C7  UNL     1      -5.002   1.421  -0.720  1.00  0.00     0.022 C 
HETATM    8  C8  UNL     1      -5.806   0.357  -1.381  1.00  0.00     0.045 C 
HETATM    9  C9  UNL     1      -5.350  -0.961  -0.816  1.00  0.00     0.062 C 
HETATM   10  C10 UNL     1      -5.705  -0.994   0.632  1.00  0.00     0.071 C 
HETATM   11  C11 UNL     1      -3.897  -1.242  -0.965  1.00  0.00     0.048 C 
HETATM   12  C12 UNL     1      -2.991  -0.095  -1.036  1.00  0.00     0.054 A 
HETATM   13  C13 UNL     1      -3.569   1.258  -1.082  1.00  0.00     0.134 A 
HETATM   14  O2  UNL     1      -2.813   1.638  -0.007  1.00  0.00    -0.372 OA
HETATM   15  C14 UNL     1      -2.228   0.329   0.123  1.00  0.00     0.086 A 
ENDROOT
BRANCH  15  16
HETATM   16  C15 UNL     1      -0.742   0.582  -0.237  1.00  0.00     0.113 C 
BRANCH  16  17
HETATM   17  S1  UNL     1       0.307  -0.797  -0.125  1.00  0.00    -0.164 SA
BRANCH  17  18
HETATM   18  C16 UNL     1       2.024  -0.795  -0.279  1.00  0.00     0.110 C 
BRANCH  18  19
HETATM   19  C17 UNL     1       2.737  -0.492  -1.506  1.00  0.00     0.196 C 
BRANCH  19  20
HETATM   20  N1  UNL     1       4.194  -0.730  -1.242  1.00  0.00    -0.328 N 
HETATM   21  C18 UNL     1       4.918   0.244  -0.569  1.00  0.00     0.319 C 
HETATM   22  O3  UNL     1       4.366   1.315  -0.168  1.00  0.00    -0.247 OA
HETATM   23  N2  UNL     1       6.296   0.056  -0.319  1.00  0.00    -0.330 N 
HETATM   24  C19 UNL     1       7.047   1.065   0.378  1.00  0.00     0.153 C 
HETATM   25  C22 UNL     1       6.949  -1.148  -0.768  1.00  0.00     0.153 C 
HETATM   26  C20 UNL     1       8.123   0.374   1.181  1.00  0.00     0.187 C 
HETATM   27  O4  UNL     1       8.917  -0.475   0.452  1.00  0.00    -0.388 OA
HETATM   28  C21 UNL     1       8.444  -0.834  -0.784  1.00  0.00     0.187 C 
ATOM     29  H1  UNL     1       4.644  -1.591  -1.551  1.00  0.00     0.165 HD
ENDBRANCH  19  20
BRANCH  19  30
HETATM   30  C23 UNL     1       2.637   0.920  -1.959  1.00  0.00     0.197 C 
HETATM   31  O5  UNL     1       3.552   1.270  -2.816  1.00  0.00    -0.646 OA
HETATM   32  O6  UNL     1       1.729   1.825  -1.572  1.00  0.00    -0.646 OA
ENDBRANCH  19  30
ENDBRANCH  18  19
ENDBRANCH  17  18
ENDBRANCH  16  17
ENDBRANCH  15  16
BRANCH   9  33
HETATM   33  O1  UNL     1      -6.144  -1.950  -1.437  1.00  0.00    -0.390 OA
ATOM     34  H1  UNL     1      -5.856  -2.782  -1.080  1.00  0.00     0.210 HD
ENDBRANCH   9  33
TORSDOF 7
