REMARK  9 active torsions:
REMARK  status: ('A' for Active; 'I' for Inactive)
REMARK    1  A    between atoms: C2_2  and  N1_3 
REMARK    2  A    between atoms: C4_5  and  N2_6 
REMARK    3  A    between atoms: N2_6  and  N3_8 
REMARK    4  A    between atoms: C5_10  and  N4_11 
REMARK    5  A    between atoms: C5_10  and  C16_25 
REMARK    6  A    between atoms: N4_11  and  C6_13 
REMARK    7  A    between atoms: C13_20  and  O1_21 
REMARK       I    between atoms: N5_29  and  C20_30 
REMARK    8  A    between atoms: C20_30  and  C21_32 
REMARK    9  A    between atoms: N6_37  and  O3_38 
ROOT
HETATM    1  N3  UNL     1      -0.729   0.714   0.474  1.00  0.00    -0.286 N 
ATOM      2  H3  UNL     1      -0.134   0.897   1.282  1.00  0.00     0.188 HD
HETATM    3  C5  UNL     1      -0.464  -0.335  -0.192  1.00  0.00     0.115 C 
ENDROOT
BRANCH   3   4
HETATM    4  N4  UNL     1       0.607  -1.211   0.168  1.00  0.00    -0.372 N 
ATOM      5  H4  UNL     1       0.508  -2.197  -0.075  1.00  0.00     0.161 HD
BRANCH   4   6
HETATM    6  C6  UNL     1       1.791  -0.821   0.833  1.00  0.00     0.091 C 
HETATM    7  C7  UNL     1       2.693  -1.991   1.053  1.00  0.00     0.012 C 
HETATM    8  C8  UNL     1       3.454  -2.412  -0.178  1.00  0.00     0.011 C 
HETATM    9  C15 UNL     1       3.701  -1.648   2.152  1.00  0.00     0.044 C 
HETATM   10  C9  UNL     1       4.286  -1.258  -0.640  1.00  0.00    -0.011 C 
HETATM   11  C10 UNL     1       3.388  -0.094  -0.973  1.00  0.00     0.011 C 
HETATM   12  C14 UNL     1       5.260  -0.862   0.458  1.00  0.00     0.042 C 
HETATM   13  C11 UNL     1       2.578   0.296   0.224  1.00  0.00     0.012 C 
HETATM   14  C12 UNL     1       3.593   0.715   1.303  1.00  0.00     0.044 C 
HETATM   15  C13 UNL     1       4.464  -0.444   1.701  1.00  0.00     0.059 C 
BRANCH  15  16
HETATM   16  O1  UNL     1       5.345   0.010   2.667  1.00  0.00    -0.390 OA
ATOM     17  H1  UNL     1       5.895  -0.722   2.918  1.00  0.00     0.210 HD
ENDBRANCH  15  16
ENDBRANCH   4   6
ENDBRANCH   3   4
BRANCH   3  18
HETATM   18  C16 UNL     1      -1.295  -0.633  -1.380  1.00  0.00     0.156 C 
HETATM   19  C17 UNL     1      -0.460  -0.328  -2.590  1.00  0.00     0.035 C 
HETATM   20  C18 UNL     1       0.138  -1.651  -2.963  1.00  0.00     0.022 C 
HETATM   21  C19 UNL     1      -0.917  -2.639  -2.555  1.00  0.00     0.127 C 
HETATM   22  N5  UNL     1      -1.643  -2.038  -1.456  1.00  0.00    -0.340 N 
HETATM   23  C20 UNL     1      -2.542  -2.737  -0.616  1.00  0.00     0.224 C 
HETATM   24  O2  UNL     1      -2.693  -3.989  -0.836  1.00  0.00    -0.273 OA
BRANCH  23  25
HETATM   25  C21 UNL     1      -3.320  -2.144   0.489  1.00  0.00     0.078 C 
HETATM   26  C22 UNL     1      -3.948  -3.257   1.312  1.00  0.00     0.014 C 
HETATM   27  C23 UNL     1      -5.182  -3.688   0.583  1.00  0.00     0.001 C 
HETATM   28  C24 UNL     1      -5.556  -2.538  -0.324  1.00  0.00     0.001 C 
HETATM   29  C25 UNL     1      -4.562  -1.427  -0.020  1.00  0.00     0.014 C 
ENDBRANCH  23  25
ENDBRANCH   3  18
BRANCH   1  30
HETATM   30  N2  UNL     1      -1.714   1.623   0.235  1.00  0.00    -0.281 N 
ATOM     31  H2  UNL     1      -2.693   1.338   0.228  1.00  0.00     0.188 HD
BRANCH  30  32
HETATM   32  C4  UNL     1      -1.349   2.993  -0.007  1.00  0.00     0.164 A 
HETATM   33  C3  UNL     1      -0.940   3.949   0.892  1.00  0.00     0.143 A 
HETATM   34  N1  UNL     1      -0.694   5.110   0.257  1.00  0.00    -0.348 N 
HETATM   35  C26 UNL     1      -0.948   4.882  -1.040  1.00  0.00     0.218 A 
HETATM   36  N6  UNL     1      -1.351   3.585  -1.207  1.00  0.00    -0.201 N 
BRANCH  34  37
HETATM   37  C2  UNL     1      -0.234   6.327   0.911  1.00  0.00     0.124 C 
HETATM   38  C1  UNL     1      -1.367   7.189   1.371  1.00  0.00     0.027 C 
ENDBRANCH  34  37
BRANCH  36  39
HETATM   39  O3  UNL     1      -1.681   3.076  -2.429  1.00  0.00    -0.280 OA
ATOM     40  H3  UNL     1      -1.682   3.496  -3.281  1.00  0.00     0.245 HD
ENDBRANCH  36  39
ENDBRANCH  30  32
ENDBRANCH   1  30
TORSDOF 9
