REMARK  9 active torsions:
REMARK  status: ('A' for Active; 'I' for Inactive)
REMARK    1  A    between atoms: C2_2  and  C3_3 
REMARK    2  A    between atoms: C3_3  and  S1_4 
REMARK    3  A    between atoms: S1_4  and  N1_5 
REMARK    4  A    between atoms: N1_5  and  C4_7 
REMARK    5  A    between atoms: C5_8  and  C6_9 
REMARK    6  A    between atoms: C7_12  and  C8_13 
REMARK    7  A    between atoms: C8_13  and  O1_16 
REMARK       I    between atoms: N2_19  and  C12_20 
REMARK       I    between atoms: C12_20  and  N3_22 
REMARK    8  A    between atoms: N3_22  and  C13_24 
REMARK    9  A    between atoms: C18_29  and  N4_30 
ROOT
HETATM    1  C4  UNL     1      -1.841   0.818  -0.339  1.00  0.00     0.118 A 
HETATM    2  C5  UNL     1      -1.302   1.747  -1.209  1.00  0.00     0.049 A 
HETATM    3  C7  UNL     1       0.059   1.927  -1.336  1.00  0.00     0.005 A 
HETATM    4  C11 UNL     1       0.866   1.119  -0.538  1.00  0.00     0.116 A 
HETATM    5  N2  UNL     1       0.402   0.211   0.315  1.00  0.00    -0.238 N 
HETATM    6  C12 UNL     1       1.250  -0.615   1.133  1.00  0.00     0.334 C 
HETATM    7  O2  UNL     1       0.664  -1.422   1.884  1.00  0.00    -0.246 OA
HETATM    8  N3  UNL     1       2.629  -0.521   1.090  1.00  0.00    -0.306 N 
ATOM      9  H3  UNL     1       3.001   0.170   0.439  1.00  0.00     0.171 HD
HETATM   10  C23 UNL     1      -0.956   0.074   0.402  1.00  0.00     0.283 A 
HETATM   11  O3  UNL     1      -1.360  -0.797   1.222  1.00  0.00    -0.265 OA
ENDROOT
BRANCH   3  12
HETATM   12  C8  UNL     1       0.658   2.911  -2.261  1.00  0.00     0.080 C 
HETATM   13  C9  UNL     1       2.175   2.705  -2.254  1.00  0.00     0.051 C 
HETATM   14  C10 UNL     1       0.460   4.345  -1.848  1.00  0.00     0.051 C 
BRANCH  12  15
HETATM   15  O1  UNL     1       0.313   2.676  -3.609  1.00  0.00    -0.386 OA
ATOM     16  H1  UNL     1       0.698   3.309  -4.204  1.00  0.00     0.211 HD
ENDBRANCH  12  15
ENDBRANCH   3  12
BRANCH   8  17
HETATM   17  C13 UNL     1       3.601  -1.252   1.826  1.00  0.00     0.063 A 
HETATM   18  C14 UNL     1       3.323  -2.123   2.853  1.00  0.00     0.032 A 
HETATM   19  C15 UNL     1       4.285  -2.804   3.594  1.00  0.00     0.002 A 
HETATM   20  C16 UNL     1       5.609  -2.602   3.289  1.00  0.00     0.002 A 
HETATM   21  C17 UNL     1       5.936  -1.745   2.275  1.00  0.00     0.031 A 
HETATM   22  C18 UNL     1       4.962  -1.066   1.536  1.00  0.00     0.057 A 
BRANCH  22  23
HETATM   23  N4  UNL     1       5.365  -0.230   0.488  1.00  0.00    -0.379 N 
HETATM   24  C19 UNL     1       5.209  -0.455  -0.926  1.00  0.00     0.123 C 
HETATM   25  C20 UNL     1       6.585  -0.069  -1.507  1.00  0.00     0.021 C 
HETATM   26  C21 UNL     1       6.987   1.082  -0.609  1.00  0.00     0.021 C 
HETATM   27  C22 UNL     1       6.042   1.037   0.598  1.00  0.00     0.123 C 
ENDBRANCH  22  23
ENDBRANCH   8  17
BRANCH   1  28
HETATM   28  N1  UNL     1      -3.183   0.651  -0.216  1.00  0.00    -0.343 N 
ATOM     29  H1  UNL     1      -3.719   1.446  -0.565  1.00  0.00     0.172 HD
BRANCH  28  30
HETATM   30  S1  UNL     1      -4.265  -0.729   0.458  1.00  0.00    -0.179 SA
HETATM   31  C24 UNL     1      -6.034  -0.074   1.091  1.00  0.00     0.074 C 
HETATM   32  C25 UNL     1      -6.966  -0.098  -0.134  1.00  0.00     0.011 C 
HETATM   33  C26 UNL     1      -6.020   0.422  -1.233  1.00  0.00     0.011 C 
HETATM   34  C27 UNL     1      -5.109  -0.823  -1.259  1.00  0.00     0.074 C 
BRANCH  30  35
HETATM   35  C3  UNL     1      -3.841  -2.500   0.493  1.00  0.00     0.073 C 
BRANCH  35  36
HETATM   36  C2  UNL     1      -5.027  -3.427   0.447  1.00  0.00     0.006 C 
HETATM   37  C1  UNL     1      -5.975  -3.329   1.599  1.00  0.00     0.006 C 
ENDBRANCH  35  36
ENDBRANCH  30  35
ENDBRANCH  28  30
ENDBRANCH   1  28
BRANCH   2  38
HETATM   38  C6  UNL     1      -2.251   2.551  -2.006  1.00  0.00     0.389 C 
HETATM   39  F1  UNL     1      -3.086   3.213  -1.124  1.00  0.00    -0.209 F 
HETATM   40  F2  UNL     1      -2.949   1.672  -2.823  1.00  0.00    -0.209 F 
ENDBRANCH   2  38
TORSDOF 9
