REMARK  10 active torsions:
REMARK  status: ('A' for Active; 'I' for Inactive)
REMARK    1  A    between atoms: S1_2  and  C2_3 
REMARK    2  A    between atoms: C2_3  and  C25_38 
REMARK    3  A    between atoms: N1_4  and  C3_6 
REMARK    4  A    between atoms: C4_7  and  C5_8 
REMARK    5  A    between atoms: C10_13  and  C11_14 
REMARK    6  A    between atoms: C14_19  and  O1_20 
REMARK    7  A    between atoms: N3_22  and  C15_23 
REMARK    8  A    between atoms: C15_23  and  C16_24 
REMARK    9  A    between atoms: C16_24  and  N4_25 
REMARK   10  A    between atoms: C21_30  and  O2_31 
ROOT
HETATM    1  C3  UNL     1      -4.100  -0.443   0.971  1.00  0.00     0.082 A 
HETATM    2  C4  UNL     1      -3.576  -0.774  -0.243  1.00  0.00    -0.020 A 
HETATM    3  C9  UNL     1      -2.214  -0.530  -0.456  1.00  0.00     0.027 A 
HETATM    4  C10 UNL     1      -1.401   0.023   0.511  1.00  0.00     0.029 A 
HETATM    5  C23 UNL     1      -1.936   0.354   1.737  1.00  0.00     0.169 A 
HETATM    6  F1  UNL     1      -1.137   0.901   2.699  1.00  0.00    -0.202 F 
HETATM    7  C24 UNL     1      -3.270   0.120   1.958  1.00  0.00     0.182 A 
HETATM    8  F2  UNL     1      -3.742   0.442   3.198  1.00  0.00    -0.200 F 
ENDROOT
BRANCH   4   9
HETATM    9  C11 UNL     1       0.034   0.269   0.250  1.00  0.00     0.027 A 
HETATM   10  N2  UNL     1       0.890   0.778   1.064  1.00  0.00    -0.354 N 
HETATM   11  C12 UNL     1       2.186   0.861   0.457  1.00  0.00     0.095 A 
ATOM     12  H2  UNL     1       0.675   1.082   2.014  1.00  0.00     0.166 HD
HETATM   13  C13 UNL     1       2.091   0.359  -0.821  1.00  0.00     0.030 A 
HETATM   14  C21 UNL     1       3.500   1.252   0.666  1.00  0.00     0.172 A 
HETATM   15  C14 UNL     1       3.366   0.457  -1.371  1.00  0.00     0.153 A 
HETATM   16  C22 UNL     1       0.684  -0.058  -1.040  1.00  0.00     0.103 A 
HETATM   17  N3  UNL     1       4.187   0.996  -0.454  1.00  0.00    -0.304 N 
BRANCH  15  18
HETATM   18  O1  UNL     1       3.717   0.054  -2.670  1.00  0.00    -0.345 OA
ATOM     19  H1  UNL     1       4.587   0.121  -3.045  1.00  0.00     0.219 HD
ENDBRANCH  15  18
BRANCH  17  20
HETATM   20  C15 UNL     1       5.599   1.257  -0.654  1.00  0.00     0.163 C 
BRANCH  20  21
HETATM   21  C16 UNL     1       6.436   0.056  -0.242  1.00  0.00     0.292 C 
BRANCH  21  22
HETATM   22  N4  UNL     1       7.837   0.353  -0.456  1.00  0.00     0.090 N 
HETATM   23  C17 UNL     1       8.691  -0.737  -0.089  1.00  0.00     0.272 C 
HETATM   24  C18 UNL     1      10.065  -0.077  -0.105  1.00  0.00     0.032 C 
HETATM   25  C19 UNL     1       9.779   1.237   0.595  1.00  0.00     0.032 C 
HETATM   26  C20 UNL     1       8.297   1.421   0.404  1.00  0.00     0.272 C 
ENDBRANCH  21  22
ENDBRANCH  20  21
ENDBRANCH  17  20
BRANCH  14  27
HETATM   27  O2  UNL     1       3.966   1.814   1.868  1.00  0.00    -0.344 OA
ATOM     28  H2  UNL     1       4.866   2.082   2.011  1.00  0.00     0.219 HD
ENDBRANCH  14  27
ENDBRANCH   4   9
BRANCH   2  29
HETATM   29  C5  UNL     1      -4.355  -1.405  -1.295  1.00  0.00    -0.022 C 
HETATM   30  C6  UNL     1      -3.440  -1.633  -2.518  1.00  0.00     0.019 C 
HETATM   31  C7  UNL     1      -4.837  -2.797  -0.923  1.00  0.00     0.019 C 
HETATM   32  C8  UNL     1      -5.455  -0.528  -1.777  1.00  0.00     0.019 C 
ENDBRANCH   2  29
BRANCH   1  33
HETATM   33  N1  UNL     1      -5.417  -0.622   1.299  1.00  0.00    -0.351 N 
HETATM   34  C2  UNL     1      -6.426   0.067   1.467  1.00  0.00     0.051 C 
ATOM     35  H1  UNL     1      -5.623  -1.610   1.447  1.00  0.00     0.166 HD
BRANCH  34  36
HETATM   36  S1  UNL     1      -6.550   1.807   1.318  1.00  0.00    -0.121 SA
HETATM   37  C1  UNL     1      -5.119   2.692   0.766  1.00  0.00     0.097 C 
ENDBRANCH  34  36
BRANCH  34  38
HETATM   38  C25 UNL     1      -7.699  -0.647   1.887  1.00  0.00     0.043 A 
HETATM   39  C26 UNL     1      -8.887  -0.364   0.969  1.00  0.00     0.012 A 
HETATM   40  C27 UNL     1      -8.274  -1.711   1.036  1.00  0.00     0.012 A 
ENDBRANCH  34  38
ENDBRANCH   1  33
TORSDOF 10
