REMARK  5 active torsions:
REMARK  status: ('A' for Active; 'I' for Inactive)
REMARK    1  A    between atoms: C3_3  and  N1_4 
REMARK    2  A    between atoms: C5_8  and  C6_9 
REMARK       I    between atoms: C6_9  and  N2_11 
REMARK    3  A    between atoms: N2_11  and  C7_13 
REMARK    4  A    between atoms: C10_17  and  C11_18 
REMARK    5  A    between atoms: C21_30  and  C22_31 
ROOT
HETATM    1  C6  UNL     1      -2.515  -1.063   0.225  1.00  0.00     0.256 C 
HETATM    2  O3  UNL     1      -2.329  -1.998   1.017  1.00  0.00    -0.267 OA
HETATM    3  N2  UNL     1      -1.533  -0.370  -0.453  1.00  0.00    -0.316 N 
ATOM      4  H2  UNL     1      -1.898   0.337  -1.092  1.00  0.00     0.169 HD
ENDROOT
BRANCH   3   5
HETATM    5  C7  UNL     1      -0.105  -0.447  -0.437  1.00  0.00     0.093 A 
HETATM    6  S1  UNL     1       0.827  -0.205  -1.892  1.00  0.00    -0.075 SA
HETATM    7  C8  UNL     1       2.381  -0.420  -1.281  1.00  0.00    -0.008 A 
HETATM    8  C9  UNL     1       2.203  -0.665   0.020  1.00  0.00    -0.027 A 
HETATM    9  C19 UNL     1       3.579  -0.343  -2.197  1.00  0.00     0.046 C 
HETATM   10  C10 UNL     1       0.889  -0.674   0.460  1.00  0.00     0.070 A 
HETATM   11  C12 UNL     1       3.372  -0.913   0.999  1.00  0.00     0.041 C 
HETATM   12  C13 UNL     1       3.810   0.214   1.829  1.00  0.00     0.005 C 
HETATM   13  C14 UNL     1       4.949   1.097   1.475  1.00  0.00     0.000 C 
HETATM   14  C15 UNL     1       6.041   0.600   0.600  1.00  0.00     0.000 C 
HETATM   15  C16 UNL     1       6.495   1.438  -0.561  1.00  0.00     0.000 C 
HETATM   16  C17 UNL     1       5.844   1.080  -1.933  1.00  0.00     0.000 C 
HETATM   17  C18 UNL     1       4.833   0.059  -1.615  1.00  0.00     0.005 C 
BRANCH  10  18
HETATM   18  C11 UNL     1       0.496  -0.654   1.920  1.00  0.00     0.268 C 
HETATM   19  N3  UNL     1       1.204  -1.190   2.995  1.00  0.00    -0.057 NA
HETATM   20  O4  UNL     1      -0.595  -0.111   2.245  1.00  0.00    -0.271 OA
ENDBRANCH  10  18
ENDBRANCH   3   5
BRANCH   1  21
HETATM   21  C5  UNL     1      -3.936  -0.699   0.026  1.00  0.00     0.035 A 
HETATM   22  C4  UNL     1      -4.932  -1.606   0.282  1.00  0.00     0.053 A 
HETATM   23  C3  UNL     1      -6.273  -1.294   0.112  1.00  0.00     0.110 A 
HETATM   24  C2  UNL     1      -6.663  -0.052  -0.322  1.00  0.00    -0.014 A 
HETATM   25  C1  UNL     1      -8.105   0.259  -0.515  1.00  0.00     0.052 C 
HETATM   26  C21 UNL     1      -5.677   0.885  -0.587  1.00  0.00     0.057 A 
HETATM   27  C20 UNL     1      -4.332   0.540  -0.407  1.00  0.00     0.034 A 
BRANCH  23  28
HETATM   28  N1  UNL     1      -7.277  -2.268   0.400  1.00  0.00    -0.115 N 
HETATM   29  O1  UNL     1      -7.043  -3.166   1.271  1.00  0.00    -0.532 OA
HETATM   30  O2  UNL     1      -8.502  -2.323  -0.194  1.00  0.00    -0.532 OA
ENDBRANCH  23  28
BRANCH  26  31
HETATM   31  C22 UNL     1      -5.961   2.248  -1.028  1.00  0.00     0.418 C 
HETATM   32  F1  UNL     1      -6.685   2.931  -0.045  1.00  0.00    -0.166 F 
HETATM   33  F2  UNL     1      -4.785   2.935  -1.215  1.00  0.00    -0.166 F 
HETATM   34  F3  UNL     1      -6.612   2.286  -2.257  1.00  0.00    -0.166 F 
ENDBRANCH  26  31
ENDBRANCH   1  21
TORSDOF 5
