REMARK  5 active torsions:
REMARK  status: ('A' for Active; 'I' for Inactive)
REMARK    1  A    between atoms: C3_7  and  C4_8 
REMARK    2  A    between atoms: C6_10  and  N3_11 
REMARK    3  A    between atoms: C9_14  and  N4_15 
REMARK    4  A    between atoms: N4_15  and  C10_17 
REMARK    5  A    between atoms: C23_34  and  C24_35 
ROOT
HETATM    1  C4  UNL     1       5.103   0.282  -0.680  1.00  0.00     0.065 A 
HETATM    2  C5  UNL     1       3.712   0.300  -0.448  1.00  0.00     0.080 A 
HETATM    3  C6  UNL     1       2.850   0.447  -1.518  1.00  0.00     0.106 A 
HETATM    4  N5  UNL     1       3.280   0.577  -2.793  1.00  0.00    -0.339 N 
ATOM      5  H5  UNL     1       2.626   0.685  -3.568  1.00  0.00     0.168 HD
HETATM    6  C22 UNL     1       4.621   0.557  -2.994  1.00  0.00     0.182 A 
HETATM    7  N6  UNL     1       5.427   0.415  -1.956  1.00  0.00    -0.350 N 
ATOM      8  H6  UNL     1       6.425   0.407  -2.165  1.00  0.00     0.166 HD
ENDROOT
BRANCH   3   9
HETATM    9  N3  UNL     1       1.452   0.469  -1.309  1.00  0.00    -0.367 N 
HETATM   10  C7  UNL     1       0.490   0.604  -2.380  1.00  0.00     0.126 C 
HETATM   11  C8  UNL     1      -0.521  -0.513  -2.213  1.00  0.00     0.044 C 
HETATM   12  C9  UNL     1      -1.263  -0.391  -0.894  1.00  0.00     0.080 C 
HETATM   13  C20 UNL     1      -0.569   0.510   0.075  1.00  0.00     0.044 C 
HETATM   14  C21 UNL     1       0.936   0.352   0.039  1.00  0.00     0.126 C 
BRANCH  12  15
HETATM   15  N4  UNL     1      -2.594   0.020  -1.176  1.00  0.00    -0.413 N 
ATOM     16  H4  UNL     1      -2.963   0.054  -2.126  1.00  0.00     0.154 HD
BRANCH  15  17
HETATM   17  C10 UNL     1      -3.387   0.385  -0.032  1.00  0.00     0.077 C 
HETATM   18  C11 UNL     1      -3.625  -0.707   0.952  1.00  0.00     0.025 C 
HETATM   19  C12 UNL     1      -4.851  -1.524   0.734  1.00  0.00     0.011 C 
HETATM   20  C13 UNL     1      -6.089  -0.738   0.472  1.00  0.00    -0.041 C 
HETATM   21  C14 UNL     1      -7.121  -0.932   1.585  1.00  0.00     0.015 C 
HETATM   22  C15 UNL     1      -6.732  -1.335  -0.787  1.00  0.00     0.015 C 
HETATM   23  C16 UNL     1      -5.870   0.724   0.271  1.00  0.00    -0.039 C 
HETATM   24  C17 UNL     1      -5.842   1.520   1.554  1.00  0.00     0.015 C 
HETATM   25  C18 UNL     1      -7.067   1.257  -0.528  1.00  0.00     0.015 C 
HETATM   26  C19 UNL     1      -4.658   1.001  -0.564  1.00  0.00     0.034 C 
ENDBRANCH  15  17
ENDBRANCH  12  15
ENDBRANCH   3   9
BRANCH   1  27
HETATM   27  C3  UNL     1       5.992   0.129   0.458  1.00  0.00     0.089 A 
HETATM   28  N2  UNL     1       5.542  -0.006   1.761  1.00  0.00    -0.298 N 
HETATM   29  N1  UNL     1       6.566  -0.128   2.569  1.00  0.00    -0.304 N 
ATOM     30  H2  UNL     1       4.563  -0.010   2.048  1.00  0.00     0.187 HD
HETATM   31  C2  UNL     1       7.714  -0.086   1.911  1.00  0.00     0.036 A 
ATOM     32  H1  UNL     1       6.488  -0.241   3.580  1.00  0.00     0.186 HD
HETATM   33  C1  UNL     1       9.065  -0.188   2.490  1.00  0.00     0.070 C 
HETATM   34  C23 UNL     1       7.355   0.080   0.550  1.00  0.00     0.066 A 
BRANCH  34  35
HETATM   35  C24 UNL     1       8.382   0.163  -0.482  1.00  0.00     0.271 C 
HETATM   36  C25 UNL     1       9.228  -1.129  -0.516  1.00  0.00     0.096 C 
HETATM   37  F1  UNL     1       9.339   1.167  -0.122  1.00  0.00    -0.201 F 
HETATM   38  F2  UNL     1       8.050   0.414  -1.753  1.00  0.00    -0.201 F 
ENDBRANCH  34  35
ENDBRANCH   1  27
TORSDOF 5
