REMARK  6 active torsions:
REMARK  status: ('A' for Active; 'I' for Inactive)
REMARK    1  A    between atoms: C3_5  and  N2_6 
REMARK    2  A    between atoms: N2_6  and  C4_8 
REMARK    3  A    between atoms: C7_12  and  C8_13 
REMARK    4  A    between atoms: C9_16  and  C10_17 
REMARK    5  A    between atoms: C11_21  and  N4_22 
REMARK       I    between atoms: N4_22  and  C12_24 
REMARK    6  A    between atoms: C12_24  and  C13_26 
ROOT
HETATM    1  C8  UNL     1       2.209  -0.237   0.393  1.00  0.00     0.096 A 
HETATM    2  N3  UNL     1       1.718  -0.693   1.502  1.00  0.00    -0.343 N 
ATOM      3  H3  UNL     1       2.353  -1.010   2.234  1.00  0.00     0.166 HD
HETATM    4  C9  UNL     1       0.428  -0.756   1.705  1.00  0.00     0.151 A 
HETATM    5  C11 UNL     1      -0.408  -0.334   0.728  1.00  0.00     0.110 A 
HETATM    6  S2  UNL     1       0.824   0.151  -0.481  1.00  0.00    -0.051 SA
ENDROOT
BRANCH   5   7
HETATM    7  N4  UNL     1      -1.778  -0.207   0.485  1.00  0.00    -0.319 N 
HETATM    8  C12 UNL     1      -2.985  -0.426   1.077  1.00  0.00     0.231 C 
HETATM    9  O1  UNL     1      -3.257  -0.876   2.189  1.00  0.00    -0.272 OA
ATOM     10  H4  UNL     1      -1.923   0.179  -0.448  1.00  0.00     0.169 HD
BRANCH   8  11
HETATM   11  C13 UNL     1      -4.246  -0.075   0.282  1.00  0.00     0.042 C 
HETATM   12  C14 UNL     1      -4.280  -0.839  -0.999  1.00  0.00     0.024 C 
HETATM   13  C15 UNL     1      -5.443  -0.346  -1.843  1.00  0.00    -0.013 C 
HETATM   14  C16 UNL     1      -5.278   1.125  -2.078  1.00  0.00     0.009 C 
HETATM   15  C20 UNL     1      -6.707  -0.688  -1.096  1.00  0.00     0.009 C 
HETATM   16  C17 UNL     1      -5.380   1.859  -0.766  1.00  0.00    -0.013 C 
HETATM   17  C18 UNL     1      -6.649   1.506  -0.018  1.00  0.00     0.009 C 
HETATM   18  C22 UNL     1      -4.221   1.424   0.108  1.00  0.00     0.024 C 
HETATM   19  C19 UNL     1      -6.680   0.022   0.232  1.00  0.00    -0.013 C 
HETATM   20  C21 UNL     1      -5.488  -0.400   1.071  1.00  0.00     0.024 C 
ENDBRANCH   8  11
ENDBRANCH   5   7
BRANCH   4  21
HETATM   21  C10 UNL     1      -0.058  -1.309   3.041  1.00  0.00     0.435 C 
HETATM   22  F1  UNL     1       1.093  -1.653   3.823  1.00  0.00    -0.165 F 
HETATM   23  F2  UNL     1      -0.625  -0.316   3.763  1.00  0.00    -0.165 F 
HETATM   24  F3  UNL     1      -0.703  -2.494   2.915  1.00  0.00    -0.165 F 
ENDBRANCH   4  21
BRANCH   1  25
HETATM   25  C7  UNL     1       3.611  -0.076  -0.046  1.00  0.00     0.064 A 
HETATM   26  C2  UNL     1       4.764  -0.374   0.622  1.00  0.00     0.027 A 
HETATM   27  C1  UNL     1       4.677  -0.958   2.025  1.00  0.00     0.070 C 
HETATM   28  N1  UNL     1       5.893  -0.139   0.015  1.00  0.00    -0.339 N 
HETATM   29  C3  UNL     1       5.867   0.375  -1.215  1.00  0.00     0.145 A 
ATOM     30  H1  UNL     1       6.781  -0.345   0.473  1.00  0.00     0.168 HD
HETATM   31  S1  UNL     1       4.191   0.532  -1.526  1.00  0.00    -0.050 SA
BRANCH  29  32
HETATM   32  N2  UNL     1       6.880   0.684  -1.995  1.00  0.00    -0.367 N 
ATOM     33  H2  UNL     1       6.665   1.071  -2.914  1.00  0.00     0.162 HD
BRANCH  32  34
HETATM   34  C4  UNL     1       8.251   0.521  -1.658  1.00  0.00     0.075 C 
HETATM   35  C5  UNL     1       8.614   1.422  -0.480  1.00  0.00     0.032 C 
HETATM   36  C6  UNL     1       8.679  -0.901  -1.392  1.00  0.00     0.032 C 
ENDBRANCH  32  34
ENDBRANCH  29  32
ENDBRANCH   1  25
TORSDOF 6
