REMARK  8 active torsions:
REMARK  status: ('A' for Active; 'I' for Inactive)
REMARK    1  A    between atoms: O1_2  and  C2_3 
REMARK    2  A    between atoms: C11_13  and  O3_14 
REMARK    3  A    between atoms: C14_18  and  C15_19 
REMARK    4  A    between atoms: C15_19  and  C16_20 
REMARK    5  A    between atoms: C16_20  and  O4_21 
REMARK    6  A    between atoms: C17_26  and  N2_28 
REMARK    7  A    between atoms: N2_28  and  N3_30 
REMARK    8  A    between atoms: N3_30  and  N4_31 
ROOT
HETATM    1  C2  UNL     1      -2.601   1.909  -1.339  1.00  0.00     0.154 C 
HETATM    2  C3  UNL     1      -1.810   1.973  -0.043  1.00  0.00     0.018 C 
HETATM    3  C4  UNL     1      -2.852   1.573   0.887  1.00  0.00     0.015 C 
HETATM    4  C5  UNL     1      -3.386   0.325   0.347  1.00  0.00     0.029 C 
HETATM    5  C6  UNL     1      -3.479   0.693  -1.140  1.00  0.00     0.155 C 
HETATM    6  O2  UNL     1      -2.992  -0.347  -1.875  1.00  0.00    -0.382 OA
HETATM    7  C7  UNL     1      -2.771  -1.428  -1.044  1.00  0.00     0.179 C 
HETATM    8  C8  UNL     1      -2.618  -0.901   0.352  1.00  0.00    -0.003 C 
HETATM    9  C9  UNL     1      -3.288  -1.946   1.246  1.00  0.00     0.015 C 
HETATM   10  C10 UNL     1      -2.236  -3.024   1.266  1.00  0.00     0.033 C 
HETATM   11  C11 UNL     1      -0.934  -2.370   0.839  1.00  0.00     0.127 C 
HETATM   12  C12 UNL     1      -1.215  -0.876   0.841  1.00  0.00    -0.004 C 
HETATM   13  C13 UNL     1      -1.050  -0.438   2.257  1.00  0.00     0.019 C 
HETATM   14  C14 UNL     1      -0.298  -0.119  -0.124  1.00  0.00     0.002 C 
HETATM   15  C22 UNL     1      -0.523   1.314  -0.199  1.00  0.00     0.013 C 
ENDROOT
BRANCH  14  16
HETATM   16  C15 UNL     1       1.114  -0.526   0.007  1.00  0.00     0.077 C 
BRANCH  16  17
HETATM   17  C16 UNL     1       2.233  -0.048  -0.724  1.00  0.00     0.261 C 
HETATM   18  N1  UNL     1       3.278  -1.138  -0.457  1.00  0.00     0.013 N 
HETATM   19  C17 UNL     1       4.031  -0.612   0.640  1.00  0.00     0.330 C 
ATOM     20  H12 UNL     1       2.889  -2.067  -0.297  1.00  0.00     0.287 HD
ATOM     21  H11 UNL     1       3.838  -1.396  -1.270  1.00  0.00     0.287 HD
HETATM   22  C18 UNL     1       3.731  -1.284   1.963  1.00  0.00     0.108 C 
HETATM   23  O5  UNL     1       3.779   0.761   0.678  1.00  0.00    -0.321 OA
HETATM   24  C19 UNL     1       3.142   1.037  -0.544  1.00  0.00     0.116 C 
HETATM   25  C20 UNL     1       4.284   0.807  -1.580  1.00  0.00     0.051 C 
HETATM   26  C21 UNL     1       2.836   2.461  -0.692  1.00  0.00     0.051 C 
BRANCH  17  27
HETATM   27  O4  UNL     1       2.048  -0.273  -2.122  1.00  0.00    -0.362 OA
ATOM     28  H4  UNL     1       2.797   0.047  -2.611  1.00  0.00     0.212 HD
ENDBRANCH  17  27
BRANCH  19  29
HETATM   29  N2  UNL     1       5.472  -0.826   0.418  1.00  0.00    -0.192 N 
ATOM     30  H2  UNL     1       6.003  -0.149  -0.130  1.00  0.00     0.202 HD
BRANCH  29  31
HETATM   31  N3  UNL     1       6.034  -1.795   0.878  1.00  0.00    -0.244 NA
BRANCH  31  32
HETATM   32  N4  UNL     1       6.806  -2.540   1.485  1.00  0.00    -0.261 N 
ATOM     33  H42 UNL     1       7.360  -1.773   1.865  1.00  0.00     0.193 HD
ATOM     34  H41 UNL     1       7.279  -3.356   1.872  1.00  0.00     0.193 HD
ENDBRANCH  31  32
ENDBRANCH  29  31
ENDBRANCH  19  29
ENDBRANCH  16  17
ENDBRANCH  14  16
BRANCH  11  35
HETATM   35  O3  UNL     1       0.013  -2.760   1.773  1.00  0.00    -0.395 OA
ATOM     36  H3  UNL     1       0.828  -2.351   1.506  1.00  0.00     0.210 HD
ENDBRANCH  11  35
BRANCH   1  37
HETATM   37  O1  UNL     1      -3.357   3.068  -1.460  1.00  0.00    -0.388 OA
HETATM   38  C1  UNL     1      -3.067   3.759  -2.634  1.00  0.00     0.202 C 
ENDBRANCH   1  37
TORSDOF 8
