REMARK  7 active torsions:
REMARK  status: ('A' for Active; 'I' for Inactive)
REMARK    1  A    between atoms: C2_2  and  O2_4 
REMARK    2  A    between atoms: O2_4  and  C3_5 
REMARK    3  A    between atoms: C6_8  and  C7_9 
REMARK    4  A    between atoms: C15_21  and  O5_22 
REMARK    5  A    between atoms: C17_25  and  O6_26 
REMARK    6  A    between atoms: C17_25  and  C18_28 
REMARK    7  A    between atoms: C18_28  and  O7_29 
ROOT
HETATM    1  C3  UNL     1       0.360   1.659   1.148  1.00  0.00     0.141 C 
HETATM    2  C4  UNL     1       1.581   0.778   1.099  1.00  0.00     0.041 C 
HETATM    3  C5  UNL     1       1.229  -0.542   0.562  1.00  0.00     0.030 C 
HETATM    4  C6  UNL     1       2.237  -1.331  -0.176  1.00  0.00     0.177 C 
HETATM    5  O4  UNL     1       1.932  -1.174  -1.559  1.00  0.00    -0.379 OA
HETATM    6  C11 UNL     1       0.514  -1.361  -1.451  1.00  0.00     0.174 C 
HETATM    7  C12 UNL     1       0.225  -0.227  -0.567  1.00  0.00     0.026 C 
HETATM    8  C13 UNL     1      -1.140  -0.038   0.011  1.00  0.00    -0.020 C 
HETATM    9  C14 UNL     1      -1.992   0.547  -1.123  1.00  0.00     0.042 C 
HETATM   10  C15 UNL     1      -2.802  -0.512  -1.837  1.00  0.00     0.121 C 
HETATM   11  C16 UNL     1      -3.817  -1.031  -0.867  1.00  0.00     0.071 C 
HETATM   12  C17 UNL     1      -3.183  -1.520   0.417  1.00  0.00     0.082 C 
HETATM   13  C19 UNL     1      -1.706  -1.376   0.304  1.00  0.00     0.051 C 
HETATM   14  C20 UNL     1      -0.965   0.916   1.156  1.00  0.00    -0.013 C 
HETATM   15  C21 UNL     1      -1.952   2.100   1.081  1.00  0.00     0.018 C 
HETATM   16  C22 UNL     1      -1.146   0.356   2.531  1.00  0.00     0.018 C 
ENDROOT
BRANCH  10  17
HETATM   17  O5  UNL     1      -3.529   0.200  -2.823  1.00  0.00    -0.395 OA
ATOM     18  H5  UNL     1      -4.038  -0.465  -3.271  1.00  0.00     0.210 HD
ENDBRANCH  10  17
BRANCH  12  19
HETATM   19  O6  UNL     1      -3.805  -0.992   1.495  1.00  0.00    -0.388 OA
ATOM     20  H6  UNL     1      -3.407  -1.299   2.301  1.00  0.00     0.210 HD
ENDBRANCH  12  19
BRANCH  12  21
HETATM   21  C18 UNL     1      -3.457  -3.035   0.450  1.00  0.00     0.201 C 
BRANCH  21  22
HETATM   22  O7  UNL     1      -2.962  -3.606   1.616  1.00  0.00    -0.398 OA
ATOM     23  H7  UNL     1      -3.131  -4.541   1.636  1.00  0.00     0.209 HD
ENDBRANCH  21  22
ENDBRANCH  12  21
BRANCH   1  24
HETATM   24  O2  UNL     1       0.410   2.726   0.244  1.00  0.00    -0.316 OA
BRANCH  24  25
HETATM   25  C2  UNL     1       0.522   4.064   0.567  1.00  0.00     0.255 C 
HETATM   26  C1  UNL     1       0.565   5.126  -0.501  1.00  0.00     0.126 C 
HETATM   27  O1  UNL     1       0.585   4.365   1.787  1.00  0.00    -0.266 OA
ENDBRANCH  24  25
ENDBRANCH   1  24
BRANCH   4  28
HETATM   28  C7  UNL     1       3.636  -1.079   0.097  1.00  0.00     0.064 A 
HETATM   29  C8  UNL     1       4.708  -1.511  -0.653  1.00  0.00     0.064 A 
HETATM   30  C9  UNL     1       5.864  -1.054  -0.030  1.00  0.00     0.074 A 
HETATM   31  C10 UNL     1       7.275  -1.248  -0.436  1.00  0.00     0.079 C 
HETATM   32  O3  UNL     1       5.475  -0.396   1.019  1.00  0.00    -0.243 OA
HETATM   33  N1  UNL     1       4.162  -0.400   1.111  1.00  0.00    -0.263 N 
ATOM     34  H1  UNL     1       3.627   0.052   1.852  1.00  0.00     0.194 HD
ENDBRANCH   4  28
TORSDOF 7
