REMARK  8 active torsions:
REMARK  status: ('A' for Active; 'I' for Inactive)
REMARK    1  A    between atoms: C2_2  and  C3_3 
REMARK    2  A    between atoms: C7_7  and  O1_8 
REMARK    3  A    between atoms: O1_8  and  C8_9 
REMARK    4  A    between atoms: C10_12  and  O3_13 
REMARK    5  A    between atoms: O3_13  and  C11_14 
REMARK    6  A    between atoms: C13_17  and  C14_18 
REMARK    7  A    between atoms: C18_22  and  O5_23 
REMARK    8  A    between atoms: C20_26  and  O6_27 
ROOT
HETATM    1  C3  UNL     1       3.384  -0.917   0.534  1.00  0.00     0.146 C 
HETATM    2  C4  UNL     1       3.050   0.422   1.118  1.00  0.00     0.011 C 
HETATM    3  C5  UNL     1       1.953   0.818   0.472  1.00  0.00    -0.042 C 
HETATM    4  C6  UNL     1       1.058   1.979   0.484  1.00  0.00     0.072 C 
HETATM    5  C7  UNL     1      -0.402   1.680   0.372  1.00  0.00     0.174 C 
HETATM    6  C10 UNL     1      -0.699   0.137   0.290  1.00  0.00     0.135 C 
HETATM    7  C13 UNL     1      -2.135   0.070  -0.086  1.00  0.00     0.026 C 
HETATM    8  C16 UNL     1      -2.582  -1.116  -0.887  1.00  0.00     0.010 C 
HETATM    9  C17 UNL     1      -2.316  -0.981  -2.382  1.00  0.00     0.032 C 
HETATM   10  C18 UNL     1      -1.023  -1.663  -2.647  1.00  0.00     0.121 C 
HETATM   11  C19 UNL     1      -0.053  -1.618  -1.483  1.00  0.00     0.076 C 
HETATM   12  C20 UNL     1       0.172  -0.293  -0.873  1.00  0.00     0.129 C 
HETATM   13  C21 UNL     1       1.646  -0.243  -0.517  1.00  0.00     0.115 C 
HETATM   14  C22 UNL     1       2.509  -0.085  -1.767  1.00  0.00     0.055 C 
HETATM   15  O7  UNL     1       2.103  -1.371   0.162  1.00  0.00    -0.364 OA
ENDROOT
BRANCH   5  16
HETATM   16  O1  UNL     1      -0.953   2.404  -0.648  1.00  0.00    -0.313 OA
BRANCH  16  17
HETATM   17  C8  UNL     1      -1.811   3.445  -0.517  1.00  0.00     0.255 C 
HETATM   18  C9  UNL     1      -2.366   4.169  -1.726  1.00  0.00     0.126 C 
HETATM   19  O2  UNL     1      -2.175   3.843   0.595  1.00  0.00    -0.266 OA
ENDBRANCH  16  17
ENDBRANCH   5  16
BRANCH   6  20
HETATM   20  O3  UNL     1      -0.244  -0.287   1.440  1.00  0.00    -0.304 OA
BRANCH  20  21
HETATM   21  C11 UNL     1      -0.124  -1.305   2.283  1.00  0.00     0.255 C 
HETATM   22  C12 UNL     1       0.583  -1.273   3.603  1.00  0.00     0.126 C 
HETATM   23  O4  UNL     1      -0.677  -2.311   1.844  1.00  0.00    -0.266 OA
ENDBRANCH  20  21
ENDBRANCH   6  20
BRANCH   7  24
HETATM   24  C14 UNL     1      -3.059   0.339   1.088  1.00  0.00     0.003 C 
HETATM   25  C15 UNL     1      -4.519   0.280   0.709  1.00  0.00     0.005 C 
ENDBRANCH   7  24
BRANCH  12  26
HETATM   26  O6  UNL     1       0.042   0.734  -1.874  1.00  0.00    -0.383 OA
ATOM     27  H6  UNL     1       0.588   0.464  -2.603  1.00  0.00     0.210 HD
ENDBRANCH  12  26
BRANCH   1  28
HETATM   28  C2  UNL     1       4.037  -1.748   1.584  1.00  0.00     0.031 C 
HETATM   29  C1  UNL     1       5.308  -1.019   2.030  1.00  0.00     0.008 C 
ENDBRANCH   1  28
BRANCH  10  30
HETATM   30  O5  UNL     1      -1.311  -3.027  -2.853  1.00  0.00    -0.395 OA
ATOM     31  H5  UNL     1      -0.484  -3.463  -3.022  1.00  0.00     0.210 HD
ENDBRANCH  10  30
TORSDOF 8
