REMARK  5 active torsions:
REMARK  status: ('A' for Active; 'I' for Inactive)
REMARK    1  A    between atoms: C2_2  and  O1_3 
REMARK    2  A    between atoms: O1_3  and  C3_4 
REMARK       I    between atoms: C3_4  and  N1_6 
REMARK    3  A    between atoms: N1_6  and  C4_8 
REMARK    4  A    between atoms: C7_12  and  C8_13 
REMARK    5  A    between atoms: N3_24  and  C15_25 
ROOT
HETATM    1  C8  UNL     1       0.761  -2.458  -1.109  1.00  0.00     0.029 A 
HETATM    2  C9  UNL     1       0.782  -2.821  -2.424  1.00  0.00     0.088 A 
HETATM    3 CL1  UNL     1       0.424  -1.787  -3.838  1.00  0.00    -0.075 Cl
HETATM    4  S2  UNL     1       1.223  -4.464  -2.392  1.00  0.00    -0.063 SA
HETATM    5  C10 UNL     1       1.374  -4.662  -0.705  1.00  0.00     0.097 A 
HETATM    6 CL2  UNL     1       1.818  -6.123   0.209  1.00  0.00    -0.075 Cl
HETATM    7  C11 UNL     1       1.072  -3.423  -0.198  1.00  0.00     0.086 A 
HETATM    8  C12 UNL     1       1.099  -3.204   1.273  1.00  0.00     0.102 C 
HETATM    9  N2  UNL     1       1.114  -3.013   2.416  1.00  0.00    -0.191 NA
ENDROOT
BRANCH   1  10
HETATM   10  C7  UNL     1       0.405  -1.042  -0.714  1.00  0.00     0.020 A 
HETATM   11  C4  UNL     1       1.365  -0.089  -0.597  1.00  0.00     0.090 A 
HETATM   12  S1  UNL     1       0.508   1.308  -0.143  1.00  0.00    -0.073 SA
HETATM   13  C5  UNL     1      -1.060   0.656  -0.108  1.00  0.00     0.015 A 
HETATM   14  C6  UNL     1      -0.877  -0.660  -0.458  1.00  0.00    -0.024 A 
HETATM   15  C17 UNL     1      -2.433   1.200   0.200  1.00  0.00     0.120 C 
HETATM   16  C13 UNL     1      -2.182  -1.459  -0.487  1.00  0.00     0.085 C 
HETATM   17  C14 UNL     1      -3.012  -1.104   0.709  1.00  0.00     0.063 C 
HETATM   18  N3  UNL     1      -3.056   0.254   1.062  1.00  0.00    -0.385 N 
HETATM   19  C18 UNL     1      -3.191   1.539  -1.031  1.00  0.00     0.038 C 
BRANCH  11  20
HETATM   20  N1  UNL     1       2.797  -0.212  -0.806  1.00  0.00    -0.296 N 
HETATM   21  C3  UNL     1       3.589   0.930  -0.621  1.00  0.00     0.365 C 
HETATM   22  O2  UNL     1       3.040   2.009  -0.284  1.00  0.00    -0.238 OA
ATOM     23  H1  UNL     1       3.214  -1.102  -1.079  1.00  0.00     0.171 HD
BRANCH  21  24
HETATM   24  O1  UNL     1       4.950   0.890  -0.801  1.00  0.00    -0.304 OA
BRANCH  24  25
HETATM   25  C2  UNL     1       5.713   2.055  -0.606  1.00  0.00     0.176 C 
HETATM   26  C1  UNL     1       5.616   2.619   0.773  1.00  0.00     0.034 C 
ENDBRANCH  24  25
ENDBRANCH  21  24
ENDBRANCH  11  20
BRANCH  18  27
HETATM   27  C15 UNL     1      -4.278   0.696   1.673  1.00  0.00     0.118 C 
HETATM   28  C16 UNL     1      -4.177   2.164   1.996  1.00  0.00     0.026 C 
ENDBRANCH  18  27
ENDBRANCH   1  10
TORSDOF 5
