REMARK  15 active torsions:
REMARK  status: ('A' for Active; 'I' for Inactive)
REMARK    1  A    between atoms: C2_2  and  C4_4 
REMARK    2  A    between atoms: C4_4  and  C5_5 
REMARK    3  A    between atoms: C5_5  and  N1_6 
REMARK    4  A    between atoms: C5_5  and  C12_17 
REMARK       I    between atoms: N1_6  and  C6_8 
REMARK    5  A    between atoms: C6_8  and  C7_10 
REMARK    6  A    between atoms: C7_10  and  O3_12 
REMARK    7  A    between atoms: O3_12  and  C8_13 
REMARK    8  A    between atoms: C12_17  and  N2_18 
REMARK    9  A    between atoms: C12_17  and  S1_34 
REMARK   10  A    between atoms: N2_18  and  C13_20 
REMARK   11  A    between atoms: C13_20  and  C14_21 
REMARK   12  A    between atoms: C13_20  and  C19_26 
REMARK   13  A    between atoms: C14_21  and  C15_22 
REMARK       I    between atoms: C19_26  and  N3_28 
REMARK   14  A    between atoms: N3_28  and  C20_30 
REMARK   15  A    between atoms: S1_34  and  C24_37 
ROOT
HETATM    1  C12 UNL     1      -1.506   1.354   0.261  1.00  0.00     0.229 C 
ENDROOT
BRANCH   1   2
HETATM    2  C5  UNL     1      -0.066   1.556   0.552  1.00  0.00     0.122 C 
BRANCH   2   3
HETATM    3  C4  UNL     1       0.432   2.935   0.221  1.00  0.00     0.032 C 
BRANCH   3   4
HETATM    4  C2  UNL     1       1.693   3.422   0.815  1.00  0.00    -0.021 C 
HETATM    5  C1  UNL     1       2.927   2.690   0.458  1.00  0.00     0.009 C 
HETATM    6  C3  UNL     1       1.862   4.874   0.310  1.00  0.00     0.009 C 
ENDBRANCH   3   4
ENDBRANCH   2   3
BRANCH   2   7
HETATM    7  N1  UNL     1       0.812   0.545   0.135  1.00  0.00    -0.345 N 
HETATM    8  C6  UNL     1       1.531  -0.272   1.091  1.00  0.00     0.317 C 
HETATM    9  O1  UNL     1       1.350  -0.049   2.302  1.00  0.00    -0.262 OA
ATOM     10  H1  UNL     1       0.947   0.382  -0.863  1.00  0.00     0.163 HD
BRANCH   8  11
HETATM   11  C7  UNL     1       2.443  -1.329   0.685  1.00  0.00     0.352 C 
HETATM   12  O2  UNL     1       2.616  -1.550  -0.558  1.00  0.00    -0.254 OA
BRANCH  11  13
HETATM   13  O3  UNL     1       3.138  -2.112   1.559  1.00  0.00    -0.304 OA
BRANCH  13  14
HETATM   14  C8  UNL     1       4.029  -3.144   1.271  1.00  0.00     0.060 C 
HETATM   15  C9  UNL     1       4.543  -3.678   2.614  1.00  0.00     0.046 C 
HETATM   16  C10 UNL     1       5.276  -2.638   0.544  1.00  0.00     0.046 C 
HETATM   17  C11 UNL     1       3.414  -4.296   0.545  1.00  0.00     0.046 C 
ENDBRANCH  13  14
ENDBRANCH  11  13
ENDBRANCH   8  11
ENDBRANCH   2   7
ENDBRANCH   1   2
BRANCH   1  18
HETATM   18  N2  UNL     1      -1.929  -0.008   0.424  1.00  0.00    -0.391 N 
ATOM     19  H2  UNL     1      -2.528  -0.242   1.216  1.00  0.00     0.155 HD
BRANCH  18  20
HETATM   20  C13 UNL     1      -1.560  -1.013  -0.445  1.00  0.00     0.171 C 
BRANCH  20  21
HETATM   21  C14 UNL     1      -2.634  -2.150  -0.208  1.00  0.00     0.039 C 
BRANCH  21  22
HETATM   22  C15 UNL     1      -2.557  -2.584   1.237  1.00  0.00    -0.012 C 
HETATM   23  C16 UNL     1      -1.176  -3.134   1.616  1.00  0.00     0.005 C 
HETATM   24  C17 UNL     1      -1.913  -4.222   2.367  1.00  0.00     0.001 C 
HETATM   25  C18 UNL     1      -3.074  -3.998   1.389  1.00  0.00     0.005 C 
ENDBRANCH  21  22
ENDBRANCH  20  21
BRANCH  20  26
HETATM   26  C19 UNL     1      -1.756  -0.733  -1.894  1.00  0.00     0.240 C 
HETATM   27  O4  UNL     1      -2.644   0.053  -2.305  1.00  0.00    -0.271 OA
HETATM   28  N3  UNL     1      -0.919  -1.366  -2.831  1.00  0.00    -0.351 N 
ATOM     29  H3  UNL     1      -0.199  -1.995  -2.475  1.00  0.00     0.163 HD
BRANCH  28  30
HETATM   30  C20 UNL     1      -1.007  -1.189  -4.260  1.00  0.00     0.022 C 
HETATM   31  C21 UNL     1       0.097  -1.970  -4.917  1.00  0.00     0.037 C 
HETATM   32  C22 UNL     1      -2.319  -1.784  -4.794  1.00  0.00     0.037 C 
HETATM   33  C23 UNL     1      -0.977   0.234  -4.701  1.00  0.00     0.037 C 
ENDBRANCH  28  30
ENDBRANCH  20  26
ENDBRANCH  18  20
ENDBRANCH   1  18
BRANCH   1  34
HETATM   34  S1  UNL     1      -2.528   2.150   1.533  1.00  0.00     0.198 S 
HETATM   35  O5  UNL     1      -3.983   1.773   1.275  1.00  0.00    -0.220 OA
HETATM   36  O6  UNL     1      -2.201   1.471   2.865  1.00  0.00    -0.220 OA
BRANCH  34  37
HETATM   37  C24 UNL     1      -2.418   3.827   1.701  1.00  0.00     0.063 A 
HETATM   38  C25 UNL     1      -1.623   4.352   2.708  1.00  0.00     0.025 A 
HETATM   39  C26 UNL     1      -1.503   5.697   2.923  1.00  0.00     0.027 A 
HETATM   40  C27 UNL     1      -2.171   6.607   2.146  1.00  0.00     0.055 A 
HETATM   41 CL1  UNL     1      -2.030   8.346   2.404  1.00  0.00    -0.083 Cl
HETATM   42  C28 UNL     1      -2.965   6.092   1.141  1.00  0.00     0.057 A 
HETATM   43 CL2  UNL     1      -3.845   7.238   0.118  1.00  0.00    -0.083 Cl
HETATM   44  C29 UNL     1      -3.100   4.751   0.908  1.00  0.00     0.049 A 
ENDBRANCH  34  37
ENDBRANCH   1  34
TORSDOF 15
