REMARK  7 active torsions:
REMARK  status: ('A' for Active; 'I' for Inactive)
REMARK    1  A    between atoms: O1_2  and  C2_3 
REMARK    2  A    between atoms: C2_3  and  C3_4 
REMARK    3  A    between atoms: C3_4  and  C4_5 
REMARK    4  A    between atoms: C4_5  and  N1_6 
REMARK    5  A    between atoms: N1_6  and  C5_8 
REMARK    6  A    between atoms: C15_18  and  C16_19 
REMARK    7  A    between atoms: C16_19  and  O2_22 
ROOT
HETATM    1  C5  UNL     1      -2.451  -0.250   0.346  1.00  0.00     0.088 C 
HETATM    2  C6  UNL     1      -1.984   1.126   0.149  1.00  0.00     0.026 C 
HETATM    3  C7  UNL     1      -0.681   1.064  -0.622  1.00  0.00     0.012 C 
HETATM    4  C8  UNL     1       0.448   0.332   0.067  1.00  0.00    -0.032 C 
HETATM    5  C9  UNL     1       0.806   1.182   1.270  1.00  0.00     0.016 C 
HETATM    6  C10 UNL     1      -0.035  -0.969   0.630  1.00  0.00     0.004 C 
HETATM    7  C11 UNL     1       0.221  -2.144  -0.291  1.00  0.00     0.006 C 
HETATM    8  C12 UNL     1       1.706  -2.249  -0.334  1.00  0.00     0.006 C 
HETATM    9  C13 UNL     1       2.298  -1.053  -1.018  1.00  0.00    -0.005 C 
HETATM   10  C14 UNL     1       3.731  -1.072  -0.502  1.00  0.00     0.013 C 
HETATM   11  C15 UNL     1       4.514   0.160  -0.723  1.00  0.00     0.019 C 
HETATM   12  C19 UNL     1       3.697   1.244  -0.007  1.00  0.00     0.008 C 
HETATM   13  C20 UNL     1       2.502   1.441  -0.885  1.00  0.00     0.011 C 
HETATM   14  C21 UNL     1       1.577   0.210  -0.929  1.00  0.00    -0.033 C 
HETATM   15  C22 UNL     1       0.995   0.415  -2.359  1.00  0.00     0.016 C 
HETATM   16  C23 UNL     1      -1.397  -0.984   1.173  1.00  0.00    -0.023 C 
HETATM   17  C24 UNL     1      -1.936  -2.427   1.217  1.00  0.00     0.017 C 
HETATM   18  C25 UNL     1      -1.546  -0.502   2.598  1.00  0.00     0.017 C 
ENDROOT
BRANCH   1  19
HETATM   19  N1  UNL     1      -3.693  -0.419   0.926  1.00  0.00    -0.397 N 
ATOM     20  H1  UNL     1      -3.698  -0.858   1.847  1.00  0.00     0.159 HD
BRANCH  19  21
HETATM   21  C4  UNL     1      -4.925  -0.071   0.420  1.00  0.00     0.058 C 
BRANCH  21  22
HETATM   22  C3  UNL     1      -5.366   1.343   0.287  1.00  0.00     0.070 C 
BRANCH  22  23
HETATM   23  C2  UNL     1      -6.825   1.355  -0.270  1.00  0.00     0.172 C 
BRANCH  23  24
HETATM   24  O1  UNL     1      -6.830   0.730  -1.513  1.00  0.00    -0.396 OA
HETATM   25  C1  UNL     1      -8.097   0.702  -2.073  1.00  0.00     0.201 C 
ENDBRANCH  23  24
ENDBRANCH  22  23
ENDBRANCH  21  22
ENDBRANCH  19  21
ENDBRANCH   1  19
BRANCH  11  26
HETATM   26  C16 UNL     1       5.875  -0.012  -0.137  1.00  0.00     0.054 C 
HETATM   27  C17 UNL     1       6.734   1.215  -0.326  1.00  0.00     0.045 C 
HETATM   28  C18 UNL     1       5.870  -0.371   1.322  1.00  0.00     0.045 C 
BRANCH  26  29
HETATM   29  O2  UNL     1       6.467  -1.099  -0.820  1.00  0.00    -0.390 OA
ATOM     30  H2  UNL     1       7.334  -1.209  -0.447  1.00  0.00     0.210 HD
ENDBRANCH  26  29
ENDBRANCH  11  26
TORSDOF 7
