REMARK  8 active torsions:
REMARK  status: ('A' for Active; 'I' for Inactive)
REMARK    1  A    between atoms: C2_2  and  C4_4 
REMARK    2  A    between atoms: C4_4  and  C5_5 
REMARK    3  A    between atoms: C5_5  and  C6_6 
REMARK    4  A    between atoms: C6_6  and  C7_7 
REMARK    5  A    between atoms: C13_13  and  O1_14 
REMARK    6  A    between atoms: C19_21  and  C21_23 
REMARK    7  A    between atoms: C21_23  and  C22_24 
REMARK    8  A    between atoms: C22_24  and  O2_26 
ROOT
HETATM    1  C7  UNL     1      -0.896  -0.233   0.087  1.00  0.00    -0.046 C 
HETATM    2  C8  UNL     1      -0.767   0.621  -0.984  1.00  0.00    -0.014 C 
HETATM    3  C9  UNL     1       0.382   1.384  -1.449  1.00  0.00     0.009 C 
HETATM    4  C10 UNL     1       0.372   1.335  -2.978  1.00  0.00     0.014 C 
HETATM    5  C11 UNL     1       1.703   0.853  -0.913  1.00  0.00     0.001 C 
HETATM    6  C12 UNL     1       2.686   0.936  -2.021  1.00  0.00     0.042 C 
HETATM    7  C13 UNL     1       4.132   0.767  -1.600  1.00  0.00     0.146 C 
HETATM    8  C14 UNL     1       4.379  -0.701  -1.540  1.00  0.00    -0.061 C 
HETATM    9  C15 UNL     1       5.618  -1.135  -1.520  1.00  0.00     0.017 C 
HETATM   10  C16 UNL     1       3.343  -1.759  -1.499  1.00  0.00     0.036 C 
HETATM   11  C17 UNL     1       2.499  -1.476  -0.240  1.00  0.00     0.010 C 
HETATM   12  C18 UNL     1       1.417  -0.517  -0.419  1.00  0.00     0.003 C 
HETATM   13  C19 UNL     1       0.398  -0.438   0.762  1.00  0.00    -0.010 C 
HETATM   14  C20 UNL     1       0.603  -1.704   1.479  1.00  0.00     0.021 C 
ENDROOT
BRANCH   1  15
HETATM   15  C6  UNL     1      -2.211  -0.830   0.252  1.00  0.00    -0.049 C 
HETATM   16  C24 UNL     1      -2.779  -1.556   1.169  1.00  0.00    -0.081 C 
HETATM   17  C25 UNL     1      -2.390  -1.763   2.594  1.00  0.00     0.043 C 
HETATM   18  C26 UNL     1      -4.006  -2.448   0.893  1.00  0.00     0.043 C 
BRANCH  15  19
HETATM   19  C5  UNL     1      -3.006  -0.906  -1.079  1.00  0.00     0.043 C 
BRANCH  19  20
HETATM   20  C4  UNL     1      -4.319  -0.258  -1.057  1.00  0.00     0.037 C 
BRANCH  20  21
HETATM   21  C2  UNL     1      -4.483   1.131  -0.668  1.00  0.00    -0.093 C 
HETATM   22  C1  UNL     1      -4.999   2.047  -1.514  1.00  0.00     0.014 C 
HETATM   23  C3  UNL     1      -4.144   1.620   0.697  1.00  0.00     0.042 C 
ENDBRANCH  20  21
ENDBRANCH  19  20
ENDBRANCH  15  19
ENDBRANCH   1  15
BRANCH  13  24
HETATM   24  C21 UNL     1       0.617   0.764   1.631  1.00  0.00     0.045 C 
BRANCH  24  25
HETATM   25  C22 UNL     1       1.821   0.871   2.452  1.00  0.00     0.115 C 
HETATM   26  C23 UNL     1       1.720   2.229   3.185  1.00  0.00     0.039 C 
BRANCH  25  27
HETATM   27  O2  UNL     1       1.893  -0.043   3.502  1.00  0.00    -0.396 OA
ATOM     28  H2  UNL     1       2.676   0.027   4.036  1.00  0.00     0.210 HD
ENDBRANCH  25  27
ENDBRANCH  24  25
ENDBRANCH  13  24
BRANCH   7  29
HETATM   29  O1  UNL     1       4.449   1.430  -0.441  1.00  0.00    -0.391 OA
ATOM     30  H1  UNL     1       5.355   1.324  -0.177  1.00  0.00     0.210 HD
ENDBRANCH   7  29
TORSDOF 8
