REMARK  6 active torsions:
REMARK  status: ('A' for Active; 'I' for Inactive)
REMARK    1  A    between atoms: C7_7  and  N1_8 
REMARK    2  A    between atoms: N1_8  and  C8_10 
REMARK    3  A    between atoms: C8_10  and  C9_11 
REMARK    4  A    between atoms: C9_11  and  C10_12 
REMARK    5  A    between atoms: C10_12  and  C11_13 
REMARK    6  A    between atoms: C11_13  and  C12_14 
ROOT
HETATM    1  C9  UNL     1       0.221   2.005  -1.003  1.00  0.00     0.019 C 
ENDROOT
BRANCH   1   2
HETATM    2  C8  UNL     1       1.519   2.093  -0.272  1.00  0.00     0.114 C 
BRANCH   2   3
HETATM    3  N1  UNL     1       2.008   0.876   0.274  1.00  0.00    -0.417 N 
ATOM      4  H1  UNL     1       2.051   0.722   1.281  1.00  0.00     0.153 HD
BRANCH   3   5
HETATM    5  C7  UNL     1       2.436  -0.120  -0.653  1.00  0.00     0.077 C 
HETATM    6  C6  UNL     1       3.607   0.290  -1.513  1.00  0.00     0.029 C 
HETATM    7  C5  UNL     1       4.848  -0.232  -0.837  1.00  0.00    -0.009 C 
HETATM    8  C4  UNL     1       5.634   0.918  -0.325  1.00  0.00     0.005 C 
HETATM    9  C23 UNL     1       4.415  -1.097   0.322  1.00  0.00    -0.009 C 
HETATM   10  C3  UNL     1       7.117   0.773  -0.438  1.00  0.00     0.000 C 
HETATM   11  C2  UNL     1       7.658  -0.547  -0.038  1.00  0.00     0.000 C 
HETATM   12  C1  UNL     1       7.115  -1.046   1.281  1.00  0.00     0.000 C 
HETATM   13  C25 UNL     1       6.424  -2.366   1.150  1.00  0.00     0.000 C 
HETATM   14  C24 UNL     1       5.207  -2.369   0.287  1.00  0.00     0.005 C 
HETATM   15  C22 UNL     1       2.928  -1.311   0.161  1.00  0.00     0.029 C 
ENDBRANCH   3   5
ENDBRANCH   2   3
ENDBRANCH   1   2
BRANCH   1  16
HETATM   16  C10 UNL     1      -0.914   1.521  -0.160  1.00  0.00     0.002 C 
BRANCH  16  17
HETATM   17  C11 UNL     1      -2.196   1.460  -0.954  1.00  0.00     0.005 C 
BRANCH  17  18
HETATM   18  C12 UNL     1      -3.365   0.975  -0.129  1.00  0.00    -0.012 C 
HETATM   19  C13 UNL     1      -3.059  -0.405   0.376  1.00  0.00     0.005 C 
HETATM   20  C14 UNL     1      -4.302  -1.214   0.680  1.00  0.00     0.008 C 
HETATM   21  C15 UNL     1      -5.507  -0.316   0.883  1.00  0.00     0.024 C 
HETATM   22  C16 UNL     1      -6.691  -1.040   1.406  1.00  0.00     0.038 C 
HETATM   23  C19 UNL     1      -5.826   0.497  -0.323  1.00  0.00     0.093 C 
HETATM   24  C17 UNL     1      -7.848  -1.193   0.487  1.00  0.00     0.276 C 
HETATM   25  N2  UNL     1      -7.959  -0.232  -0.563  1.00  0.00     0.114 N 
HETATM   26  C18 UNL     1      -7.961   1.116  -0.091  1.00  0.00     0.441 C 
HETATM   27  C21 UNL     1      -6.688  -0.280  -1.306  1.00  0.00     0.313 C 
HETATM   28  O1  UNL     1      -6.643   1.534   0.038  1.00  0.00    -0.349 OA
HETATM   29  C20 UNL     1      -4.594   1.054  -0.996  1.00  0.00     0.044 C 
ENDBRANCH  17  18
ENDBRANCH  16  17
ENDBRANCH   1  16
TORSDOF 6
