REMARK  0 active torsions:
REMARK  status: ('A' for Active; 'I' for Inactive)
ROOT
HETATM    1  C1  UNL     1      -1.947   0.129  -0.260  1.00  0.00     0.089 C 
HETATM    2  C2  UNL     1      -0.447   0.101  -0.118  1.00  0.00     0.082 A 
HETATM    3  N1  UNL     1       0.539   0.772  -0.606  1.00  0.00    -0.318 N 
ATOM      4  H1  UNL     1       0.568   1.552  -1.262  1.00  0.00     0.170 HD
HETATM    5  C3  UNL     1       1.561   0.076   0.063  1.00  0.00     0.179 A 
HETATM    6  N2  UNL     1       2.840   0.036   0.198  1.00  0.00    -0.371 N 
ATOM      7  H21 UNL     1       3.581  -0.469   0.683  1.00  0.00     0.159 HD
ATOM      8  H22 UNL     1       3.610   0.576  -0.197  1.00  0.00     0.159 HD
HETATM    9  N3  UNL     1       0.491  -0.675   0.612  1.00  0.00    -0.318 N 
ATOM     10  H3  UNL     1       0.423  -1.455   1.265  1.00  0.00     0.170 HD
ENDROOT
TORSDOF 0
