REMARK  2 active torsions:
REMARK  status: ('A' for Active; 'I' for Inactive)
REMARK    1  A    between atoms: N1_1  and  C1_5 
REMARK    2  A    between atoms: C3_7  and  N2_8 
ROOT
HETATM    1  C1  UNL     1      -0.825  -0.339  -0.234  1.00  0.00     0.215 A 
HETATM    2  C2  UNL     1       0.371  -1.203  -0.265  1.00  0.00     0.069 A 
HETATM    3  C3  UNL     1       0.461   0.311  -0.507  1.00  0.00     0.215 A 
ENDROOT
BRANCH   1   4
HETATM    4  N1  UNL     1      -1.523  -0.202   1.017  1.00  0.00    -0.073 N 
ATOM      5  H13 UNL     1      -1.769  -1.128   1.367  1.00  0.00     0.274 HD
ATOM      6  H12 UNL     1      -0.867   0.107   1.735  1.00  0.00     0.274 HD
ATOM      7  H11 UNL     1      -2.350   0.395   1.038  1.00  0.00     0.274 HD
ENDBRANCH   1   4
BRANCH   3   8
HETATM    8  N2  UNL     1       1.207   1.029   0.491  1.00  0.00    -0.073 N 
ATOM      9  H23 UNL     1       0.586   1.736   0.885  1.00  0.00     0.274 HD
ATOM     10  H22 UNL     1       1.347   0.397   1.279  1.00  0.00     0.274 HD
ATOM     11  H21 UNL     1       2.101   1.481   0.301  1.00  0.00     0.274 HD
ENDBRANCH   3   8
TORSDOF 2
