REMARK  0 active torsions:
REMARK  status: ('A' for Active; 'I' for Inactive)
ROOT
HETATM    1  N1  UNL     1       2.142   0.129  -0.074  1.00  0.00    -0.385 N 
ATOM      2  H11 UNL     1       2.714  -0.716  -0.080  1.00  0.00     0.157 HD
ATOM      3  H12 UNL     1       2.784   0.922  -0.101  1.00  0.00     0.157 HD
HETATM    4  C1  UNL     1       0.851   0.208  -0.041  1.00  0.00     0.111 A 
HETATM    5  C2  UNL     1       0.037   1.410  -0.033  1.00  0.00     0.132 A 
HETATM    6  N2  UNL     1      -1.196   1.067   0.004  1.00  0.00    -0.380 N 
ATOM      7  H2  UNL     1      -1.969   1.732   0.017  1.00  0.00     0.160 HD
HETATM    8  C3  UNL     1      -1.366  -0.340   0.025  1.00  0.00     0.244 A 
HETATM    9  N3  UNL     1      -0.041  -0.894  -0.004  1.00  0.00    -0.360 N 
ATOM     10  H3  UNL     1       0.209  -1.883   0.001  1.00  0.00     0.162 HD
ENDROOT
TORSDOF 0
