REMARK  0 active torsions:
REMARK  status: ('A' for Active; 'I' for Inactive)
ROOT
HETATM    1  C1  UNL     1      -1.822   0.285   0.248  1.00  0.00     0.055 C 
HETATM    2  C2  UNL     1      -0.519  -0.252  -0.304  1.00  0.00     0.182 C 
HETATM    3  N1  UNL     1       0.426   0.751  -0.730  1.00  0.00    -0.342 N 
ATOM      4  H1  UNL     1       0.375   1.634  -1.238  1.00  0.00     0.164 HD
HETATM    5  C3  UNL     1       1.455  -0.020  -0.138  1.00  0.00     0.172 C 
HETATM    6  N2  UNL     1       2.743  -0.108  -0.316  1.00  0.00    -0.371 N 
ATOM      7  H21 UNL     1       3.484  -0.664   0.111  1.00  0.00     0.159 HD
ATOM      8  H22 UNL     1       3.454   0.317  -0.911  1.00  0.00     0.159 HD
HETATM    9  N3  UNL     1       0.466  -0.611   0.689  1.00  0.00    -0.342 N 
ATOM     10  H3  UNL     1       0.455  -1.084   1.593  1.00  0.00     0.164 HD
ENDROOT
TORSDOF 0
