REMARK  0 active torsions:
REMARK  status: ('A' for Active; 'I' for Inactive)
ROOT
HETATM    1  S1  UNL     1       2.654  -0.277   0.212  1.00  0.00    -0.041 SA
HETATM    2  C1  UNL     1       1.050  -0.059  -0.033  1.00  0.00     0.170 C 
HETATM    3  N1  UNL     1      -0.025  -0.950  -0.311  1.00  0.00    -0.351 N 
ATOM      4  H1  UNL     1      -0.119  -1.891  -0.693  1.00  0.00     0.163 HD
HETATM    5  C2  UNL     1      -0.932   0.076   0.192  1.00  0.00     0.248 C 
HETATM    6  N2  UNL     1       0.119   1.010  -0.070  1.00  0.00    -0.351 N 
ATOM      7  H2  UNL     1       0.175   2.017  -0.220  1.00  0.00     0.163 HD
ENDROOT
TORSDOF 0
