REMARK  9 active torsions:
REMARK  status: ('A' for Active; 'I' for Inactive)
REMARK    1  A    between atoms: C2_2  and  C5_6 
REMARK    2  A    between atoms: C6_7  and  C7_8 
REMARK    3  A    between atoms: C11_17  and  C12_18 
REMARK    4  A    between atoms: N5_21  and  C15_22 
REMARK    5  A    between atoms: C15_22  and  C16_23 
REMARK    6  A    between atoms: C15_22  and  C17_26 
REMARK    7  A    between atoms: C16_23  and  O1_24 
REMARK    8  A    between atoms: C17_26  and  C18_27 
REMARK    9  A    between atoms: C18_27  and  O2_30 
ROOT
HETATM    1  C1  UNL     1       3.250   2.416  -1.024  1.00  0.00     0.045 C 
HETATM    2  C2  UNL     1       4.282   1.343  -1.296  1.00  0.00     0.105 C 
HETATM    3  C3  UNL     1       5.613   1.889  -0.760  1.00  0.00     0.045 C 
HETATM    4  C4  UNL     1       4.358   1.077  -2.717  1.00  0.00     0.081 C 
HETATM    5  N1  UNL     1       4.403   0.874  -3.864  1.00  0.00    -0.195 NA
ENDROOT
BRANCH   2   6
HETATM    6  C5  UNL     1       3.912   0.117  -0.587  1.00  0.00    -0.075 C 
HETATM    7  C6  UNL     1       3.621  -0.911   0.017  1.00  0.00    -0.046 C 
BRANCH   7   8
HETATM    8  C7  UNL     1       3.294  -2.150   0.692  1.00  0.00     0.101 A 
HETATM    9  N2  UNL     1       4.321  -3.055   0.881  1.00  0.00    -0.326 N 
HETATM   10  C8  UNL     1       4.098  -4.272   1.394  1.00  0.00     0.189 A 
ATOM     11  H2  UNL     1       5.272  -2.790   0.624  1.00  0.00     0.169 HD
HETATM   12  C9  UNL     1       5.164  -5.228   1.597  1.00  0.00     0.137 C 
HETATM   13  N4  UNL     1       2.832  -4.564   1.712  1.00  0.00    -0.343 N 
HETATM   14  N3  UNL     1       6.004  -6.007   1.760  1.00  0.00    -0.188 NA
HETATM   15  C10 UNL     1       1.784  -3.744   1.562  1.00  0.00     0.105 A 
ATOM     16  H4  UNL     1       2.650  -5.489   2.101  1.00  0.00     0.167 HD
HETATM   17  C11 UNL     1       2.021  -2.469   1.026  1.00  0.00     0.021 A 
BRANCH  17  18
HETATM   18  C12 UNL     1       0.919  -1.568   1.024  1.00  0.00    -0.046 C 
HETATM   19  C13 UNL     1       1.001  -0.282   1.285  1.00  0.00     0.011 C 
HETATM   20  C14 UNL     1      -0.058   0.804   1.316  1.00  0.00     0.301 C 
HETATM   21  N5  UNL     1      -1.185   0.285   0.574  1.00  0.00     0.098 N 
HETATM   22  C21 UNL     1      -0.638  -0.166  -0.697  1.00  0.00     0.273 C 
HETATM   23  C22 UNL     1      -0.681  -1.672  -0.792  1.00  0.00     0.035 C 
HETATM   24  C23 UNL     1      -0.418  -2.194   0.626  1.00  0.00     0.041 C 
BRANCH  21  25
HETATM   25  C15 UNL     1      -2.237   1.274   0.369  1.00  0.00     0.249 C 
BRANCH  25  26
HETATM   26  C16 UNL     1      -2.716   1.744   1.725  1.00  0.00     0.200 C 
BRANCH  26  27
HETATM   27  O1  UNL     1      -3.257   0.764   2.513  1.00  0.00    -0.399 OA
ATOM     28  H1  UNL     1      -3.558   1.059   3.364  1.00  0.00     0.209 HD
ENDBRANCH  26  27
ENDBRANCH  25  26
BRANCH  25  29
HETATM   29  C17 UNL     1      -3.356   0.484  -0.289  1.00  0.00     0.075 C 
BRANCH  29  30
HETATM   30  C18 UNL     1      -4.579   1.258  -0.626  1.00  0.00     0.052 C 
HETATM   31  C19 UNL     1      -5.529   0.237  -1.303  1.00  0.00     0.045 C 
HETATM   32  C20 UNL     1      -4.388   2.395  -1.562  1.00  0.00     0.045 C 
BRANCH  30  33
HETATM   33  O2  UNL     1      -5.239   1.645   0.542  1.00  0.00    -0.391 OA
ATOM     34  H2  UNL     1      -6.021   2.140   0.327  1.00  0.00     0.210 HD
ENDBRANCH  30  33
ENDBRANCH  29  30
ENDBRANCH  25  29
ENDBRANCH  21  25
ENDBRANCH  17  18
ENDBRANCH   7   8
ENDBRANCH   2   6
TORSDOF 9
