REMARK  7 active torsions:
REMARK  status: ('A' for Active; 'I' for Inactive)
REMARK    1  A    between atoms: C2_2  and  N1_4 
REMARK    2  A    between atoms: C2_2  and  C4_8 
REMARK    3  A    between atoms: C4_8  and  O1_9 
REMARK    4  A    between atoms: O1_9  and  C5_10 
REMARK    5  A    between atoms: C9_15  and  C11_17 
REMARK    6  A    between atoms: C13_20  and  C14_21 
REMARK    7  A    between atoms: C19_29  and  O7_31 
ROOT
HETATM    1  C5  UNL     1      -2.492   0.547   0.421  1.00  0.00     0.124 C 
HETATM    2  C6  UNL     1      -1.606   0.248  -0.797  1.00  0.00     0.035 C 
HETATM    3  C7  UNL     1      -0.429  -0.508  -0.215  1.00  0.00     0.054 C 
HETATM    4  C8  UNL     1       0.483   0.548   0.388  1.00  0.00     0.182 C 
HETATM    5  O2  UNL     1       1.469  -0.112   1.106  1.00  0.00    -0.330 OA
HETATM    6  C9  UNL     1       2.670  -0.033   0.389  1.00  0.00     0.179 C 
HETATM    7  C10 UNL     1       3.410   1.169   0.983  1.00  0.00     0.080 C 
HETATM    8  O5  UNL     1       2.313   0.300  -0.914  1.00  0.00    -0.281 OA
HETATM    9  C18 UNL     1       1.203   1.147  -0.770  1.00  0.00     0.299 C 
HETATM   10  O6  UNL     1       0.899   2.172  -1.466  1.00  0.00    -0.262 OA
HETATM   11  C19 UNL     1      -0.279   1.547   1.204  1.00  0.00     0.097 C 
HETATM   12  C20 UNL     1       0.428   1.713   2.561  1.00  0.00     0.050 C 
HETATM   13  C21 UNL     1      -1.685   1.252   1.488  1.00  0.00     0.073 C 
ENDROOT
BRANCH  11  14
HETATM   14  O7  UNL     1      -0.149   2.785   0.570  1.00  0.00    -0.387 OA
ATOM     15  H7  UNL     1      -0.632   3.418   1.087  1.00  0.00     0.210 HD
ENDBRANCH  11  14
BRANCH   6  16
HETATM   16  C11 UNL     1       3.500  -1.218   0.602  1.00  0.00     0.106 C 
HETATM   17  C12 UNL     1       2.894  -2.552   0.166  1.00  0.00     0.181 C 
HETATM   18  O3  UNL     1       3.455  -2.267  -1.108  1.00  0.00    -0.380 OA
HETATM   19  C13 UNL     1       4.504  -1.731  -0.321  1.00  0.00     0.167 C 
BRANCH  19  20
HETATM   20  C14 UNL     1       5.527  -0.966  -0.961  1.00  0.00    -0.005 A 
HETATM   21  C15 UNL     1       6.880  -0.982  -0.632  1.00  0.00     0.036 A 
HETATM   22  C16 UNL     1       7.536  -0.133  -1.485  1.00  0.00     0.142 A 
HETATM   23  O4  UNL     1       6.653   0.370  -2.281  1.00  0.00    -0.334 OA
HETATM   24  C17 UNL     1       5.430  -0.094  -2.014  1.00  0.00     0.151 A 
ENDBRANCH  19  20
ENDBRANCH   6  16
BRANCH   1  25
HETATM   25  O1  UNL     1      -3.581   1.260   0.031  1.00  0.00    -0.383 OA
BRANCH  25  26
HETATM   26  C4  UNL     1      -4.830   0.799   0.101  1.00  0.00     0.206 C 
BRANCH  26  27
HETATM   27  C2  UNL     1      -5.275  -0.368  -0.696  1.00  0.00     0.137 C 
HETATM   28  C1  UNL     1      -4.789  -1.702  -0.280  1.00  0.00     0.048 C 
HETATM   29  C3  UNL     1      -6.826  -0.433  -0.517  1.00  0.00     0.048 C 
BRANCH  27  30
HETATM   30  N1  UNL     1      -5.111  -0.197  -2.130  1.00  0.00    -0.069 N 
ATOM     31  H13 UNL     1      -4.148  -0.361  -2.425  1.00  0.00     0.275 HD
ATOM     32  H12 UNL     1      -5.559  -0.947  -2.656  1.00  0.00     0.275 HD
ATOM     33  H11 UNL     1      -5.446   0.723  -2.417  1.00  0.00     0.275 HD
ENDBRANCH  27  30
ENDBRANCH  26  27
ENDBRANCH  25  26
ENDBRANCH   1  25
TORSDOF 7
