REMARK  7 active torsions:
REMARK  status: ('A' for Active; 'I' for Inactive)
REMARK    1  A    between atoms: C3_5  and  O1_6 
REMARK    2  A    between atoms: O1_6  and  C4_7 
REMARK    3  A    between atoms: C7_10  and  O2_11 
REMARK    4  A    between atoms: C9_15  and  C10_16 
REMARK    5  A    between atoms: C10_16  and  N2_17 
REMARK    6  A    between atoms: C13_21  and  C14_22 
REMARK    7  A    between atoms: C16_26  and  N4_27 
ROOT
HETATM    1  N2  UNL     1       1.787  -2.229  -0.386  1.00  0.00     0.095 N 
HETATM    2  C11 UNL     1       2.862  -3.162  -0.754  1.00  0.00     0.299 C 
HETATM    3  C12 UNL     1       4.169  -2.765  -0.174  1.00  0.00     0.199 C 
HETATM    4  O3  UNL     1       4.517  -1.464  -0.168  1.00  0.00    -0.378 OA
HETATM    5  C13 UNL     1       3.560  -0.509  -0.031  1.00  0.00     0.174 C 
HETATM    6  C18 UNL     1       2.796  -0.795   1.270  1.00  0.00     0.068 C 
HETATM    7  C19 UNL     1       1.879  -1.971   1.051  1.00  0.00     0.276 C 
ENDROOT
BRANCH   1   8
HETATM    8  C10 UNL     1       0.508  -2.824  -0.730  1.00  0.00     0.320 C 
BRANCH   8   9
HETATM    9  C9  UNL     1      -0.604  -1.837  -0.534  1.00  0.00     0.037 A 
HETATM   10  C2  UNL     1      -1.948  -2.048  -0.739  1.00  0.00     0.022 A 
HETATM   11  C1  UNL     1      -2.492  -3.397  -1.191  1.00  0.00     0.069 C 
HETATM   12  N1  UNL     1      -2.741  -1.045  -0.530  1.00  0.00    -0.334 N 
HETATM   13  C3  UNL     1      -2.257   0.119  -0.138  1.00  0.00     0.187 A 
ATOM     14  H1  UNL     1      -3.745  -1.155  -0.669  1.00  0.00     0.168 HD
HETATM   15  S1  UNL     1      -0.584  -0.199  -0.053  1.00  0.00    -0.048 SA
BRANCH  13  16
HETATM   16  O1  UNL     1      -2.959   1.314   0.137  1.00  0.00    -0.325 OA
BRANCH  16  17
HETATM   17  C4  UNL     1      -4.346   1.299  -0.014  1.00  0.00     0.133 C 
HETATM   18  C5  UNL     1      -5.083   1.640   1.259  1.00  0.00     0.035 C 
HETATM   19  C6  UNL     1      -6.501   1.831   0.752  1.00  0.00     0.034 C 
HETATM   20  C7  UNL     1      -6.284   2.612  -0.516  1.00  0.00     0.120 C 
HETATM   21  C8  UNL     1      -4.873   2.320  -0.979  1.00  0.00     0.064 C 
BRANCH  20  22
HETATM   22  O2  UNL     1      -6.449   3.966  -0.216  1.00  0.00    -0.395 OA
ATOM     23  H2  UNL     1      -6.312   4.459  -1.016  1.00  0.00     0.210 HD
ENDBRANCH  20  22
ENDBRANCH  16  17
ENDBRANCH  13  16
ENDBRANCH   8   9
ENDBRANCH   1   8
BRANCH   5  24
HETATM   24  C14 UNL     1       4.157   0.834   0.156  1.00  0.00     0.054 A 
HETATM   25  C15 UNL     1       5.215   1.072   1.007  1.00  0.00     0.117 A 
HETATM   26  N3  UNL     1       5.724   2.311   1.145  1.00  0.00    -0.350 N 
HETATM   27  C16 UNL     1       5.200   3.335   0.447  1.00  0.00     0.114 A 
ATOM     28  H3  UNL     1       6.507   2.473   1.779  1.00  0.00     0.166 HD
HETATM   29  C17 UNL     1       4.139   3.124  -0.413  1.00  0.00     0.136 A 
HETATM   30  N5  UNL     1       3.664   1.870  -0.519  1.00  0.00    -0.362 N 
ATOM     31  H5  UNL     1       2.882   1.704  -1.152  1.00  0.00     0.165 HD
BRANCH  27  32
HETATM   32  N4  UNL     1       5.684   4.537   0.573  1.00  0.00    -0.384 N 
ATOM     33  H42 UNL     1       6.467   4.693   1.208  1.00  0.00     0.157 HD
ATOM     34  H41 UNL     1       5.287   5.313   0.044  1.00  0.00     0.157 HD
ENDBRANCH  27  32
ENDBRANCH   5  24
TORSDOF 7
