REMARK  6 active torsions:
REMARK  status: ('A' for Active; 'I' for Inactive)
REMARK       I    between atoms: C2_2  and  N1_4 
REMARK    1  A    between atoms: C5_7  and  C6_8 
REMARK    2  A    between atoms: C6_8  and  O2_9 
REMARK    3  A    between atoms: N2_13  and  C9_14 
REMARK    4  A    between atoms: C11_20  and  N5_21 
REMARK    5  A    between atoms: C12_24  and  O3_25 
REMARK    6  A    between atoms: O3_25  and  C13_26 
ROOT
HETATM    1  C9  UNL     1      -1.081  -1.152  -1.918  1.00  0.00     0.142 A 
HETATM    2  N3  UNL     1      -0.326  -1.673  -2.938  1.00  0.00    -0.336 N 
ATOM      3  H3  UNL     1       0.686  -1.729  -2.828  1.00  0.00     0.168 HD
HETATM    4  C10 UNL     1      -0.883  -2.110  -4.075  1.00  0.00     0.183 A 
HETATM    5  N4  UNL     1      -2.207  -2.046  -4.238  1.00  0.00    -0.337 N 
ATOM      6  H4  UNL     1      -2.611  -2.384  -5.112  1.00  0.00     0.168 HD
HETATM    7  C11 UNL     1      -3.046  -1.543  -3.274  1.00  0.00     0.137 A 
HETATM    8  C12 UNL     1      -2.440  -1.095  -2.105  1.00  0.00     0.157 A 
ENDROOT
BRANCH   1   9
HETATM    9  N2  UNL     1      -0.411  -0.670  -0.766  1.00  0.00    -0.365 N 
HETATM   10  C8  UNL     1       0.211   0.629  -0.656  1.00  0.00     0.127 C 
HETATM   11  C7  UNL     1       1.298   0.535   0.395  1.00  0.00     0.058 C 
HETATM   12  C6  UNL     1       2.052  -0.775   0.311  1.00  0.00     0.066 C 
HETATM   13  C20 UNL     1       1.110  -1.879   0.702  1.00  0.00     0.058 C 
HETATM   14  C19 UNL     1      -0.342  -1.547   0.382  1.00  0.00     0.127 C 
BRANCH  12  15
HETATM   15  C5  UNL     1       3.219  -0.685   1.272  1.00  0.00     0.040 C 
HETATM   16  C4  UNL     1       4.056  -1.923   1.207  1.00  0.00     0.029 C 
HETATM   17  C3  UNL     1       5.483  -1.447   1.356  1.00  0.00     0.126 C 
HETATM   18  N1  UNL     1       5.392  -0.021   1.576  1.00  0.00    -0.352 N 
HETATM   19  C2  UNL     1       6.295   0.767   2.301  1.00  0.00     0.215 C 
HETATM   20  C21 UNL     1       4.183   0.398   0.894  1.00  0.00     0.133 C 
HETATM   21  C1  UNL     1       6.076   2.227   2.446  1.00  0.00     0.117 C 
HETATM   22  O1  UNL     1       7.309   0.261   2.844  1.00  0.00    -0.274 OA
ENDBRANCH  12  15
BRANCH  12  23
HETATM   23  O2  UNL     1       2.562  -0.920  -0.959  1.00  0.00    -0.389 OA
ATOM     24  H2  UNL     1       1.830  -0.976  -1.562  1.00  0.00     0.210 HD
ENDBRANCH  12  23
ENDBRANCH   1   9
BRANCH   8  25
HETATM   25  O3  UNL     1      -3.210  -0.587  -1.099  1.00  0.00    -0.339 OA
BRANCH  25  26
HETATM   26  C13 UNL     1      -3.547   0.725  -0.776  1.00  0.00     0.129 C 
HETATM   27  C14 UNL     1      -4.984   1.046  -1.129  1.00  0.00     0.032 C 
HETATM   28  C15 UNL     1      -5.430   2.386  -0.598  1.00  0.00     0.002 C 
HETATM   29  C16 UNL     1      -5.301   2.466   0.904  1.00  0.00     0.000 C 
HETATM   30  C17 UNL     1      -4.602   1.247   1.464  1.00  0.00     0.002 C 
HETATM   31  C18 UNL     1      -3.360   0.893   0.715  1.00  0.00     0.032 C 
ENDBRANCH  25  26
ENDBRANCH   8  25
BRANCH   7  32
HETATM   32  N5  UNL     1      -4.300  -1.549  -3.493  1.00  0.00    -0.383 N 
ATOM     33  H52 UNL     1      -4.744  -1.878  -4.350  1.00  0.00     0.157 HD
ATOM     34  H51 UNL     1      -4.923  -1.175  -2.777  1.00  0.00     0.157 HD
ENDBRANCH   7  32
TORSDOF 6
