REMARK  9 active torsions:
REMARK  status: ('A' for Active; 'I' for Inactive)
REMARK    1  A    between atoms: C4_4  and  O1_5 
REMARK    2  A    between atoms: O1_5  and  C5_6 
REMARK    3  A    between atoms: C5_6  and  C6_8 
REMARK    4  A    between atoms: C6_8  and  C7_9 
REMARK    5  A    between atoms: C7_9  and  C8_10 
REMARK    6  A    between atoms: C13_16  and  C14_17 
REMARK    7  A    between atoms: C14_17  and  O4_18 
REMARK    8  A    between atoms: C15_20  and  O5_21 
REMARK    9  A    between atoms: C17_24  and  O6_25 
ROOT
HETATM    1  C1  UNL     1       0.499  -0.462   3.635  1.00  0.00     0.015 C 
HETATM    2  C2  UNL     1       0.560  -0.895   2.366  1.00  0.00    -0.082 C 
HETATM    3  C3  UNL     1       1.730  -1.544   1.787  1.00  0.00     0.066 C 
HETATM    4  C4  UNL     1       2.005  -1.232   0.350  1.00  0.00     0.136 C 
HETATM    5  C10 UNL     1       0.804  -1.024  -0.485  1.00  0.00     0.045 C 
HETATM    6  C11 UNL     1      -0.524  -1.298   0.167  1.00  0.00     0.067 C 
HETATM    7  C12 UNL     1      -1.571  -0.774  -0.754  1.00  0.00     0.145 C 
HETATM    8  O3  UNL     1      -1.206  -0.358  -1.852  1.00  0.00    -0.296 OA
HETATM    9  C13 UNL     1      -3.061  -0.661  -0.561  1.00  0.00     0.075 C 
HETATM   10  C15 UNL     1      -3.690  -0.086  -1.781  1.00  0.00     0.139 C 
HETATM   11  C16 UNL     1      -5.012   0.570  -1.591  1.00  0.00     0.069 C 
HETATM   12  C17 UNL     1      -5.011   1.582  -0.464  1.00  0.00     0.149 C 
HETATM   13  C18 UNL     1      -4.567   0.839   0.748  1.00  0.00    -0.055 C 
HETATM   14  C19 UNL     1      -5.344   0.811   1.824  1.00  0.00     0.017 C 
HETATM   15  C20 UNL     1      -3.248   0.150   0.698  1.00  0.00     0.037 C 
HETATM   16  C21 UNL     1      -2.164   1.177   0.752  1.00  0.00     0.011 C 
HETATM   17  C22 UNL     1      -0.953   0.767   1.521  1.00  0.00     0.010 C 
HETATM   18  C23 UNL     1      -0.658  -0.686   1.531  1.00  0.00     0.025 C 
ENDROOT
BRANCH   4  19
HETATM   19  O1  UNL     1       2.973  -0.192   0.214  1.00  0.00    -0.316 OA
BRANCH  19  20
HETATM   20  C5  UNL     1       4.222  -0.379  -0.288  1.00  0.00     0.259 C 
HETATM   21  O2  UNL     1       4.540  -1.550  -0.658  1.00  0.00    -0.265 OA
BRANCH  20  22
HETATM   22  C6  UNL     1       5.255   0.665  -0.447  1.00  0.00     0.111 C 
BRANCH  22  23
HETATM   23  C7  UNL     1       6.531   0.159  -1.028  1.00  0.00     0.009 C 
BRANCH  23  24
HETATM   24  C8  UNL     1       7.487   1.334  -1.130  1.00  0.00    -0.004 C 
HETATM   25  C9  UNL     1       7.708   1.890   0.262  1.00  0.00     0.005 C 
ENDBRANCH  23  24
ENDBRANCH  22  23
ENDBRANCH  20  22
ENDBRANCH  19  20
ENDBRANCH   4  19
BRANCH   9  26
HETATM   26  C14 UNL     1      -3.539  -2.089  -0.362  1.00  0.00     0.184 C 
BRANCH  26  27
HETATM   27  O4  UNL     1      -4.903  -2.156  -0.169  1.00  0.00    -0.400 OA
ATOM     28  H4  UNL     1      -5.202  -3.049  -0.045  1.00  0.00     0.209 HD
ENDBRANCH  26  27
ENDBRANCH   9  26
BRANCH  10  29
HETATM   29  O5  UNL     1      -3.893  -1.162  -2.679  1.00  0.00    -0.394 OA
ATOM     30  H5  UNL     1      -4.295  -0.795  -3.458  1.00  0.00     0.210 HD
ENDBRANCH  10  29
BRANCH  12  31
HETATM   31  O6  UNL     1      -4.201   2.644  -0.781  1.00  0.00    -0.391 OA
ATOM     32  H6  UNL     1      -4.200   3.279  -0.074  1.00  0.00     0.210 HD
ENDBRANCH  12  31
TORSDOF 9
