REMARK  6 active torsions:
REMARK  status: ('A' for Active; 'I' for Inactive)
REMARK    1  A    between atoms: C2_2  and  C4_4 
REMARK    2  A    between atoms: C4_4  and  C6_6 
REMARK       I    between atoms: C6_6  and  N1_8 
REMARK    3  A    between atoms: N1_8  and  C7_10 
REMARK    4  A    between atoms: C9_14  and  C10_15 
REMARK    5  A    between atoms: C12_19  and  C13_20 
REMARK       I    between atoms: C13_20  and  N3_22 
REMARK    6  A    between atoms: C16_26  and  C17_27 
REMARK       I    between atoms: C17_27  and  N4_29 
ROOT
HETATM    1  C7  UNL     1       1.863  -0.927   1.428  1.00  0.00     0.203 C 
HETATM    2  C8  UNL     1       2.297  -2.108   2.207  1.00  0.00     0.246 C 
HETATM    3  O2  UNL     1       3.327  -2.330   2.896  1.00  0.00    -0.271 OA
HETATM    4  N2  UNL     1       1.107  -2.765   1.820  1.00  0.00    -0.325 N 
HETATM    5  C9  UNL     1       0.083  -3.745   2.051  1.00  0.00     0.193 C 
HETATM    6  C11 UNL     1      -0.825  -3.903   0.822  1.00  0.00     0.080 C 
HETATM    7  C12 UNL     1      -1.265  -2.506   0.488  1.00  0.00     0.011 C 
HETATM    8  C20 UNL     1      -0.346  -1.577   0.407  1.00  0.00     0.013 C 
HETATM    9  C21 UNL     1       1.063  -1.943   0.643  1.00  0.00     0.144 C 
ENDROOT
BRANCH   7  10
HETATM   10  C13 UNL     1      -2.685  -2.265   0.277  1.00  0.00     0.251 C 
HETATM   11  O5  UNL     1      -3.529  -3.190   0.366  1.00  0.00    -0.268 OA
HETATM   12  N3  UNL     1      -3.101  -0.951  -0.034  1.00  0.00    -0.330 N 
HETATM   13  C14 UNL     1      -4.079  -0.783  -0.863  1.00  0.00     0.004 A 
ATOM     14  H3  UNL     1      -2.637  -0.147   0.389  1.00  0.00     0.168 HD
HETATM   15  C15 UNL     1      -5.172  -1.066  -1.807  1.00  0.00     0.073 A 
HETATM   16  C16 UNL     1      -4.875   0.325  -1.502  1.00  0.00     0.129 A 
BRANCH  16  17
HETATM   17  C17 UNL     1      -5.736   1.021  -0.522  1.00  0.00     0.229 C 
HETATM   18  O6  UNL     1      -6.370   0.363   0.333  1.00  0.00    -0.273 OA
HETATM   19  N4  UNL     1      -5.882   2.430  -0.503  1.00  0.00    -0.360 N 
HETATM   20  C18 UNL     1      -5.156   3.205  -1.486  1.00  0.00     0.152 C 
HETATM   21  C19 UNL     1      -6.721   3.122   0.452  1.00  0.00     0.152 C 
ENDBRANCH  16  17
ENDBRANCH   7  10
BRANCH   5  22
HETATM   22  C10 UNL     1       0.683  -5.038   2.449  1.00  0.00     0.197 C 
HETATM   23  O3  UNL     1       0.000  -6.062   2.703  1.00  0.00    -0.646 OA
HETATM   24  O4  UNL     1       2.076  -5.195   2.568  1.00  0.00    -0.646 OA
ENDBRANCH   5  22
BRANCH   1  25
HETATM   25  N1  UNL     1       2.974  -0.464   0.618  1.00  0.00    -0.345 N 
HETATM   26  C6  UNL     1       3.336   0.878   0.472  1.00  0.00     0.222 C 
HETATM   27  O1  UNL     1       2.657   1.770   1.084  1.00  0.00    -0.273 OA
ATOM     28  H1  UNL     1       3.527  -1.164   0.123  1.00  0.00     0.163 HD
BRANCH  26  29
HETATM   29  C4  UNL     1       4.496   1.238  -0.385  1.00  0.00     0.077 C 
HETATM   30  C5  UNL     1       5.726   0.662   0.290  1.00  0.00     0.020 C 
BRANCH  29  31
HETATM   31  C2  UNL     1       4.637   2.743  -0.362  1.00  0.00    -0.010 C 
HETATM   32  C1  UNL     1       5.892   3.181  -1.107  1.00  0.00     0.010 C 
HETATM   33  C3  UNL     1       3.405   3.390  -0.961  1.00  0.00     0.010 C 
ENDBRANCH  29  31
ENDBRANCH  26  29
ENDBRANCH   1  25
TORSDOF 6
