REMARK  8 active torsions:
REMARK  status: ('A' for Active; 'I' for Inactive)
REMARK    1  A    between atoms: O1_2  and  C2_3 
REMARK    2  A    between atoms: C2_3  and  C3_5 
REMARK    3  A    between atoms: C7_10  and  C8_11 
REMARK    4  A    between atoms: C8_11  and  O4_12 
REMARK    5  A    between atoms: C9_14  and  C10_15 
REMARK       I    between atoms: N1_19  and  C12_20 
REMARK    6  A    between atoms: C12_20  and  C13_22 
REMARK    7  A    between atoms: C13_22  and  N2_23 
REMARK    8  A    between atoms: C18_28  and  C19_29 
ROOT
HETATM    1  C3  UNL     1       2.858   1.536  -1.142  1.00  0.00     0.194 C 
HETATM    2  C4  UNL     1       4.283   1.201  -0.889  1.00  0.00     0.114 C 
HETATM    3  C5  UNL     1       4.524   0.630   0.449  1.00  0.00     0.136 C 
HETATM    4  O3  UNL     1       5.407   1.060   1.148  1.00  0.00    -0.297 OA
HETATM    5  C6  UNL     1       3.631  -0.478   0.865  1.00  0.00     0.086 C 
HETATM    6  C7  UNL     1       3.703  -1.677  -0.092  1.00  0.00     0.039 C 
HETATM    7  C9  UNL     1       2.214  -1.741   0.010  1.00  0.00     0.117 C 
HETATM    8  C11 UNL     1       2.205  -0.288   0.504  1.00  0.00     0.114 C 
HETATM    9  N1  UNL     1       1.893   0.707  -0.462  1.00  0.00    -0.330 N 
HETATM   10  C12 UNL     1       0.498   0.888  -0.769  1.00  0.00     0.247 C 
HETATM   11  O7  UNL     1       0.242   1.762  -1.624  1.00  0.00    -0.271 OA
ENDROOT
BRANCH   1  12
HETATM   12  C2  UNL     1       2.691   2.975  -0.726  1.00  0.00     0.282 C 
HETATM   13  O2  UNL     1       3.428   3.853  -1.238  1.00  0.00    -0.263 OA
BRANCH  12  14
HETATM   14  O1  UNL     1       1.751   3.380   0.206  1.00  0.00    -0.325 OA
HETATM   15  C1  UNL     1       1.582   4.726   0.607  1.00  0.00     0.213 C 
ENDBRANCH  12  14
ENDBRANCH   1  12
BRANCH  10  16
HETATM   16  C13 UNL     1      -0.556   0.133  -0.152  1.00  0.00     0.340 C 
BRANCH  16  17
HETATM   17  N2  UNL     1      -1.934   0.463  -0.579  1.00  0.00    -0.058 N 
HETATM   18  C14 UNL     1      -1.935   0.288  -1.984  1.00  0.00     0.273 C 
HETATM   19  C15 UNL     1      -2.196   1.886  -0.333  1.00  0.00     0.238 C 
HETATM   20  C16 UNL     1      -3.272   1.956   0.722  1.00  0.00     0.030 C 
HETATM   21  C17 UNL     1      -3.083   0.639   1.395  1.00  0.00     0.036 C 
HETATM   22  C18 UNL     1      -2.767  -0.300   0.246  1.00  0.00     0.198 C 
BRANCH  22  23
HETATM   23  C19 UNL     1      -3.921  -1.083  -0.233  1.00  0.00    -0.022 C 
HETATM   24  C20 UNL     1      -4.528  -1.734   1.036  1.00  0.00     0.016 C 
HETATM   25  C21 UNL     1      -5.041  -0.417  -0.920  1.00  0.00     0.016 C 
HETATM   26  C22 UNL     1      -3.500  -2.286  -1.050  1.00  0.00     0.016 C 
ENDBRANCH  22  23
ENDBRANCH  16  17
ENDBRANCH  10  16
BRANCH   7  27
HETATM   27  C10 UNL     1       1.704  -2.638   1.080  1.00  0.00     0.179 C 
HETATM   28  O5  UNL     1       0.992  -3.613   0.734  1.00  0.00    -0.648 OA
HETATM   29  O6  UNL     1       1.963  -2.466   2.425  1.00  0.00    -0.648 OA
ENDBRANCH   7  27
BRANCH   6  30
HETATM   30  C8  UNL     1       4.505  -2.784   0.503  1.00  0.00     0.170 C 
BRANCH  30  31
HETATM   31  O4  UNL     1       4.606  -3.895  -0.313  1.00  0.00    -0.400 OA
ATOM     32  H4  UNL     1       5.117  -4.600   0.066  1.00  0.00     0.209 HD
ENDBRANCH  30  31
ENDBRANCH   6  30
TORSDOF 8
