REMARK  2 active torsions:
REMARK  status: ('A' for Active; 'I' for Inactive)
REMARK       I    between atoms: N1_2  and  C2_4 
REMARK    1  A    between atoms: C2_4  and  C3_6 
REMARK    2  A    between atoms: C3_6  and  N2_7 
ROOT
HETATM    1  N2  UNL     1       0.369  -1.033  -0.640  1.00  0.00    -0.308 N 
HETATM    2  C4  UNL     1       0.519  -2.343  -0.531  1.00  0.00     0.147 A 
HETATM    3  S1  UNL     1      -0.561  -3.522  -0.929  1.00  0.00    -0.052 SA
HETATM    4  S2  UNL     1       2.084  -2.522   0.113  1.00  0.00    -0.053 SA
HETATM    5  C5  UNL     1       2.492  -0.865   0.219  1.00  0.00     0.090 A 
HETATM    6  C6  UNL     1       3.624  -0.148   0.655  1.00  0.00     0.123 A 
HETATM    7  S3  UNL     1       4.854  -1.060   1.189  1.00  0.00    -0.059 SA
HETATM    8  N3  UNL     1       3.648   1.193   0.616  1.00  0.00    -0.323 N 
ATOM      9  H3  UNL     1       4.457   1.731   0.926  1.00  0.00     0.169 HD
HETATM   10  C7  UNL     1       2.536   1.782   0.142  1.00  0.00     0.178 A 
HETATM   11  S4  UNL     1       2.523   3.448   0.076  1.00  0.00    -0.040 SA
HETATM   12  N4  UNL     1       1.454   1.122  -0.275  1.00  0.00    -0.318 N 
ATOM     13  H4  UNL     1       0.657   1.657  -0.619  1.00  0.00     0.170 HD
HETATM   14  C8  UNL     1       1.369  -0.253  -0.260  1.00  0.00     0.132 A 
ENDROOT
BRANCH   1  15
HETATM   15  C3  UNL     1      -0.911  -0.486  -1.184  1.00  0.00     0.234 C 
BRANCH  15  16
HETATM   16  C2  UNL     1      -1.864  -0.266  -0.064  1.00  0.00     0.235 C 
HETATM   17  N1  UNL     1      -3.144   0.249  -0.351  1.00  0.00    -0.364 N 
HETATM   18  C1  UNL     1      -4.078   0.467   0.723  1.00  0.00     0.149 C 
ATOM     19  H1  UNL     1      -3.407   0.466  -1.312  1.00  0.00     0.161 HD
HETATM   20  O1  UNL     1      -1.496  -0.549   1.122  1.00  0.00    -0.272 OA
ENDBRANCH  15  16
ENDBRANCH   1  15
TORSDOF 2
