REMARK  4 active torsions:
REMARK  status: ('A' for Active; 'I' for Inactive)
REMARK    1  A    between atoms: C2_2  and  N1_4 
REMARK    2  A    between atoms: N5_14  and  O1_16 
REMARK    3  A    between atoms: C8_19  and  N6_20 
REMARK    4  A    between atoms: N6_20  and  C9_22 
ROOT
HETATM    1  N1  UNL     1      -2.755  -0.804   0.210  1.00  0.00    -0.270 N 
HETATM    2  N2  UNL     1      -3.810  -0.070   0.454  1.00  0.00    -0.280 N 
ATOM      3  H2  UNL     1      -4.737  -0.450   0.642  1.00  0.00     0.189 HD
HETATM    4  C4  UNL     1      -3.532   1.230   0.428  1.00  0.00     0.139 A 
HETATM    5  N3  UNL     1      -4.247   2.349   0.599  1.00  0.00    -0.337 N 
ATOM      6  H3  UNL     1      -5.242   2.274   0.812  1.00  0.00     0.168 HD
HETATM    7  C5  UNL     1      -3.694   3.559   0.499  1.00  0.00     0.183 A 
HETATM    8  N4  UNL     1      -2.396   3.679   0.222  1.00  0.00    -0.336 N 
ATOM      9  H4  UNL     1      -1.969   4.602   0.144  1.00  0.00     0.168 HD
HETATM   10  C6  UNL     1      -1.655   2.572   0.047  1.00  0.00     0.143 A 
HETATM   11  N5  UNL     1      -0.446   2.745  -0.238  1.00  0.00    -0.252 N 
ATOM     12  H5  UNL     1       0.133   1.916  -0.374  1.00  0.00     0.196 HD
HETATM   13  C7  UNL     1      -2.154   1.281   0.136  1.00  0.00     0.100 A 
HETATM   14  C8  UNL     1      -1.655   0.013  -0.002  1.00  0.00     0.137 A 
ENDROOT
BRANCH  14  15
HETATM   15  N6  UNL     1      -0.391  -0.437  -0.317  1.00  0.00    -0.370 N 
ATOM     16  H6  UNL     1      -0.441  -1.435  -0.522  1.00  0.00     0.161 HD
BRANCH  15  17
HETATM   17  C9  UNL     1       0.939  -0.016  -0.457  1.00  0.00     0.083 C 
HETATM   18  C10 UNL     1       1.805  -1.205  -1.067  1.00  0.00     0.025 C 
HETATM   19  C11 UNL     1       3.152  -0.599  -1.370  1.00  0.00     0.002 C 
HETATM   20  C12 UNL     1       4.120  -0.772  -0.223  1.00  0.00     0.000 C 
HETATM   21  C13 UNL     1       4.064   0.314   0.792  1.00  0.00     0.000 C 
HETATM   22  C14 UNL     1       2.752   1.068   0.805  1.00  0.00     0.002 C 
HETATM   23  C15 UNL     1       1.632   0.096   0.926  1.00  0.00     0.025 C 
ENDBRANCH  15  17
ENDBRANCH  14  15
BRANCH   1  24
HETATM   24  C2  UNL     1      -2.786  -2.275   0.185  1.00  0.00     0.102 C 
HETATM   25  C1  UNL     1      -2.640  -2.829  -1.208  1.00  0.00     0.034 C 
HETATM   26  C3  UNL     1      -1.855  -2.902   1.164  1.00  0.00     0.034 C 
ENDBRANCH   1  24
BRANCH  11  27
HETATM   27  O1  UNL     1       0.138   3.945  -0.376  1.00  0.00    -0.288 OA
ATOM     28  H1  UNL     1       1.054   4.076  -0.592  1.00  0.00     0.244 HD
ENDBRANCH  11  27
TORSDOF 4
