REMARK  4 active torsions:
REMARK  status: ('A' for Active; 'I' for Inactive)
REMARK    1  A    between atoms: C2_2  and  C10_23 
REMARK    2  A    between atoms: N1_3  and  N2_5 
REMARK    3  A    between atoms: C3_6  and  C4_7 
REMARK    4  A    between atoms: C5_9  and  N3_10 
ROOT
HETATM    1  N2  UNL     1       0.243  -1.284   1.057  1.00  0.00    -0.216 N 
HETATM    2  C3  UNL     1       1.539  -1.283   0.616  1.00  0.00     0.102 A 
HETATM    3  C8  UNL     1       1.984  -2.530   0.884  1.00  0.00     0.179 A 
HETATM    4  O1  UNL     1       1.002  -3.243   1.458  1.00  0.00    -0.288 OA
HETATM    5  C9  UNL     1      -0.058  -2.489   1.564  1.00  0.00     0.244 A 
HETATM    6  N5  UNL     1      -1.222  -2.823   2.072  1.00  0.00    -0.363 N 
ATOM      7  H51 UNL     1      -1.451  -3.739   2.457  1.00  0.00     0.159 HD
ATOM      8  H52 UNL     1      -2.050  -2.234   2.155  1.00  0.00     0.159 HD
ENDROOT
BRANCH   2   9
HETATM    9  C4  UNL     1       2.158  -0.116   0.012  1.00  0.00     0.061 A 
HETATM   10  S1  UNL     1       1.421   1.435  -0.256  1.00  0.00    -0.050 SA
HETATM   11  C5  UNL     1       2.738   2.224  -0.971  1.00  0.00     0.143 A 
HETATM   12  N4  UNL     1       3.680   1.289  -0.979  1.00  0.00    -0.340 N 
HETATM   13  C6  UNL     1       3.408   0.101  -0.487  1.00  0.00     0.027 A 
ATOM     14  H4  UNL     1       4.604   1.490  -1.362  1.00  0.00     0.168 HD
HETATM   15  C7  UNL     1       4.453  -1.020  -0.469  1.00  0.00     0.070 C 
BRANCH  11  16
HETATM   16  N3  UNL     1       2.846   3.459  -1.423  1.00  0.00    -0.380 N 
ATOM     17  H32 UNL     1       2.122   4.178  -1.417  1.00  0.00     0.158 HD
ATOM     18  H31 UNL     1       3.639   3.934  -1.854  1.00  0.00     0.158 HD
ENDBRANCH  11  16
ENDBRANCH   2   9
BRANCH   1  19
HETATM   19  N1  UNL     1      -0.631  -0.215   0.994  1.00  0.00    -0.298 N 
HETATM   20  C2  UNL     1      -1.629  -0.155   0.173  1.00  0.00     0.008 C 
HETATM   21  C1  UNL     1      -1.878  -1.272  -0.762  1.00  0.00     0.066 C 
ATOM     22  H1  UNL     1      -0.481   0.569   1.629  1.00  0.00     0.187 HD
BRANCH  20  23
HETATM   23  C10 UNL     1      -2.553   1.006   0.127  1.00  0.00    -0.012 C 
HETATM   24  C11 UNL     1      -2.534   1.646  -1.234  1.00  0.00     0.021 C 
HETATM   25  C12 UNL     1      -3.962   0.432   0.326  1.00  0.00     0.021 C 
HETATM   26  C13 UNL     1      -2.268   1.983   1.234  1.00  0.00     0.021 C 
ENDBRANCH  20  23
ENDBRANCH   1  19
TORSDOF 4
