REMARK  6 active torsions:
REMARK  status: ('A' for Active; 'I' for Inactive)
REMARK    1  A    between atoms: N1_1  and  C1_4 
REMARK    2  A    between atoms: C8_13  and  C9_14 
REMARK    3  A    between atoms: C9_14  and  C10_15 
REMARK    4  A    between atoms: C10_15  and  C11_16 
REMARK    5  A    between atoms: C11_16  and  C12_17 
REMARK    6  A    between atoms: C12_17  and  N3_18 
ROOT
HETATM    1  C1  UNL     1      -1.436   1.772   0.867  1.00  0.00     0.106 A 
HETATM    2  N2  UNL     1      -2.862   1.631   0.724  1.00  0.00    -0.342 N 
ATOM      3  H2  UNL     1      -3.552   2.381   0.771  1.00  0.00     0.167 HD
HETATM    4  C2  UNL     1      -3.105   0.379   0.525  1.00  0.00     0.044 A 
HETATM    5  C3  UNL     1      -4.342  -0.254   0.329  1.00  0.00     0.030 A 
HETATM    6  C4  UNL     1      -4.388  -1.616   0.130  1.00  0.00     0.002 A 
HETATM    7  C5  UNL     1      -3.249  -2.391   0.117  1.00  0.00     0.001 A 
HETATM    8  C6  UNL     1      -2.056  -1.725   0.314  1.00  0.00     0.014 A 
HETATM    9  C7  UNL     1      -1.965  -0.362   0.516  1.00  0.00     0.001 A 
HETATM   10  C8  UNL     1      -0.904   0.436   0.721  1.00  0.00    -0.002 A 
ENDROOT
BRANCH  10  11
HETATM   11  C9  UNL     1       0.493  -0.010   0.759  1.00  0.00     0.043 C 
BRANCH  11  12
HETATM   12  C10 UNL     1       1.320   0.545  -0.345  1.00  0.00     0.006 C 
BRANCH  12  13
HETATM   13  C11 UNL     1       2.753   0.011  -0.201  1.00  0.00     0.027 C 
BRANCH  13  14
HETATM   14  C12 UNL     1       3.538   0.613  -1.352  1.00  0.00     0.229 C 
BRANCH  14  15
HETATM   15  N3  UNL     1       4.920   0.190  -1.339  1.00  0.00    -0.079 N 
ATOM     16  H33 UNL     1       5.362   0.393  -0.442  1.00  0.00     0.274 HD
ATOM     17  H32 UNL     1       4.997  -0.827  -1.329  1.00  0.00     0.274 HD
ATOM     18  H31 UNL     1       5.448   0.595  -2.113  1.00  0.00     0.274 HD
ENDBRANCH  14  15
ENDBRANCH  13  14
ENDBRANCH  12  13
ENDBRANCH  11  12
ENDBRANCH  10  11
BRANCH   1  19
HETATM   19  N1  UNL     1      -0.791   2.867   1.085  1.00  0.00    -0.385 N 
ATOM     20  H12 UNL     1      -1.166   3.810   1.188  1.00  0.00     0.157 HD
ATOM     21  H11 UNL     1       0.219   2.967   1.186  1.00  0.00     0.157 HD
ENDBRANCH   1  19
TORSDOF 6
