REMARK  6 active torsions:
REMARK  status: ('A' for Active; 'I' for Inactive)
REMARK    1  A    between atoms: N1_1  and  C1_5 
REMARK    2  A    between atoms: C1_5  and  C2_6 
REMARK    3  A    between atoms: N2_10  and  C6_11 
REMARK    4  A    between atoms: C6_11  and  C7_12 
REMARK    5  A    between atoms: C8_13  and  C9_14 
REMARK    6  A    between atoms: N5_18  and  O1_19 
ROOT
HETATM    1  C2  UNL     1      -2.789   0.110   0.038  1.00  0.00    -0.017 A 
HETATM    2  C3  UNL     1      -3.008  -0.306  -1.254  1.00  0.00     0.011 A 
HETATM    3  C4  UNL     1      -2.100  -1.141  -1.839  1.00  0.00     0.018 A 
HETATM    4  C5  UNL     1      -0.989  -1.549  -1.132  1.00  0.00     0.090 A 
HETATM    5  N2  UNL     1      -0.763  -1.148   0.137  1.00  0.00    -0.362 N 
HETATM    6  C10 UNL     1      -1.663  -0.325   0.707  1.00  0.00     0.099 A 
ENDROOT
BRANCH   5   7
HETATM    7  C6  UNL     1       0.416  -1.582   0.885  1.00  0.00     0.155 C 
BRANCH   7   8
HETATM    8  C7  UNL     1       1.527  -0.622   0.663  1.00  0.00    -0.003 C 
HETATM    9  C8  UNL     1       2.673  -0.938   0.140  1.00  0.00     0.051 C 
BRANCH   9  10
HETATM   10  C9  UNL     1       3.707   0.065  -0.042  1.00  0.00     0.162 A 
HETATM   11  N3  UNL     1       3.832   1.401   0.209  1.00  0.00    -0.264 N 
HETATM   12  N4  UNL     1       5.058   1.370  -0.281  1.00  0.00     0.010 NA
ATOM     13  H3  UNL     1       3.230   2.122   0.608  1.00  0.00     0.186 HD
HETATM   14  N5  UNL     1       4.964   0.077  -0.535  1.00  0.00    -0.129 N 
BRANCH  14  15
HETATM   15  O1  UNL     1       5.835  -0.836  -1.083  1.00  0.00    -0.268 OA
ATOM     16  H1  UNL     1       6.719  -0.828  -1.430  1.00  0.00     0.246 HD
ENDBRANCH  14  15
ENDBRANCH   9  10
ENDBRANCH   7   8
ENDBRANCH   5   7
BRANCH   1  17
HETATM   17  C1  UNL     1      -3.731   1.014   0.733  1.00  0.00     0.269 C 
BRANCH  17  18
HETATM   18  N1  UNL     1      -3.325   2.380   0.480  1.00  0.00    -0.075 N 
ATOM     19  H13 UNL     1      -2.353   2.554   0.737  1.00  0.00     0.274 HD
ATOM     20  H12 UNL     1      -3.245   2.587  -0.516  1.00  0.00     0.274 HD
ATOM     21  H11 UNL     1      -3.975   3.003   0.959  1.00  0.00     0.274 HD
ENDBRANCH  17  18
ENDBRANCH   1  17
TORSDOF 6
