REMARK  5 active torsions:
REMARK  status: ('A' for Active; 'I' for Inactive)
REMARK    1  A    between atoms: C2_2  and  C3_3 
REMARK    2  A    between atoms: C3_3  and  N1_4 
REMARK    3  A    between atoms: C5_6  and  C6_7 
REMARK    4  A    between atoms: C8_11  and  N3_12 
REMARK    5  A    between atoms: C9_17  and  N5_18 
ROOT
HETATM    1  C6  UNL     1       0.988   0.523  -0.317  1.00  0.00     0.054 A 
HETATM    2  C7  UNL     1       1.039   1.857  -0.612  1.00  0.00     0.123 A 
HETATM    3  N2  UNL     1       2.214   2.534  -0.475  1.00  0.00    -0.201 N 
ATOM      4  H2  UNL     1       2.231   3.529  -0.700  1.00  0.00     0.183 HD
HETATM    5  C8  UNL     1       3.343   1.957  -0.060  1.00  0.00     0.678 A 
HETATM    6  N4  UNL     1       3.303   0.669   0.226  1.00  0.00    -0.164 N 
ATOM      7  H4  UNL     1       4.167   0.228   0.543  1.00  0.00     0.187 HD
HETATM    8  C9  UNL     1       2.175  -0.128   0.128  1.00  0.00     0.204 A 
ENDROOT
BRANCH   1   9
HETATM    9  C5  UNL     1      -0.196  -0.282  -0.426  1.00  0.00     0.102 C 
HETATM   10  N1  UNL     1      -1.379  -0.016  -0.779  1.00  0.00    -0.393 N 
HETATM   11  C4  UNL     1      -2.000   1.205  -1.209  1.00  0.00     0.148 C 
BRANCH  10  12
HETATM   12  C3  UNL     1      -2.319  -1.164  -0.749  1.00  0.00     0.121 C 
BRANCH  12  13
HETATM   13  C2  UNL     1      -3.337  -0.977   0.336  1.00  0.00     0.015 C 
HETATM   14  C1  UNL     1      -2.630  -0.876   1.683  1.00  0.00     0.006 C 
ENDBRANCH  12  13
ENDBRANCH  10  12
ENDBRANCH   1   9
BRANCH   8  15
HETATM   15  N5  UNL     1       2.212  -1.287   0.406  1.00  0.00    -0.410 NA
HETATM   16  C10 UNL     1       2.003  -2.581   0.653  1.00  0.00     0.231 C 
ENDBRANCH   8  15
BRANCH   5  17
HETATM   17  N3  UNL     1       4.445   2.643   0.057  1.00  0.00    -0.234 N 
ATOM     18  H32 UNL     1       4.476   3.638  -0.164  1.00  0.00     0.174 HD
ATOM     19  H31 UNL     1       5.308   2.202   0.374  1.00  0.00     0.174 HD
ENDBRANCH   5  17
TORSDOF 5
