REMARK  5 active torsions:
REMARK  status: ('A' for Active; 'I' for Inactive)
REMARK    1  A    between atoms: N1_1  and  C1_4 
REMARK    2  A    between atoms: N2_6  and  C3_7 
REMARK    3  A    between atoms: C3_7  and  C4_8 
REMARK    4  A    between atoms: C4_8  and  C5_9 
REMARK    5  A    between atoms: C5_9  and  N3_10 
ROOT
HETATM    1  C1  UNL     1       4.041   0.421   0.614  1.00  0.00     0.114 A 
HETATM    2  C2  UNL     1       3.023  -0.457   0.364  1.00  0.00     0.138 A 
HETATM    3  N2  UNL     1       2.262  -0.266  -0.721  1.00  0.00    -0.361 N 
HETATM    4  C9  UNL     1       2.511   0.771  -1.531  1.00  0.00     0.107 A 
HETATM    5  C10 UNL     1       3.551   1.668  -1.277  1.00  0.00     0.107 A 
HETATM    6  N6  UNL     1       4.315   1.472  -0.182  1.00  0.00    -0.350 N 
ATOM      7  H6  UNL     1       5.083   2.106   0.038  1.00  0.00     0.166 HD
ENDROOT
BRANCH   3   8
HETATM    8  C3  UNL     1       1.152  -1.166  -1.054  1.00  0.00     0.129 C 
BRANCH   8   9
HETATM    9  C4  UNL     1      -0.068  -0.612  -0.380  1.00  0.00     0.042 C 
BRANCH   9  10
HETATM   10  C5  UNL     1      -1.305  -1.423  -0.621  1.00  0.00     0.150 C 
BRANCH  10  11
HETATM   11  N3  UNL     1      -2.396  -0.756   0.097  1.00  0.00    -0.302 N 
HETATM   12  C6  UNL     1      -2.796  -0.964   1.366  1.00  0.00     0.113 A 
HETATM   13  C7  UNL     1      -3.860  -0.131   1.663  1.00  0.00     0.065 A 
HETATM   14  C8  UNL     1      -4.084   0.590   0.511  1.00  0.00     0.132 A 
HETATM   15  N4  UNL     1      -5.093   1.568   0.374  1.00  0.00    -0.081 NA
HETATM   16  N5  UNL     1      -3.169   0.170  -0.402  1.00  0.00    -0.286 N 
ATOM     17  H5  UNL     1      -3.096   0.531  -1.353  1.00  0.00     0.188 HD
ENDBRANCH  10  11
ENDBRANCH   9  10
ENDBRANCH   8   9
ENDBRANCH   3   8
BRANCH   1  18
HETATM   18  N1  UNL     1       4.793   0.267   1.649  1.00  0.00    -0.384 N 
ATOM     19  H12 UNL     1       4.585  -0.529   2.252  1.00  0.00     0.157 HD
ATOM     20  H11 UNL     1       5.552   0.922   1.835  1.00  0.00     0.157 HD
ENDBRANCH   1  18
TORSDOF 5
