REMARK  3 active torsions:
REMARK  status: ('A' for Active; 'I' for Inactive)
REMARK    1  A    between atoms: C1_1  and  C15_21 
REMARK    2  A    between atoms: N1_2  and  N2_4 
REMARK    3  A    between atoms: N2_4  and  C2_6 
ROOT
HETATM    1  C2  UNL     1      -0.592  -0.933  -0.056  1.00  0.00     0.131 A 
HETATM    2  N3  UNL     1      -0.508   0.380  -0.188  1.00  0.00    -0.340 N 
ATOM      3  H3  UNL     1       0.401   0.836  -0.264  1.00  0.00     0.167 HD
HETATM    4  C3  UNL     1      -1.638   1.104  -0.220  1.00  0.00     0.044 A 
HETATM    5  C4  UNL     1      -1.579   2.491  -0.359  1.00  0.00     0.030 A 
HETATM    6  C5  UNL     1      -2.734   3.236  -0.392  1.00  0.00     0.002 A 
HETATM    7  C6  UNL     1      -3.949   2.606  -0.288  1.00  0.00     0.001 A 
HETATM    8  C7  UNL     1      -4.033   1.228  -0.150  1.00  0.00     0.014 A 
HETATM    9  C8  UNL     1      -2.878   0.493  -0.117  1.00  0.00     0.002 A 
HETATM   10  C9  UNL     1      -2.975  -0.896   0.023  1.00  0.00    -0.010 A 
HETATM   11  C10 UNL     1      -4.192  -1.539   0.128  1.00  0.00     0.013 A 
HETATM   12  C11 UNL     1      -4.182  -2.910   0.263  1.00  0.00     0.001 A 
HETATM   13  C12 UNL     1      -3.004  -3.635   0.293  1.00  0.00     0.001 A 
HETATM   14  C13 UNL     1      -1.808  -2.991   0.189  1.00  0.00     0.016 A 
HETATM   15  C14 UNL     1      -1.787  -1.608   0.052  1.00  0.00     0.020 A 
ENDROOT
BRANCH   1  16
HETATM   16  N2  UNL     1       0.476  -1.665  -0.021  1.00  0.00    -0.285 N 
ATOM     17  H2  UNL     1       0.410  -2.678   0.081  1.00  0.00     0.188 HD
BRANCH  16  18
HETATM   18  N1  UNL     1       1.710  -1.042  -0.125  1.00  0.00    -0.309 N 
HETATM   19  C1  UNL     1       2.400  -0.632   0.863  1.00  0.00     0.118 C 
ATOM     20  H1  UNL     1       2.092  -0.902  -1.060  1.00  0.00     0.186 HD
BRANCH  19  21
HETATM   21  C15 UNL     1       3.690   0.012   0.637  1.00  0.00    -0.019 A 
HETATM   22  C16 UNL     1       4.164   0.176  -0.647  1.00  0.00     0.013 A 
HETATM   23  C17 UNL     1       5.388   0.789  -0.819  1.00  0.00     0.001 A 
HETATM   24  C18 UNL     1       6.115   1.225   0.269  1.00  0.00     0.000 A 
HETATM   25  C19 UNL     1       5.647   1.064   1.547  1.00  0.00     0.001 A 
HETATM   26  C20 UNL     1       4.431   0.456   1.737  1.00  0.00     0.013 A 
ENDBRANCH  19  21
ENDBRANCH  16  18
ENDBRANCH   1  16
TORSDOF 3
