REMARK  3 active torsions:
REMARK  status: ('A' for Active; 'I' for Inactive)
REMARK    1  A    between atoms: C4_4  and  C5_5 
REMARK    2  A    between atoms: C8_8  and  N1_9 
REMARK    3  A    between atoms: N1_9  and  C9_11 
ROOT
HETATM    1  N1  UNL     1      -1.418   1.080  -0.329  1.00  0.00    -0.342 N 
ATOM      2  H1  UNL     1      -1.666   2.029  -0.609  1.00  0.00     0.167 HD
ENDROOT
BRANCH   1   3
HETATM    3  C8  UNL     1      -0.065   0.674  -0.354  1.00  0.00     0.033 A 
HETATM    4  C7  UNL     1       0.739   1.088   0.702  1.00  0.00     0.030 A 
HETATM    5  C6  UNL     1       2.067   0.728   0.739  1.00  0.00     0.014 A 
HETATM    6  C5  UNL     1       2.647  -0.047  -0.251  1.00  0.00    -0.026 A 
HETATM    7  C19 UNL     1       1.820  -0.440  -1.282  1.00  0.00     0.014 A 
HETATM    8  C18 UNL     1       0.489  -0.091  -1.341  1.00  0.00     0.030 A 
BRANCH   6   9
HETATM    9  C4  UNL     1       4.060  -0.425  -0.204  1.00  0.00    -0.026 A 
HETATM   10  C3  UNL     1       4.726  -0.632   0.974  1.00  0.00     0.012 A 
HETATM   11  C2  UNL     1       6.066  -0.992   1.049  1.00  0.00     0.001 A 
HETATM   12  C1  UNL     1       6.718  -1.136  -0.159  1.00  0.00     0.000 A 
HETATM   13  C21 UNL     1       6.077  -0.936  -1.356  1.00  0.00     0.001 A 
HETATM   14  C20 UNL     1       4.747  -0.580  -1.390  1.00  0.00     0.012 A 
ENDBRANCH   6   9
ENDBRANCH   1   3
BRANCH   1  15
HETATM   15  C9  UNL     1      -2.339   0.266   0.043  1.00  0.00     0.116 A 
HETATM   16  N2  UNL     1      -2.037  -0.991   0.417  1.00  0.00    -0.352 N 
HETATM   17  C10 UNL     1      -3.030  -1.824   0.804  1.00  0.00     0.090 A 
ATOM     18  H2  UNL     1      -1.069  -1.312   0.409  1.00  0.00     0.166 HD
HETATM   19  C11 UNL     1      -4.330  -1.362   0.806  1.00  0.00     0.029 A 
HETATM   20  C12 UNL     1      -4.663  -0.087   0.430  1.00  0.00    -0.021 A 
HETATM   21  C13 UNL     1      -5.981   0.370   0.436  1.00  0.00     0.012 A 
HETATM   22  C17 UNL     1      -3.639   0.752   0.037  1.00  0.00     0.018 A 
HETATM   23  C14 UNL     1      -6.268   1.661   0.049  1.00  0.00     0.001 A 
HETATM   24  C15 UNL     1      -5.251   2.518  -0.348  1.00  0.00     0.001 A 
HETATM   25  C16 UNL     1      -3.947   2.030  -0.343  1.00  0.00     0.016 A 
ENDBRANCH   1  15
TORSDOF 3
