REMARK  3 active torsions:
REMARK  status: ('A' for Active; 'I' for Inactive)
REMARK    1  A    between atoms: C4_4  and  N1_5 
REMARK    2  A    between atoms: N1_5  and  C5_7 
REMARK    3  A    between atoms: C13_17  and  C14_18 
ROOT
HETATM    1  C5  UNL     1       0.121   0.047  -0.036  1.00  0.00     0.117 A 
HETATM    2  N2  UNL     1       0.200   1.368   0.219  1.00  0.00    -0.341 N 
ATOM      3  H2  UNL     1       1.111   1.821   0.149  1.00  0.00     0.167 HD
HETATM    4  C6  UNL     1      -0.857   2.115   0.560  1.00  0.00     0.044 A 
HETATM    5  C7  UNL     1      -0.760   3.473   0.820  1.00  0.00     0.030 A 
HETATM    6  C8  UNL     1      -1.854   4.238   1.171  1.00  0.00     0.002 A 
HETATM    7  C9  UNL     1      -3.105   3.657   1.276  1.00  0.00     0.001 A 
HETATM    8  C10 UNL     1      -3.222   2.314   1.023  1.00  0.00     0.014 A 
HETATM    9  C11 UNL     1      -2.128   1.558   0.673  1.00  0.00    -0.009 A 
HETATM   10  C12 UNL     1      -2.237   0.214   0.419  1.00  0.00     0.029 A 
HETATM   11  C13 UNL     1      -1.116  -0.545   0.064  1.00  0.00     0.019 A 
ENDROOT
BRANCH   1  12
HETATM   12  N1  UNL     1       1.124  -0.667  -0.367  1.00  0.00    -0.342 N 
ATOM     13  H1  UNL     1       0.967  -1.660  -0.541  1.00  0.00     0.167 HD
BRANCH  12  14
HETATM   14  C4  UNL     1       2.446  -0.168  -0.509  1.00  0.00     0.033 A 
HETATM   15  C3  UNL     1       2.831   0.637  -1.552  1.00  0.00     0.029 A 
HETATM   16  C2  UNL     1       4.117   1.091  -1.642  1.00  0.00     0.002 A 
HETATM   17  C1  UNL     1       5.040   0.739  -0.677  1.00  0.00     0.000 A 
HETATM   18  C21 UNL     1       4.671  -0.060   0.365  1.00  0.00     0.002 A 
HETATM   19  C20 UNL     1       3.376  -0.510   0.445  1.00  0.00     0.029 A 
ENDBRANCH  12  14
ENDBRANCH   1  12
BRANCH  11  20
HETATM   20  C14 UNL     1      -1.366  -1.955  -0.171  1.00  0.00    -0.022 A 
HETATM   21  C15 UNL     1      -2.415  -2.376  -0.983  1.00  0.00     0.012 A 
HETATM   22  C16 UNL     1      -2.652  -3.716  -1.196  1.00  0.00     0.001 A 
HETATM   23  C17 UNL     1      -1.817  -4.618  -0.581  1.00  0.00     0.000 A 
HETATM   24  C18 UNL     1      -0.788  -4.219   0.215  1.00  0.00     0.001 A 
HETATM   25  C19 UNL     1      -0.540  -2.871   0.437  1.00  0.00     0.012 A 
ENDBRANCH  11  20
TORSDOF 3
