REMARK  9 active torsions:
REMARK  status: ('A' for Active; 'I' for Inactive)
REMARK    1  A    between atoms: C2_2  and  O1_3 
REMARK    2  A    between atoms: O1_3  and  C3_4 
REMARK       I    between atoms: C3_4  and  N1_6 
REMARK    3  A    between atoms: N1_6  and  C4_8 
REMARK    4  A    between atoms: C4_8  and  C5_9 
REMARK    5  A    between atoms: C8_12  and  O3_13 
REMARK    6  A    between atoms: O3_13  and  C9_14 
REMARK    7  A    between atoms: C11_18  and  O6_19 
REMARK    8  A    between atoms: C12_21  and  O7_22 
REMARK    9  A    between atoms: O7_22  and  C13_23 
ROOT
HETATM    1  C5  UNL     1       0.380   0.178   0.431  1.00  0.00     0.009 C 
HETATM    2  C6  UNL     1       0.365   1.506  -0.229  1.00  0.00    -0.013 C 
HETATM    3  C7  UNL     1      -0.738   2.055  -0.745  1.00  0.00     0.039 C 
HETATM    4  C8  UNL     1      -1.994   1.284  -0.643  1.00  0.00     0.202 C 
HETATM    5  O5  UNL     1      -2.283   0.857  -1.945  1.00  0.00    -0.318 OA
HETATM    6  C11 UNL     1      -1.636  -0.352  -2.123  1.00  0.00     0.297 C 
HETATM    7  C12 UNL     1      -1.364  -0.952  -0.782  1.00  0.00     0.134 C 
HETATM    8  C15 UNL     1       0.144  -0.971  -0.502  1.00  0.00     0.041 C 
HETATM    9  C16 UNL     1       0.406  -2.239   0.261  1.00  0.00     0.010 C 
HETATM   10  C17 UNL     1      -0.346  -2.374   1.536  1.00  0.00     0.021 C 
HETATM   11  C18 UNL     1      -0.976  -1.163   2.080  1.00  0.00     0.092 C 
HETATM   12 CL1  UNL     1      -0.424  -0.903   3.776  1.00  0.00    -0.124 Cl
HETATM   13  C19 UNL     1      -0.862   0.090   1.284  1.00  0.00    -0.002 C 
HETATM   14  C20 UNL     1      -1.082   1.324   2.110  1.00  0.00     0.018 C 
HETATM   15  C21 UNL     1      -1.913   0.053   0.196  1.00  0.00     0.104 C 
ENDROOT
BRANCH   1  16
HETATM   16  C4  UNL     1       1.653   0.077   1.208  1.00  0.00     0.139 C 
BRANCH  16  17
HETATM   17  N1  UNL     1       2.753   0.212   0.272  1.00  0.00    -0.336 N 
HETATM   18  C3  UNL     1       4.119   0.156   0.721  1.00  0.00     0.360 C 
HETATM   19  O2  UNL     1       4.357  -0.012   1.942  1.00  0.00    -0.239 OA
ATOM     20  H1  UNL     1       2.555   0.349  -0.719  1.00  0.00     0.164 HD
BRANCH  18  21
HETATM   21  O1  UNL     1       5.179   0.281  -0.146  1.00  0.00    -0.304 OA
BRANCH  21  22
HETATM   22  C2  UNL     1       6.506   0.215   0.375  1.00  0.00     0.176 C 
HETATM   23  C1  UNL     1       7.455   0.381  -0.790  1.00  0.00     0.034 C 
ENDBRANCH  21  22
ENDBRANCH  18  21
ENDBRANCH  16  17
ENDBRANCH   1  16
BRANCH   7  24
HETATM   24  O7  UNL     1      -1.913  -2.225  -0.679  1.00  0.00    -0.304 OA
BRANCH  24  25
HETATM   25  C13 UNL     1      -3.246  -2.471  -0.813  1.00  0.00     0.255 C 
HETATM   26  C14 UNL     1      -3.767  -3.856  -0.691  1.00  0.00     0.126 C 
HETATM   27  O8  UNL     1      -4.046  -1.555  -1.038  1.00  0.00    -0.266 OA
ENDBRANCH  24  25
ENDBRANCH   7  24
BRANCH   4  28
HETATM   28  O3  UNL     1      -3.045   2.142  -0.280  1.00  0.00    -0.279 OA
BRANCH  28  29
HETATM   29  C9  UNL     1      -3.404   3.188  -1.104  1.00  0.00     0.257 C 
HETATM   30  C10 UNL     1      -4.532   4.098  -0.684  1.00  0.00     0.126 C 
HETATM   31  O4  UNL     1      -2.832   3.427  -2.201  1.00  0.00    -0.266 OA
ENDBRANCH  28  29
ENDBRANCH   4  28
BRANCH   6  32
HETATM   32  O6  UNL     1      -0.461  -0.230  -2.867  1.00  0.00    -0.368 OA
ATOM     33  H6  UNL     1      -0.016  -1.061  -2.989  1.00  0.00     0.212 HD
ENDBRANCH   6  32
TORSDOF 9
