REMARK  8 active torsions:
REMARK  status: ('A' for Active; 'I' for Inactive)
REMARK    1  A    between atoms: O1_2  and  C2_3 
REMARK    2  A    between atoms: C2_3  and  C3_5 
REMARK    3  A    between atoms: C7_10  and  N1_11 
REMARK    4  A    between atoms: C8_12  and  C9_13 
REMARK    5  A    between atoms: C9_13  and  C10_14 
REMARK    6  A    between atoms: C10_14  and  N2_15 
REMARK    7  A    between atoms: C18_25  and  C19_26 
REMARK    8  A    between atoms: C21_30  and  N4_31 
ROOT
HETATM    1  N1  UNL     1      -0.672  -0.573  -0.834  1.00  0.00    -0.350 N 
HETATM    2  C8  UNL     1       0.609  -0.330  -1.431  1.00  0.00    -0.009 C 
HETATM    3  C16 UNL     1       0.362  -0.524  -2.909  1.00  0.00     0.055 C 
HETATM    4  C17 UNL     1      -0.587  -1.670  -2.911  1.00  0.00     0.037 C 
HETATM    5  C18 UNL     1      -0.924  -1.801  -1.398  1.00  0.00     0.131 C 
ENDROOT
BRANCH   1   6
HETATM    6  C7  UNL     1      -1.515   0.507  -0.640  1.00  0.00     0.007 C 
HETATM    7  C3  UNL     1      -2.570   0.392   0.414  1.00  0.00     0.155 C 
HETATM    8  C4  UNL     1      -3.853   1.096   0.206  1.00  0.00     0.188 C 
HETATM    9  O3  UNL     1      -4.175   1.202  -1.129  1.00  0.00    -0.390 OA
HETATM   10  C5  UNL     1      -3.196   2.079  -1.648  1.00  0.00     0.173 C 
HETATM   11  C6  UNL     1      -1.938   1.253  -1.888  1.00  0.00     0.079 C 
BRANCH   7  12
HETATM   12  C2  UNL     1      -2.101   0.920   1.772  1.00  0.00     0.270 C 
HETATM   13  O2  UNL     1      -1.141   1.691   1.872  1.00  0.00    -0.264 OA
BRANCH  12  14
HETATM   14  O1  UNL     1      -2.777   0.525   2.926  1.00  0.00    -0.326 OA
HETATM   15  C1  UNL     1      -2.386   0.987   4.203  1.00  0.00     0.213 C 
ENDBRANCH  12  14
ENDBRANCH   7  12
ENDBRANCH   1   6
BRANCH   2  16
HETATM   16  C9  UNL     1       1.522   0.692  -1.015  1.00  0.00     0.083 C 
BRANCH  16  17
HETATM   17  C10 UNL     1       1.980   0.493   0.426  1.00  0.00     0.278 C 
BRANCH  17  18
HETATM   18  N2  UNL     1       2.885   1.525   0.859  1.00  0.00     0.093 N 
HETATM   19  C11 UNL     1       3.279   1.365   2.214  1.00  0.00     0.298 C 
HETATM   20  C12 UNL     1       4.248   0.237   2.481  1.00  0.00     0.198 C 
HETATM   21  O4  UNL     1       5.580   0.684   2.458  1.00  0.00    -0.387 OA
HETATM   22  C13 UNL     1       5.947   0.753   1.116  1.00  0.00     0.206 C 
HETATM   23  C14 UNL     1       5.289   1.991   0.519  1.00  0.00     0.222 C 
HETATM   24  F1  UNL     1       6.130   2.531  -0.463  1.00  0.00    -0.245 F 
HETATM   25  C15 UNL     1       3.978   1.580  -0.074  1.00  0.00     0.311 C 
ENDBRANCH  17  18
ENDBRANCH  16  17
ENDBRANCH   2  16
BRANCH   5  26
HETATM   26  C19 UNL     1      -2.156  -2.561  -1.222  1.00  0.00     0.025 A 
HETATM   27  C20 UNL     1      -2.339  -3.752  -0.548  1.00  0.00     0.107 A 
HETATM   28  N3  UNL     1      -3.518  -4.285  -0.545  1.00  0.00    -0.346 N 
HETATM   29  C21 UNL     1      -4.514  -3.683  -1.182  1.00  0.00     0.142 A 
ATOM     30  H3  UNL     1      -3.681  -5.165  -0.055  1.00  0.00     0.167 HD
HETATM   31  S1  UNL     1      -3.761  -2.300  -1.818  1.00  0.00    -0.056 SA
BRANCH  29  32
HETATM   32  N4  UNL     1      -5.764  -4.058  -1.295  1.00  0.00    -0.380 N 
ATOM     33  H42 UNL     1      -6.216  -4.889  -0.913  1.00  0.00     0.158 HD
ATOM     34  H41 UNL     1      -6.530  -3.595  -1.785  1.00  0.00     0.158 HD
ENDBRANCH  29  32
ENDBRANCH   5  26
TORSDOF 8
