REMARK  9 active torsions:
REMARK  status: ('A' for Active; 'I' for Inactive)
REMARK    1  A    between atoms: O1_2  and  C2_3 
REMARK       I    between atoms: C2_3  and  N1_5 
REMARK    2  A    between atoms: N1_5  and  C3_7 
REMARK    3  A    between atoms: C3_7  and  C4_8 
REMARK    4  A    between atoms: N2_13  and  C9_14 
REMARK    5  A    between atoms: C9_14  and  C10_15 
REMARK    6  A    between atoms: C9_14  and  C15_24 
REMARK    7  A    between atoms: C10_15  and  N3_16 
REMARK    8  A    between atoms: N3_16  and  C11_19 
REMARK    9  A    between atoms: N7_28  and  C16_29 
ROOT
HETATM    1  C11 UNL     1      -1.948   3.666  -2.598  1.00  0.00     0.213 A 
HETATM    2  C12 UNL     1      -2.066   3.570  -4.059  1.00  0.00     0.099 C 
HETATM    3  N4  UNL     1      -2.169   3.477  -5.205  1.00  0.00    -0.195 NA
HETATM    4  C13 UNL     1      -1.666   4.997  -2.076  1.00  0.00     0.058 A 
HETATM    5  C14 UNL     1      -3.045   4.423  -1.945  1.00  0.00     0.058 A 
ENDROOT
BRANCH   1   6
HETATM    6  N3  UNL     1      -1.464   2.446  -1.988  1.00  0.00    -0.051 N 
ATOM      7  H32 UNL     1      -0.702   2.052  -2.540  1.00  0.00     0.279 HD
ATOM      8  H31 UNL     1      -2.156   1.703  -2.086  1.00  0.00     0.279 HD
BRANCH   6   9
HETATM    9  C10 UNL     1      -1.080   2.574  -0.661  1.00  0.00     0.268 C 
BRANCH   9  10
HETATM   10  C9  UNL     1      -0.620   1.344   0.104  1.00  0.00     0.190 C 
BRANCH  10  11
HETATM   11  N2  UNL     1       0.486   0.746  -0.503  1.00  0.00    -0.281 N 
HETATM   12  C8  UNL     1       0.404   0.231  -1.831  1.00  0.00     0.157 C 
HETATM   13  C7  UNL     1       1.628  -0.670  -1.906  1.00  0.00     0.037 C 
HETATM   14  C6  UNL     1       1.305  -2.107  -1.922  1.00  0.00     0.009 C 
HETATM   15  C21 UNL     1       2.318  -0.345  -0.597  1.00  0.00     0.163 C 
HETATM   16  C5  UNL     1       2.231  -2.731  -0.908  1.00  0.00     0.009 C 
HETATM   17  C4  UNL     1       3.039  -1.609  -0.290  1.00  0.00     0.035 C 
HETATM   18  O3  UNL     1       1.202  -0.081   0.239  1.00  0.00    -0.276 OA
BRANCH  17  19
HETATM   19  C3  UNL     1       4.376  -1.533  -1.035  1.00  0.00     0.132 C 
BRANCH  19  20
HETATM   20  N1  UNL     1       5.160  -0.467  -0.447  1.00  0.00    -0.336 N 
HETATM   21  C2  UNL     1       5.595  -0.461   0.881  1.00  0.00     0.360 C 
HETATM   22  O2  UNL     1       5.361  -1.409   1.714  1.00  0.00    -0.239 OA
ATOM     23  H1  UNL     1       5.410   0.327  -1.037  1.00  0.00     0.164 HD
BRANCH  21  24
HETATM   24  O1  UNL     1       6.320   0.588   1.402  1.00  0.00    -0.309 OA
HETATM   25  C1  UNL     1       6.754   0.610   2.751  1.00  0.00     0.215 C 
ENDBRANCH  21  24
ENDBRANCH  19  20
ENDBRANCH  17  19
ENDBRANCH  10  11
BRANCH  10  26
HETATM   26  C15 UNL     1      -1.811   0.485   0.324  1.00  0.00     0.107 A 
HETATM   27  N5  UNL     1      -2.904   0.252  -0.418  1.00  0.00    -0.281 N 
HETATM   28  N6  UNL     1      -3.709  -0.639   0.136  1.00  0.00    -0.017 NA
ATOM     29  H5  UNL     1      -3.093   0.711  -1.309  1.00  0.00     0.184 HD
HETATM   30  N7  UNL     1      -3.152  -1.028   1.293  1.00  0.00    -0.240 N 
HETATM   31  C20 UNL     1      -1.987  -0.360   1.436  1.00  0.00     0.230 A 
HETATM   32  F1  UNL     1      -1.173  -0.521   2.517  1.00  0.00    -0.183 F 
BRANCH  30  33
HETATM   33  C16 UNL     1      -3.805  -1.964   2.165  1.00  0.00     0.044 C 
HETATM   34  C17 UNL     1      -5.262  -2.163   1.861  1.00  0.00     0.039 C 
HETATM   35  C18 UNL     1      -3.133  -3.333   2.007  1.00  0.00     0.039 C 
HETATM   36  C19 UNL     1      -3.677  -1.552   3.626  1.00  0.00     0.039 C 
ENDBRANCH  30  33
ENDBRANCH  10  26
ENDBRANCH   9  10
ENDBRANCH   6   9
ENDBRANCH   1   6
TORSDOF 9
