REMARK  9 active torsions:
REMARK  status: ('A' for Active; 'I' for Inactive)
REMARK    1  A    between atoms: O1_2  and  C2_3 
REMARK    2  A    between atoms: C4_5  and  C5_6 
REMARK       I    between atoms: C5_6  and  N1_8 
REMARK    3  A    between atoms: N1_8  and  N2_10 
REMARK    4  A    between atoms: N2_10  and  C6_12 
REMARK    5  A    between atoms: C7_17  and  C8_18 
REMARK    6  A    between atoms: C8_18  and  N5_19 
REMARK    7  A    between atoms: N5_19  and  C9_21 
REMARK    8  A    between atoms: C10_23  and  C11_24 
REMARK    9  A    between atoms: N9_31  and  N10_32 
ROOT
HETATM    1  C6  UNL     1       0.457  -0.157   2.177  1.00  0.00     0.734 A 
HETATM    2  N3  UNL     1      -0.676  -0.169   2.885  1.00  0.00    -0.127 N 
ATOM      3  H3  UNL     1      -0.772  -0.526   3.836  1.00  0.00     0.205 HD
HETATM    4  N4  UNL     1      -1.653   0.352   2.165  1.00  0.00    -0.271 N 
ATOM      5  H4  UNL     1      -2.619   0.461   2.472  1.00  0.00     0.189 HD
HETATM    6  C7  UNL     1      -1.177   0.713   0.973  1.00  0.00     0.154 A 
HETATM    7  N9  UNL     1       0.137   0.396   0.980  1.00  0.00    -0.075 N 
ENDROOT
BRANCH   1   8
HETATM    8  N2  UNL     1       1.639  -0.580   2.527  1.00  0.00    -0.126 N 
ATOM      9  H2  UNL     1       1.755  -0.980   3.458  1.00  0.00     0.206 HD
BRANCH   8  10
HETATM   10  N1  UNL     1       2.739  -0.514   1.702  1.00  0.00    -0.251 N 
HETATM   11  C5  UNL     1       3.854   0.280   2.054  1.00  0.00     0.274 C 
HETATM   12  O2  UNL     1       3.864   0.931   3.109  1.00  0.00    -0.266 OA
ATOM     13  H1  UNL     1       2.749  -1.042   0.830  1.00  0.00     0.191 HD
BRANCH  11  14
HETATM   14  C4  UNL     1       5.017   0.347   1.178  1.00  0.00     0.079 A 
HETATM   15  C3  UNL     1       5.192  -0.297  -0.025  1.00  0.00     0.076 A 
HETATM   16  C2  UNL     1       6.428   0.034  -0.532  1.00  0.00     0.143 A 
HETATM   17  N12 UNL     1       6.999   0.864   0.340  1.00  0.00    -0.325 N 
HETATM   18  C14 UNL     1       6.175   1.064   1.368  1.00  0.00     0.134 A 
ATOM     19  H12 UNL     1       7.924   1.282   0.237  1.00  0.00     0.169 HD
HETATM   20  N11 UNL     1       6.412   1.894   2.522  1.00  0.00    -0.082 NA
BRANCH  16  21
HETATM   21  O1  UNL     1       6.973  -0.428  -1.749  1.00  0.00    -0.341 OA
HETATM   22  C1  UNL     1       6.283  -1.301  -2.591  1.00  0.00     0.211 C 
ENDBRANCH  16  21
ENDBRANCH  11  14
ENDBRANCH   8  10
ENDBRANCH   1   8
BRANCH   7  23
HETATM   23  N10 UNL     1       0.990   0.620  -0.093  1.00  0.00    -0.323 N 
ATOM     24 2H10 UNL     1       1.982   0.381  -0.088  1.00  0.00     0.178 HD
ATOM     25 1H10 UNL     1       0.749   1.036  -0.993  1.00  0.00     0.178 HD
ENDBRANCH   7  23
BRANCH   6  26
HETATM   26  C8  UNL     1      -1.900   1.346  -0.180  1.00  0.00     0.202 C 
BRANCH  26  27
HETATM   27  N5  UNL     1      -2.441   0.317  -1.063  1.00  0.00    -0.363 N 
ATOM     28  H5  UNL     1      -1.848  -0.151  -1.749  1.00  0.00     0.162 HD
BRANCH  27  29
HETATM   29  C9  UNL     1      -3.710   0.012  -0.949  1.00  0.00     0.148 A 
HETATM   30  S1  UNL     1      -4.852   0.676   0.125  1.00  0.00    -0.045 SA
HETATM   31  C10 UNL     1      -6.209  -0.238  -0.363  1.00  0.00     0.114 A 
HETATM   32  C12 UNL     1      -5.684  -1.022  -1.353  1.00  0.00     0.142 A 
HETATM   33  N7  UNL     1      -6.571  -1.959  -2.023  1.00  0.00    -0.081 NA
HETATM   34  N8  UNL     1      -4.420  -0.883  -1.636  1.00  0.00    -0.319 N 
HETATM   35  C13 UNL     1      -3.739  -1.680  -2.693  1.00  0.00     0.159 C 
BRANCH  31  36
HETATM   36  C11 UNL     1      -7.586  -0.176   0.168  1.00  0.00     0.275 C 
HETATM   37  N6  UNL     1      -7.890   0.721   1.201  1.00  0.00    -0.057 NA
HETATM   38  O3  UNL     1      -8.459  -0.935  -0.323  1.00  0.00    -0.270 OA
ENDBRANCH  31  36
ENDBRANCH  27  29
ENDBRANCH  26  27
ENDBRANCH   6  26
TORSDOF 9
