REMARK  13 active torsions:
REMARK  status: ('A' for Active; 'I' for Inactive)
REMARK    1  A    between atoms: O1_2  and  C2_3 
REMARK    2  A    between atoms: C3_4  and  N1_5 
REMARK    3  A    between atoms: C4_10  and  O3_11 
REMARK    4  A    between atoms: O3_11  and  C5_12 
REMARK    5  A    between atoms: C6_13  and  N2_14 
REMARK    6  A    between atoms: C8_19  and  N3_20 
REMARK    7  A    between atoms: C9_24  and  O4_25 
REMARK    8  A    between atoms: O4_25  and  C10_26 
REMARK    9  A    between atoms: C14_30  and  N4_31 
REMARK   10  A    between atoms: C16_36  and  N5_37 
REMARK   11  A    between atoms: C17_41  and  O5_42 
REMARK   12  A    between atoms: C18_44  and  N6_45 
REMARK   13  A    between atoms: N6_45  and  C19_47 
ROOT
HETATM    1  C5  UNL     1      -1.108  -0.909   0.833  1.00  0.00     0.186 C 
HETATM    2  C6  UNL     1      -0.425  -1.876   1.757  1.00  0.00     0.217 C 
HETATM    3  C7  UNL     1       0.214  -2.969   0.932  1.00  0.00     0.071 C 
HETATM    4  C8  UNL     1       1.267  -2.457   0.007  1.00  0.00     0.217 C 
HETATM    5  C9  UNL     1       1.183  -0.914  -0.080  1.00  0.00     0.183 C 
HETATM    6  C17 UNL     1      -0.263  -0.615  -0.362  1.00  0.00     0.180 C 
ENDROOT
BRANCH   1   7
HETATM    7  O3  UNL     1      -2.416  -1.272   0.557  1.00  0.00    -0.349 OA
BRANCH   7   8
HETATM    8  C4  UNL     1      -3.380  -0.412   1.036  1.00  0.00     0.288 C 
HETATM    9  O2  UNL     1      -4.178  -1.161   1.947  1.00  0.00    -0.324 OA
HETATM   10  C3  UNL     1      -5.333  -0.357   2.101  1.00  0.00     0.352 C 
HETATM   11  C2  UNL     1      -5.586   0.263   0.777  1.00  0.00     0.204 C 
HETATM   12  C18 UNL     1      -4.406  -0.127  -0.038  1.00  0.00     0.172 C 
BRANCH  10  13
HETATM   13  N1  UNL     1      -6.398  -1.237   2.540  1.00  0.00    -0.050 N 
ATOM     14  H13 UNL     1      -7.294  -0.750   2.535  1.00  0.00     0.277 HD
ATOM     15  H12 UNL     1      -6.589  -1.951   1.837  1.00  0.00     0.277 HD
ATOM     16  H11 UNL     1      -6.224  -1.663   3.450  1.00  0.00     0.277 HD
ENDBRANCH  10  13
BRANCH  11  17
HETATM   17  O1  UNL     1      -5.889   1.593   0.787  1.00  0.00    -0.384 OA
HETATM   18  C1  UNL     1      -7.125   1.912   0.265  1.00  0.00     0.202 C 
ENDBRANCH  11  17
BRANCH  12  19
HETATM   19  N6  UNL     1      -3.885   0.951  -0.853  1.00  0.00    -0.356 N 
ATOM     20  H6  UNL     1      -3.174   1.567  -0.460  1.00  0.00     0.162 HD
BRANCH  19  21
HETATM   21  C19 UNL     1      -4.289   1.157  -2.055  1.00  0.00     0.349 C 
HETATM   22  O6  UNL     1      -4.207   0.985  -3.294  1.00  0.00    -0.284 OA
ENDBRANCH  19  21
ENDBRANCH  12  19
ENDBRANCH   7   8
ENDBRANCH   1   7
BRANCH   2  23
HETATM   23  N2  UNL     1      -1.299  -2.404   2.771  1.00  0.00    -0.072 N 
ATOM     24  H23 UNL     1      -1.742  -1.651   3.297  1.00  0.00     0.274 HD
ATOM     25  H22 UNL     1      -2.128  -2.826   2.352  1.00  0.00     0.274 HD
ATOM     26  H21 UNL     1      -0.835  -3.061   3.399  1.00  0.00     0.274 HD
ENDBRANCH   2  23
BRANCH   6  27
HETATM   27  O5  UNL     1      -0.358   0.758  -0.672  1.00  0.00    -0.390 OA
ATOM     28  H5  UNL     1       0.180   0.945  -1.432  1.00  0.00     0.210 HD
ENDBRANCH   6  27
BRANCH   5  29
HETATM   29  O4  UNL     1       1.924  -0.516  -1.188  1.00  0.00    -0.374 OA
BRANCH  29  30
HETATM   30  C10 UNL     1       3.007   0.270  -0.899  1.00  0.00     0.152 C 
HETATM   31  C11 UNL     1       4.224  -0.609  -1.218  1.00  0.00     0.034 C 
HETATM   32  C12 UNL     1       5.512   0.130  -1.191  1.00  0.00     0.004 C 
HETATM   33  C13 UNL     1       5.569   1.306  -0.275  1.00  0.00     0.033 C 
HETATM   34  C14 UNL     1       5.189   2.543  -1.092  1.00  0.00     0.185 C 
HETATM   35  C15 UNL     1       3.690   2.677  -1.000  1.00  0.00     0.068 C 
HETATM   36  C16 UNL     1       3.002   1.518  -1.698  1.00  0.00     0.214 C 
BRANCH  34  37
HETATM   37  N4  UNL     1       5.834   3.695  -0.547  1.00  0.00    -0.075 N 
ATOM     38  H43 UNL     1       5.634   3.814   0.446  1.00  0.00     0.274 HD
ATOM     39  H42 UNL     1       6.845   3.574  -0.480  1.00  0.00     0.274 HD
ATOM     40  H41 UNL     1       5.581   4.519  -1.092  1.00  0.00     0.274 HD
ENDBRANCH  34  37
BRANCH  36  41
HETATM   41  N5  UNL     1       3.569   1.325  -3.038  1.00  0.00    -0.072 N 
ATOM     42  H53 UNL     1       4.506   0.924  -2.987  1.00  0.00     0.274 HD
ATOM     43  H52 UNL     1       3.095   0.569  -3.533  1.00  0.00     0.274 HD
ATOM     44  H51 UNL     1       3.566   2.184  -3.588  1.00  0.00     0.274 HD
ENDBRANCH  36  41
ENDBRANCH  29  30
ENDBRANCH   5  29
BRANCH   4  45
HETATM   45  N3  UNL     1       1.206  -3.009  -1.318  1.00  0.00    -0.072 N 
ATOM     46  H33 UNL     1       1.228  -4.028  -1.281  1.00  0.00     0.274 HD
ATOM     47  H32 UNL     1       0.279  -2.870  -1.720  1.00  0.00     0.274 HD
ATOM     48  H31 UNL     1       1.926  -2.659  -1.950  1.00  0.00     0.274 HD
ENDBRANCH   4  45
TORSDOF 13
