REMARK  9 active torsions:
REMARK  status: ('A' for Active; 'I' for Inactive)
REMARK    1  A    between atoms: N1_2  and  C3_4 
REMARK    2  A    between atoms: C4_7  and  S1_8 
REMARK    3  A    between atoms: S1_8  and  C5_9 
REMARK    4  A    between atoms: C6_12  and  N4_13 
REMARK    5  A    between atoms: C7_18  and  N6_19 
REMARK    6  A    between atoms: N7_22  and  C10_23 
REMARK    7  A    between atoms: C10_23  and  C11_24 
REMARK    8  A    between atoms: C15_33  and  N10_34 
REMARK    9  A    between atoms: C16_37  and  N11_38 
ROOT
HETATM    1  C5  UNL     1       0.793  -0.843  -0.269  1.00  0.00     0.121 A 
HETATM    2  N3  UNL     1       1.073   0.461  -0.152  1.00  0.00    -0.183 N 
ATOM      3  H3  UNL     1       2.048   0.758  -0.121  1.00  0.00     0.185 HD
HETATM    4  C6  UNL     1       0.097   1.398  -0.073  1.00  0.00     0.678 A 
HETATM    5  N5  UNL     1      -1.171   1.004  -0.112  1.00  0.00    -0.175 N 
ATOM      6  H5  UNL     1      -1.897   1.718  -0.052  1.00  0.00     0.186 HD
HETATM    7  C7  UNL     1      -1.559  -0.298  -0.228  1.00  0.00     0.146 A 
HETATM    8  C14 UNL     1      -0.561  -1.235  -0.311  1.00  0.00     0.125 A 
HETATM    9  N8  UNL     1      -0.851  -2.595  -0.439  1.00  0.00    -0.095 NA
ENDROOT
BRANCH   1  10
HETATM   10  S1  UNL     1       2.073  -2.058  -0.283  1.00  0.00    -0.033 SA
BRANCH  10  11
HETATM   11  C4  UNL     1       3.648  -1.295  -0.026  1.00  0.00     0.167 C 
HETATM   12  N2  UNL     1       3.745   0.073   0.000  1.00  0.00    -0.170 N 
HETATM   13  C3  UNL     1       4.885   0.788   0.266  1.00  0.00     0.683 C 
ATOM     14  H2  UNL     1       2.896   0.604  -0.195  1.00  0.00     0.186 HD
HETATM   15  N12 UNL     1       5.774   0.399   1.224  1.00  0.00    -0.173 N 
HETATM   16  C16 UNL     1       6.119  -0.869   1.614  1.00  0.00     0.158 C 
ATOM     17  H12 UNL     1       6.247   1.155   1.718  1.00  0.00     0.186 HD
HETATM   18  C15 UNL     1       5.767  -2.050   0.944  1.00  0.00     0.145 C 
HETATM   19  N9  UNL     1       4.681  -2.178   0.129  1.00  0.00    -0.320 N 
ATOM     20  H9  UNL     1       4.634  -3.030  -0.429  1.00  0.00     0.169 HD
BRANCH  13  21
HETATM   21  N1  UNL     1       5.155   1.961  -0.475  1.00  0.00    -0.226 N 
HETATM   22  C1  UNL     1       4.181   2.974  -0.761  1.00  0.00     0.168 C 
HETATM   23  C2  UNL     1       6.529   2.158  -1.000  1.00  0.00     0.168 C 
ENDBRANCH  13  21
BRANCH  16  24
HETATM   24  N11 UNL     1       6.809  -1.053   2.660  1.00  0.00    -0.382 N 
ATOM     25 2H11 UNL     1       7.066  -1.997   2.950  1.00  0.00     0.157 HD
ATOM     26 1H11 UNL     1       7.065  -0.194   3.147  1.00  0.00     0.157 HD
ENDBRANCH  16  24
BRANCH  18  27
HETATM   27  N10 UNL     1       6.522  -3.075   1.120  1.00  0.00    -0.382 N 
ATOM     28 2H10 UNL     1       6.266  -3.934   0.633  1.00  0.00     0.157 HD
ATOM     29 1H10 UNL     1       7.334  -2.979   1.730  1.00  0.00     0.157 HD
ENDBRANCH  18  27
ENDBRANCH  10  11
ENDBRANCH   1  10
BRANCH   4  30
HETATM   30  N4  UNL     1       0.404   2.667   0.047  1.00  0.00    -0.234 N 
ATOM     31  H42 UNL     1       1.378   2.970   0.077  1.00  0.00     0.174 HD
ATOM     32  H41 UNL     1      -0.331   3.372   0.106  1.00  0.00     0.174 HD
ENDBRANCH   4  30
BRANCH   7  33
HETATM   33  N6  UNL     1      -2.934  -0.624  -0.202  1.00  0.00    -0.362 N 
HETATM   34  C8  UNL     1      -3.659  -1.392  -1.169  1.00  0.00     0.144 C 
HETATM   35  C9  UNL     1      -5.065  -0.869  -1.380  1.00  0.00     0.142 C 
HETATM   36  N7  UNL     1      -5.767  -0.742  -0.163  1.00  0.00    -0.381 N 
HETATM   37  C12 UNL     1      -5.034  -0.761   1.049  1.00  0.00     0.142 C 
HETATM   38  C13 UNL     1      -3.687  -0.124   0.963  1.00  0.00     0.144 C 
BRANCH  36  39
HETATM   39  C10 UNL     1      -7.022  -0.100  -0.193  1.00  0.00     0.170 C 
BRANCH  39  40
HETATM   40  C11 UNL     1      -6.990   1.330  -0.506  1.00  0.00     0.214 C 
HETATM   41  O1  UNL     1      -8.093   1.942  -0.536  1.00  0.00    -0.644 OA
HETATM   42  O2  UNL     1      -5.845   2.056  -0.772  1.00  0.00    -0.644 OA
ENDBRANCH  39  40
ENDBRANCH  36  39
ENDBRANCH   7  33
TORSDOF 9
