REMARK  6 active torsions:
REMARK  status: ('A' for Active; 'I' for Inactive)
REMARK    1  A    between atoms: C3_3  and  C4_4 
REMARK    2  A    between atoms: C5_5  and  C6_6 
REMARK    3  A    between atoms: C6_6  and  C7_7 
REMARK    4  A    between atoms: C7_7  and  C8_8 
REMARK    5  A    between atoms: C8_8  and  C9_9 
REMARK    6  A    between atoms: C12_12  and  O1_13 
ROOT
HETATM    1  C1  UNL     1       6.069  -1.649  -0.998  1.00  0.00     0.113 C 
HETATM    2  C2  UNL     1       4.954  -0.786  -0.559  1.00  0.00    -0.097 C 
HETATM    3  C3  UNL     1       4.042  -0.066  -0.215  1.00  0.00    -0.015 C 
ENDROOT
BRANCH   3   4
HETATM    4  C4  UNL     1       2.981   0.788   0.166  1.00  0.00    -0.015 C 
HETATM    5  C5  UNL     1       2.071   1.538   0.479  1.00  0.00    -0.092 C 
BRANCH   5   6
HETATM    6  C6  UNL     1       0.989   2.452   0.835  1.00  0.00     0.095 C 
BRANCH   6   7
HETATM    7  C7  UNL     1      -0.274   1.636   0.983  1.00  0.00     0.017 C 
BRANCH   7   8
HETATM    8  C8  UNL     1      -0.540   0.964  -0.344  1.00  0.00     0.039 C 
BRANCH   8   9
HETATM    9  C9  UNL     1      -1.762   0.161  -0.241  1.00  0.00    -0.058 A 
HETATM   10  C10 UNL     1      -2.966   0.728  -0.538  1.00  0.00     0.010 A 
HETATM   11  C11 UNL     1      -4.128   0.006  -0.451  1.00  0.00     0.037 A 
HETATM   12  C12 UNL     1      -4.096  -1.322  -0.058  1.00  0.00     0.065 A 
HETATM   13  C13 UNL     1      -2.888  -1.908   0.245  1.00  0.00     0.037 A 
HETATM   14  C14 UNL     1      -1.729  -1.161   0.151  1.00  0.00     0.010 A 
BRANCH  12  15
HETATM   15  O1  UNL     1      -5.309  -1.988   0.006  1.00  0.00    -0.361 OA
ATOM     16  H1  UNL     1      -5.287  -2.899   0.276  1.00  0.00     0.217 HD
ENDBRANCH  12  15
ENDBRANCH   8   9
ENDBRANCH   7   8
ENDBRANCH   6   7
ENDBRANCH   5   6
ENDBRANCH   3   4
TORSDOF 6
