REMARK  3 active torsions:
REMARK  status: ('A' for Active; 'I' for Inactive)
REMARK    1  A    between atoms: C4_6  and  C5_7 
REMARK    2  A    between atoms: C6_8  and  C7_9 
REMARK    3  A    between atoms: C7_9  and  N2_11 
ROOT
HETATM    1  C1  UNL     1       4.905   0.460   0.087  1.00  0.00     0.050 C 
HETATM    2  C2  UNL     1       3.700  -0.365  -0.254  1.00  0.00    -0.038 A 
HETATM    3  C3  UNL     1       3.617  -1.596  -0.804  1.00  0.00     0.095 A 
HETATM    4  N1  UNL     1       2.342  -1.919  -0.919  1.00  0.00    -0.365 N 
ATOM      5  H1  UNL     1       2.007  -2.801  -1.307  1.00  0.00     0.165 HD
HETATM    6  C4  UNL     1       1.521  -0.920  -0.452  1.00  0.00     0.038 A 
HETATM    7  C11 UNL     1       2.383   0.060  -0.032  1.00  0.00    -0.028 A 
HETATM    8  C12 UNL     1       2.021   1.372   0.564  1.00  0.00     0.051 C 
ENDROOT
BRANCH   6   9
HETATM    9  C5  UNL     1       0.072  -0.974  -0.445  1.00  0.00     0.028 C 
HETATM   10  C6  UNL     1      -0.777  -0.104  -0.031  1.00  0.00    -0.000 C 
BRANCH  10  11
HETATM   11  C7  UNL     1      -2.242  -0.434  -0.151  1.00  0.00     0.097 C 
HETATM   12  C8  UNL     1      -2.565  -1.543   0.836  1.00  0.00     0.036 C 
BRANCH  11  13
HETATM   13  N2  UNL     1      -3.058   0.686   0.171  1.00  0.00    -0.414 N 
HETATM   14  C9  UNL     1      -4.429   0.484  -0.156  1.00  0.00     0.143 C 
HETATM   15  C10 UNL     1      -2.516   1.975  -0.063  1.00  0.00     0.143 C 
ENDBRANCH  11  13
ENDBRANCH  10  11
ENDBRANCH   6   9
TORSDOF 3
