REMARK  3 active torsions:
REMARK  status: ('A' for Active; 'I' for Inactive)
REMARK    1  A    between atoms: C2_2  and  C3_3 
REMARK    2  A    between atoms: C3_3  and  C5_5 
REMARK    3  A    between atoms: C3_3  and  C11_11 
ROOT
HETATM    1  C3  UNL     1      -0.579  -0.629  -0.106  1.00  0.00     0.044 C 
HETATM    2  C4  UNL     1      -1.041  -1.349  -1.358  1.00  0.00     0.031 C 
ENDROOT
BRANCH   1   3
HETATM    3  C2  UNL     1      -0.736  -1.570   1.035  1.00  0.00    -0.017 C 
HETATM    4  C1  UNL     1      -0.211  -2.775   0.968  1.00  0.00     0.008 C 
ENDBRANCH   1   3
BRANCH   1   5
HETATM    5  C5  UNL     1       0.809  -0.158  -0.196  1.00  0.00    -0.040 A 
HETATM    6  C6  UNL     1       1.675  -0.310   0.858  1.00  0.00     0.008 A 
HETATM    7  C7  UNL     1       3.002   0.129   0.809  1.00  0.00     0.001 A 
HETATM    8  C8  UNL     1       3.424   0.734  -0.360  1.00  0.00     0.000 A 
HETATM    9  C9  UNL     1       2.582   0.902  -1.435  1.00  0.00     0.001 A 
HETATM   10  C10 UNL     1       1.282   0.461  -1.360  1.00  0.00     0.008 A 
ENDBRANCH   1   5
BRANCH   1  11
HETATM   11  C11 UNL     1      -1.483   0.559   0.069  1.00  0.00     0.043 A 
HETATM   12  C12 UNL     1      -1.531   1.441   1.126  1.00  0.00     0.046 A 
HETATM   13  C13 UNL     1      -2.508   2.381   0.877  1.00  0.00     0.109 A 
HETATM   14  N1  UNL     1      -3.042   2.072  -0.312  1.00  0.00    -0.312 N 
HETATM   15  N2  UNL     1      -2.431   0.996  -0.780  1.00  0.00    -0.304 N 
ATOM     16  H1  UNL     1      -3.793   2.581  -0.778  1.00  0.00     0.186 HD
ATOM     17  H2  UNL     1      -2.651   0.553  -1.672  1.00  0.00     0.186 HD
ENDBRANCH   1  11
TORSDOF 3
