REMARK  14 active torsions:
REMARK  status: ('A' for Active; 'I' for Inactive)
REMARK    1  A    between atoms: C2_2  and  S1_4 
REMARK    2  A    between atoms: C2_2  and  C14_22 
REMARK    3  A    between atoms: S1_4  and  C4_5 
REMARK    4  A    between atoms: C6_8  and  C7_9 
REMARK    5  A    between atoms: C7_9  and  O2_10 
REMARK    6  A    between atoms: C7_9  and  C8_12 
REMARK    7  A    between atoms: C10_14  and  O3_15 
REMARK    8  A    between atoms: C12_18  and  O4_19 
REMARK    9  A    between atoms: C14_22  and  C15_24 
REMARK       I    between atoms: C15_24  and  N1_26 
REMARK   10  A    between atoms: N1_26  and  N2_28 
REMARK       I    between atoms: N2_28  and  C16_30 
REMARK       I    between atoms: C16_30  and  N3_32 
REMARK   11  A    between atoms: N3_32  and  N4_34 
REMARK   12  A    between atoms: N4_34  and  S2_36 
REMARK   13  A    between atoms: S2_36  and  O10_39 
REMARK   14  A    between atoms: O10_39  and  C17_40 
ROOT
HETATM    1  C1  UNL     1       0.398   1.284  -0.996  1.00  0.00     0.035 C 
HETATM    2  C2  UNL     1      -0.229   0.093  -0.291  1.00  0.00     0.071 C 
HETATM    3  C3  UNL     1      -0.294  -1.089  -1.215  1.00  0.00     0.035 C 
ENDROOT
BRANCH   2   4
HETATM    4  S1  UNL     1      -1.797   0.510   0.450  1.00  0.00    -0.142 SA
BRANCH   4   5
HETATM    5  C4  UNL     1      -3.097   0.923  -0.743  1.00  0.00     0.104 C 
HETATM    6  C5  UNL     1      -2.900   2.184  -1.514  1.00  0.00     0.186 C 
HETATM    7  O1  UNL     1      -3.601   2.846  -0.505  1.00  0.00    -0.380 OA
HETATM    8  C6  UNL     1      -4.218   1.633  -0.090  1.00  0.00     0.170 C 
BRANCH   8   9
HETATM    9  C7  UNL     1      -5.587   1.605  -0.652  1.00  0.00     0.181 C 
BRANCH   9  10
HETATM   10  O2  UNL     1      -5.662   1.637  -2.045  1.00  0.00    -0.388 OA
ATOM     11  H2  UNL     1      -6.541   1.619  -2.406  1.00  0.00     0.210 HD
ENDBRANCH   9  10
BRANCH   9  12
HETATM   12  C8  UNL     1      -6.523   0.610  -0.143  1.00  0.00    -0.022 A 
HETATM   13  C9  UNL     1      -6.705  -0.595  -0.774  1.00  0.00     0.046 A 
HETATM   14  C10 UNL     1      -7.603  -1.542  -0.315  1.00  0.00     0.069 A 
HETATM   15  C11 UNL     1      -8.325  -1.236   0.818  1.00  0.00     0.073 A 
HETATM   16  C12 UNL     1      -8.186  -0.044   1.495  1.00  0.00     0.069 A 
HETATM   17  C13 UNL     1      -7.269   0.866   0.985  1.00  0.00     0.046 A 
BRANCH  14  18
HETATM   18  O3  UNL     1      -7.773  -2.769  -0.978  1.00  0.00    -0.361 OA
ATOM     19  H3  UNL     1      -8.390  -3.419  -0.663  1.00  0.00     0.217 HD
ENDBRANCH  14  18
BRANCH  16  20
HETATM   20  O4  UNL     1      -8.926   0.255   2.647  1.00  0.00    -0.361 OA
ATOM     21  H4  UNL     1      -8.830   1.077   3.114  1.00  0.00     0.217 HD
ENDBRANCH  16  20
ENDBRANCH   9  12
ENDBRANCH   8   9
ENDBRANCH   4   5
ENDBRANCH   2   4
BRANCH   2  22
HETATM   22  C14 UNL     1       0.759  -0.261   0.794  1.00  0.00     0.235 C 
HETATM   23  O5  UNL     1       0.488  -0.150   2.005  1.00  0.00    -0.285 OA
BRANCH  22  24
HETATM   24  C15 UNL     1       2.067  -0.742   0.405  1.00  0.00     0.307 C 
HETATM   25  O6  UNL     1       2.414  -0.987  -0.788  1.00  0.00    -0.263 OA
HETATM   26  N1  UNL     1       3.076  -0.967   1.400  1.00  0.00    -0.259 N 
ATOM     27  H1  UNL     1       2.840  -0.786   2.376  1.00  0.00     0.190 HD
BRANCH  26  28
HETATM   28  N2  UNL     1       4.355  -1.418   1.107  1.00  0.00    -0.247 N 
HETATM   29  C16 UNL     1       5.238  -0.721   0.261  1.00  0.00     0.354 C 
HETATM   30  O7  UNL     1       4.837   0.366  -0.248  1.00  0.00    -0.244 OA
HETATM   31  N3  UNL     1       6.547  -1.152  -0.064  1.00  0.00    -0.239 N 
ATOM     32  H3  UNL     1       6.906  -2.019   0.335  1.00  0.00     0.192 HD
ATOM     33  H2  UNL     1       4.670  -2.294   1.524  1.00  0.00     0.192 HD
BRANCH  31  34
HETATM   34  N4  UNL     1       7.338  -0.416  -0.910  1.00  0.00    -0.200 N 
ATOM     35  H4  UNL     1       7.177  -0.358  -1.916  1.00  0.00     0.202 HD
BRANCH  34  36
HETATM   36  S2  UNL     1       8.613   0.392  -0.122  1.00  0.00     0.384 S 
HETATM   37  O8  UNL     1       8.850   1.702  -0.846  1.00  0.00    -0.174 OA
HETATM   38  O9  UNL     1       8.288   0.731   1.323  1.00  0.00    -0.174 OA
BRANCH  36  39
HETATM   39  O10 UNL     1      10.024  -0.541  -0.226  1.00  0.00    -0.163 OA
BRANCH  39  40
HETATM   40  C17 UNL     1      10.798  -0.684   0.934  1.00  0.00     0.388 C 
HETATM   41  N5  UNL     1      11.984  -1.470   0.818  1.00  0.00    -0.031 NA
HETATM   42  O11 UNL     1      10.478  -0.155   2.027  1.00  0.00    -0.241 OA
ENDBRANCH  39  40
ENDBRANCH  36  39
ENDBRANCH  34  36
ENDBRANCH  31  34
ENDBRANCH  26  28
ENDBRANCH  22  24
ENDBRANCH   2  22
TORSDOF 14
