REMARK  15 active torsions:
REMARK  status: ('A' for Active; 'I' for Inactive)
REMARK    1  A    between atoms: C2_2  and  C3_3 
REMARK    2  A    between atoms: C8_8  and  O1_9 
REMARK    3  A    between atoms: O1_9  and  C9_10 
REMARK    4  A    between atoms: C10_11  and  N1_12 
REMARK    5  A    between atoms: C11_16  and  O2_17 
REMARK    6  A    between atoms: O2_17  and  C12_18 
REMARK    7  A    between atoms: C12_18  and  C13_19 
REMARK    8  A    between atoms: C13_19  and  N2_20 
REMARK    9  A    between atoms: C13_19  and  C14_24 
REMARK       I    between atoms: C14_24  and  N3_26 
REMARK   10  A    between atoms: N3_26  and  C15_28 
REMARK   11  A    between atoms: C21_34  and  O4_35 
REMARK   12  A    between atoms: C22_37  and  O5_38 
REMARK   13  A    between atoms: C23_40  and  O6_41 
REMARK   14  A    between atoms: C24_43  and  O7_44 
REMARK   15  A    between atoms: C25_46  and  O8_47 
ROOT
HETATM    1  C9  UNL     1      -1.631   0.524   0.627  1.00  0.00     0.186 C 
HETATM    2  C10 UNL     1      -0.620  -0.032  -0.304  1.00  0.00     0.246 C 
HETATM    3  C11 UNL     1       0.555   0.991  -0.430  1.00  0.00     0.185 C 
HETATM    4  C21 UNL     1      -0.062   2.079  -1.319  1.00  0.00     0.180 C 
HETATM    5  C22 UNL     1      -1.171   2.709  -0.542  1.00  0.00     0.180 C 
HETATM    6  C23 UNL     1      -1.510   2.031   0.752  1.00  0.00     0.180 C 
ENDROOT
BRANCH   3   7
HETATM    7  O2  UNL     1       1.639   0.417  -0.961  1.00  0.00    -0.378 OA
BRANCH   7   8
HETATM    8  C12 UNL     1       2.816   0.309  -0.310  1.00  0.00     0.211 C 
BRANCH   8   9
HETATM    9  C13 UNL     1       3.564   1.533   0.081  1.00  0.00     0.298 C 
BRANCH   9  10
HETATM   10  N2  UNL     1       2.879   2.394   1.005  1.00  0.00    -0.064 N 
ATOM     11  H23 UNL     1       1.961   2.645   0.638  1.00  0.00     0.275 HD
ATOM     12  H22 UNL     1       2.602   1.870   1.835  1.00  0.00     0.275 HD
ATOM     13  H21 UNL     1       3.392   3.234   1.273  1.00  0.00     0.275 HD
ENDBRANCH   9  10
BRANCH   9  14
HETATM   14  C14 UNL     1       4.895   1.193   0.695  1.00  0.00     0.250 C 
HETATM   15  O3  UNL     1       5.199   1.624   1.808  1.00  0.00    -0.271 OA
HETATM   16  N3  UNL     1       5.773   0.368  -0.050  1.00  0.00    -0.355 N 
ATOM     17  H3  UNL     1       5.480   0.033  -0.968  1.00  0.00     0.162 HD
BRANCH  16  18
HETATM   18  C15 UNL     1       7.076  -0.013   0.457  1.00  0.00     0.084 C 
HETATM   19  C16 UNL     1       7.096  -1.510   0.570  1.00  0.00     0.025 C 
HETATM   20  C17 UNL     1       8.423  -2.070   0.980  1.00  0.00     0.002 C 
HETATM   21  C18 UNL     1       9.583  -1.300   0.409  1.00  0.00     0.000 C 
HETATM   22  C19 UNL     1       9.162  -0.551  -0.833  1.00  0.00     0.002 C 
HETATM   23  C20 UNL     1       8.140   0.503  -0.481  1.00  0.00     0.025 C 
ENDBRANCH  16  18
ENDBRANCH   9  14
ENDBRANCH   8   9
ENDBRANCH   7   8
ENDBRANCH   3   7
BRANCH   2  24
HETATM   24  N1  UNL     1      -1.031  -0.319  -1.632  1.00  0.00    -0.070 N 
ATOM     25  H13 UNL     1      -1.841  -0.939  -1.606  1.00  0.00     0.274 HD
ATOM     26  H12 UNL     1      -1.443   0.518  -2.044  1.00  0.00     0.274 HD
ATOM     27  H11 UNL     1      -0.335  -0.702  -2.273  1.00  0.00     0.274 HD
ENDBRANCH   2  24
BRANCH   4  28
HETATM   28  O4  UNL     1       0.856   2.988  -1.785  1.00  0.00    -0.390 OA
ATOM     29  H4  UNL     1       0.474   3.662  -2.335  1.00  0.00     0.210 HD
ENDBRANCH   4  28
BRANCH   1  30
HETATM   30  O1  UNL     1      -2.948   0.239   0.367  1.00  0.00    -0.373 OA
BRANCH  30  31
HETATM   31  C8  UNL     1      -3.633  -0.433   1.369  1.00  0.00     0.153 C 
HETATM   32  C7  UNL     1      -4.764   0.303   1.967  1.00  0.00     0.034 C 
HETATM   33  C6  UNL     1      -5.816  -0.587   2.542  1.00  0.00     0.002 C 
HETATM   34  C5  UNL     1      -6.762  -1.204   1.582  1.00  0.00     0.001 C 
HETATM   35  C4  UNL     1      -6.814  -0.608   0.226  1.00  0.00     0.007 C 
HETATM   36  C3  UNL     1      -5.684  -0.928  -0.677  1.00  0.00     0.017 C 
HETATM   37  C25 UNL     1      -4.781  -2.027  -0.235  1.00  0.00     0.153 C 
HETATM   38  C24 UNL     1      -3.923  -1.823   0.913  1.00  0.00     0.176 C 
BRANCH  36  39
HETATM   39  C2  UNL     1      -6.260  -1.387  -2.012  1.00  0.00     0.002 C 
HETATM   40  C1  UNL     1      -7.109  -0.348  -2.668  1.00  0.00     0.005 C 
ENDBRANCH  36  39
BRANCH  37  41
HETATM   41  O8  UNL     1      -4.045  -2.406  -1.362  1.00  0.00    -0.393 OA
ATOM     42  H8  UNL     1      -3.469  -3.107  -1.080  1.00  0.00     0.210 HD
ENDBRANCH  37  41
BRANCH  38  43
HETATM   43  O7  UNL     1      -2.666  -2.422   0.676  1.00  0.00    -0.390 OA
ATOM     44  H7  UNL     1      -2.851  -3.307   0.386  1.00  0.00     0.210 HD
ENDBRANCH  38  43
ENDBRANCH  30  31
ENDBRANCH   1  30
BRANCH   5  45
HETATM   45  O5  UNL     1      -0.809   4.029  -0.286  1.00  0.00    -0.390 OA
ATOM     46  H5  UNL     1      -1.514   4.430   0.208  1.00  0.00     0.210 HD
ENDBRANCH   5  45
BRANCH   6  47
HETATM   47  O6  UNL     1      -2.754   2.547   1.140  1.00  0.00    -0.390 OA
ATOM     48  H6  UNL     1      -2.678   3.491   1.218  1.00  0.00     0.210 HD
ENDBRANCH   6  47
TORSDOF 15
