REMARK  4 active torsions:
REMARK  status: ('A' for Active; 'I' for Inactive)
REMARK    1  A    between atoms: C8_8  and  N1_9 
REMARK       I    between atoms: N1_9  and  C9_11 
REMARK    2  A    between atoms: C13_17  and  O2_18 
REMARK    3  A    between atoms: C15_21  and  C16_22 
REMARK    4  A    between atoms: C21_27  and  O3_28 
ROOT
HETATM    1  C1  UNL     1      -3.135  -1.164   0.817  1.00  0.00     0.018 C 
HETATM    2  C2  UNL     1      -2.583  -0.182  -0.157  1.00  0.00    -0.010 C 
HETATM    3  C3  UNL     1      -3.049  -0.877  -1.356  1.00  0.00     0.012 C 
HETATM    4  C4  UNL     1      -2.151  -2.110  -1.542  1.00  0.00     0.001 C 
HETATM    5  C5  UNL     1      -0.879  -2.304  -0.804  1.00  0.00     0.005 C 
HETATM    6  C6  UNL     1      -0.568  -1.189   0.153  1.00  0.00    -0.003 C 
HETATM    7  C7  UNL     1       0.711  -0.857   0.717  1.00  0.00     0.021 C 
HETATM    8  C8  UNL     1       1.904  -0.776  -0.140  1.00  0.00     0.091 C 
HETATM    9  C10 UNL     1       2.587   0.534  -0.277  1.00  0.00     0.037 C 
HETATM   10  C11 UNL     1       1.814   1.757  -0.025  1.00  0.00    -0.011 C 
HETATM   11  C12 UNL     1       2.603   2.794   0.778  1.00  0.00     0.018 C 
HETATM   12  C13 UNL     1       1.457   2.468  -1.343  1.00  0.00     0.127 C 
HETATM   13  C14 UNL     1       0.335   1.599  -1.786  1.00  0.00     0.038 C 
HETATM   14  C15 UNL     1      -0.527   1.304  -0.536  1.00  0.00    -0.001 C 
HETATM   15  C16 UNL     1      -1.152  -0.041  -0.531  1.00  0.00     0.005 C 
HETATM   16  C17 UNL     1       0.466   1.605   0.540  1.00  0.00     0.009 C 
HETATM   17  C18 UNL     1       0.403   0.459   1.478  1.00  0.00     0.019 C 
HETATM   18  C19 UNL     1      -0.900   0.531   2.152  1.00  0.00    -0.023 C 
HETATM   19  C20 UNL     1      -2.076   1.228   1.712  1.00  0.00     0.002 C 
HETATM   20  C21 UNL     1      -2.933   1.035   0.507  1.00  0.00     0.149 C 
ENDROOT
BRANCH   8  21
HETATM   21  N1  UNL     1       2.970  -1.708   0.292  1.00  0.00    -0.340 N 
HETATM   22  C9  UNL     1       3.421  -2.793  -0.453  1.00  0.00     0.329 C 
HETATM   23  N2  UNL     1       4.454  -3.611   0.078  1.00  0.00    -0.040 NA
HETATM   24  O1  UNL     1       2.934  -3.057  -1.578  1.00  0.00    -0.251 OA
ATOM     25  H1  UNL     1       3.405  -1.543   1.200  1.00  0.00     0.164 HD
ENDBRANCH   8  21
BRANCH  12  26
HETATM   26  O2  UNL     1       2.498   2.418  -2.235  1.00  0.00    -0.395 OA
ATOM     27  H2  UNL     1       2.278   2.857  -3.048  1.00  0.00     0.210 HD
ENDBRANCH  12  26
BRANCH  20  28
HETATM   28  O3  UNL     1      -4.321   0.954   0.887  1.00  0.00    -0.391 OA
ATOM     29  H3  UNL     1      -4.554   1.763   1.328  1.00  0.00     0.210 HD
ENDBRANCH  20  28
TORSDOF 4
