REMARK  7 active torsions:
REMARK  status: ('A' for Active; 'I' for Inactive)
REMARK    1  A    between atoms: C1_2  and  N1_3 
REMARK    2  A    between atoms: C1_2  and  N4_22 
REMARK    3  A    between atoms: N1_3  and  N2_5 
REMARK    4  A    between atoms: N2_5  and  C2_7 
REMARK    5  A    between atoms: C2_7  and  N3_9 
REMARK    6  A    between atoms: N3_9  and  C3_11 
REMARK    7  A    between atoms: N4_22  and  C13_24 
ROOT
HETATM    1  C2  UNL     1      -0.001   0.911   0.902  1.00  0.00     0.186 C 
HETATM    2  S2  UNL     1       1.044   1.938   1.634  1.00  0.00    -0.040 SA
ENDROOT
BRANCH   1   3
HETATM    3  N2  UNL     1       0.373   0.326  -0.320  1.00  0.00    -0.274 N 
ATOM      4  H2  UNL     1      -0.265  -0.320  -0.786  1.00  0.00     0.189 HD
BRANCH   3   5
HETATM    5  N1  UNL     1       1.609   0.619  -0.904  1.00  0.00    -0.274 N 
ATOM      6  H1  UNL     1       1.672   1.248  -1.705  1.00  0.00     0.189 HD
BRANCH   5   7
HETATM    7  C1  UNL     1       2.770   0.023  -0.359  1.00  0.00     0.186 C 
HETATM    8  S1  UNL     1       2.637  -0.985   0.911  1.00  0.00    -0.040 SA
BRANCH   7   9
HETATM    9  N4  UNL     1       4.032   0.292  -0.918  1.00  0.00    -0.361 N 
ATOM     10  H4  UNL     1       4.105   0.916  -1.721  1.00  0.00     0.162 HD
BRANCH   9  11
HETATM   11  C13 UNL     1       5.213  -0.299  -0.374  1.00  0.00     0.083 C 
HETATM   12  C14 UNL     1       6.450   0.045  -1.191  1.00  0.00     0.025 C 
HETATM   13  C15 UNL     1       7.559  -0.325  -0.236  1.00  0.00     0.002 C 
HETATM   14  C16 UNL     1       7.002  -0.124   1.153  1.00  0.00     0.002 C 
HETATM   15  C17 UNL     1       5.578   0.402   0.945  1.00  0.00     0.025 C 
ENDBRANCH   9  11
ENDBRANCH   7   9
ENDBRANCH   5   7
ENDBRANCH   3   5
ENDBRANCH   1   3
BRANCH   1  16
HETATM   16  N3  UNL     1      -1.243   0.633   1.499  1.00  0.00    -0.361 N 
ATOM     17  H3  UNL     1      -1.464   1.066   2.396  1.00  0.00     0.162 HD
BRANCH  16  18
HETATM   18  C3  UNL     1      -2.219  -0.244   0.889  1.00  0.00     0.090 C 
HETATM   19  C4  UNL     1      -3.234  -0.685   1.890  1.00  0.00     0.057 C 
HETATM   20  C5  UNL     1      -4.611  -0.945   1.414  1.00  0.00     0.124 C 
HETATM   21  C6  UNL     1      -4.705  -1.722   0.141  1.00  0.00     0.037 C 
HETATM   22  O1  UNL     1      -5.425   0.189   1.422  1.00  0.00    -0.381 OA
HETATM   23  C7  UNL     1      -4.696  -0.937  -1.117  1.00  0.00    -0.009 C 
HETATM   24  C8  UNL     1      -5.622   0.247  -0.973  1.00  0.00     0.036 C 
HETATM   25  C12 UNL     1      -3.292  -0.440  -1.366  1.00  0.00     0.011 C 
HETATM   26  C9  UNL     1      -5.246   0.956   0.279  1.00  0.00     0.122 C 
HETATM   27  C10 UNL     1      -3.853   1.459   0.209  1.00  0.00     0.038 C 
HETATM   28  C11 UNL     1      -2.827   0.496  -0.280  1.00  0.00     0.011 C 
ENDBRANCH  16  18
ENDBRANCH   1  16
TORSDOF 7
