REMARK  2 active torsions:
REMARK  status: ('A' for Active; 'I' for Inactive)
REMARK    1  A    between atoms: C10_16  and  N4_17 
REMARK       I    between atoms: N4_17  and  C11_18 
REMARK       I    between atoms: C11_18  and  N5_20 
REMARK    2  A    between atoms: N5_20  and  C12_22 
ROOT
HETATM    1  C1  UNL     1      -1.867  -0.441   2.720  1.00  0.00     0.035 C 
HETATM    2  C2  UNL     1      -2.746   0.299   1.760  1.00  0.00     0.082 C 
HETATM    3  C3  UNL     1      -2.784   1.728   2.025  1.00  0.00     0.072 C 
HETATM    4  N1  UNL     1      -2.799   2.891   2.225  1.00  0.00    -0.196 NA
HETATM    5  C4  UNL     1      -4.175  -0.241   2.009  1.00  0.00     0.062 C 
HETATM    6  C5  UNL     1      -4.550  -0.831   0.675  1.00  0.00    -0.066 C 
HETATM    7  C6  UNL     1      -5.534  -0.955  -0.138  1.00  0.00    -0.004 C 
HETATM    8  C7  UNL     1      -5.561  -1.634  -1.463  1.00  0.00     0.148 C 
HETATM    9  N2  UNL     1      -4.223  -1.929  -1.926  1.00  0.00    -0.376 N 
ATOM     10  H2  UNL     1      -4.009  -1.981  -2.922  1.00  0.00     0.161 HD
HETATM   11  C8  UNL     1      -3.204  -2.147  -0.932  1.00  0.00     0.082 C 
HETATM   12  N3  UNL     1      -2.295  -3.037  -1.158  1.00  0.00    -0.388 N 
ATOM     13  H31 UNL     1      -1.573  -3.191  -0.454  1.00  0.00     0.157 HD
ATOM     14  H32 UNL     1      -2.314  -3.546  -2.042  1.00  0.00     0.157 HD
HETATM   15  C9  UNL     1      -3.177  -1.430   0.312  1.00  0.00     0.119 C 
HETATM   16  C10 UNL     1      -2.503  -0.049   0.325  1.00  0.00     0.206 C 
ENDROOT
BRANCH  16  17
HETATM   17  N4  UNL     1      -1.256   0.005  -0.202  1.00  0.00    -0.388 NA
HETATM   18  C11 UNL     1       0.010   0.060  -0.738  1.00  0.00     0.389 C 
HETATM   19  O1  UNL     1       0.382  -0.561  -1.761  1.00  0.00    -0.231 OA
HETATM   20  N5  UNL     1       1.062   0.849  -0.151  1.00  0.00    -0.322 N 
ATOM     21  H5  UNL     1       0.806   1.408   0.663  1.00  0.00     0.166 HD
BRANCH  20  22
HETATM   22  C12 UNL     1       2.409   0.939  -0.573  1.00  0.00     0.040 C 
HETATM   23  C13 UNL     1       3.158   2.012   0.205  1.00  0.00     0.036 C 
HETATM   24  C14 UNL     1       4.451   1.555   0.745  1.00  0.00    -0.007 C 
HETATM   25  C15 UNL     1       4.198   0.301   1.606  1.00  0.00     0.010 C 
HETATM   26  C17 UNL     1       5.253   0.663  -0.151  1.00  0.00    -0.005 C 
HETATM   27  C16 UNL     1       4.331  -0.451   0.324  1.00  0.00    -0.003 C 
HETATM   28  C21 UNL     1       3.183  -0.361  -0.610  1.00  0.00     0.022 C 
HETATM   29  C19 UNL     1       3.765   0.069  -1.922  1.00  0.00    -0.005 C 
HETATM   30  C18 UNL     1       5.079   0.746  -1.619  1.00  0.00     0.010 C 
HETATM   31  C20 UNL     1       2.670   1.124  -2.024  1.00  0.00     0.036 C 
ENDBRANCH  20  22
ENDBRANCH  16  17
TORSDOF 2
