REMARK  3 active torsions:
REMARK  status: ('A' for Active; 'I' for Inactive)
REMARK    1  A    between atoms: C2_2  and  C3_3 
REMARK    2  A    between atoms: C8_13  and  O3_14 
REMARK    3  A    between atoms: C11_18  and  C12_19 
ROOT
HETATM    1  C1  UNL     1       4.413   0.554  -1.682  1.00  0.00     0.027 C 
HETATM    2  C2  UNL     1       3.946  -0.233  -0.473  1.00  0.00     0.049 C 
HETATM    3  C4  UNL     1       4.361   0.406   0.813  1.00  0.00     0.021 C 
HETATM    4  C5  UNL     1       3.211   0.247   1.783  1.00  0.00     0.008 C 
HETATM    5  C6  UNL     1       2.209  -0.654   1.062  1.00  0.00     0.022 C 
HETATM    6  C7  UNL     1       0.834  -0.292   1.540  1.00  0.00     0.203 C 
HETATM    7  N1  UNL     1       0.128  -1.221   2.345  1.00  0.00    -0.037 N 
ATOM      8  H11 UNL     1       0.030  -1.057   3.347  1.00  0.00     0.281 HD
ATOM      9  H12 UNL     1       0.528  -2.140   2.535  1.00  0.00     0.281 HD
HETATM   10  C8  UNL     1      -1.029  -1.097   1.470  1.00  0.00     0.231 C 
HETATM   11  C9  UNL     1      -1.995  -0.010   1.803  1.00  0.00     0.075 C 
HETATM   12  C10 UNL     1      -2.764   0.514   0.641  1.00  0.00     0.011 C 
HETATM   13  C11 UNL     1      -3.926  -0.344   0.230  1.00  0.00     0.080 C 
HETATM   14  C13 UNL     1      -3.812  -0.541  -1.275  1.00  0.00     0.015 C 
HETATM   15  C14 UNL     1      -2.354  -0.317  -1.591  1.00  0.00     0.011 C 
HETATM   16  C15 UNL     1      -1.940   0.721  -0.606  1.00  0.00    -0.035 C 
HETATM   17  C16 UNL     1      -2.262   2.082  -1.196  1.00  0.00     0.016 C 
HETATM   18  C17 UNL     1      -0.505   0.680  -0.229  1.00  0.00     0.005 C 
HETATM   19  C18 UNL     1       0.451   0.888  -1.384  1.00  0.00     0.006 C 
HETATM   20  C19 UNL     1       1.834   1.051  -0.735  1.00  0.00     0.007 C 
HETATM   21  C20 UNL     1       2.444  -0.278  -0.377  1.00  0.00     0.010 C 
HETATM   22  C21 UNL     1      -0.120  -0.635   0.396  1.00  0.00     0.085 C 
ENDROOT
BRANCH   2  23
HETATM   23  C3  UNL     1       4.498  -1.627  -0.512  1.00  0.00     0.181 C 
HETATM   24  O1  UNL     1       3.778  -2.653  -0.583  1.00  0.00    -0.647 OA
HETATM   25  O2  UNL     1       5.871  -1.834  -0.469  1.00  0.00    -0.647 OA
ENDBRANCH   2  23
BRANCH  10  26
HETATM   26  O3  UNL     1      -1.630  -2.353   1.240  1.00  0.00    -0.364 OA
ATOM     27  H3  UNL     1      -2.385  -2.272   0.669  1.00  0.00     0.212 HD
ENDBRANCH  10  26
BRANCH  13  28
HETATM   28  C12 UNL     1      -5.234   0.314   0.472  1.00  0.00     0.235 C 
HETATM   29  N2  UNL     1      -6.410  -0.386   0.128  1.00  0.00    -0.062 NA
HETATM   30  O4  UNL     1      -5.325   1.473   0.971  1.00  0.00    -0.276 OA
ENDBRANCH  13  28
TORSDOF 3
