REMARK  5 active torsions:
REMARK  status: ('A' for Active; 'I' for Inactive)
REMARK    1  A    between atoms: C11_11  and  O1_12 
REMARK    2  A    between atoms: C12_14  and  C13_15 
REMARK    3  A    between atoms: C18_22  and  C19_23 
REMARK    4  A    between atoms: C19_23  and  C20_24 
REMARK    5  A    between atoms: C20_24  and  N2_25 
ROOT
HETATM    1  C1  UNL     1      -2.603  -0.197  -2.081  1.00  0.00     0.025 C 
HETATM    2  C2  UNL     1      -2.366   0.168  -0.600  1.00  0.00     0.011 C 
HETATM    3  C3  UNL     1      -1.198   1.043  -0.534  1.00  0.00    -0.016 C 
HETATM    4  C4  UNL     1      -0.008   0.764   0.269  1.00  0.00    -0.024 C 
HETATM    5  C5  UNL     1       0.718  -0.471   0.257  1.00  0.00     0.024 C 
HETATM    6  C6  UNL     1       0.112  -1.597  -0.624  1.00  0.00     0.017 C 
HETATM    7  C7  UNL     1      -1.157  -1.916   0.065  1.00  0.00    -0.018 C 
HETATM    8  C8  UNL     1      -2.223  -1.150   0.073  1.00  0.00    -0.070 C 
HETATM    9  C9  UNL     1      -3.354  -1.694   0.851  1.00  0.00     0.037 C 
HETATM   10  C10 UNL     1      -3.692  -0.655   1.914  1.00  0.00     0.037 C 
HETATM   11  C11 UNL     1      -3.835   0.734   1.359  1.00  0.00     0.132 C 
HETATM   12  C12 UNL     1      -3.680   0.739  -0.133  1.00  0.00     0.119 C 
HETATM   13  C14 UNL     1       1.138  -2.688  -0.610  1.00  0.00     0.014 C 
HETATM   14  C15 UNL     1       2.250  -2.118   0.114  1.00  0.00    -0.005 C 
HETATM   15  C16 UNL     1       3.635  -2.335  -0.288  1.00  0.00     0.006 C 
HETATM   16  C17 UNL     1       4.309  -1.169   0.426  1.00  0.00     0.006 C 
HETATM   17  C18 UNL     1       3.200  -0.158   0.714  1.00  0.00    -0.004 C 
HETATM   18  C21 UNL     1       2.116  -0.590  -0.171  1.00  0.00    -0.029 C 
HETATM   19  C22 UNL     1       2.292  -0.337  -1.634  1.00  0.00     0.016 C 
ENDROOT
BRANCH  17  20
HETATM   20  C19 UNL     1       3.651   1.229   0.747  1.00  0.00     0.032 C 
BRANCH  20  21
HETATM   21  C20 UNL     1       4.273   1.844  -0.437  1.00  0.00     0.230 C 
BRANCH  21  22
HETATM   22  N2  UNL     1       4.622   3.234  -0.080  1.00  0.00    -0.079 N 
ATOM     23  H23 UNL     1       3.827   3.766   0.274  1.00  0.00     0.274 HD
ATOM     24  H22 UNL     1       5.205   3.297   0.754  1.00  0.00     0.274 HD
ATOM     25  H21 UNL     1       5.053   3.660  -0.900  1.00  0.00     0.274 HD
ENDBRANCH  21  22
ENDBRANCH  20  21
ENDBRANCH  17  20
BRANCH  12  26
HETATM   26  C13 UNL     1      -4.074   1.982  -0.794  1.00  0.00     0.239 C 
HETATM   27  N1  UNL     1      -5.188   2.763  -0.477  1.00  0.00    -0.062 NA
HETATM   28  O2  UNL     1      -3.344   2.400  -1.749  1.00  0.00    -0.276 OA
ENDBRANCH  12  26
BRANCH  11  29
HETATM   29  O1  UNL     1      -3.014   1.658   1.996  1.00  0.00    -0.395 OA
ATOM     30  H1  UNL     1      -3.104   2.536   1.645  1.00  0.00     0.210 HD
ENDBRANCH  11  29
TORSDOF 5
