REMARK  4 active torsions:
REMARK  status: ('A' for Active; 'I' for Inactive)
REMARK    1  A    between atoms: C2_2  and  C4_4 
REMARK    2  A    between atoms: C14_14  and  C15_15 
REMARK    3  A    between atoms: C16_18  and  O3_19 
REMARK    4  A    between atoms: C17_21  and  O4_22 
ROOT
HETATM    1  C4  UNL     1       3.500   1.035   0.382  1.00  0.00     0.017 C 
HETATM    2  C5  UNL     1       2.639   0.728   1.538  1.00  0.00     0.036 C 
HETATM    3  C6  UNL     1       1.352   0.074   1.254  1.00  0.00    -0.022 C 
HETATM    4  C7  UNL     1       0.780  -0.029   0.068  1.00  0.00    -0.070 C 
HETATM    5  C8  UNL     1       1.515   0.574  -1.067  1.00  0.00     0.016 C 
HETATM    6  C9  UNL     1       1.169  -0.067  -2.390  1.00  0.00     0.009 C 
HETATM    7  C10 UNL     1      -0.315   0.002  -2.511  1.00  0.00     0.006 C 
HETATM    8  C11 UNL     1      -0.928  -0.945  -1.504  1.00  0.00    -0.002 C 
HETATM    9  C12 UNL     1      -2.409  -0.899  -1.788  1.00  0.00     0.007 C 
HETATM   10  C13 UNL     1      -3.286  -1.210  -0.637  1.00  0.00     0.024 C 
HETATM   11  C14 UNL     1      -2.963  -0.416   0.593  1.00  0.00     0.081 C 
HETATM   12  C16 UNL     1      -3.724   0.916   0.550  1.00  0.00     0.166 C 
HETATM   13  C17 UNL     1      -2.796   1.879   1.306  1.00  0.00     0.148 C 
HETATM   14  C18 UNL     1      -1.468   1.466   0.702  1.00  0.00     0.041 C 
HETATM   15  C19 UNL     1      -1.549  -0.034   0.772  1.00  0.00     0.022 C 
HETATM   16  C20 UNL     1      -0.547  -0.733  -0.096  1.00  0.00    -0.012 C 
HETATM   17  C21 UNL     1      -0.340  -2.120   0.544  1.00  0.00     0.021 C 
HETATM   18  C22 UNL     1       3.013   0.428  -0.911  1.00  0.00     0.018 C 
ENDROOT
BRANCH   1  19
HETATM   19  C2  UNL     1       4.871   0.494   0.602  1.00  0.00    -0.089 C 
HETATM   20  C1  UNL     1       5.945   1.238   0.694  1.00  0.00     0.014 C 
HETATM   21  C3  UNL     1       5.018  -0.990   0.725  1.00  0.00     0.043 C 
ENDBRANCH   1  19
BRANCH  11  22
HETATM   22  C15 UNL     1      -3.528  -1.164   1.751  1.00  0.00     0.185 C 
HETATM   23  O1  UNL     1      -2.825  -1.572   2.708  1.00  0.00    -0.647 OA
HETATM   24  O2  UNL     1      -4.889  -1.431   1.791  1.00  0.00    -0.647 OA
ENDBRANCH  11  22
BRANCH  12  25
HETATM   25  O3  UNL     1      -4.970   0.842   1.122  1.00  0.00    -0.392 OA
ATOM     26  H3  UNL     1      -5.441   1.667   1.095  1.00  0.00     0.210 HD
ENDBRANCH  12  25
BRANCH  13  27
HETATM   27  O4  UNL     1      -3.080   3.170   0.919  1.00  0.00    -0.393 OA
ATOM     28  H4  UNL     1      -2.506   3.766   1.386  1.00  0.00     0.210 HD
ENDBRANCH  13  27
TORSDOF 4
