REMARK  16 active torsions:
REMARK  status: ('A' for Active; 'I' for Inactive)
REMARK    1  A    between atoms: C2_2  and  O1_3 
REMARK    2  A    between atoms: C2_2  and  C3_5 
REMARK    3  A    between atoms: C3_5  and  O2_6 
REMARK    4  A    between atoms: C3_5  and  C4_8 
REMARK    5  A    between atoms: C4_8  and  O3_9 
REMARK    6  A    between atoms: C4_8  and  C5_11 
REMARK    7  A    between atoms: C5_11  and  O4_12 
REMARK    8  A    between atoms: C5_11  and  C6_14 
REMARK    9  A    between atoms: C6_14  and  N1_15 
REMARK   10  A    between atoms: C8_19  and  N3_20 
REMARK   11  A    between atoms: C10_22  and  C11_23 
REMARK   12  A    between atoms: C13_25  and  O5_26 
REMARK   13  A    between atoms: C14_28  and  O6_29 
REMARK   14  A    between atoms: C15_31  and  O7_32 
REMARK   15  A    between atoms: C17_40  and  N7_41 
REMARK       I    between atoms: N8_47  and  C20_48 
REMARK       I    between atoms: C20_48  and  N9_50 
REMARK   16  A    between atoms: N9_50  and  N10_52 
ROOT
HETATM    1  N1  UNL     1      -2.041   2.251  -0.276  1.00  0.00    -0.259 N 
HETATM    2  C7  UNL     1      -0.745   2.024   0.013  1.00  0.00     0.158 A 
HETATM    3  N2  UNL     1       0.204   1.136  -0.409  1.00  0.00    -0.172 N 
ATOM      4  H2  UNL     1      -0.070   0.440  -1.103  1.00  0.00     0.186 HD
HETATM    5  C8  UNL     1       1.459   1.118   0.023  1.00  0.00     0.705 A 
HETATM    6  N6  UNL     1       1.856   2.015   0.933  1.00  0.00    -0.174 N 
ATOM      7  H6  UNL     1       2.816   2.017   1.278  1.00  0.00     0.186 HD
HETATM    8  C17 UNL     1       0.954   2.924   1.388  1.00  0.00     0.134 A 
HETATM    9  C18 UNL     1      -0.341   2.945   0.943  1.00  0.00     0.124 A 
HETATM   10  C19 UNL     1      -1.449   3.736   1.202  1.00  0.00     0.288 A 
HETATM   11  O8  UNL     1      -1.433   4.687   2.015  1.00  0.00    -0.265 OA
HETATM   12  N8  UNL     1      -2.475   3.293   0.445  1.00  0.00    -0.162 N 
HETATM   13  C20 UNL     1      -3.746   3.911   0.447  1.00  0.00     0.363 C 
HETATM   14  O9  UNL     1      -4.624   3.462  -0.353  1.00  0.00    -0.243 OA
HETATM   15  N9  UNL     1      -4.147   4.984   1.251  1.00  0.00    -0.256 N 
ATOM     16  H9  UNL     1      -3.497   5.399   1.919  1.00  0.00     0.191 HD
ENDROOT
BRANCH   5  17
HETATM   17  N3  UNL     1       2.422   0.161  -0.452  1.00  0.00    -0.079 N 
HETATM   18  C9  UNL     1       3.593  -0.196   0.064  1.00  0.00     0.164 A 
HETATM   19  C10 UNL     1       4.188  -1.155  -0.728  1.00  0.00     0.074 A 
HETATM   20  N4  UNL     1       3.326  -1.355  -1.738  1.00  0.00    -0.281 N 
HETATM   21  N5  UNL     1       2.267  -0.552  -1.554  1.00  0.00    -0.000 NA
ATOM     22  H4  UNL     1       3.454  -2.006  -2.513  1.00  0.00     0.184 HD
BRANCH  19  23
HETATM   23  C11 UNL     1       5.470  -1.813  -0.526  1.00  0.00    -0.002 A 
HETATM   24  C12 UNL     1       5.924  -2.759  -1.421  1.00  0.00     0.053 A 
HETATM   25  C13 UNL     1       7.154  -3.396  -1.235  1.00  0.00     0.102 A 
HETATM   26  C14 UNL     1       7.928  -3.081  -0.144  1.00  0.00     0.132 A 
HETATM   27  C15 UNL     1       7.484  -2.136   0.757  1.00  0.00     0.102 A 
HETATM   28  C16 UNL     1       6.269  -1.521   0.552  1.00  0.00     0.053 A 
BRANCH  25  29
HETATM   29  O5  UNL     1       7.623  -4.342  -2.117  1.00  0.00    -0.358 OA
ATOM     30  H5  UNL     1       8.459  -4.775  -1.991  1.00  0.00     0.217 HD
ENDBRANCH  25  29
BRANCH  26  31
HETATM   31  O6  UNL     1       9.167  -3.721   0.045  1.00  0.00    -0.356 OA
ATOM     32  H6  UNL     1       9.702  -3.503   0.799  1.00  0.00     0.218 HD
ENDBRANCH  26  31
BRANCH  27  33
HETATM   33  O7  UNL     1       8.260  -1.820   1.850  1.00  0.00    -0.358 OA
ATOM     34  H7  UNL     1       7.954  -1.169   2.471  1.00  0.00     0.217 HD
ENDBRANCH  27  33
ENDBRANCH  19  23
ENDBRANCH   5  17
BRANCH   8  35
HETATM   35  N7  UNL     1       1.322   3.796   2.266  1.00  0.00    -0.384 N 
ATOM     36  H72 UNL     1       2.287   3.780   2.597  1.00  0.00     0.157 HD
ATOM     37  H71 UNL     1       0.645   4.478   2.607  1.00  0.00     0.157 HD
ENDBRANCH   8  35
BRANCH   1  38
HETATM   38  C6  UNL     1      -2.841   1.490  -1.187  1.00  0.00     0.186 C 
BRANCH  38  39
HETATM   39  C5  UNL     1      -3.650   0.374  -0.617  1.00  0.00     0.169 C 
BRANCH  39  40
HETATM   40  C4  UNL     1      -2.882  -0.723   0.062  1.00  0.00     0.179 C 
BRANCH  40  41
HETATM   41  C3  UNL     1      -3.753  -1.650   0.882  1.00  0.00     0.177 C 
BRANCH  41  42
HETATM   42  C2  UNL     1      -4.495  -2.592   0.003  1.00  0.00     0.145 C 
HETATM   43  C1  UNL     1      -5.244  -3.650   0.814  1.00  0.00     0.042 C 
BRANCH  42  44
HETATM   44  O1  UNL     1      -3.599  -3.215  -0.874  1.00  0.00    -0.393 OA
ATOM     45  H1  UNL     1      -3.134  -2.558  -1.378  1.00  0.00     0.210 HD
ENDBRANCH  42  44
ENDBRANCH  41  42
BRANCH  41  46
HETATM   46  O2  UNL     1      -4.533  -0.955   1.787  1.00  0.00    -0.390 OA
ATOM     47  H2  UNL     1      -4.059  -0.353   2.349  1.00  0.00     0.210 HD
ENDBRANCH  41  46
ENDBRANCH  40  41
BRANCH  40  48
HETATM   48  O3  UNL     1      -2.105  -1.408  -0.867  1.00  0.00    -0.390 OA
ATOM     49  H3  UNL     1      -1.558  -0.826  -1.382  1.00  0.00     0.210 HD
ENDBRANCH  40  48
ENDBRANCH  39  40
BRANCH  39  50
HETATM   50  O4  UNL     1      -4.480  -0.118  -1.655  1.00  0.00    -0.391 OA
ATOM     51  H4  UNL     1      -4.966   0.576  -2.085  1.00  0.00     0.210 HD
ENDBRANCH  39  50
ENDBRANCH  38  39
ENDBRANCH   1  38
BRANCH  15  52
HETATM   52  N10 UNL     1      -5.470   5.490   1.126  1.00  0.00    -0.341 N 
ATOM     53 2H10 UNL     1      -6.107   5.064   0.453  1.00  0.00     0.177 HD
ATOM     54 1H10 UNL     1      -5.762   6.272   1.712  1.00  0.00     0.177 HD
ENDBRANCH  15  52
TORSDOF 16
