REMARK  15 active torsions:
REMARK  status: ('A' for Active; 'I' for Inactive)
REMARK    1  A    between atoms: N1_1  and  N2_4 
REMARK       I    between atoms: N2_4  and  C1_6 
REMARK    2  A    between atoms: C1_6  and  C2_8 
REMARK    3  A    between atoms: C4_11  and  N4_12 
REMARK    4  A    between atoms: C6_16  and  C7_17 
REMARK       I    between atoms: C7_17  and  N6_19 
REMARK    5  A    between atoms: N6_19  and  C8_21 
REMARK    6  A    between atoms: C8_21  and  O3_22 
REMARK    7  A    between atoms: C8_21  and  C9_24 
REMARK    8  A    between atoms: C9_24  and  C10_25 
REMARK    9  A    between atoms: N7_27  and  C12_28 
REMARK   10  A    between atoms: C13_30  and  C14_31 
REMARK   11  A    between atoms: C14_31  and  O4_32 
REMARK   12  A    between atoms: C16_35  and  O5_36 
REMARK   13  A    between atoms: C17_44  and  O6_45 
REMARK   14  A    between atoms: C18_47  and  O7_48 
REMARK   15  A    between atoms: C19_50  and  O8_51 
ROOT
HETATM    1  N4  UNL     1      -4.449  -1.074   0.949  1.00  0.00    -0.192 N 
HETATM    2  N5  UNL     1      -4.091  -1.798   1.990  1.00  0.00    -0.288 N 
ATOM      3  H5  UNL     1      -4.738  -2.167   2.687  1.00  0.00     0.188 HD
HETATM    4  C5  UNL     1      -2.767  -1.985   2.011  1.00  0.00     0.146 A 
HETATM    5  C6  UNL     1      -2.267  -1.333   0.905  1.00  0.00     0.134 A 
HETATM    6  N10 UNL     1      -3.343  -0.799   0.301  1.00  0.00    -0.273 N 
ATOM      7  H10 UNL     1      -3.304  -0.248  -0.556  1.00  0.00     0.189 HD
ENDROOT
BRANCH   5   8
HETATM    8  C7  UNL     1      -0.865  -1.238   0.476  1.00  0.00     0.273 C 
HETATM    9  O2  UNL     1      -0.572  -0.602  -0.562  1.00  0.00    -0.266 OA
HETATM   10  N6  UNL     1       0.184  -1.851   1.207  1.00  0.00    -0.329 N 
ATOM     11  H6  UNL     1      -0.038  -2.373   2.055  1.00  0.00     0.165 HD
BRANCH  10  12
HETATM   12  C8  UNL     1       1.561  -1.754   0.779  1.00  0.00     0.226 C 
BRANCH  12  13
HETATM   13  O3  UNL     1       2.092  -3.008   0.446  1.00  0.00    -0.376 OA
ATOM     14  H3  UNL     1       2.997  -2.944   0.165  1.00  0.00     0.212 HD
ENDBRANCH  12  13
BRANCH  12  15
HETATM   15  C9  UNL     1       2.420  -1.048   1.805  1.00  0.00     0.113 C 
BRANCH  15  16
HETATM   16  C10 UNL     1       3.821  -0.972   1.324  1.00  0.00     0.048 A 
HETATM   17  C11 UNL     1       4.323   0.063   0.577  1.00  0.00     0.139 A 
HETATM   18  N7  UNL     1       5.624  -0.175   0.307  1.00  0.00    -0.270 N 
HETATM   19  N8  UNL     1       5.909  -1.324   0.873  1.00  0.00    -0.240 N 
HETATM   20  N9  UNL     1       4.843  -1.828   1.493  1.00  0.00    -0.289 N 
ATOM     21  H8  UNL     1       6.825  -1.772   0.842  1.00  0.00     0.208 HD
ATOM     22  H9  UNL     1       4.809  -2.709   2.006  1.00  0.00     0.188 HD
BRANCH  18  23
HETATM   23  C12 UNL     1       6.448   0.722  -0.461  1.00  0.00     0.199 C 
HETATM   24  S1  UNL     1       7.381   1.735   0.753  1.00  0.00    -0.132 SA
HETATM   25  C13 UNL     1       9.047   1.612  -0.008  1.00  0.00     0.075 C 
HETATM   26  C15 UNL     1       8.695   1.014  -1.350  1.00  0.00     0.052 C 
HETATM   27  C16 UNL     1       7.603   0.003  -1.145  1.00  0.00     0.154 C 
BRANCH  25  28
HETATM   28  C14 UNL     1       9.529   3.054  -0.176  1.00  0.00     0.179 C 
BRANCH  28  29
HETATM   29  O4  UNL     1      10.798   3.028  -0.753  1.00  0.00    -0.400 OA
ATOM     30  H4  UNL     1      11.097   3.924  -0.857  1.00  0.00     0.209 HD
ENDBRANCH  28  29
ENDBRANCH  25  28
BRANCH  27  31
HETATM   31  O5  UNL     1       8.047  -1.049  -0.364  1.00  0.00    -0.393 OA
ATOM     32  H5  UNL     1       8.768  -1.498  -0.791  1.00  0.00     0.210 HD
ENDBRANCH  27  31
ENDBRANCH  18  23
ENDBRANCH  15  16
ENDBRANCH  12  15
ENDBRANCH  10  12
ENDBRANCH   5   8
BRANCH   1  33
HETATM   33  C4  UNL     1      -5.795  -0.713   0.664  1.00  0.00     0.136 A 
HETATM   34  C3  UNL     1      -6.066   0.069  -0.439  1.00  0.00     0.098 A 
HETATM   35  C2  UNL     1      -7.376   0.474  -0.796  1.00  0.00     0.096 A 
HETATM   36  N3  UNL     1      -4.992   0.488  -1.254  1.00  0.00    -0.099 NA
HETATM   37  C19 UNL     1      -8.356   0.036   0.031  1.00  0.00     0.119 A 
HETATM   38  C18 UNL     1      -8.137  -0.758   1.162  1.00  0.00     0.136 A 
HETATM   39  C17 UNL     1      -6.845  -1.110   1.443  1.00  0.00     0.134 A 
BRANCH  35  40
HETATM   40  C1  UNL     1      -7.509   1.293  -1.979  1.00  0.00     0.274 C 
HETATM   41  N2  UNL     1      -8.693   1.787  -2.489  1.00  0.00    -0.272 N 
ATOM     42  H2  UNL     1      -9.569   1.574  -2.012  1.00  0.00     0.189 HD
HETATM   43  O1  UNL     1      -6.464   1.622  -2.657  1.00  0.00    -0.266 OA
BRANCH  41  44
HETATM   44  N1  UNL     1      -8.719   2.591  -3.671  1.00  0.00    -0.342 N 
ATOM     45  H12 UNL     1      -7.834   2.795  -4.136  1.00  0.00     0.176 HD
ATOM     46  H11 UNL     1      -9.594   2.956  -4.048  1.00  0.00     0.176 HD
ENDBRANCH  41  44
ENDBRANCH  35  40
BRANCH  37  47
HETATM   47  O8  UNL     1      -9.681   0.395  -0.256  1.00  0.00    -0.357 OA
ATOM     48  H8  UNL     1     -10.368   0.088   0.324  1.00  0.00     0.218 HD
ENDBRANCH  37  47
BRANCH  38  49
HETATM   49  O7  UNL     1      -9.222  -1.138   1.920  1.00  0.00    -0.356 OA
ATOM     50  H7  UNL     1     -10.119  -0.894   1.725  1.00  0.00     0.218 HD
ENDBRANCH  38  49
BRANCH  39  51
HETATM   51  O6  UNL     1      -6.554  -1.896   2.548  1.00  0.00    -0.356 OA
ATOM     52  H6  UNL     1      -7.284  -2.172   3.090  1.00  0.00     0.218 HD
ENDBRANCH  39  51
ENDBRANCH   1  33
TORSDOF 15
