REMARK  11 active torsions:
REMARK  status: ('A' for Active; 'I' for Inactive)
REMARK    1  A    between atoms: C1_2  and  C2_4 
REMARK    2  A    between atoms: C3_5  and  N2_6 
REMARK    3  A    between atoms: C3_5  and  C8_15 
REMARK    4  A    between atoms: C4_8  and  C5_10 
REMARK    5  A    between atoms: C5_10  and  C6_11 
REMARK    6  A    between atoms: C6_11  and  C7_12 
REMARK    7  A    between atoms: C7_12  and  O2_13 
REMARK    8  A    between atoms: C8_15  and  O3_16 
REMARK    9  A    between atoms: C8_15  and  C9_18 
REMARK   10  A    between atoms: C9_18  and  O4_19 
REMARK   11  A    between atoms: O4_19  and  N4_20 
ROOT
HETATM    1  C2  UNL     1      -1.777  -1.912   0.298  1.00  0.00     0.098 C 
HETATM    2  C3  UNL     1      -1.360  -0.818   0.831  1.00  0.00     0.046 C 
ENDROOT
BRANCH   2   3
HETATM    3  N2  UNL     1       0.066  -0.667   1.026  1.00  0.00    -0.349 N 
HETATM    4  C4  UNL     1       0.906  -0.747   0.078  1.00  0.00     0.093 C 
HETATM    5  N3  UNL     1       0.467  -0.995  -1.250  1.00  0.00    -0.088 NA
ATOM      6  H2  UNL     1       0.412  -0.488   1.969  1.00  0.00     0.166 HD
BRANCH   4   7
HETATM    7  C5  UNL     1       2.345  -0.581   0.365  1.00  0.00     0.075 C 
BRANCH   7   8
HETATM    8  C6  UNL     1       2.954   0.581  -0.382  1.00  0.00     0.033 C 
BRANCH   8   9
HETATM    9  C7  UNL     1       4.427   0.650  -0.007  1.00  0.00     0.164 C 
BRANCH   9  10
HETATM   10  O2  UNL     1       5.058   1.710  -0.667  1.00  0.00    -0.401 OA
ATOM     11  H2  UNL     1       5.978   1.753  -0.433  1.00  0.00     0.209 HD
ENDBRANCH   9  10
ENDBRANCH   8   9
ENDBRANCH   7   8
ENDBRANCH   4   7
ENDBRANCH   2   3
BRANCH   2  12
HETATM   12  C8  UNL     1      -2.172   0.298   1.267  1.00  0.00     0.194 C 
BRANCH  12  13
HETATM   13  O3  UNL     1      -1.948   0.454   2.673  1.00  0.00    -0.387 OA
ATOM     14  H3  UNL     1      -2.481   1.186   2.959  1.00  0.00     0.210 HD
ENDBRANCH  12  13
BRANCH  12  15
HETATM   15  C9  UNL     1      -1.679   1.630   0.692  1.00  0.00     0.238 C 
BRANCH  15  16
HETATM   16  O4  UNL     1      -1.828   1.651  -0.691  1.00  0.00    -0.284 OA
BRANCH  16  17
HETATM   17  N4  UNL     1      -1.389   2.829  -1.173  1.00  0.00    -0.311 N 
ATOM     18  H42 UNL     1      -1.008   3.581  -0.599  1.00  0.00     0.184 HD
ATOM     19  H41 UNL     1      -1.498   2.844  -2.187  1.00  0.00     0.184 HD
ENDBRANCH  16  17
ENDBRANCH  15  16
ENDBRANCH  12  15
ENDBRANCH   2  12
BRANCH   1  20
HETATM   20  C1  UNL     1      -3.121  -2.334  -0.012  1.00  0.00     0.256 C 
HETATM   21  N1  UNL     1      -3.407  -3.613  -0.618  1.00  0.00    -0.058 NA
HETATM   22  O1  UNL     1      -4.119  -1.633   0.218  1.00  0.00    -0.272 OA
ENDBRANCH   1  20
TORSDOF 11
