REMARK  10 active torsions:
REMARK  status: ('A' for Active; 'I' for Inactive)
REMARK    1  A    between atoms: C1_2  and  O2_4 
REMARK    2  A    between atoms: O2_4  and  C2_5 
REMARK    3  A    between atoms: C2_5  and  C3_6 
REMARK    4  A    between atoms: C3_6  and  C4_7 
REMARK    5  A    between atoms: C4_7  and  N3_12 
REMARK    6  A    between atoms: C5_8  and  C6_9 
REMARK    7  A    between atoms: N3_12  and  C7_14 
REMARK    8  A    between atoms: C7_14  and  C8_15 
REMARK    9  A    between atoms: C8_15  and  C9_17 
REMARK   10  A    between atoms: C9_17  and  N4_18 
ROOT
HETATM    1  C4  UNL     1       0.271  -1.318   0.125  1.00  0.00     0.012 C 
HETATM    2  C5  UNL     1       0.101  -2.598   0.303  1.00  0.00     0.095 C 
ENDROOT
BRANCH   1   3
HETATM    3  C3  UNL     1       1.496  -0.527   0.344  1.00  0.00     0.083 C 
BRANCH   3   4
HETATM    4  C2  UNL     1       1.972   0.138  -0.934  1.00  0.00     0.186 C 
BRANCH   4   5
HETATM    5  O2  UNL     1       3.140   0.895  -0.771  1.00  0.00    -0.306 OA
BRANCH   5   6
HETATM    6  C1  UNL     1       3.311   1.991   0.043  1.00  0.00     0.372 C 
HETATM    7  N1  UNL     1       4.575   2.685   0.123  1.00  0.00    -0.032 NA
HETATM    8  O1  UNL     1       2.332   2.381   0.722  1.00  0.00    -0.242 OA
ENDBRANCH   5   6
ENDBRANCH   4   5
ENDBRANCH   3   4
ENDBRANCH   1   3
BRANCH   1   9
HETATM    9  N3  UNL     1      -0.885  -0.564  -0.351  1.00  0.00    -0.386 N 
ATOM     10  H3  UNL     1      -1.365  -0.857  -1.202  1.00  0.00     0.159 HD
BRANCH   9  11
HETATM   11  C7  UNL     1      -1.353   0.589   0.370  1.00  0.00     0.199 C 
BRANCH  11  12
HETATM   12  C8  UNL     1      -2.532   1.192  -0.291  1.00  0.00     0.169 C 
HETATM   13  O4  UNL     1      -2.958   0.688  -1.308  1.00  0.00    -0.294 OA
BRANCH  12  14
HETATM   14  C9  UNL     1      -3.210   2.393   0.247  1.00  0.00     0.309 C 
BRANCH  14  15
HETATM   15  N4  UNL     1      -4.317   2.776  -0.572  1.00  0.00    -0.073 N 
ATOM     16  H43 UNL     1      -4.035   2.909  -1.543  1.00  0.00     0.274 HD
ATOM     17  H42 UNL     1      -4.971   2.004  -0.702  1.00  0.00     0.274 HD
ATOM     18  H41 UNL     1      -4.784   3.604  -0.201  1.00  0.00     0.274 HD
ENDBRANCH  14  15
ENDBRANCH  12  14
ENDBRANCH  11  12
ENDBRANCH   9  11
ENDBRANCH   1   9
BRANCH   2  19
HETATM   19  C6  UNL     1       1.057  -3.578   0.760  1.00  0.00     0.256 C 
HETATM   20  N2  UNL     1       0.663  -4.964   0.893  1.00  0.00    -0.058 NA
HETATM   21  O3  UNL     1       2.239  -3.348   1.066  1.00  0.00    -0.272 OA
ENDBRANCH   2  19
TORSDOF 10
