REMARK  10 active torsions:
REMARK  status: ('A' for Active; 'I' for Inactive)
REMARK    1  A    between atoms: C2_2  and  N1_3 
REMARK    2  A    between atoms: N1_3  and  C3_6 
REMARK    3  A    between atoms: C3_6  and  C4_7 
REMARK       I    between atoms: C4_7  and  N2_9 
REMARK       I    between atoms: N2_9  and  C5_11 
REMARK       I    between atoms: C5_11  and  N3_13 
REMARK    4  A    between atoms: N3_13  and  C6_15 
REMARK    5  A    between atoms: C6_15  and  C7_16 
REMARK    6  A    between atoms: C7_16  and  O3_17 
REMARK    7  A    between atoms: C7_16  and  C8_19 
REMARK    8  A    between atoms: C7_16  and  C9_24 
REMARK    9  A    between atoms: C8_19  and  N4_20 
REMARK   10  A    between atoms: C9_24  and  O4_25 
ROOT
HETATM    1  C4  UNL     1       2.168  -0.155   0.196  1.00  0.00     0.251 C 
HETATM    2  O1  UNL     1       1.881   0.939  -0.318  1.00  0.00    -0.271 OA
HETATM    3  N2  UNL     1       1.291  -1.203   0.412  1.00  0.00    -0.278 N 
ATOM      4  H2  UNL     1       1.688  -2.036   0.846  1.00  0.00     0.173 HD
HETATM    5  C5  UNL     1      -0.068  -1.259   0.109  1.00  0.00     0.322 C 
HETATM    6  O2  UNL     1      -0.627  -2.373   0.432  1.00  0.00    -0.247 OA
HETATM    7  N3  UNL     1      -0.763  -0.218  -0.485  1.00  0.00    -0.340 N 
ATOM      8  H3  UNL     1      -0.213   0.603  -0.739  1.00  0.00     0.164 HD
ENDROOT
BRANCH   7   9
HETATM    9  C6  UNL     1      -2.161  -0.158  -0.784  1.00  0.00     0.166 C 
BRANCH   9  10
HETATM   10  C7  UNL     1      -3.066  -0.108   0.374  1.00  0.00     0.118 C 
BRANCH  10  11
HETATM   11  O3  UNL     1      -2.729   0.924   1.281  1.00  0.00    -0.384 OA
ATOM     12  H3  UNL     1      -3.314   0.956   2.029  1.00  0.00     0.210 HD
ENDBRANCH  10  11
BRANCH  10  13
HETATM   13  C8  UNL     1      -4.375   0.568  -0.281  1.00  0.00     0.271 C 
BRANCH  13  14
HETATM   14  N4  UNL     1      -5.337   0.803   0.735  1.00  0.00    -0.076 N 
ATOM     15  H43 UNL     1      -5.560  -0.042   1.260  1.00  0.00     0.274 HD
ATOM     16  H42 UNL     1      -4.960   1.356   1.505  1.00  0.00     0.274 HD
ATOM     17  H41 UNL     1      -6.165   1.231   0.321  1.00  0.00     0.274 HD
ENDBRANCH  13  14
ENDBRANCH  10  13
BRANCH  10  18
HETATM   18  C9  UNL     1      -3.515  -1.361   0.965  1.00  0.00     0.205 C 
BRANCH  18  19
HETATM   19  O4  UNL     1      -3.808  -2.296  -0.027  1.00  0.00    -0.398 OA
ATOM     20  H4  UNL     1      -4.101  -3.113   0.359  1.00  0.00     0.209 HD
ENDBRANCH  18  19
ENDBRANCH  10  18
ENDBRANCH   9  10
ENDBRANCH   7   9
BRANCH   1  21
HETATM   21  C3  UNL     1       3.628  -0.304   0.607  1.00  0.00     0.335 C 
BRANCH  21  22
HETATM   22  N1  UNL     1       4.294   0.925   0.267  1.00  0.00    -0.067 N 
ATOM     23  H12 UNL     1       5.093   1.122   0.870  1.00  0.00     0.277 HD
ATOM     24  H11 UNL     1       3.742   1.751   0.499  1.00  0.00     0.277 HD
BRANCH  22  25
HETATM   25  C2  UNL     1       4.655   0.864  -1.149  1.00  0.00     0.228 C 
HETATM   26  C1  UNL     1       6.123   1.136  -1.318  1.00  0.00     0.034 C 
ENDBRANCH  22  25
ENDBRANCH  21  22
ENDBRANCH   1  21
TORSDOF 10
