REMARK  11 active torsions:
REMARK  status: ('A' for Active; 'I' for Inactive)
REMARK    1  A    between atoms: O1_2  and  C2_3 
REMARK    2  A    between atoms: C2_3  and  C3_4 
REMARK    3  A    between atoms: C3_4  and  N1_5 
REMARK    4  A    between atoms: N1_5  and  C4_8 
REMARK    5  A    between atoms: C4_8  and  C5_9 
REMARK       I    between atoms: C5_9  and  N2_11 
REMARK    6  A    between atoms: N2_11  and  C6_13 
REMARK    7  A    between atoms: C6_13  and  C7_14 
REMARK    8  A    between atoms: C7_14  and  O3_15 
REMARK    9  A    between atoms: C7_14  and  C8_17 
REMARK   10  A    between atoms: C7_14  and  C9_22 
REMARK   11  A    between atoms: C8_17  and  N3_18 
ROOT
HETATM    1  C5  UNL     1       0.044  -0.182   0.197  1.00  0.00     0.243 C 
HETATM    2  O2  UNL     1       0.114  -0.437  -1.018  1.00  0.00    -0.272 OA
HETATM    3  N2  UNL     1      -1.026  -0.499   1.033  1.00  0.00    -0.356 N 
ATOM      4  H2  UNL     1      -0.929  -0.229   2.012  1.00  0.00     0.162 HD
ENDROOT
BRANCH   3   5
HETATM    5  C6  UNL     1      -2.236  -1.154   0.679  1.00  0.00     0.172 C 
BRANCH   5   6
HETATM    6  C7  UNL     1      -3.145  -0.472  -0.291  1.00  0.00     0.175 C 
BRANCH   6   7
HETATM    7  O3  UNL     1      -2.539  -0.287  -1.502  1.00  0.00    -0.377 OA
ATOM      8  H3  UNL     1      -3.117   0.147  -2.119  1.00  0.00     0.211 HD
ENDBRANCH   6   7
BRANCH   6   9
HETATM    9  C8  UNL     1      -3.451   0.913   0.270  1.00  0.00     0.278 C 
BRANCH   9  10
HETATM   10  N3  UNL     1      -4.094   0.895   1.544  1.00  0.00    -0.076 N 
ATOM     11  H33 UNL     1      -4.941   0.328   1.509  1.00  0.00     0.274 HD
ATOM     12  H32 UNL     1      -3.549   0.351   2.212  1.00  0.00     0.274 HD
ATOM     13  H31 UNL     1      -4.299   1.821   1.919  1.00  0.00     0.274 HD
ENDBRANCH   9  10
ENDBRANCH   6   9
BRANCH   6  14
HETATM   14  C9  UNL     1      -4.383  -1.284  -0.392  1.00  0.00     0.269 C 
HETATM   15  N4  UNL     1      -4.796  -1.753  -1.652  1.00  0.00    -0.059 NA
HETATM   16  O4  UNL     1      -5.030  -1.534   0.639  1.00  0.00    -0.273 OA
ENDBRANCH   6  14
ENDBRANCH   5   6
ENDBRANCH   3   5
BRANCH   1  17
HETATM   17  C4  UNL     1       1.235   0.531   0.783  1.00  0.00     0.334 C 
BRANCH  17  18
HETATM   18  N1  UNL     1       2.207   0.752  -0.260  1.00  0.00    -0.065 N 
ATOM     19  H12 UNL     1       2.496   1.728  -0.332  1.00  0.00     0.277 HD
ATOM     20  H11 UNL     1       1.812   0.659  -1.196  1.00  0.00     0.277 HD
BRANCH  18  21
HETATM   21  C3  UNL     1       3.320  -0.150  -0.026  1.00  0.00     0.259 C 
BRANCH  21  22
HETATM   22  C2  UNL     1       4.610   0.530  -0.490  1.00  0.00     0.194 C 
BRANCH  22  23
HETATM   23  O1  UNL     1       5.649  -0.342  -0.258  1.00  0.00    -0.394 OA
HETATM   24  C1  UNL     1       6.874   0.162  -0.638  1.00  0.00     0.201 C 
ENDBRANCH  22  23
ENDBRANCH  21  22
ENDBRANCH  18  21
ENDBRANCH  17  18
ENDBRANCH   1  17
TORSDOF 11
