REMARK  11 active torsions:
REMARK  status: ('A' for Active; 'I' for Inactive)
REMARK    1  A    between atoms: C2_2  and  N1_3 
REMARK    2  A    between atoms: C2_2  and  C7_15 
REMARK    3  A    between atoms: N1_3  and  C3_6 
REMARK    4  A    between atoms: C3_6  and  C4_7 
REMARK    5  A    between atoms: C4_7  and  O1_8 
REMARK    6  A    between atoms: O1_8  and  C5_9 
REMARK    7  A    between atoms: C5_9  and  C6_10 
REMARK    8  A    between atoms: C6_10  and  N2_11 
REMARK    9  A    between atoms: C7_15  and  O2_16 
REMARK   10  A    between atoms: C7_15  and  C9_20 
REMARK   11  A    between atoms: O2_16  and  C8_17 
ROOT
HETATM    1  N1  UNL     1      -0.687  -0.294  -1.292  1.00  0.00    -0.066 N 
ATOM      2  H11 UNL     1      -1.285   0.398  -1.743  1.00  0.00     0.277 HD
ATOM      3  H12 UNL     1      -0.647  -0.992  -2.034  1.00  0.00     0.277 HD
ENDROOT
BRANCH   1   4
HETATM    4  C2  UNL     1      -1.322  -0.831  -0.121  1.00  0.00     0.220 C 
HETATM    5  C1  UNL     1      -1.496  -2.328  -0.205  1.00  0.00     0.043 C 
BRANCH   4   6
HETATM    6  C7  UNL     1      -2.679  -0.180   0.038  1.00  0.00     0.252 C 
BRANCH   6   7
HETATM    7  O2  UNL     1      -2.518   1.248   0.161  1.00  0.00    -0.290 OA
BRANCH   7   8
HETATM    8  C8  UNL     1      -3.134   2.135  -0.676  1.00  0.00     0.373 C 
HETATM    9  N3  UNL     1      -2.910   3.522  -0.473  1.00  0.00    -0.032 NA
HETATM   10  O3  UNL     1      -3.872   1.689  -1.591  1.00  0.00    -0.242 OA
ENDBRANCH   7   8
ENDBRANCH   6   7
BRANCH   6  11
HETATM   11  C9  UNL     1      -3.422  -0.664   1.226  1.00  0.00     0.262 C 
HETATM   12  N4  UNL     1      -3.793  -2.015   1.433  1.00  0.00    -0.060 NA
HETATM   13  O4  UNL     1      -3.748   0.181   2.111  1.00  0.00    -0.274 OA
ENDBRANCH   6  11
ENDBRANCH   4   6
ENDBRANCH   1   4
BRANCH   1  14
HETATM   14  C3  UNL     1       0.627   0.255  -1.032  1.00  0.00     0.259 C 
BRANCH  14  15
HETATM   15  C4  UNL     1       1.680  -0.785  -0.877  1.00  0.00     0.195 C 
BRANCH  15  16
HETATM   16  O1  UNL     1       2.903  -0.186  -0.636  1.00  0.00    -0.388 OA
BRANCH  16  17
HETATM   17  C5  UNL     1       2.976   0.588   0.491  1.00  0.00     0.195 C 
BRANCH  17  18
HETATM   18  C6  UNL     1       4.407   1.143   0.589  1.00  0.00     0.255 C 
BRANCH  18  19
HETATM   19  N2  UNL     1       5.371   0.069   0.674  1.00  0.00    -0.077 N 
ATOM     20  H23 UNL     1       5.160  -0.567   1.443  1.00  0.00     0.274 HD
ATOM     21  H22 UNL     1       5.273  -0.587  -0.101  1.00  0.00     0.274 HD
ATOM     22  H21 UNL     1       6.320   0.437   0.739  1.00  0.00     0.274 HD
ENDBRANCH  18  19
ENDBRANCH  17  18
ENDBRANCH  16  17
ENDBRANCH  15  16
ENDBRANCH  14  15
ENDBRANCH   1  14
TORSDOF 11
