REMARK  8 active torsions:
REMARK  status: ('A' for Active; 'I' for Inactive)
REMARK    1  A    between atoms: O1_2  and  C2_3 
REMARK    2  A    between atoms: C2_3  and  C3_4 
REMARK    3  A    between atoms: C2_3  and  C9_16 
REMARK    4  A    between atoms: C3_4  and  O2_5 
REMARK    5  A    between atoms: O2_5  and  C4_6 
REMARK    6  A    between atoms: C4_6  and  C5_7 
REMARK       I    between atoms: C5_7  and  N1_9 
REMARK    7  A    between atoms: N1_9  and  C6_11 
REMARK    8  A    between atoms: C6_11  and  C7_12 
ROOT
HETATM    1  C4  UNL     1      -0.591   0.106   1.035  1.00  0.00     0.270 C 
ENDROOT
BRANCH   1   2
HETATM    2  O2  UNL     1      -1.896  -0.153   0.793  1.00  0.00    -0.379 OA
BRANCH   2   3
HETATM    3  C3  UNL     1      -2.485   0.365  -0.310  1.00  0.00     0.209 C 
BRANCH   3   4
HETATM    4  C2  UNL     1      -3.942   0.002  -0.464  1.00  0.00     0.233 C 
BRANCH   4   5
HETATM    5  O1  UNL     1      -4.701   0.443   0.603  1.00  0.00    -0.380 OA
HETATM    6  C1  UNL     1      -5.659   1.360   0.258  1.00  0.00     0.202 C 
ENDBRANCH   4   5
BRANCH   4   7
HETATM    7  C9  UNL     1      -4.167  -1.436  -0.652  1.00  0.00     0.262 C 
HETATM    8  N4  UNL     1      -5.058  -2.113   0.216  1.00  0.00    -0.060 NA
HETATM    9  O4  UNL     1      -3.617  -2.132  -1.545  1.00  0.00    -0.274 OA
ENDBRANCH   4   7
ENDBRANCH   3   4
ENDBRANCH   2   3
ENDBRANCH   1   2
BRANCH   1  10
HETATM   10  C5  UNL     1       0.385  -0.389   0.039  1.00  0.00     0.241 C 
HETATM   11  O3  UNL     1       0.127  -1.050  -0.978  1.00  0.00    -0.271 OA
HETATM   12  N1  UNL     1       1.772  -0.070   0.275  1.00  0.00    -0.354 N 
ATOM     13  H1  UNL     1       2.034   0.472   1.098  1.00  0.00     0.162 HD
BRANCH  12  14
HETATM   14  C6  UNL     1       2.787  -0.512  -0.643  1.00  0.00     0.177 C 
BRANCH  14  15
HETATM   15  C7  UNL     1       4.108  -0.062  -0.181  1.00  0.00     0.055 C 
HETATM   16  N2  UNL     1       4.615  -0.467   1.085  1.00  0.00    -0.104 NA
HETATM   17  C8  UNL     1       4.842   0.726  -0.941  1.00  0.00     0.123 C 
HETATM   18  N3  UNL     1       6.132   1.189  -0.536  1.00  0.00    -0.113 NA
ENDBRANCH  14  15
ENDBRANCH  12  14
ENDBRANCH   1  10
TORSDOF 8
