REMARK  7 active torsions:
REMARK  status: ('A' for Active; 'I' for Inactive)
REMARK    1  A    between atoms: C2_2  and  C4_5 
REMARK    2  A    between atoms: C4_5  and  C5_6 
REMARK    3  A    between atoms: N2_11  and  C9_12 
REMARK    4  A    between atoms: C9_12  and  C10_13 
REMARK    5  A    between atoms: C10_13  and  C11_14 
REMARK    6  A    between atoms: C11_14  and  C12_15 
REMARK    7  A    between atoms: C18_25  and  O2_27 
ROOT
HETATM    1  C1  UNL     1       5.603  -0.981   1.115  1.00  0.00     0.025 C 
HETATM    2  C2  UNL     1       4.268  -1.342   0.499  1.00  0.00     0.090 C 
HETATM    3  C3  UNL     1       3.440  -1.958   1.546  1.00  0.00     0.063 C 
HETATM    4  N1  UNL     1       2.793  -2.462   2.364  1.00  0.00    -0.197 NA
ENDROOT
BRANCH   2   5
HETATM    5  C4  UNL     1       3.599  -0.073   0.080  1.00  0.00     0.044 C 
BRANCH   5   6
HETATM    6  C5  UNL     1       2.243  -0.307  -0.555  1.00  0.00     0.088 C 
HETATM    7  C6  UNL     1       2.353  -1.170  -1.792  1.00  0.00     0.034 C 
HETATM    8  C7  UNL     1       3.133  -0.234  -2.722  1.00  0.00     0.105 C 
HETATM    9  C8  UNL     1       2.507   1.066  -2.419  1.00  0.00     0.220 C 
HETATM   10  O1  UNL     1       2.549   2.088  -3.119  1.00  0.00    -0.273 OA
HETATM   11  N2  UNL     1       1.827   0.971  -1.164  1.00  0.00    -0.347 N 
BRANCH  11  12
HETATM   12  C9  UNL     1       0.936   1.855  -0.518  1.00  0.00     0.126 C 
BRANCH  12  13
HETATM   13  C10 UNL     1      -0.508   1.764  -0.780  1.00  0.00     0.021 C 
BRANCH  13  14
HETATM   14  C11 UNL     1      -1.097   0.423  -0.424  1.00  0.00     0.014 C 
BRANCH  14  15
HETATM   15  C12 UNL     1      -2.583   0.368  -0.704  1.00  0.00     0.056 C 
HETATM   16  C13 UNL     1      -3.295   1.411   0.103  1.00  0.00    -0.010 A 
HETATM   17  C14 UNL     1      -3.618   2.732  -0.162  1.00  0.00     0.116 A 
HETATM   18  C15 UNL     1      -3.775   1.136   1.361  1.00  0.00     0.034 A 
HETATM   19  N3  UNL     1      -4.263   3.183   0.923  1.00  0.00    -0.311 N 
HETATM   20  N4  UNL     1      -4.357   2.244   1.825  1.00  0.00    -0.305 N 
ATOM     21  H3  UNL     1      -4.630   4.129   1.029  1.00  0.00     0.186 HD
ATOM     22  H4  UNL     1      -4.803   2.341   2.737  1.00  0.00     0.186 HD
HETATM   23  C16 UNL     1      -3.561  -0.234   1.889  1.00  0.00     0.062 C 
HETATM   24  C17 UNL     1      -3.898  -1.193   0.788  1.00  0.00     0.044 C 
HETATM   25  C18 UNL     1      -3.164  -0.991  -0.491  1.00  0.00     0.062 C 
HETATM   26  C19 UNL     1      -2.122  -2.093  -0.608  1.00  0.00     0.046 C 
BRANCH  25  27
HETATM   27  O2  UNL     1      -4.088  -1.249  -1.534  1.00  0.00    -0.390 OA
ATOM     28  H2  UNL     1      -4.458  -2.114  -1.398  1.00  0.00     0.210 HD
ENDBRANCH  25  27
ENDBRANCH  14  15
ENDBRANCH  13  14
ENDBRANCH  12  13
ENDBRANCH  11  12
ENDBRANCH   5   6
ENDBRANCH   2   5
TORSDOF 7
