REMARK  8 active torsions:
REMARK  status: ('A' for Active; 'I' for Inactive)
REMARK    1  A    between atoms: C2_2  and  C3_3 
REMARK    2  A    between atoms: C3_3  and  C4_4 
REMARK    3  A    between atoms: C4_4  and  C5_5 
REMARK    4  A    between atoms: C4_4  and  N1_7 
REMARK    5  A    between atoms: N1_7  and  C7_9 
REMARK    6  A    between atoms: C8_12  and  N3_13 
REMARK    7  A    between atoms: N3_13  and  C9_15 
REMARK    8  A    between atoms: N4_18  and  C12_19 
ROOT
HETATM    1  C7  UNL     1      -1.736   0.184   0.095  1.00  0.00     0.682 A 
HETATM    2  N2  UNL     1      -0.428  -0.117   0.257  1.00  0.00    -0.176 N 
ATOM      3  H2  UNL     1       0.012  -0.756  -0.406  1.00  0.00     0.186 HD
HETATM    4  C8  UNL     1       0.317   0.389   1.253  1.00  0.00     0.132 A 
HETATM    5  C16 UNL     1      -0.260   1.262   2.169  1.00  0.00     0.062 A 
HETATM    6  C17 UNL     1       0.214   1.937   3.275  1.00  0.00     0.044 A 
HETATM    7  C18 UNL     1      -0.869   2.644   3.752  1.00  0.00     0.145 A 
HETATM    8  O1  UNL     1      -1.904   2.403   2.985  1.00  0.00    -0.304 OA
HETATM    9  C19 UNL     1      -1.593   1.575   2.014  1.00  0.00     0.176 A 
HETATM   10  N5  UNL     1      -2.284   1.027   0.985  1.00  0.00    -0.169 N 
ATOM     11  H5  UNL     1      -3.270   1.267   0.881  1.00  0.00     0.186 HD
ENDROOT
BRANCH   4  12
HETATM   12  N3  UNL     1       1.550   0.124   1.430  1.00  0.00    -0.370 N 
ATOM     13  H3  UNL     1       2.016   0.568   2.221  1.00  0.00     0.161 HD
BRANCH  12  14
HETATM   14  C9  UNL     1       2.350  -0.765   0.590  1.00  0.00     0.086 C 
HETATM   15  C10 UNL     1       3.542  -1.156   1.389  1.00  0.00     0.044 C 
HETATM   16  C11 UNL     1       4.803  -1.361   0.615  1.00  0.00     0.119 C 
HETATM   17  N4  UNL     1       5.017  -0.262  -0.246  1.00  0.00    -0.413 N 
HETATM   18  C14 UNL     1       3.986   0.031  -1.177  1.00  0.00     0.119 C 
HETATM   19  C15 UNL     1       2.602  -0.234  -0.764  1.00  0.00     0.044 C 
BRANCH  17  20
HETATM   20  C12 UNL     1       5.742   0.845   0.275  1.00  0.00     0.112 C 
HETATM   21  C13 UNL     1       7.195   0.565   0.552  1.00  0.00     0.026 C 
ENDBRANCH  17  20
ENDBRANCH  12  14
ENDBRANCH   4  12
BRANCH   1  22
HETATM   22  N1  UNL     1      -2.417  -0.336  -0.891  1.00  0.00    -0.221 N 
ATOM     23  H1  UNL     1      -1.931  -0.969  -1.526  1.00  0.00     0.178 HD
BRANCH  22  24
HETATM   24  C4  UNL     1      -3.804  -0.072  -1.136  1.00  0.00     0.099 C 
BRANCH  24  25
HETATM   25  C3  UNL     1      -4.457  -1.179  -1.934  1.00  0.00     0.025 C 
BRANCH  25  26
HETATM   26  C2  UNL     1      -4.167  -2.493  -1.218  1.00  0.00    -0.002 C 
HETATM   27  C1  UNL     1      -4.740  -2.443   0.186  1.00  0.00     0.005 C 
ENDBRANCH  25  26
ENDBRANCH  24  25
BRANCH  24  28
HETATM   28  C5  UNL     1      -4.072   1.246  -1.817  1.00  0.00     0.021 C 
HETATM   29  C6  UNL     1      -5.580   1.430  -1.862  1.00  0.00     0.007 C 
ENDBRANCH  24  28
ENDBRANCH  22  24
ENDBRANCH   1  22
TORSDOF 8
