REMARK  8 active torsions:
REMARK  status: ('A' for Active; 'I' for Inactive)
REMARK    1  A    between atoms: C2_2  and  S1_3 
REMARK    2  A    between atoms: S1_3  and  C3_4 
REMARK    3  A    between atoms: C3_4  and  C4_5 
REMARK       I    between atoms: C4_5  and  N1_7 
REMARK    4  A    between atoms: N1_7  and  C5_8 
REMARK    5  A    between atoms: N2_10  and  C7_11 
REMARK    6  A    between atoms: C10_14  and  C11_15 
REMARK    7  A    between atoms: C11_15  and  C12_16 
REMARK    8  A    between atoms: C17_21  and  O2_22 
ROOT
HETATM    1  C7  UNL     1      -0.323   0.278  -0.523  1.00  0.00     0.108 C 
HETATM    2  C8  UNL     1      -0.927   1.621  -0.154  1.00  0.00     0.028 C 
HETATM    3  C9  UNL     1      -2.124   1.883  -0.982  1.00  0.00     0.007 C 
HETATM    4  C10 UNL     1      -3.136   0.755  -1.083  1.00  0.00    -0.011 C 
HETATM    5  C16 UNL     1      -2.514  -0.584  -1.026  1.00  0.00     0.038 C 
HETATM    6  C17 UNL     1      -1.388  -0.731  -0.050  1.00  0.00     0.141 C 
ENDROOT
BRANCH   1   7
HETATM    7  N2  UNL     1       0.886  -0.041  -0.043  1.00  0.00    -0.400 N 
HETATM    8  C6  UNL     1       1.365  -0.189   1.247  1.00  0.00     0.158 C 
HETATM    9  C5  UNL     1       2.521  -1.074   0.574  1.00  0.00     0.201 C 
HETATM   10  C18 UNL     1       2.143  -0.149  -0.601  1.00  0.00     0.158 C 
BRANCH   9  11
HETATM   11  N1  UNL     1       3.714  -1.083   1.144  1.00  0.00    -0.406 NA
HETATM   12  C4  UNL     1       4.944  -1.094   1.737  1.00  0.00     0.296 C 
HETATM   13  O1  UNL     1       5.226  -1.175   2.992  1.00  0.00    -0.257 OA
BRANCH  12  14
HETATM   14  C3  UNL     1       6.214  -1.030   0.907  1.00  0.00     0.192 C 
BRANCH  14  15
HETATM   15  S1  UNL     1       6.895   0.639   0.913  1.00  0.00    -0.159 SA
BRANCH  15  16
HETATM   16  C2  UNL     1       8.580   0.618   0.209  1.00  0.00     0.070 C 
HETATM   17  C1  UNL     1       8.511   0.218  -1.232  1.00  0.00     0.016 C 
ENDBRANCH  15  16
ENDBRANCH  14  15
ENDBRANCH  12  14
ENDBRANCH   9  11
ENDBRANCH   1   7
BRANCH   6  18
HETATM   18  O2  UNL     1      -0.878  -1.987  -0.070  1.00  0.00    -0.394 OA
ATOM     19  H2  UNL     1      -1.534  -2.609   0.222  1.00  0.00     0.210 HD
ENDBRANCH   6  18
BRANCH   4  20
HETATM   20  C11 UNL     1      -4.256   1.091  -0.188  1.00  0.00     0.013 C 
BRANCH  20  21
HETATM   21  C12 UNL     1      -5.439   0.253  -0.014  1.00  0.00    -0.051 C 
HETATM   22  C13 UNL     1      -6.356   1.044   0.989  1.00  0.00     0.014 C 
HETATM   23  C14 UNL     1      -5.204  -1.047   0.682  1.00  0.00     0.014 C 
HETATM   24  C15 UNL     1      -6.298   0.036  -1.218  1.00  0.00     0.014 C 
ENDBRANCH  20  21
ENDBRANCH   4  20
TORSDOF 8
