REMARK  8 active torsions:
REMARK  status: ('A' for Active; 'I' for Inactive)
REMARK    1  A    between atoms: C10_10  and  O1_11 
REMARK    2  A    between atoms: O1_11  and  C11_12 
REMARK    3  A    between atoms: C11_12  and  C12_13 
REMARK    4  A    between atoms: C12_13  and  C13_14 
REMARK    5  A    between atoms: C13_14  and  C14_15 
REMARK    6  A    between atoms: C14_15  and  N1_16 
REMARK    7  A    between atoms: C18_20  and  O2_21 
REMARK    8  A    between atoms: C20_24  and  O3_25 
ROOT
HETATM    1  C1  UNL     1      -5.561  -0.944   0.490  1.00  0.00     0.020 C 
HETATM    2  C2  UNL     1      -4.522   0.060   0.949  1.00  0.00    -0.015 C 
HETATM    3  C3  UNL     1      -3.917  -0.565   2.224  1.00  0.00     0.020 C 
HETATM    4  C4  UNL     1      -5.249   1.260   1.407  1.00  0.00    -0.017 C 
HETATM    5  C5  UNL     1      -5.243   2.359   0.682  1.00  0.00    -0.003 C 
HETATM    6  C6  UNL     1      -4.505   2.417  -0.590  1.00  0.00     0.004 C 
HETATM    7  C7  UNL     1      -3.831   1.357  -0.993  1.00  0.00    -0.054 A 
HETATM    8  C8  UNL     1      -3.126   0.098  -1.307  1.00  0.00     0.024 A 
HETATM    9  C9  UNL     1      -3.703  -0.896  -2.253  1.00  0.00     0.024 C 
HETATM   10  C10 UNL     1      -1.639   0.012  -0.960  1.00  0.00     0.164 A 
HETATM   11  C20 UNL     1      -1.998   0.314   0.466  1.00  0.00     0.163 A 
HETATM   12  C21 UNL     1      -3.465   0.349   0.025  1.00  0.00     0.036 A 
ENDROOT
BRANCH  10  13
HETATM   13  O1  UNL     1      -0.849   0.913  -1.631  1.00  0.00    -0.382 OA
BRANCH  13  14
HETATM   14  C11 UNL     1       0.161   0.286  -2.314  1.00  0.00     0.168 C 
BRANCH  14  15
HETATM   15  C12 UNL     1       1.133  -0.488  -1.494  1.00  0.00     0.028 C 
BRANCH  15  16
HETATM   16  C13 UNL     1       1.824   0.441  -0.527  1.00  0.00     0.032 C 
BRANCH  16  17
HETATM   17  C14 UNL     1       2.827  -0.243   0.353  1.00  0.00     0.272 C 
BRANCH  17  18
HETATM   18  N1  UNL     1       3.863  -0.864  -0.409  1.00  0.00     0.090 N 
HETATM   19  C15 UNL     1       4.733   0.042  -1.082  1.00  0.00     0.272 C 
HETATM   20  C16 UNL     1       5.628   0.835  -0.143  1.00  0.00     0.033 C 
HETATM   21  C17 UNL     1       6.540  -0.184   0.531  1.00  0.00     0.035 C 
HETATM   22  C18 UNL     1       5.644  -1.149   1.265  1.00  0.00     0.146 C 
HETATM   23  C19 UNL     1       4.641  -1.810   0.351  1.00  0.00     0.303 C 
BRANCH  22  24
HETATM   24  O2  UNL     1       5.071  -0.501   2.333  1.00  0.00    -0.394 OA
ATOM     25  H2  UNL     1       4.506  -1.109   2.796  1.00  0.00     0.210 HD
ENDBRANCH  22  24
ENDBRANCH  17  18
ENDBRANCH  16  17
ENDBRANCH  15  16
ENDBRANCH  14  15
ENDBRANCH  13  14
ENDBRANCH  10  13
BRANCH  11  26
HETATM   26  O3  UNL     1      -1.648   1.592   0.916  1.00  0.00    -0.392 OA
ATOM     27  H3  UNL     1      -1.875   1.783   1.818  1.00  0.00     0.210 HD
ENDBRANCH  11  26
TORSDOF 8
