REMARK  2 active torsions:
REMARK  status: ('A' for Active; 'I' for Inactive)
REMARK    1  A    between atoms: O1_2  and  C2_3 
REMARK    2  A    between atoms: C10_11  and  O2_13 
ROOT
HETATM    1  C2  UNL     1       2.588   0.474  -1.048  1.00  0.00     0.319 C 
HETATM    2  C3  UNL     1       1.758   1.632  -0.546  1.00  0.00     0.032 C 
HETATM    3  C4  UNL     1       0.570   1.483   0.034  1.00  0.00    -0.016 C 
HETATM    4  C5  UNL     1      -0.208   0.247   0.328  1.00  0.00     0.074 C 
HETATM    5  C6  UNL     1      -0.297  -0.548  -0.940  1.00  0.00     0.171 C 
HETATM    6  C7  UNL     1      -1.220  -1.718  -0.859  1.00  0.00     0.036 C 
HETATM    7  C8  UNL     1      -2.464  -1.488  -0.082  1.00  0.00     0.006 C 
HETATM    8  C9  UNL     1      -2.291  -0.687   1.168  1.00  0.00     0.038 C 
HETATM    9  C10 UNL     1      -1.535   0.604   0.922  1.00  0.00     0.063 C 
HETATM   10  C11 UNL     1      -2.353   1.525   0.082  1.00  0.00     0.046 C 
HETATM   11  O3  UNL     1       0.987  -1.052  -1.213  1.00  0.00    -0.232 OA
HETATM   12  O4  UNL     1       1.711  -0.225  -1.911  1.00  0.00    -0.203 OA
ENDROOT
BRANCH   9  13
HETATM   13  O2  UNL     1      -1.294   1.174   2.177  1.00  0.00    -0.389 OA
ATOM     14  H2  UNL     1      -2.136   1.401   2.554  1.00  0.00     0.210 HD
ENDBRANCH   9  13
BRANCH   1  15
HETATM   15  O1  UNL     1       2.791  -0.352   0.047  1.00  0.00    -0.360 OA
HETATM   16  C1  UNL     1       4.127  -0.606   0.290  1.00  0.00     0.205 C 
ENDBRANCH   1  15
TORSDOF 2
