REMARK  2 active torsions:
REMARK  status: ('A' for Active; 'I' for Inactive)
REMARK    1  A    between atoms: O1_2  and  C2_3 
REMARK    2  A    between atoms: C6_8  and  N1_9 
ROOT
HETATM    1  C2  UNL     1      -1.471   0.588   0.506  1.00  0.00     0.296 C 
HETATM    2  O2  UNL     1      -0.331   0.946  -0.209  1.00  0.00    -0.322 OA
HETATM    3  C3  UNL     1       0.326  -0.243  -0.514  1.00  0.00     0.168 C 
HETATM    4  C4  UNL     1       1.136  -0.106  -1.774  1.00  0.00     0.070 C 
HETATM    5  C5  UNL     1       2.327   0.799  -1.603  1.00  0.00     0.038 C 
HETATM    6  C6  UNL     1       2.923   0.765  -0.241  1.00  0.00     0.183 C 
HETATM    7  C7  UNL     1       2.579  -0.437   0.573  1.00  0.00     0.038 C 
HETATM    8  C8  UNL     1       1.116  -0.741   0.647  1.00  0.00     0.070 C 
HETATM    9  O3  UNL     1      -0.683  -1.187  -0.784  1.00  0.00    -0.340 OA
HETATM   10  C9  UNL     1      -1.819  -0.743  -0.123  1.00  0.00     0.107 C 
HETATM   11  C10 UNL     1      -2.927  -0.639  -1.127  1.00  0.00     0.051 C 
HETATM   12  C11 UNL     1      -2.183  -1.763   0.939  1.00  0.00     0.051 C 
ENDROOT
BRANCH   1  13
HETATM   13  O1  UNL     1      -2.507   1.478   0.380  1.00  0.00    -0.363 OA
HETATM   14  C1  UNL     1      -2.931   1.870   1.656  1.00  0.00     0.204 C 
ENDBRANCH   1  13
BRANCH   6  15
HETATM   15  N1  UNL     1       4.371   0.795  -0.373  1.00  0.00    -0.075 N 
ATOM     16  H13 UNL     1       4.725   0.052  -0.975  1.00  0.00     0.274 HD
ATOM     17  H12 UNL     1       4.698   1.588  -0.925  1.00  0.00     0.274 HD
ATOM     18  H11 UNL     1       4.780   0.772   0.561  1.00  0.00     0.274 HD
ENDBRANCH   6  15
TORSDOF 2
