REMARK  4 active torsions:
REMARK  status: ('A' for Active; 'I' for Inactive)
REMARK    1  A    between atoms: C1_2  and  O2_3 
REMARK    2  A    between atoms: C1_2  and  C8_12 
REMARK    3  A    between atoms: O2_3  and  C2_4 
REMARK    4  A    between atoms: C5_7  and  O3_8 
ROOT
HETATM    1  O2  UNL     1       0.385  -0.826   0.127  1.00  0.00    -0.279 OA
ENDROOT
BRANCH   1   2
HETATM    2  C1  UNL     1      -0.551  -0.005  -0.501  1.00  0.00     0.273 C 
HETATM    3  O1  UNL     1      -0.071   1.001  -1.123  1.00  0.00    -0.264 OA
BRANCH   2   4
HETATM    4  C8  UNL     1      -1.997  -0.261  -0.464  1.00  0.00     0.144 C 
HETATM    5  C9  UNL     1      -2.531  -0.265   0.927  1.00  0.00     0.138 C 
HETATM    6  C10 UNL     1      -4.021  -0.515   0.753  1.00  0.00     0.035 C 
HETATM    7  O4  UNL     1      -2.466   1.146   0.883  1.00  0.00    -0.379 OA
HETATM    8  C11 UNL     1      -4.250   0.540  -0.351  1.00  0.00     0.035 C 
HETATM    9  C12 UNL     1      -2.813   0.993  -0.479  1.00  0.00     0.138 C 
ENDBRANCH   2   4
ENDBRANCH   1   2
BRANCH   1  10
HETATM   10  C2  UNL     1       1.752  -0.559   0.076  1.00  0.00     0.079 A 
HETATM   11  C3  UNL     1       2.574  -1.053  -0.917  1.00  0.00     0.040 A 
HETATM   12  C4  UNL     1       3.931  -0.788  -0.969  1.00  0.00     0.039 A 
HETATM   13  C5  UNL     1       4.500   0.005   0.008  1.00  0.00     0.065 A 
HETATM   14  C6  UNL     1       3.698   0.508   1.007  1.00  0.00     0.039 A 
HETATM   15  C7  UNL     1       2.350   0.236   1.047  1.00  0.00     0.040 A 
BRANCH  13  16
HETATM   16  O3  UNL     1       5.870   0.285  -0.025  1.00  0.00    -0.361 OA
ATOM     17  H3  UNL     1       6.261   0.831   0.647  1.00  0.00     0.217 HD
ENDBRANCH  13  16
ENDBRANCH   1  10
TORSDOF 4
