REMARK  4 active torsions:
REMARK  status: ('A' for Active; 'I' for Inactive)
REMARK    1  A    between atoms: C2_2  and  C4_4 
REMARK    2  A    between atoms: C8_11  and  S2_12 
REMARK    3  A    between atoms: S2_12  and  C9_13 
REMARK    4  A    between atoms: C11_18  and  N4_19 
ROOT
HETATM    1  C9  UNL     1       4.615   0.764   0.421  1.00  0.00     0.206 C 
HETATM    2  C10 UNL     1       5.738   1.529   0.979  1.00  0.00     0.069 C 
HETATM    3  N2  UNL     1       6.621   2.130   1.437  1.00  0.00    -0.197 NA
ENDROOT
BRANCH   1   4
HETATM    4  S2  UNL     1       3.356   0.610   1.733  1.00  0.00    -0.080 SA
BRANCH   4   5
HETATM    5  C8  UNL     1       1.980  -0.331   1.040  1.00  0.00     0.147 A 
HETATM    6  N1  UNL     1       0.975   0.273   0.427  1.00  0.00    -0.339 N 
HETATM    7  C7  UNL     1      -0.100  -0.375  -0.123  1.00  0.00     0.037 A 
ATOM      8  H1  UNL     1       1.002   1.290   0.359  1.00  0.00     0.168 HD
HETATM    9  C4  UNL     1      -1.264   0.178  -0.802  1.00  0.00     0.050 C 
HETATM   10  C6  UNL     1      -0.072  -1.736   0.004  1.00  0.00     0.067 A 
HETATM   11  C5  UNL     1      -1.806  -0.804  -1.812  1.00  0.00     0.090 C 
HETATM   12  S1  UNL     1      -1.541  -2.336  -0.804  1.00  0.00    -0.123 SA
HETATM   13  C11 UNL     1       0.951  -2.376   0.631  1.00  0.00     0.119 A 
HETATM   14  N3  UNL     1       2.003  -1.671   1.163  1.00  0.00    -0.322 N 
ATOM     15  H3  UNL     1       2.773  -2.146   1.634  1.00  0.00     0.169 HD
BRANCH   9  16
HETATM   16  C2  UNL     1      -2.389   0.444   0.181  1.00  0.00    -0.012 C 
HETATM   17  C1  UNL     1      -1.947   1.415   1.231  1.00  0.00     0.010 C 
HETATM   18  C3  UNL     1      -3.606   0.878  -0.569  1.00  0.00     0.010 C 
ENDBRANCH   9  16
BRANCH  13  19
HETATM   19  N4  UNL     1       1.001  -3.655   0.764  1.00  0.00    -0.384 N 
ATOM     20  H42 UNL     1       0.220  -4.179   0.369  1.00  0.00     0.157 HD
ATOM     21  H41 UNL     1       1.768  -4.135   1.234  1.00  0.00     0.157 HD
ENDBRANCH  13  19
ENDBRANCH   4   5
ENDBRANCH   1   4
TORSDOF 4
