REMARK  6 active torsions:
REMARK  status: ('A' for Active; 'I' for Inactive)
REMARK    1  A    between atoms: C2_2  and  C3_3 
REMARK    2  A    between atoms: C8_9  and  C9_10 
REMARK    3  A    between atoms: C9_10  and  O1_11 
REMARK    4  A    between atoms: C9_10  and  C10_13 
REMARK    5  A    between atoms: C10_13  and  O2_14 
REMARK    6  A    between atoms: C12_16  and  O3_17 
ROOT
HETATM    1  C3  UNL     1      -1.999  -0.408   0.296  1.00  0.00    -0.007 A 
HETATM    2  C4  UNL     1      -2.481   0.815   0.629  1.00  0.00     0.020 A 
HETATM    3 BR1  UNL     1      -4.334   1.136   1.023  1.00  0.00    -0.050 Br
HETATM    4  C5  UNL     1      -1.636   1.889   0.696  1.00  0.00     0.027 A 
HETATM    5  C6  UNL     1      -0.307   1.697   0.421  1.00  0.00    -0.049 A 
HETATM    6  C7  UNL     1       0.593   2.864   0.496  1.00  0.00     0.049 C 
HETATM    7  C8  UNL     1       0.231   0.452   0.073  1.00  0.00     0.012 A 
HETATM    8  C12 UNL     1      -0.631  -0.603   0.012  1.00  0.00     0.082 A 
ENDROOT
BRANCH   7   9
HETATM    9  C9  UNL     1       1.658   0.307  -0.211  1.00  0.00     0.178 C 
BRANCH   9  10
HETATM   10  O1  UNL     1       2.080   1.098  -1.283  1.00  0.00    -0.389 OA
ATOM     11  H1  UNL     1       3.007   1.004  -1.468  1.00  0.00     0.210 HD
ENDBRANCH   9  10
BRANCH   9  12
HETATM   12  C10 UNL     1       2.174  -1.052  -0.512  1.00  0.00     0.203 C 
BRANCH  12  13
HETATM   13  O2  UNL     1       3.553  -1.046  -0.656  1.00  0.00    -0.393 OA
HETATM   14  C11 UNL     1       4.207  -0.660   0.485  1.00  0.00     0.201 C 
ENDBRANCH  12  13
ENDBRANCH   9  12
ENDBRANCH   7   9
BRANCH   8  15
HETATM   15  O3  UNL     1      -0.258  -1.892  -0.318  1.00  0.00    -0.359 OA
ATOM     16  H3  UNL     1       0.663  -2.023  -0.509  1.00  0.00     0.217 HD
ENDBRANCH   8  15
BRANCH   1  17
HETATM   17  C2  UNL     1      -2.957  -1.542   0.235  1.00  0.00     0.038 C 
HETATM   18  C1  UNL     1      -3.756  -1.468  -1.052  1.00  0.00     0.010 C 
ENDBRANCH   1  17
TORSDOF 6
