REMARK  6 active torsions:
REMARK  status: ('A' for Active; 'I' for Inactive)
REMARK    1  A    between atoms: C2_2  and  C4_4 
REMARK    2  A    between atoms: C4_4  and  C5_5 
REMARK    3  A    between atoms: C5_5  and  N1_7 
REMARK    4  A    between atoms: N1_7  and  C7_9 
REMARK    5  A    between atoms: C8_12  and  N3_13 
REMARK    6  A    between atoms: C12_17  and  N4_18 
ROOT
HETATM    1  C7  UNL     1       0.175   0.299   0.113  1.00  0.00     0.679 A 
HETATM    2  N2  UNL     1      -1.120  -0.084   0.284  1.00  0.00    -0.175 N 
ATOM      3  H2  UNL     1      -1.292  -0.982   0.737  1.00  0.00     0.186 HD
HETATM    4  C8  UNL     1      -2.182   0.630  -0.098  1.00  0.00     0.144 A 
HETATM    5  C13 UNL     1      -1.877   1.840  -0.706  1.00  0.00     0.094 A 
HETATM    6 CL1  UNL     1      -3.221   2.828  -1.231  1.00  0.00    -0.079 Cl
HETATM    7  C14 UNL     1      -0.581   2.245  -0.887  1.00  0.00     0.133 A 
HETATM    8  N5  UNL     1       0.433   1.470  -0.475  1.00  0.00    -0.200 N 
ATOM      9  H5  UNL     1       1.397   1.774  -0.610  1.00  0.00     0.183 HD
ENDROOT
BRANCH   4  10
HETATM   10  N3  UNL     1      -3.516   0.225   0.083  1.00  0.00    -0.338 N 
HETATM   11  C9  UNL     1      -4.546  -0.009  -0.870  1.00  0.00     0.127 C 
HETATM   12  C10 UNL     1      -5.561  -0.903  -0.178  1.00  0.00     0.024 C 
HETATM   13  C11 UNL     1      -4.877  -1.313   1.108  1.00  0.00     0.056 C 
HETATM   14  C12 UNL     1      -4.086  -0.040   1.409  1.00  0.00     0.285 C 
BRANCH  14  15
HETATM   15  N4  UNL     1      -5.070   0.974   1.751  1.00  0.00    -0.058 N 
ATOM     16  H43 UNL     1      -4.683   1.916   1.685  1.00  0.00     0.276 HD
ATOM     17  H42 UNL     1      -5.793   1.057   1.037  1.00  0.00     0.276 HD
ATOM     18  H41 UNL     1      -5.466   0.790   2.673  1.00  0.00     0.276 HD
ENDBRANCH  14  15
ENDBRANCH   4  10
BRANCH   1  19
HETATM   19  N1  UNL     1       1.101  -0.457   0.514  1.00  0.00    -0.222 N 
ATOM     20  H1  UNL     1       0.768  -1.319   0.946  1.00  0.00     0.178 HD
BRANCH  19  21
HETATM   21  C5  UNL     1       2.512  -0.346   0.483  1.00  0.00     0.095 C 
HETATM   22  C6  UNL     1       3.067   0.832   1.213  1.00  0.00     0.032 C 
BRANCH  21  23
HETATM   23  C4  UNL     1       3.084  -0.619  -0.868  1.00  0.00     0.029 C 
BRANCH  23  24
HETATM   24  C2  UNL     1       4.530  -0.912  -0.952  1.00  0.00    -0.021 C 
HETATM   25  C1  UNL     1       5.480   0.130  -0.488  1.00  0.00     0.009 C 
HETATM   26  C3  UNL     1       4.920  -2.210  -0.267  1.00  0.00     0.009 C 
ENDBRANCH  23  24
ENDBRANCH  21  23
ENDBRANCH  19  21
ENDBRANCH   1  19
TORSDOF 6
