REMARK  6 active torsions:
REMARK  status: ('A' for Active; 'I' for Inactive)
REMARK    1  A    between atoms: O1_2  and  C2_3 
REMARK    2  A    between atoms: C2_3  and  C3_4 
REMARK    3  A    between atoms: C3_4  and  N1_5 
REMARK    4  A    between atoms: N1_5  and  C4_7 
REMARK    5  A    between atoms: C5_10  and  N3_11 
REMARK    6  A    between atoms: C7_17  and  C8_18 
ROOT
HETATM    1  C4  UNL     1       1.089   0.124   0.411  1.00  0.00     0.146 A 
HETATM    2  N2  UNL     1       1.018   0.331   1.741  1.00  0.00    -0.175 N 
ATOM      3  H2  UNL     1       1.885   0.382   2.276  1.00  0.00     0.186 HD
HETATM    4  C5  UNL     1      -0.148   0.472   2.387  1.00  0.00     0.678 A 
HETATM    5  N4  UNL     1      -1.284   0.404   1.669  1.00  0.00    -0.189 N 
ATOM      6  H4  UNL     1      -2.181   0.510   2.142  1.00  0.00     0.184 HD
HETATM    7  C6  UNL     1      -1.260   0.199   0.337  1.00  0.00     0.086 A 
HETATM    8  C7  UNL     1      -2.424   0.119  -0.431  1.00  0.00    -0.023 A 
HETATM    9  C11 UNL     1      -2.336  -0.099  -1.797  1.00  0.00     0.034 A 
HETATM   10  C12 UNL     1      -1.124  -0.241  -2.437  1.00  0.00     0.006 A 
HETATM   11  C13 UNL     1      -1.033  -0.474  -3.921  1.00  0.00     0.068 C 
HETATM   12  N5  UNL     1      -0.022  -0.160  -1.677  1.00  0.00    -0.355 N 
ATOM     13  H5  UNL     1       0.889  -0.262  -2.124  1.00  0.00     0.166 HD
HETATM   14  C14 UNL     1      -0.068   0.050  -0.351  1.00  0.00     0.105 A 
ENDROOT
BRANCH   1  15
HETATM   15  N1  UNL     1       2.216  -0.015  -0.206  1.00  0.00    -0.372 N 
ATOM     16  H1  UNL     1       2.189  -0.168  -1.214  1.00  0.00     0.161 HD
BRANCH  15  17
HETATM   17  C3  UNL     1       3.512   0.031   0.432  1.00  0.00     0.147 C 
BRANCH  17  18
HETATM   18  C2  UNL     1       4.480  -0.714  -0.467  1.00  0.00     0.186 C 
BRANCH  18  19
HETATM   19  O1  UNL     1       5.749  -0.748   0.035  1.00  0.00    -0.394 OA
HETATM   20  C1  UNL     1       6.372   0.451   0.239  1.00  0.00     0.201 C 
ENDBRANCH  18  19
ENDBRANCH  17  18
ENDBRANCH  15  17
ENDBRANCH   1  15
BRANCH   4  21
HETATM   21  N3  UNL     1      -0.192   0.669   3.683  1.00  0.00    -0.234 N 
ATOM     22  H32 UNL     1       0.669   0.721   4.227  1.00  0.00     0.174 HD
ATOM     23  H31 UNL     1      -1.079   0.776   4.175  1.00  0.00     0.174 HD
ENDBRANCH   4  21
BRANCH   8  24
HETATM   24  C8  UNL     1      -3.713   0.257   0.271  1.00  0.00     0.013 C 
HETATM   25  C9  UNL     1      -4.892   0.467  -0.654  1.00  0.00     0.015 C 
HETATM   26  C10 UNL     1      -4.055  -0.979   1.091  1.00  0.00     0.015 C 
ENDBRANCH   8  24
TORSDOF 6
