REMARK  5 active torsions:
REMARK  status: ('A' for Active; 'I' for Inactive)
REMARK    1  A    between atoms: C3_3  and  C4_4 
REMARK    2  A    between atoms: C4_4  and  C5_5 
REMARK    3  A    between atoms: C8_9  and  C9_10 
REMARK    4  A    between atoms: C11_12  and  O1_13 
REMARK    5  A    between atoms: N1_18  and  C14_19 
ROOT
HETATM    1  C4  UNL     1      -0.465  -0.662  -0.750  1.00  0.00     0.030 C 
ENDROOT
BRANCH   1   2
HETATM    2  C3  UNL     1       0.586  -0.166  -0.155  1.00  0.00     0.014 A 
HETATM    3  C2  UNL     1       1.859  -0.093  -0.742  1.00  0.00     0.037 A 
HETATM    4  C1  UNL     1       2.161  -0.513  -1.965  1.00  0.00     0.044 C 
HETATM    5  N1  UNL     1       2.708   0.463   0.121  1.00  0.00    -0.351 N 
HETATM    6  C13 UNL     1       2.023   0.747   1.238  1.00  0.00     0.116 A 
HETATM    7  C12 UNL     1       0.706   0.374   1.108  1.00  0.00     0.062 A 
HETATM    8 CL1  UNL     1      -0.577   0.538   2.304  1.00  0.00    -0.082 Cl
BRANCH   5   9
HETATM    9  C14 UNL     1       4.134   0.696  -0.159  1.00  0.00     0.081 C 
HETATM   10  C15 UNL     1       4.700   1.747   0.751  1.00  0.00     0.032 C 
HETATM   11  C16 UNL     1       4.924  -0.591   0.074  1.00  0.00     0.032 C 
ENDBRANCH   5   9
ENDBRANCH   1   2
BRANCH   1  12
HETATM   12  C5  UNL     1      -1.816  -0.742  -0.134  1.00  0.00     0.012 A 
HETATM   13  C6  UNL     1      -2.230  -1.863   0.538  1.00  0.00    -0.008 A 
HETATM   14  C7  UNL     1      -1.431  -3.129   0.772  1.00  0.00     0.057 C 
HETATM   15  S1  UNL     1      -3.813  -1.468   1.014  1.00  0.00    -0.096 SA
HETATM   16  C8  UNL     1      -3.921   0.096   0.360  1.00  0.00     0.017 A 
HETATM   17  C11 UNL     1      -2.697   0.279  -0.226  1.00  0.00     0.090 A 
BRANCH  16  18
HETATM   18  C9  UNL     1      -5.099   1.039   0.419  1.00  0.00     0.045 C 
HETATM   19  C10 UNL     1      -5.845   1.099  -0.870  1.00  0.00     0.010 C 
ENDBRANCH  16  18
BRANCH  17  20
HETATM   20  O1  UNL     1      -2.444   1.519  -0.884  1.00  0.00    -0.359 OA
ATOM     21  H1  UNL     1      -3.063   2.237  -0.949  1.00  0.00     0.217 HD
ENDBRANCH  17  20
ENDBRANCH   1  12
TORSDOF 5
