REMARK  4 active torsions:
REMARK  status: ('A' for Active; 'I' for Inactive)
REMARK    1  A    between atoms: C5_12  and  N4_13 
REMARK    2  A    between atoms: N4_13  and  C6_15 
REMARK    3  A    between atoms: C6_15  and  C7_16 
REMARK    4  A    between atoms: C13_24  and  C14_25 
ROOT
HETATM    1  C1  UNL     1      -4.451   0.742   0.223  1.00  0.00     0.068 C 
HETATM    2  C2  UNL     1      -3.303   0.097  -0.473  1.00  0.00     0.014 A 
HETATM    3  N1  UNL     1      -3.503  -0.701  -1.535  1.00  0.00    -0.345 N 
ATOM      4  H1  UNL     1      -4.404  -0.921  -1.959  1.00  0.00     0.167 HD
HETATM    5  C3  UNL     1      -2.317  -1.154  -1.936  1.00  0.00     0.122 A 
HETATM    6  N2  UNL     1      -1.940  -1.948  -2.963  1.00  0.00    -0.318 N 
ATOM      7  H2  UNL     1      -2.655  -2.340  -3.575  1.00  0.00     0.170 HD
HETATM    8  C4  UNL     1      -0.660  -2.232  -3.197  1.00  0.00     0.182 A 
HETATM    9 CL1  UNL     1      -0.278  -3.290  -4.526  1.00  0.00    -0.045 Cl
HETATM   10  N3  UNL     1       0.334  -1.744  -2.429  1.00  0.00    -0.318 N 
ATOM     11  H3  UNL     1       1.309  -1.969  -2.628  1.00  0.00     0.170 HD
HETATM   12  C5  UNL     1       0.000  -0.941  -1.378  1.00  0.00     0.118 A 
HETATM   13  C12 UNL     1      -1.304  -0.634  -1.103  1.00  0.00     0.060 A 
HETATM   14  C13 UNL     1      -1.969   0.173  -0.157  1.00  0.00    -0.015 A 
ENDROOT
BRANCH  12  15
HETATM   15  N4  UNL     1       0.958  -0.374  -0.689  1.00  0.00    -0.371 N 
ATOM     16  H4  UNL     1       0.699   0.224   0.096  1.00  0.00     0.161 HD
BRANCH  15  17
HETATM   17  C6  UNL     1       2.352  -0.549  -0.979  1.00  0.00     0.160 C 
BRANCH  17  18
HETATM   18  C7  UNL     1       3.270  -0.135   0.092  1.00  0.00    -0.038 A 
HETATM   19  C8  UNL     1       3.884   1.118   0.083  1.00  0.00     0.025 A 
HETATM   20  C9  UNL     1       4.785   1.474   1.057  1.00  0.00     0.088 A 
HETATM   21  N5  UNL     1       5.081   0.594   2.045  1.00  0.00    -0.375 N 
HETATM   22  C10 UNL     1       4.523  -0.625   2.113  1.00  0.00     0.088 A 
ATOM     23  H5  UNL     1       5.752   0.868   2.763  1.00  0.00     0.164 HD
HETATM   24  C11 UNL     1       3.624  -0.963   1.127  1.00  0.00     0.025 A 
ENDBRANCH  17  18
ENDBRANCH  15  17
ENDBRANCH  12  15
BRANCH  14  25
HETATM   25  C14 UNL     1      -1.372   1.013   0.847  1.00  0.00     0.013 C 
HETATM   26  C15 UNL     1      -0.670   0.164   1.928  1.00  0.00     0.015 C 
HETATM   27  C16 UNL     1      -2.200   2.027   1.542  1.00  0.00     0.015 C 
ENDBRANCH  14  25
TORSDOF 4
