REMARK  4 active torsions:
REMARK  status: ('A' for Active; 'I' for Inactive)
REMARK    1  A    between atoms: C3_4  and  C4_5 
REMARK    2  A    between atoms: C4_5  and  N1_6 
REMARK    3  A    between atoms: N1_6  and  C6_8 
REMARK    4  A    between atoms: C7_11  and  N3_12 
ROOT
HETATM    1  C6  UNL     1       2.054   0.485   0.166  1.00  0.00     0.681 A 
HETATM    2  N2  UNL     1       2.456  -0.712  -0.347  1.00  0.00    -0.177 N 
ATOM      3  H2  UNL     1       1.854  -1.525  -0.216  1.00  0.00     0.185 HD
HETATM    4  C7  UNL     1       3.600  -0.868  -1.012  1.00  0.00     0.116 A 
HETATM    5  C8  UNL     1       4.421   0.211  -1.199  1.00  0.00     0.066 A 
HETATM    6  C9  UNL     1       4.048   1.437  -0.695  1.00  0.00     0.110 A 
HETATM    7  N4  UNL     1       2.883   1.523  -0.036  1.00  0.00    -0.202 N 
ATOM      8  H4  UNL     1       2.609   2.433   0.335  1.00  0.00     0.183 HD
ENDROOT
BRANCH   1   9
HETATM    9  N1  UNL     1       0.830   0.617   0.870  1.00  0.00    -0.216 N 
HETATM   10  C5  UNL     1       0.483   1.925   1.379  1.00  0.00     0.169 C 
BRANCH   9  11
HETATM   11  C4  UNL     1       0.004  -0.546   1.038  1.00  0.00     0.206 C 
BRANCH  11  12
HETATM   12  C3  UNL     1      -1.340  -0.383   0.431  1.00  0.00     0.079 A 
HETATM   13  O1  UNL     1      -1.835   0.649  -0.208  1.00  0.00    -0.316 OA
HETATM   14  C2  UNL     1      -3.065   0.423  -0.604  1.00  0.00     0.067 A 
HETATM   15  C1  UNL     1      -3.883   1.431  -1.362  1.00  0.00     0.078 C 
HETATM   16  C12 UNL     1      -3.417  -0.832  -0.206  1.00  0.00     0.048 A 
HETATM   17  C10 UNL     1      -2.323  -1.349   0.453  1.00  0.00    -0.011 A 
HETATM   18 BR1  UNL     1      -5.090  -1.689  -0.507  1.00  0.00    -0.048 Br
HETATM   19  C11 UNL     1      -2.274  -2.712   1.056  1.00  0.00     0.052 C 
ENDBRANCH  11  12
ENDBRANCH   9  11
ENDBRANCH   1   9
BRANCH   4  20
HETATM   20  N3  UNL     1       3.931  -2.033  -1.478  1.00  0.00    -0.385 N 
ATOM     21  H32 UNL     1       3.319  -2.837  -1.339  1.00  0.00     0.157 HD
ATOM     22  H31 UNL     1       4.807  -2.152  -1.987  1.00  0.00     0.157 HD
ENDBRANCH   4  20
TORSDOF 4
