REMARK  3 active torsions:
REMARK  status: ('A' for Active; 'I' for Inactive)
REMARK    1  A    between atoms: C3_5  and  S1_6 
REMARK    2  A    between atoms: S1_6  and  C4_7 
REMARK    3  A    between atoms: C4_7  and  C5_8 
ROOT
HETATM    1  S1  UNL     1      -0.313  -0.811   0.500  1.00  0.00    -0.086 SA
ENDROOT
BRANCH   1   2
HETATM    2  C3  UNL     1      -2.103  -0.803   0.494  1.00  0.00     0.145 A 
HETATM    3  N1  UNL     1      -2.769  -1.646   1.210  1.00  0.00    -0.336 N 
HETATM    4  C2  UNL     1      -4.178  -1.657   1.221  1.00  0.00     0.048 A 
ATOM      5  H1  UNL     1      -2.262  -2.321   1.782  1.00  0.00     0.168 HD
HETATM    6  C1  UNL     1      -4.878  -2.520   1.954  1.00  0.00     0.045 C 
HETATM    7  C14 UNL     1      -4.884  -0.685   0.397  1.00  0.00     0.082 A 
HETATM    8  C12 UNL     1      -4.177   0.183  -0.339  1.00  0.00     0.031 A 
HETATM    9 CL1  UNL     1      -6.628  -0.587   0.316  1.00  0.00    -0.080 Cl
HETATM   10  N4  UNL     1      -2.762   0.157  -0.319  1.00  0.00    -0.339 N 
HETATM   11  C13 UNL     1      -4.900   1.179  -1.184  1.00  0.00     0.070 C 
ATOM     12  H4  UNL     1      -2.224   0.818  -0.880  1.00  0.00     0.168 HD
ENDBRANCH   1   2
BRANCH   1  13
HETATM   13  C4  UNL     1       0.340   0.467  -0.585  1.00  0.00     0.158 C 
BRANCH  13  14
HETATM   14  C5  UNL     1       1.833   0.402  -0.531  1.00  0.00     0.092 A 
HETATM   15  N2  UNL     1       2.648  -0.322  -1.313  1.00  0.00    -0.343 N 
HETATM   16  C6  UNL     1       3.930  -0.121  -0.966  1.00  0.00     0.060 A 
ATOM     17  H2  UNL     1       2.338  -0.938  -2.065  1.00  0.00     0.167 HD
HETATM   18  C7  UNL     1       5.150  -0.584  -1.405  1.00  0.00     0.032 A 
HETATM   19  C11 UNL     1       3.935   0.784   0.102  1.00  0.00     0.060 A 
HETATM   20  C8  UNL     1       6.339  -0.188  -0.835  1.00  0.00     0.002 A 
HETATM   21  C9  UNL     1       6.330   0.706   0.219  1.00  0.00     0.002 A 
HETATM   22  C10 UNL     1       5.124   1.184   0.677  1.00  0.00     0.032 A 
HETATM   23  N3  UNL     1       2.634   1.064   0.319  1.00  0.00    -0.343 N 
ATOM     24  H3  UNL     1       2.299   1.701   1.041  1.00  0.00     0.167 HD
ENDBRANCH  13  14
ENDBRANCH   1  13
TORSDOF 3
