REMARK  3 active torsions:
REMARK  status: ('A' for Active; 'I' for Inactive)
REMARK    1  A    between atoms: C6_6  and  N1_7 
REMARK    2  A    between atoms: N1_7  and  C7_9 
REMARK    3  A    between atoms: C7_9  and  C8_10 
ROOT
HETATM    1  C1  UNL     1      -3.517  -0.264   1.947  1.00  0.00     0.037 C 
HETATM    2  C2  UNL     1      -2.526  -0.483   0.774  1.00  0.00     0.019 C 
HETATM    3  C3  UNL     1      -3.228  -1.553  -0.070  1.00  0.00     0.037 C 
HETATM    4  C4  UNL     1      -1.350  -1.124   1.406  1.00  0.00     0.032 C 
HETATM    5  C5  UNL     1      -0.083  -1.085   0.639  1.00  0.00     0.027 C 
HETATM    6  C6  UNL     1       0.500   0.297   0.763  1.00  0.00     0.079 C 
HETATM    7  C12 UNL     1      -0.014   1.324  -0.140  1.00  0.00     0.054 C 
HETATM    8  C13 UNL     1      -1.405   1.152  -0.680  1.00  0.00     0.021 C 
HETATM    9  C14 UNL     1      -1.785   2.614  -1.050  1.00  0.00     0.037 C 
HETATM   10  C15 UNL     1      -1.382   0.452  -2.038  1.00  0.00     0.037 C 
HETATM   11  N2  UNL     1      -2.396   0.755   0.192  1.00  0.00    -0.405 N 
ATOM     12  H2  UNL     1      -3.104   1.450   0.429  1.00  0.00     0.154 HD
ENDROOT
BRANCH   6  13
HETATM   13  N1  UNL     1       1.930   0.201   0.728  1.00  0.00    -0.413 N 
ATOM     14  H1  UNL     1       2.512   0.490   1.514  1.00  0.00     0.153 HD
BRANCH  13  15
HETATM   15  C7  UNL     1       2.489  -0.324  -0.475  1.00  0.00     0.153 C 
BRANCH  15  16
HETATM   16  C8  UNL     1       3.997  -0.319  -0.251  1.00  0.00    -0.033 A 
HETATM   17  C9  UNL     1       4.746   0.767  -0.629  1.00  0.00     0.059 A 
HETATM   18  S1  UNL     1       6.328   0.317  -0.186  1.00  0.00    -0.094 SA
HETATM   19  C10 UNL     1       6.008  -1.222   0.461  1.00  0.00     0.051 A 
HETATM   20 BR1  UNL     1       7.227  -2.509   1.227  1.00  0.00    -0.043 Br
HETATM   21  C11 UNL     1       4.653  -1.348   0.313  1.00  0.00     0.036 A 
ENDBRANCH  15  16
ENDBRANCH  13  15
ENDBRANCH   6  13
TORSDOF 3
