REMARK  5 active torsions:
REMARK  status: ('A' for Active; 'I' for Inactive)
REMARK    1  A    between atoms: C6_6  and  C7_7 
REMARK    2  A    between atoms: C7_7  and  N1_8 
REMARK    3  A    between atoms: C8_9  and  O1_10 
REMARK    4  A    between atoms: C11_14  and  C12_15 
REMARK    5  A    between atoms: C13_17  and  O2_18 
ROOT
HETATM    1  N1  UNL     1       1.245   0.120   0.822  1.00  0.00    -0.281 N 
HETATM    2  C8  UNL     1       1.952  -0.795   0.109  1.00  0.00     0.155 A 
HETATM    3  C9  UNL     1       3.177  -0.296  -0.278  1.00  0.00     0.001 A 
HETATM    4  C10 UNL     1       4.186  -1.050  -1.071  1.00  0.00     0.053 C 
HETATM    5  C11 UNL     1       3.224   0.967   0.214  1.00  0.00     0.013 A 
HETATM    6  C13 UNL     1       2.059   1.220   0.881  1.00  0.00     0.156 A 
ENDROOT
BRANCH   1   7
HETATM    7  C7  UNL     1      -0.007  -0.006   1.518  1.00  0.00     0.113 C 
BRANCH   7   8
HETATM    8  C6  UNL     1      -1.248  -0.091   0.793  1.00  0.00    -0.008 A 
HETATM    9  C4  UNL     1      -1.845   0.876   0.041  1.00  0.00    -0.049 A 
HETATM   10  C3  UNL     1      -3.084   0.699  -0.607  1.00  0.00     0.014 A 
HETATM   11  C5  UNL     1      -1.183   2.209  -0.099  1.00  0.00     0.049 C 
HETATM   12  C2  UNL     1      -3.755  -0.476  -0.506  1.00  0.00    -0.061 A 
HETATM   13  C1  UNL     1      -5.070  -0.727  -1.168  1.00  0.00     0.048 C 
HETATM   14  C16 UNL     1      -3.187  -1.471   0.242  1.00  0.00     0.014 A 
HETATM   15  C14 UNL     1      -1.969  -1.296   0.880  1.00  0.00    -0.049 A 
HETATM   16  C15 UNL     1      -1.501  -2.397   1.701  1.00  0.00     0.049 C 
ENDBRANCH   7   8
ENDBRANCH   1   7
BRANCH   2  17
HETATM   17  O1  UNL     1       1.482  -2.068  -0.185  1.00  0.00    -0.345 OA
ATOM     18  H1  UNL     1       1.976  -2.708  -0.684  1.00  0.00     0.219 HD
ENDBRANCH   2  17
BRANCH   6  19
HETATM   19  O2  UNL     1       1.840   2.453   1.502  1.00  0.00    -0.345 OA
ATOM     20  H2  UNL     1       2.405   3.216   1.543  1.00  0.00     0.219 HD
ENDBRANCH   6  19
BRANCH   5  21
HETATM   21  C12 UNL     1       4.369   1.902   0.037  1.00  0.00     0.129 C 
HETATM   22 BR1  UNL     1       4.404   2.655  -1.732  1.00  0.00    -0.091 Br
ENDBRANCH   5  21
TORSDOF 5
