REMARK  5 active torsions:
REMARK  status: ('A' for Active; 'I' for Inactive)
REMARK    1  A    between atoms: C5_5  and  C6_6 
REMARK    2  A    between atoms: C6_6  and  C7_7 
REMARK    3  A    between atoms: C7_7  and  O1_8 
REMARK    4  A    between atoms: C10_12  and  C11_13 
REMARK    5  A    between atoms: C11_13  and  O2_14 
ROOT
HETATM    1  C1  UNL     1       5.482   1.619  -1.038  1.00  0.00     0.017 C 
HETATM    2  C2  UNL     1       4.546   0.963  -0.652  1.00  0.00    -0.083 C 
HETATM    3  C3  UNL     1       3.448   0.177  -0.179  1.00  0.00    -0.013 C 
HETATM    4  C4  UNL     1       3.493  -0.386   1.187  1.00  0.00     0.057 C 
HETATM    5  C5  UNL     1       2.413  -0.041  -0.954  1.00  0.00    -0.008 C 
ENDROOT
BRANCH   5   6
HETATM    6  C6  UNL     1       1.296  -0.841  -0.474  1.00  0.00     0.071 C 
BRANCH   6   7
HETATM    7  C7  UNL     1      -0.016  -0.146  -0.443  1.00  0.00     0.089 C 
HETATM    8  C8  UNL     1      -0.035   1.067   0.441  1.00  0.00     0.044 C 
HETATM    9  C9  UNL     1      -1.394   1.614   0.705  1.00  0.00     0.015 C 
HETATM   10  C10 UNL     1      -2.496   0.959  -0.091  1.00  0.00     0.050 C 
HETATM   11  C12 UNL     1      -2.336  -0.528   0.125  1.00  0.00    -0.001 A 
HETATM   12  S1  UNL     1      -3.340  -1.829   0.564  1.00  0.00    -0.086 SA
HETATM   13  C15 UNL     1      -1.112  -1.114  -0.041  1.00  0.00    -0.008 A 
HETATM   14  C13 UNL     1      -2.192  -3.085   0.528  1.00  0.00     0.052 A 
HETATM   15 BR1  UNL     1      -2.399  -4.964   0.893  1.00  0.00    -0.043 Br
HETATM   16  C14 UNL     1      -1.035  -2.442   0.168  1.00  0.00     0.038 A 
BRANCH   7  17
HETATM   17  O1  UNL     1      -0.323   0.256  -1.745  1.00  0.00    -0.385 OA
ATOM     18  H1  UNL     1      -1.162   0.701  -1.725  1.00  0.00     0.211 HD
ENDBRANCH   7  17
BRANCH  10  19
HETATM   19  C11 UNL     1      -3.811   1.382   0.534  1.00  0.00     0.173 C 
BRANCH  19  20
HETATM   20  O2  UNL     1      -4.904   0.830  -0.130  1.00  0.00    -0.400 OA
ATOM     21  H2  UNL     1      -5.728   1.095   0.262  1.00  0.00     0.209 HD
ENDBRANCH  19  20
ENDBRANCH  10  19
ENDBRANCH   6   7
ENDBRANCH   5   6
TORSDOF 5
