REMARK  7 active torsions:
REMARK  status: ('A' for Active; 'I' for Inactive)
REMARK    1  A    between atoms: C2_2  and  C3_3 
REMARK    2  A    between atoms: N1_11  and  C10_12 
REMARK    3  A    between atoms: C10_12  and  C11_13 
REMARK    4  A    between atoms: C11_13  and  N2_14 
REMARK    5  A    between atoms: N4_28  and  C19_29 
REMARK    6  A    between atoms: C19_29  and  C20_30 
REMARK    7  A    between atoms: C25_35  and  O5_36 
ROOT
HETATM    1  C1  UNL     1      -2.208   1.146  -2.355  1.00  0.00     0.055 C 
HETATM    2  C2  UNL     1      -1.459   0.551  -1.195  1.00  0.00     0.146 C 
HETATM    3  C9  UNL     1      -0.033   0.313  -1.696  1.00  0.00     0.261 C 
HETATM    4  O1  UNL     1       0.515   0.851  -2.621  1.00  0.00    -0.270 OA
HETATM    5  N1  UNL     1       0.446  -0.686  -0.797  1.00  0.00    -0.266 N 
HETATM    6  C18 UNL     1      -0.737  -1.405  -0.352  1.00  0.00     0.332 C 
HETATM    7  O4  UNL     1      -0.774  -2.347   0.432  1.00  0.00    -0.246 OA
HETATM    8  N4  UNL     1      -1.879  -0.818  -0.997  1.00  0.00    -0.286 N 
ENDROOT
BRANCH   5   9
HETATM    9  C10 UNL     1       1.825  -0.915  -0.425  1.00  0.00     0.158 C 
BRANCH   9  10
HETATM   10  C11 UNL     1       2.191  -0.094   0.791  1.00  0.00     0.164 C 
BRANCH  10  11
HETATM   11  N2  UNL     1       3.575  -0.342   1.141  1.00  0.00    -0.255 N 
HETATM   12  C12 UNL     1       4.753   0.328   0.710  1.00  0.00     0.073 A 
HETATM   13  C13 UNL     1       4.795   1.277  -0.322  1.00  0.00     0.033 A 
HETATM   14  C17 UNL     1       5.881  -0.000   1.364  1.00  0.00     0.071 A 
HETATM   15  C14 UNL     1       5.967   1.890  -0.689  1.00  0.00     0.002 A 
HETATM   16  C15 UNL     1       7.126   1.559  -0.023  1.00  0.00     0.002 A 
HETATM   17  C16 UNL     1       7.080   0.627   0.989  1.00  0.00     0.032 A 
HETATM   18  N3  UNL     1       5.749  -0.964   2.384  1.00  0.00    -0.265 N 
HETATM   19  S1  UNL     1       4.148  -1.572   2.222  1.00  0.00     0.326 S 
ATOM     20  H3  UNL     1       6.451  -1.241   3.070  1.00  0.00     0.180 HD
HETATM   21  O2  UNL     1       3.392  -1.581   3.499  1.00  0.00    -0.182 OA
HETATM   22  O3  UNL     1       4.118  -2.900   1.523  1.00  0.00    -0.182 OA
ENDBRANCH  10  11
ENDBRANCH   9  10
ENDBRANCH   5   9
BRANCH   2  23
HETATM   23  C3  UNL     1      -1.308   1.467  -0.084  1.00  0.00    -0.021 A 
HETATM   24  C4  UNL     1      -0.582   2.637  -0.406  1.00  0.00     0.010 A 
HETATM   25  C5  UNL     1      -0.329   3.586   0.538  1.00  0.00     0.001 A 
HETATM   26  C6  UNL     1      -0.759   3.458   1.835  1.00  0.00     0.000 A 
HETATM   27  C7  UNL     1      -1.462   2.316   2.133  1.00  0.00     0.001 A 
HETATM   28  C8  UNL     1      -1.742   1.324   1.200  1.00  0.00     0.010 A 
ENDBRANCH   2  23
BRANCH   8  29
HETATM   29  C19 UNL     1      -3.048  -1.420  -1.521  1.00  0.00     0.111 C 
BRANCH  29  30
HETATM   30  C20 UNL     1      -4.220  -1.712  -0.758  1.00  0.00     0.013 A 
HETATM   31  C21 UNL     1      -4.377  -1.592   0.583  1.00  0.00     0.015 A 
HETATM   32  C22 UNL     1      -5.537  -1.944   1.271  1.00  0.00     0.001 A 
HETATM   33  C23 UNL     1      -6.608  -2.448   0.585  1.00  0.00     0.003 A 
HETATM   34  C24 UNL     1      -6.475  -2.583  -0.780  1.00  0.00     0.037 A 
HETATM   35  C25 UNL     1      -5.339  -2.237  -1.453  1.00  0.00     0.077 A 
BRANCH  35  36
HETATM   36  O5  UNL     1      -5.276  -2.399  -2.824  1.00  0.00    -0.360 OA
ATOM     37  H5  UNL     1      -6.026  -2.751  -3.290  1.00  0.00     0.217 HD
ENDBRANCH  35  36
ENDBRANCH  29  30
ENDBRANCH   8  29
TORSDOF 7
