REMARK  3 active torsions:
REMARK  status: ('A' for Active; 'I' for Inactive)
REMARK    1  A    between atoms: S1_2  and  C2_3 
REMARK    2  A    between atoms: C2_3  and  C3_4 
REMARK    3  A    between atoms: C2_3  and  C6_10 
ROOT
HETATM    1  C3  UNL     1       0.348  -0.253  -0.337  1.00  0.00     0.060 C 
HETATM    2  N1  UNL     1       1.166  -0.469  -1.250  1.00  0.00    -0.366 N 
ATOM      3  H1  UNL     1       0.826  -0.717  -2.179  1.00  0.00     0.165 HD
HETATM    4  C4  UNL     1       2.530  -0.378  -1.027  1.00  0.00     0.072 C 
HETATM    5  C5  UNL     1       2.855   0.539   0.131  1.00  0.00     0.125 C 
HETATM    6  S2  UNL     1       1.339   0.167   1.119  1.00  0.00    -0.110 SA
ENDROOT
BRANCH   1   7
HETATM    7  C2  UNL     1      -1.134  -0.278  -0.289  1.00  0.00     0.107 C 
BRANCH   7   8
HETATM    8  S1  UNL     1      -1.681  -1.494   0.968  1.00  0.00    -0.162 SA
HETATM    9  C1  UNL     1      -1.206  -3.176   0.416  1.00  0.00     0.090 C 
ENDBRANCH   7   8
BRANCH   7  10
HETATM   10  C6  UNL     1      -1.779   1.046  -0.098  1.00  0.00     0.006 A 
HETATM   11  C7  UNL     1      -1.626   1.840   1.142  1.00  0.00     0.006 A 
HETATM   12  C8  UNL     1      -1.029   2.327  -0.187  1.00  0.00     0.006 A 
ENDBRANCH   7  10
ENDBRANCH   1   7
TORSDOF 3
