REMARK  3 active torsions:
REMARK  status: ('A' for Active; 'I' for Inactive)
REMARK    1  A    between atoms: O1_2  and  N1_3 
REMARK    2  A    between atoms: C2_5  and  C3_6 
REMARK    3  A    between atoms: C3_6  and  N2_7 
ROOT
HETATM    1  N2  UNL     1       0.057  -0.484   0.130  1.00  0.00    -0.277 NA
HETATM    2  C4  UNL     1      -1.168  -1.285   0.226  1.00  0.00     0.096 C 
HETATM    3  C5  UNL     1      -2.107  -1.047   1.283  1.00  0.00     0.016 C 
HETATM    4  C6  UNL     1      -3.330  -0.137   1.102  1.00  0.00     0.012 C 
HETATM    5  C7  UNL     1      -2.914   1.287   0.613  1.00  0.00     0.081 C 
HETATM    6  C8  UNL     1      -1.593   1.190   0.127  1.00  0.00    -0.163 C 
HETATM    7  C9  UNL     1      -0.281   0.909  -0.309  1.00  0.00     0.124 C 
HETATM    8  C10 UNL     1      -0.087   1.046  -1.824  1.00  0.00     0.039 C 
ENDROOT
BRANCH   1   9
HETATM    9  C3  UNL     1       0.964  -1.148  -0.709  1.00  0.00     0.080 C 
BRANCH   9  10
HETATM   10  C2  UNL     1       2.379  -0.634  -0.598  1.00  0.00     0.125 C 
HETATM   11  N1  UNL     1       2.591   0.241   0.279  1.00  0.00    -0.278 N 
ATOM     12  H1  UNL     1       1.776   0.516   0.827  1.00  0.00     0.193 HD
BRANCH  11  13
HETATM   13  O1  UNL     1       3.737   0.866   0.599  1.00  0.00    -0.286 OA
HETATM   14  C1  UNL     1       4.996   0.301   0.349  1.00  0.00     0.237 C 
ENDBRANCH  11  13
ENDBRANCH   9  10
ENDBRANCH   1   9
TORSDOF 3
