REMARK  7 active torsions:
REMARK  status: ('A' for Active; 'I' for Inactive)
REMARK    1  A    between atoms: C2_2  and  O1_3 
REMARK    2  A    between atoms: C2_2  and  C3_5 
REMARK    3  A    between atoms: N1_10  and  C6_11 
REMARK    4  A    between atoms: C7_12  and  N2_13 
REMARK    5  A    between atoms: N2_13  and  C8_15 
REMARK    6  A    between atoms: C13_20  and  N3_21 
REMARK    7  A    between atoms: N4_26  and  C15_27 
ROOT
HETATM    1  C6  UNL     1      -1.710  -0.134  -0.582  1.00  0.00     0.095 A 
HETATM    2  C7  UNL     1      -0.530   0.474  -0.205  1.00  0.00     0.073 A 
HETATM    3  C14 UNL     1      -0.532   1.796   0.222  1.00  0.00     0.126 A 
HETATM    4  N4  UNL     1      -1.679   2.527   0.283  1.00  0.00    -0.316 N 
HETATM    5  C18 UNL     1      -2.820   1.926  -0.084  1.00  0.00     0.272 A 
HETATM    6  O4  UNL     1      -3.901   2.573  -0.040  1.00  0.00    -0.266 OA
HETATM    7  C19 UNL     1      -2.855   0.615  -0.513  1.00  0.00     0.131 A 
HETATM    8 CL1  UNL     1      -4.389  -0.080  -0.969  1.00  0.00    -0.076 Cl
ENDROOT
BRANCH   2   9
HETATM    9  N2  UNL     1       0.693  -0.247  -0.242  1.00  0.00    -0.380 N 
ATOM     10  H2  UNL     1       0.638  -1.226  -0.524  1.00  0.00     0.160 HD
BRANCH   9  11
HETATM   11  C8  UNL     1       1.990   0.256   0.074  1.00  0.00     0.112 C 
HETATM   12  C9  UNL     1       2.972  -0.903  -0.006  1.00  0.00     0.027 C 
HETATM   13  C10 UNL     1       4.350  -0.517   0.473  1.00  0.00     0.002 C 
HETATM   14  C11 UNL     1       4.768   0.830  -0.087  1.00  0.00     0.002 C 
HETATM   15  C12 UNL     1       3.938   1.028  -1.339  1.00  0.00     0.035 C 
HETATM   16  C13 UNL     1       2.508   1.293  -0.883  1.00  0.00     0.206 C 
BRANCH  16  17
HETATM   17  N3  UNL     1       1.716   1.453  -2.065  1.00  0.00    -0.073 N 
ATOM     18  H33 UNL     1       1.599   0.558  -2.539  1.00  0.00     0.274 HD
ATOM     19  H32 UNL     1       0.745   1.648  -1.820  1.00  0.00     0.274 HD
ATOM     20  H31 UNL     1       2.067   2.157  -2.714  1.00  0.00     0.274 HD
ENDBRANCH  16  17
ENDBRANCH   9  11
ENDBRANCH   2   9
BRANCH   1  21
HETATM   21  N1  UNL     1      -1.818  -1.473  -1.036  1.00  0.00    -0.280 N 
HETATM   22  C3  UNL     1      -2.459  -2.617  -0.450  1.00  0.00     0.148 C 
HETATM   23  C4  UNL     1      -2.677  -3.556  -1.604  1.00  0.00     0.209 C 
HETATM   24  O2  UNL     1      -1.488  -3.323  -2.373  1.00  0.00    -0.301 OA
HETATM   25  C5  UNL     1      -1.266  -1.953  -2.267  1.00  0.00     0.368 C 
HETATM   26  O3  UNL     1      -0.669  -1.244  -3.127  1.00  0.00    -0.238 OA
BRANCH  22  27
HETATM   27  C2  UNL     1      -1.618  -3.347   0.572  1.00  0.00     0.139 C 
HETATM   28  C1  UNL     1      -2.524  -4.421   1.189  1.00  0.00     0.041 C 
BRANCH  27  29
HETATM   29  O1  UNL     1      -1.311  -2.487   1.605  1.00  0.00    -0.394 OA
ATOM     30  H1  UNL     1      -0.750  -1.822   1.223  1.00  0.00     0.210 HD
ENDBRANCH  27  29
ENDBRANCH  22  27
ENDBRANCH   1  21
BRANCH   4  31
HETATM   31  C15 UNL     1      -1.668   3.910   0.730  1.00  0.00     0.092 A 
HETATM   32  C16 UNL     1      -0.818   4.319   1.880  1.00  0.00     0.028 A 
HETATM   33  C17 UNL     1      -2.287   4.314   2.003  1.00  0.00     0.028 A 
ENDBRANCH   4  31
TORSDOF 7
