REMARK  9 active torsions:
REMARK  status: ('A' for Active; 'I' for Inactive)
REMARK    1  A    between atoms: C4_5  and  N1_6 
REMARK    2  A    between atoms: C7_12  and  N3_13 
REMARK    3  A    between atoms: N3_13  and  C8_15 
REMARK    4  A    between atoms: C8_15  and  C9_16 
REMARK    5  A    between atoms: C9_16  and  C10_17 
REMARK    6  A    between atoms: C10_17  and  C11_18 
REMARK    7  A    between atoms: C12_22  and  N5_23 
REMARK    8  A    between atoms: N5_23  and  C13_25 
REMARK    9  A    between atoms: C18_32  and  O2_33 
ROOT
HETATM    1  N1  UNL     1       1.435   0.889   0.060  1.00  0.00    -0.303 N 
HETATM    2  C5  UNL     1       0.694   2.013  -0.085  1.00  0.00     0.160 A 
HETATM    3  S1  UNL     1       1.315   3.708  -0.169  1.00  0.00    -0.013 SA
HETATM    4  N2  UNL     1      -0.599   1.724  -0.162  1.00  0.00    -0.330 N 
ATOM      5  H2  UNL     1      -1.360   2.394  -0.272  1.00  0.00     0.168 HD
HETATM    6  C6  UNL     1      -0.725   0.381  -0.068  1.00  0.00     0.124 A 
HETATM    7  C7  UNL     1      -1.793  -0.488  -0.082  1.00  0.00     0.147 A 
HETATM    8  N4  UNL     1      -1.518  -1.808   0.042  1.00  0.00    -0.175 N 
ATOM      9  H4  UNL     1      -2.297  -2.466   0.033  1.00  0.00     0.186 HD
HETATM   10  C12 UNL     1      -0.274  -2.298   0.176  1.00  0.00     0.681 A 
HETATM   11  N6  UNL     1       0.775  -1.456   0.191  1.00  0.00    -0.174 N 
ATOM     12  H6  UNL     1       1.725  -1.814   0.292  1.00  0.00     0.186 HD
HETATM   13  C16 UNL     1       0.552  -0.137   0.071  1.00  0.00     0.156 A 
ENDROOT
BRANCH   1  14
HETATM   14  C4  UNL     1       2.850   0.876   0.170  1.00  0.00     0.121 C 
HETATM   15  C3  UNL     1       3.442   0.256   1.386  1.00  0.00     0.201 C 
HETATM   16  O1  UNL     1       4.732   0.875   1.573  1.00  0.00    -0.352 OA
HETATM   17  C2  UNL     1       5.312   1.348   0.397  1.00  0.00     0.065 C 
HETATM   18  C1  UNL     1       6.177   2.346   0.423  1.00  0.00     0.048 C 
HETATM   19  C18 UNL     1       5.004   0.772  -0.937  1.00  0.00     0.175 C 
HETATM   20  C17 UNL     1       3.566   0.276  -1.042  1.00  0.00     0.066 C 
BRANCH  19  21
HETATM   21  O2  UNL     1       5.881  -0.256  -1.273  1.00  0.00    -0.389 OA
ATOM     22  H2  UNL     1       5.684  -0.624  -2.126  1.00  0.00     0.210 HD
ENDBRANCH  19  21
ENDBRANCH   1  14
BRANCH   7  23
HETATM   23  N3  UNL     1      -2.973  -0.045  -0.208  1.00  0.00    -0.374 N 
ATOM     24  H3  UNL     1      -3.722  -0.738  -0.212  1.00  0.00     0.161 HD
BRANCH  23  25
HETATM   25  C8  UNL     1      -3.370   1.329  -0.346  1.00  0.00     0.121 C 
BRANCH  25  26
HETATM   26  C9  UNL     1      -4.876   1.452  -0.502  1.00  0.00     0.021 C 
BRANCH  26  27
HETATM   27  C10 UNL     1      -5.241   2.929  -0.644  1.00  0.00     0.017 C 
BRANCH  27  28
HETATM   28  C11 UNL     1      -6.734   3.094  -0.802  1.00  0.00     0.114 C 
HETATM   29 CL1  UNL     1      -7.358   2.263  -2.219  1.00  0.00    -0.130 Cl
ENDBRANCH  27  28
ENDBRANCH  26  27
ENDBRANCH  25  26
ENDBRANCH  23  25
ENDBRANCH   7  23
BRANCH  10  30
HETATM   30  N5  UNL     1      -0.045  -3.552   0.291  1.00  0.00    -0.221 N 
ATOM     31  H5  UNL     1       0.925  -3.851   0.389  1.00  0.00     0.178 HD
BRANCH  30  32
HETATM   32  C13 UNL     1      -1.063  -4.570   0.292  1.00  0.00     0.099 A 
HETATM   33  C14 UNL     1      -0.553  -5.988  -0.041  1.00  0.00     0.028 A 
HETATM   34  C15 UNL     1      -1.499  -5.253  -0.930  1.00  0.00     0.028 A 
ENDBRANCH  30  32
ENDBRANCH  10  30
TORSDOF 9
