REMARK  10 active torsions:
REMARK  status: ('A' for Active; 'I' for Inactive)
REMARK    1  A    between atoms: O1_2  and  C2_3 
REMARK    2  A    between atoms: C3_6  and  N2_7 
REMARK    3  A    between atoms: C4_12  and  N4_13 
REMARK    4  A    between atoms: C9_19  and  C10_20 
REMARK    5  A    between atoms: C10_20  and  N5_21 
REMARK    6  A    between atoms: N5_21  and  C11_23 
REMARK    7  A    between atoms: C11_23  and  O3_24 
REMARK    8  A    between atoms: C11_23  and  C12_26 
REMARK    9  A    between atoms: C15_29  and  O4_31 
REMARK   10  A    between atoms: O4_31  and  C16_32 
ROOT
HETATM    1  C2  UNL     1      -2.923  -2.185  -0.247  1.00  0.00     0.168 A 
HETATM    2  N1  UNL     1      -3.968  -2.903   0.215  1.00  0.00    -0.170 N 
ATOM      3  H1  UNL     1      -3.894  -3.920   0.229  1.00  0.00     0.186 HD
HETATM    4  C3  UNL     1      -5.087  -2.342   0.651  1.00  0.00     0.679 A 
HETATM    5  N3  UNL     1      -5.195  -1.005   0.639  1.00  0.00    -0.176 N 
ATOM      6  H3  UNL     1      -6.051  -0.564   0.976  1.00  0.00     0.186 HD
HETATM    7  C4  UNL     1      -4.169  -0.230   0.180  1.00  0.00     0.131 A 
HETATM    8  C9  UNL     1      -3.007  -0.809  -0.272  1.00  0.00     0.055 A 
ENDROOT
BRANCH   8   9
HETATM    9  C10 UNL     1      -1.928   0.003  -0.831  1.00  0.00     0.168 C 
BRANCH   9  10
HETATM   10  N5  UNL     1      -0.621  -0.247  -0.219  1.00  0.00    -0.370 N 
ATOM     11  H5  UNL     1      -0.511  -0.977   0.485  1.00  0.00     0.161 HD
BRANCH  10  12
HETATM   12  C11 UNL     1       0.466   0.523  -0.610  1.00  0.00     0.115 C 
BRANCH  12  13
HETATM   13  O3  UNL     1       0.204   1.470  -1.492  1.00  0.00    -0.349 OA
ATOM     14  H3  UNL     1       0.948   1.997  -1.760  1.00  0.00     0.219 HD
ENDBRANCH  12  13
BRANCH  12  15
HETATM   15  C12 UNL     1       1.867   0.472  -0.233  1.00  0.00     0.065 C 
HETATM   16  C13 UNL     1       2.174  -0.366   0.976  1.00  0.00     0.018 C 
HETATM   17  C14 UNL     1       3.315  -1.298   0.582  1.00  0.00     0.074 C 
HETATM   18  C15 UNL     1       3.921  -0.579  -0.585  1.00  0.00     0.206 C 
HETATM   19  F1  UNL     1       4.604  -1.523  -1.396  1.00  0.00    -0.212 F 
HETATM   20  C20 UNL     1       2.691  -0.187  -1.355  1.00  0.00     0.086 C 
BRANCH  18  21
HETATM   21  O4  UNL     1       4.672   0.507  -0.379  1.00  0.00    -0.341 OA
BRANCH  21  22
HETATM   22  C16 UNL     1       5.886   0.487   0.188  1.00  0.00     0.054 C 
HETATM   23  C17 UNL     1       6.370   1.963   0.223  1.00  0.00     0.045 C 
HETATM   24  C18 UNL     1       6.929  -0.203  -0.716  1.00  0.00     0.045 C 
HETATM   25  C19 UNL     1       6.070  -0.035   1.567  1.00  0.00     0.045 C 
ENDBRANCH  21  22
ENDBRANCH  18  21
ENDBRANCH  12  15
ENDBRANCH  10  12
ENDBRANCH   9  10
ENDBRANCH   8   9
BRANCH   1  26
HETATM   26  O1  UNL     1      -1.791  -2.852  -0.682  1.00  0.00    -0.340 OA
HETATM   27  C1  UNL     1      -1.685  -4.261  -0.654  1.00  0.00     0.211 C 
ENDBRANCH   1  26
BRANCH   7  28
HETATM   28  N4  UNL     1      -4.413   1.156   0.121  1.00  0.00    -0.362 N 
HETATM   29  C5  UNL     1      -4.433   1.979   1.299  1.00  0.00     0.150 C 
HETATM   30  C6  UNL     1      -4.595   3.447   0.949  1.00  0.00     0.187 C 
HETATM   31  O2  UNL     1      -5.621   3.684   0.078  1.00  0.00    -0.388 OA
HETATM   32  C7  UNL     1      -5.853   2.770  -0.904  1.00  0.00     0.187 C 
HETATM   33  C8  UNL     1      -4.674   1.815  -1.151  1.00  0.00     0.150 C 
ENDBRANCH   7  28
BRANCH   4  34
HETATM   34  N2  UNL     1      -6.100  -3.012   1.092  1.00  0.00    -0.234 N 
ATOM     35  H22 UNL     1      -6.018  -4.029   1.101  1.00  0.00     0.174 HD
ATOM     36  H21 UNL     1      -6.961  -2.580   1.428  1.00  0.00     0.174 HD
ENDBRANCH   4  34
TORSDOF 10
