REMARK  7 active torsions:
REMARK  status: ('A' for Active; 'I' for Inactive)
REMARK    1  A    between atoms: N1_6  and  C6_7 
REMARK    2  A    between atoms: C7_10  and  N3_11 
REMARK    3  A    between atoms: C8_14  and  C9_15 
REMARK    4  A    between atoms: C9_15  and  C10_16 
REMARK       I    between atoms: C10_16  and  N4_18 
REMARK    5  A    between atoms: N4_18  and  C11_20 
REMARK    6  A    between atoms: C11_20  and  C12_21 
REMARK    7  A    between atoms: C16_26  and  N5_27 
ROOT
HETATM    1  C6  UNL     1      -2.605  -0.621   0.320  1.00  0.00     0.683 A 
HETATM    2  N2  UNL     1      -1.565  -1.067   1.083  1.00  0.00    -0.176 N 
ATOM      3  H2  UNL     1      -1.631  -1.995   1.502  1.00  0.00     0.186 HD
HETATM    4  C7  UNL     1      -0.456  -0.339   1.308  1.00  0.00     0.125 A 
HETATM    5  C8  UNL     1      -0.398   0.907   0.729  1.00  0.00     0.041 A 
HETATM    6  C16 UNL     1      -1.433   1.403  -0.057  1.00  0.00     0.152 A 
HETATM    7  N7  UNL     1      -2.499   0.620  -0.232  1.00  0.00    -0.174 N 
ATOM      8  H7  UNL     1      -3.269   0.966  -0.805  1.00  0.00     0.186 HD
ENDROOT
BRANCH   5   9
HETATM    9  C9  UNL     1       0.799   1.731   0.945  1.00  0.00     0.149 C 
BRANCH   9  10
HETATM   10  C10 UNL     1       1.913   1.211   0.070  1.00  0.00     0.222 C 
HETATM   11  O1  UNL     1       1.730   0.221  -0.683  1.00  0.00    -0.273 OA
HETATM   12  N4  UNL     1       3.189   1.819   0.071  1.00  0.00    -0.358 N 
ATOM     13  H4  UNL     1       3.349   2.623   0.677  1.00  0.00     0.162 HD
BRANCH  12  14
HETATM   14  C11 UNL     1       4.268   1.346  -0.750  1.00  0.00     0.154 C 
BRANCH  14  15
HETATM   15  C12 UNL     1       4.695  -0.065  -0.489  1.00  0.00     0.139 C 
HETATM   16  C13 UNL     1       5.293  -0.259   0.868  1.00  0.00     0.035 C 
HETATM   17  C14 UNL     1       6.268  -1.385   0.645  1.00  0.00     0.029 C 
HETATM   18  C15 UNL     1       6.418  -1.436  -0.836  1.00  0.00     0.168 C 
HETATM   19  O2  UNL     1       5.741  -0.346  -1.369  1.00  0.00    -0.384 OA
ENDBRANCH  14  15
ENDBRANCH  12  14
ENDBRANCH   9  10
ENDBRANCH   5   9
BRANCH   4  20
HETATM   20  N3  UNL     1       0.517  -0.793   2.041  1.00  0.00    -0.384 N 
ATOM     21  H32 UNL     1       0.474  -1.717   2.470  1.00  0.00     0.157 HD
ATOM     22  H31 UNL     1       1.358  -0.241   2.212  1.00  0.00     0.157 HD
ENDBRANCH   4  20
BRANCH   6  23
HETATM   23  N5  UNL     1      -1.271   2.702  -0.607  1.00  0.00    -0.249 N 
HETATM   24  C17 UNL     1      -0.616   3.107  -1.692  1.00  0.00     0.143 A 
HETATM   25  C18 UNL     1      -0.750   4.475  -1.806  1.00  0.00     0.068 A 
HETATM   26 CL1  UNL     1      -0.085   5.535  -3.060  1.00  0.00    -0.081 Cl
HETATM   27  C19 UNL     1      -1.522   4.876  -0.732  1.00  0.00     0.133 A 
HETATM   28  N6  UNL     1      -1.819   3.776  -0.026  1.00  0.00    -0.302 N 
ATOM     29  H6  UNL     1      -2.379   3.760   0.826  1.00  0.00     0.186 HD
ENDBRANCH   6  23
BRANCH   1  30
HETATM   30  N1  UNL     1      -3.733  -1.436   0.128  1.00  0.00    -0.213 N 
HETATM   31  C2  UNL     1      -3.934  -2.749   0.675  1.00  0.00     0.098 C 
HETATM   32  C1  UNL     1      -3.941  -3.835  -0.377  1.00  0.00     0.033 C 
HETATM   33  C3  UNL     1      -5.320  -2.594   1.286  1.00  0.00     0.027 C 
HETATM   34  C4  UNL     1      -6.004  -1.631   0.316  1.00  0.00     0.022 C 
HETATM   35  C5  UNL     1      -4.918  -1.165  -0.635  1.00  0.00     0.141 C 
ENDBRANCH   1  30
TORSDOF 7
