REMARK  3 active torsions:
REMARK  status: ('A' for Active; 'I' for Inactive)
REMARK    1  A    between atoms: C3_5  and  C4_6 
REMARK    2  A    between atoms: C3_5  and  C8_19 
REMARK    3  A    between atoms: C5_9  and  N3_10 
ROOT
HETATM    1  N1  UNL     1       1.454   3.494  -2.549  1.00  0.00    -0.190 NA
HETATM    2  C1  UNL     1       0.582   2.891  -2.049  1.00  0.00     0.112 C 
HETATM    3  C2  UNL     1      -0.490   2.197  -1.426  1.00  0.00     0.122 C 
HETATM    4 CL1  UNL     1      -2.115   2.813  -1.734  1.00  0.00    -0.072 Cl
HETATM    5  C3  UNL     1      -0.278   1.158  -0.668  1.00  0.00     0.007 C 
ENDROOT
BRANCH   5   6
HETATM    6  C4  UNL     1       1.060   0.675  -0.443  1.00  0.00     0.079 A 
HETATM    7  N2  UNL     1       1.642   0.778   0.769  1.00  0.00    -0.190 N 
HETATM    8  C5  UNL     1       2.846   0.338   1.084  1.00  0.00     0.677 A 
ATOM      9  H2  UNL     1       1.106   1.235   1.506  1.00  0.00     0.184 HD
HETATM   10  N4  UNL     1       3.621  -0.280   0.160  1.00  0.00    -0.178 N 
HETATM   11  C6  UNL     1       3.105  -0.420  -1.075  1.00  0.00     0.151 A 
ATOM     12  H4  UNL     1       4.553  -0.624   0.390  1.00  0.00     0.185 HD
HETATM   13  N5  UNL     1       3.869  -1.052  -2.083  1.00  0.00    -0.081 NA
HETATM   14  C7  UNL     1       1.827   0.048  -1.403  1.00  0.00     0.080 A 
HETATM   15 BR1  UNL     1       1.175  -0.277  -3.166  1.00  0.00    -0.045 Br
BRANCH   8  16
HETATM   16  N3  UNL     1       3.308   0.487   2.280  1.00  0.00    -0.234 N 
ATOM     17  H32 UNL     1       2.725   0.952   2.976  1.00  0.00     0.174 HD
ATOM     18  H31 UNL     1       4.238   0.147   2.523  1.00  0.00     0.174 HD
ENDBRANCH   8  16
ENDBRANCH   5   6
BRANCH   5  19
HETATM   19  C8  UNL     1      -1.460   0.489  -0.058  1.00  0.00     0.023 C 
HETATM   20  C9  UNL     1      -1.594  -0.925  -0.584  1.00  0.00     0.009 C 
HETATM   21  C10 UNL     1      -2.736  -1.607   0.093  1.00  0.00     0.001 C 
HETATM   22  C11 UNL     1      -2.681  -1.546   1.589  1.00  0.00     0.000 C 
HETATM   23  C12 UNL     1      -2.650  -0.088   2.003  1.00  0.00     0.001 C 
HETATM   24  C13 UNL     1      -1.372   0.508   1.431  1.00  0.00     0.009 C 
ENDBRANCH   5  19
TORSDOF 3
