REMARK  5 active torsions:
REMARK  status: ('A' for Active; 'I' for Inactive)
REMARK       I    between atoms: N1_5  and  C5_6 
REMARK    1  A    between atoms: C5_6  and  O2_8 
REMARK    2  A    between atoms: O2_8  and  C6_9 
REMARK    3  A    between atoms: C9_14  and  N2_15 
REMARK    4  A    between atoms: N2_15  and  C10_17 
REMARK    5  A    between atoms: C14_23  and  N4_24 
ROOT
HETATM    1  N2  UNL     1      -0.374  -0.087   0.457  1.00  0.00    -0.391 N 
ATOM      2  H2  UNL     1      -0.328   0.918   0.624  1.00  0.00     0.159 HD
ENDROOT
BRANCH   1   3
HETATM    3  C9  UNL     1       0.629  -0.922   0.937  1.00  0.00    -0.006 C 
HETATM    4  C2  UNL     1       1.643  -1.579   0.115  1.00  0.00     0.007 C 
HETATM    5  C1  UNL     1       2.038  -2.872   0.897  1.00  0.00     0.023 C 
HETATM    6  C3  UNL     1       1.293  -2.078  -1.245  1.00  0.00     0.023 C 
HETATM    7  C4  UNL     1       2.949  -0.789   0.030  1.00  0.00     0.142 C 
HETATM    8  N1  UNL     1       2.995   0.392   0.815  1.00  0.00    -0.327 N 
HETATM    9  C5  UNL     1       4.104   1.291   0.590  1.00  0.00     0.367 C 
HETATM   10  C7  UNL     1       2.052   0.814   1.806  1.00  0.00     0.134 C 
HETATM   11  O1  UNL     1       4.164   2.325   1.287  1.00  0.00    -0.238 OA
HETATM   12  C8  UNL     1       1.211  -0.353   2.225  1.00  0.00     0.073 C 
BRANCH   9  13
HETATM   13  O2  UNL     1       5.085   1.053  -0.362  1.00  0.00    -0.240 OA
BRANCH  13  14
HETATM   14  C6  UNL     1       6.119   2.035  -0.462  1.00  0.00     0.508 C 
HETATM   15  F1  UNL     1       7.369   1.475  -0.416  1.00  0.00    -0.184 F 
HETATM   16  F2  UNL     1       5.900   2.684  -1.699  1.00  0.00    -0.184 F 
ENDBRANCH  13  14
ENDBRANCH   9  13
ENDBRANCH   1   3
BRANCH   1  17
HETATM   17  C10 UNL     1      -1.476  -0.647  -0.275  1.00  0.00     0.086 C 
HETATM   18  C11 UNL     1      -1.835  -0.019  -1.550  1.00  0.00     0.031 C 
HETATM   19  C12 UNL     1      -3.322  -0.309  -1.865  1.00  0.00     0.060 C 
HETATM   20  C13 UNL     1      -4.052   0.541  -0.895  1.00  0.00     0.034 A 
HETATM   21  N3  UNL     1      -4.983   1.418  -1.199  1.00  0.00    -0.195 N 
HETATM   22  C16 UNL     1      -3.628   0.366   0.432  1.00  0.00    -0.017 A 
HETATM   23  C14 UNL     1      -5.580   2.205  -0.252  1.00  0.00     0.675 A 
ATOM     24  H3  UNL     1      -5.270   1.515  -2.173  1.00  0.00     0.184 HD
HETATM   25  N5  UNL     1      -5.183   2.052   1.018  1.00  0.00    -0.202 N 
HETATM   26  C15 UNL     1      -4.220   1.149   1.378  1.00  0.00     0.115 A 
ATOM     27  H5  UNL     1      -5.613   2.628   1.741  1.00  0.00     0.183 HD
HETATM   28  C17 UNL     1      -2.618  -0.651   0.741  1.00  0.00     0.067 C 
BRANCH  23  29
HETATM   29  N4  UNL     1      -6.516   3.045  -0.610  1.00  0.00    -0.234 N 
ATOM     30  H42 UNL     1      -6.818   3.162  -1.577  1.00  0.00     0.174 HD
ATOM     31  H41 UNL     1      -6.961   3.632   0.096  1.00  0.00     0.174 HD
ENDBRANCH  23  29
ENDBRANCH   1  17
TORSDOF 5
