REMARK  4 active torsions:
REMARK  status: ('A' for Active; 'I' for Inactive)
REMARK    1  A    between atoms: O1_1  and  C1_3 
REMARK    2  A    between atoms: C4_6  and  O2_7 
REMARK    3  A    between atoms: N1_9  and  C5_10 
REMARK    4  A    between atoms: C5_10  and  C6_11 
ROOT
HETATM    1  C1  UNL     1       1.982   1.574  -0.648  1.00  0.00     0.153 A 
HETATM    2  C2  UNL     1       3.230   1.205  -1.119  1.00  0.00     0.034 A 
HETATM    3  C3  UNL     1       3.723   0.315  -0.218  1.00  0.00     0.072 A 
HETATM    4  C4  UNL     1       2.771   0.161   0.775  1.00  0.00     0.156 A 
HETATM    5  N1  UNL     1       1.684   0.952   0.499  1.00  0.00    -0.305 N 
HETATM    6  C15 UNL     1       5.063  -0.109  -0.679  1.00  0.00     0.309 C 
HETATM    7 CL1  UNL     1       6.354   0.803   0.137  1.00  0.00    -0.065 Cl
HETATM    8 CL2  UNL     1       5.242  -1.852  -0.372  1.00  0.00    -0.065 Cl
HETATM    9  N3  UNL     1       5.106   0.219  -2.073  1.00  0.00    -0.030 N 
ATOM     10  H31 UNL     1       4.862  -0.554  -2.692  1.00  0.00     0.281 HD
ATOM     11  H32 UNL     1       6.047   0.363  -2.440  1.00  0.00     0.281 HD
HETATM   12  C16 UNL     1       4.233   1.381  -2.193  1.00  0.00     0.280 C 
ENDROOT
BRANCH   5  13
HETATM   13  C5  UNL     1       0.498   1.006   1.328  1.00  0.00     0.169 C 
BRANCH  13  14
HETATM   14  C6  UNL     1      -0.492  -0.037   1.113  1.00  0.00     0.242 C 
HETATM   15  C7  UNL     1      -1.718   0.069   2.049  1.00  0.00     0.044 C 
HETATM   16  C8  UNL     1      -2.785  -0.351   1.201  1.00  0.00     0.021 C 
HETATM   17  C9  UNL     1      -3.830  -1.336   1.539  1.00  0.00     0.007 C 
HETATM   18  C14 UNL     1      -2.026  -1.273   0.216  1.00  0.00     0.231 C 
HETATM   19  C10 UNL     1      -4.319  -1.620   0.095  1.00  0.00     0.007 C 
HETATM   20  C11 UNL     1      -3.081  -1.398  -0.794  1.00  0.00     0.021 C 
HETATM   21  C12 UNL     1      -3.050  -0.015  -1.405  1.00  0.00     0.037 C 
HETATM   22  C13 UNL     1      -1.773   0.650  -0.862  1.00  0.00     0.274 C 
HETATM   23  N2  UNL     1      -1.014  -0.319  -0.177  1.00  0.00     0.100 N 
ENDBRANCH  13  14
ENDBRANCH   5  13
BRANCH   1  24
HETATM   24  O1  UNL     1       1.208   2.493  -1.354  1.00  0.00    -0.345 OA
ATOM     25  H1  UNL     1       0.351   2.746  -1.031  1.00  0.00     0.219 HD
ENDBRANCH   1  24
BRANCH   4  26
HETATM   26  O2  UNL     1       2.935  -0.678   1.868  1.00  0.00    -0.345 OA
ATOM     27  H2  UNL     1       2.282  -0.784   2.550  1.00  0.00     0.219 HD
ENDBRANCH   4  26
TORSDOF 4
