REMARK  5 active torsions:
REMARK  status: ('A' for Active; 'I' for Inactive)
REMARK    1  A    between atoms: C2_2  and  O2_4 
REMARK    2  A    between atoms: O2_4  and  N1_5 
REMARK    3  A    between atoms: C10_18  and  N3_19 
REMARK    4  A    between atoms: C11_24  and  N5_25 
REMARK    5  A    between atoms: N5_25  and  C12_27 
ROOT
HETATM    1  N1  UNL     1       3.654   0.172   1.108  1.00  0.00    -0.260 N 
ATOM      2  H1  UNL     1       3.533   0.568   2.040  1.00  0.00     0.194 HD
HETATM    3  C3  UNL     1       2.644  -0.221   0.418  1.00  0.00     0.064 C 
HETATM    4  C4  UNL     1       2.767  -0.804  -0.939  1.00  0.00     0.106 C 
HETATM    5  C5  UNL     1       1.459  -0.744  -1.694  1.00  0.00     0.126 C 
HETATM    6  C6  UNL     1       0.726  -2.036  -1.528  1.00  0.00     0.054 C 
HETATM    7  F1  UNL     1       1.689  -0.538  -3.039  1.00  0.00    -0.241 F 
HETATM    8  C7  UNL     1       0.641   0.464  -1.208  1.00  0.00     0.161 C 
HETATM    9 CL1  UNL     1      -0.519   1.032  -2.335  1.00  0.00    -0.116 Cl
HETATM   10  C8  UNL     1       0.261   0.244   0.178  1.00  0.00     0.037 A 
HETATM   11  C9  UNL     1       1.324  -0.086   1.027  1.00  0.00     0.085 A 
HETATM   12  N2  UNL     1       1.131  -0.285   2.343  1.00  0.00    -0.189 N 
ATOM     13  H2  UNL     1       1.911  -0.525   2.956  1.00  0.00     0.184 HD
HETATM   14  C10 UNL     1      -0.106  -0.161   2.827  1.00  0.00     0.677 A 
HETATM   15  N4  UNL     1      -1.137   0.155   2.017  1.00  0.00    -0.177 N 
ATOM     16  H4  UNL     1      -2.061   0.236   2.441  1.00  0.00     0.186 HD
HETATM   17  C11 UNL     1      -1.040   0.371   0.693  1.00  0.00     0.127 A 
ENDROOT
BRANCH  17  18
HETATM   18  N5  UNL     1      -1.940   0.650  -0.112  1.00  0.00    -0.371 N 
ATOM     19  H5  UNL     1      -1.540   0.737  -1.046  1.00  0.00     0.161 HD
BRANCH  18  20
HETATM   20  C12 UNL     1      -3.296   0.883  -0.177  1.00  0.00     0.083 C 
HETATM   21  C13 UNL     1      -4.167   0.556   1.014  1.00  0.00     0.025 C 
HETATM   22  C14 UNL     1      -5.586   0.594   0.417  1.00  0.00     0.002 C 
HETATM   23  C15 UNL     1      -5.422   0.432  -1.059  1.00  0.00     0.002 C 
HETATM   24  C16 UNL     1      -3.984  -0.087  -1.174  1.00  0.00     0.025 C 
ENDBRANCH  18  20
ENDBRANCH  17  18
BRANCH  14  25
HETATM   25  N3  UNL     1      -0.308  -0.349   4.097  1.00  0.00    -0.234 N 
ATOM     26  H32 UNL     1       0.472  -0.588   4.710  1.00  0.00     0.174 HD
ATOM     27  H31 UNL     1      -1.254  -0.254   4.467  1.00  0.00     0.174 HD
ENDBRANCH  14  25
BRANCH   1  28
HETATM   28  O2  UNL     1       4.907   0.041   0.548  1.00  0.00    -0.200 OA
BRANCH  28  29
HETATM   29  C2  UNL     1       5.534   1.085  -0.115  1.00  0.00     0.277 C 
HETATM   30  C1  UNL     1       6.886   0.928  -0.713  1.00  0.00     0.128 C 
HETATM   31  O1  UNL     1       4.953   2.189  -0.214  1.00  0.00    -0.264 OA
ENDBRANCH  28  29
ENDBRANCH   1  28
TORSDOF 5
