REMARK  3 active torsions:
REMARK  status: ('A' for Active; 'I' for Inactive)
REMARK    1  A    between atoms: C4_6  and  C5_7 
REMARK    2  A    between atoms: C7_11  and  C8_12 
REMARK    3  A    between atoms: C15_27  and  N6_28 
ROOT
HETATM    1  C1  UNL     1       4.531  -1.086  -1.909  1.00  0.00     0.018 C 
HETATM    2  C2  UNL     1       4.588  -0.846  -0.402  1.00  0.00     0.053 C 
HETATM    3  C3  UNL     1       3.387  -0.041  -0.057  1.00  0.00     0.027 A 
HETATM    4  N1  UNL     1       2.082  -0.371  -0.091  1.00  0.00    -0.343 N 
ATOM      5  H1  UNL     1       1.826  -1.311  -0.394  1.00  0.00     0.167 HD
HETATM    6  C4  UNL     1       1.103   0.477   0.255  1.00  0.00     0.135 A 
HETATM    7  N5  UNL     1       1.477   1.712   0.653  1.00  0.00    -0.331 N 
ATOM      8  H5  UNL     1       0.754   2.379   0.924  1.00  0.00     0.168 HD
HETATM    9  C13 UNL     1       2.770   2.099   0.707  1.00  0.00     0.115 A 
HETATM   10 CL1  UNL     1       3.232   3.716   1.230  1.00  0.00    -0.064 Cl
HETATM   11  C14 UNL     1       3.753   1.223   0.351  1.00  0.00     0.035 A 
HETATM   12  C15 UNL     1       5.229   1.369   0.313  1.00  0.00     0.240 C 
HETATM   13  C16 UNL     1       5.760   0.011  -0.059  1.00  0.00     0.127 C 
HETATM   14 CL2  UNL     1       6.885   0.100  -1.435  1.00  0.00    -0.122 Cl
ENDROOT
BRANCH   6  15
HETATM   15  C5  UNL     1      -0.310   0.093   0.209  1.00  0.00     0.093 A 
HETATM   16  C6  UNL     1      -0.731  -1.156  -0.191  1.00  0.00     0.122 A 
HETATM   17  N2  UNL     1      -2.069  -1.173  -0.117  1.00  0.00    -0.353 N 
HETATM   18  C7  UNL     1      -2.461   0.030   0.315  1.00  0.00     0.086 A 
ATOM     19  H2  UNL     1      -2.677  -1.959  -0.348  1.00  0.00     0.166 HD
HETATM   20  N4  UNL     1      -1.392   0.788   0.509  1.00  0.00    -0.341 N 
ATOM     21  H4  UNL     1      -1.403   1.754   0.837  1.00  0.00     0.167 HD
BRANCH  18  22
HETATM   22  C8  UNL     1      -3.914   0.372   0.517  1.00  0.00     0.056 C 
HETATM   23  C9  UNL     1      -4.577   0.248  -0.836  1.00  0.00     0.040 C 
HETATM   24  C10 UNL     1      -6.084   0.228  -0.725  1.00  0.00     0.233 C 
HETATM   25  N3  UNL     1      -6.563  -0.667   0.281  1.00  0.00    -0.075 N 
HETATM   26  C11 UNL     1      -5.520  -1.494   0.805  1.00  0.00     0.233 C 
ATOM     27  H32 UNL     1      -7.045  -0.163   1.026  1.00  0.00     0.277 HD
ATOM     28  H31 UNL     1      -7.342  -1.228  -0.064  1.00  0.00     0.277 HD
HETATM   29  C12 UNL     1      -4.510  -0.604   1.507  1.00  0.00     0.040 C 
ENDBRANCH  18  22
ENDBRANCH   6  15
BRANCH  12  30
HETATM   30  N6  UNL     1       5.738   1.695   1.633  1.00  0.00    -0.069 N 
ATOM     31  H63 UNL     1       5.284   2.521   2.022  1.00  0.00     0.275 HD
ATOM     32  H62 UNL     1       5.441   1.016   2.333  1.00  0.00     0.275 HD
ATOM     33  H61 UNL     1       6.753   1.795   1.607  1.00  0.00     0.275 HD
ENDBRANCH  12  30
TORSDOF 3
