REMARK  5 active torsions:
REMARK  status: ('A' for Active; 'I' for Inactive)
REMARK    1  A    between atoms: N1_1  and  C1_4 
REMARK    2  A    between atoms: C4_9  and  S1_10 
REMARK    3  A    between atoms: S1_10  and  C5_11 
REMARK    4  A    between atoms: C5_11  and  C6_12 
REMARK       I    between atoms: C6_12  and  N3_14 
REMARK    5  A    between atoms: N3_14  and  C7_16 
ROOT
HETATM    1  C1  UNL     1      -3.356  -1.860  -1.075  1.00  0.00     0.676 A 
HETATM    2  N2  UNL     1      -3.939  -1.190  -0.069  1.00  0.00    -0.195 N 
ATOM      3  H2  UNL     1      -4.804  -1.560   0.326  1.00  0.00     0.184 HD
HETATM    4  C2  UNL     1      -3.437  -0.059   0.439  1.00  0.00     0.035 A 
HETATM    5  C3  UNL     1      -2.261   0.437  -0.104  1.00  0.00    -0.001 A 
HETATM    6  C4  UNL     1      -1.649  -0.235  -1.134  1.00  0.00     0.094 A 
HETATM    7  N5  UNL     1      -2.223  -1.380  -1.596  1.00  0.00    -0.185 N 
ATOM      8  H5  UNL     1      -1.776  -1.885  -2.361  1.00  0.00     0.185 HD
HETATM    9  C10 UNL     1      -1.910   1.693   0.606  1.00  0.00     0.044 C 
HETATM   10  C11 UNL     1      -3.255   2.183   1.097  1.00  0.00     0.011 C 
HETATM   11  C12 UNL     1      -3.900   0.861   1.537  1.00  0.00     0.058 C 
ENDROOT
BRANCH   6  12
HETATM   12  S1  UNL     1      -0.155   0.335  -1.906  1.00  0.00    -0.102 SA
BRANCH  12  13
HETATM   13  C5  UNL     1       1.273  -0.521  -1.239  1.00  0.00     0.184 C 
BRANCH  13  14
HETATM   14  C6  UNL     1       1.522  -0.174   0.168  1.00  0.00     0.233 C 
HETATM   15  O1  UNL     1       0.850  -0.630   1.110  1.00  0.00    -0.272 OA
HETATM   16  N3  UNL     1       2.606   0.741   0.450  1.00  0.00    -0.306 N 
ATOM     17  H3  UNL     1       2.440   1.716   0.700  1.00  0.00     0.171 HD
BRANCH  16  18
HETATM   18  C7  UNL     1       3.824   0.236   0.364  1.00  0.00     0.153 A 
HETATM   19  N4  UNL     1       5.003   0.830   0.565  1.00  0.00    -0.325 N 
HETATM   20  C8  UNL     1       6.086   0.124   0.423  1.00  0.00     0.134 A 
ATOM     21  H4  UNL     1       5.053   1.815   0.824  1.00  0.00     0.169 HD
HETATM   22 CL1  UNL     1       7.729   0.802   0.658  1.00  0.00    -0.062 Cl
HETATM   23  C9  UNL     1       5.951  -1.194   0.073  1.00  0.00     0.116 A 
HETATM   24 CL2  UNL     1       7.221  -2.407  -0.196  1.00  0.00    -0.073 Cl
HETATM   25  S2  UNL     1       4.258  -1.363  -0.037  1.00  0.00    -0.038 SA
ENDBRANCH  16  18
ENDBRANCH  13  14
ENDBRANCH  12  13
ENDBRANCH   6  12
BRANCH   1  26
HETATM   26  N1  UNL     1      -3.910  -2.956  -1.515  1.00  0.00    -0.234 N 
ATOM     27  H12 UNL     1      -4.775  -3.322  -1.117  1.00  0.00     0.174 HD
ATOM     28  H11 UNL     1      -3.467  -3.465  -2.280  1.00  0.00     0.174 HD
ENDBRANCH   1  26
TORSDOF 5
