REMARK  21 active torsions:
REMARK  status: ('A' for Active; 'I' for Inactive)
REMARK    1  A    between atoms: C1_2  and  C2_4 
REMARK    2  A    between atoms: C2_4  and  N2_5 
REMARK    3  A    between atoms: C2_4  and  C3_9 
REMARK    4  A    between atoms: C3_9  and  S1_10 
REMARK    5  A    between atoms: S1_10  and  C4_12 
REMARK    6  A    between atoms: C4_12  and  C5_13 
REMARK    7  A    between atoms: C5_13  and  C6_14 
REMARK    8  A    between atoms: C6_14  and  N3_15 
REMARK    9  A    between atoms: C8_20  and  S2_21 
REMARK   10  A    between atoms: S2_21  and  C9_22 
REMARK   11  A    between atoms: C9_22  and  C10_23 
REMARK   12  A    between atoms: C10_23  and  C11_24 
REMARK   13  A    between atoms: C11_24  and  C12_25 
REMARK   14  A    between atoms: C12_25  and  C13_26 
REMARK   15  A    between atoms: C13_26  and  C14_27 
REMARK   16  A    between atoms: C14_27  and  O4_28 
REMARK   17  A    between atoms: O4_28  and  C15_29 
REMARK   18  A    between atoms: C21_35  and  O5_36 
REMARK   19  A    between atoms: C22_38  and  O6_39 
REMARK   20  A    between atoms: C23_41  and  C24_42 
REMARK   21  A    between atoms: C24_42  and  O7_43 
ROOT
HETATM    1  N3  UNL     1       3.065   0.237   0.313  1.00  0.00    -0.302 N 
HETATM    2  C7  UNL     1       1.881   0.798   0.854  1.00  0.00     0.323 C 
HETATM    3  O3  UNL     1       1.938   2.032   1.199  1.00  0.00    -0.247 OA
HETATM    4  N4  UNL     1       0.605   0.208   1.087  1.00  0.00    -0.327 N 
ATOM      5  H4  UNL     1       0.118   0.528   1.924  1.00  0.00     0.165 HD
HETATM    6  C8  UNL     1      -0.091  -0.778   0.302  1.00  0.00     0.179 C 
HETATM    7  C21 UNL     1       0.797  -1.955  -0.037  1.00  0.00     0.185 C 
HETATM    8  C22 UNL     1       2.034  -1.704  -0.763  1.00  0.00     0.197 C 
HETATM    9  C23 UNL     1       3.219  -1.131  -0.097  1.00  0.00     0.048 C 
ENDROOT
BRANCH   1  10
HETATM   10  C6  UNL     1       4.173   1.178   0.176  1.00  0.00     0.134 C 
BRANCH  10  11
HETATM   11  C5  UNL     1       4.188   1.842  -1.143  1.00  0.00     0.033 C 
BRANCH  11  12
HETATM   12  C4  UNL     1       5.216   2.870  -1.392  1.00  0.00     0.110 C 
BRANCH  12  13
HETATM   13  S1  UNL     1       6.887   2.523  -1.317  1.00  0.00     0.017 S 
HETATM   14  O2  UNL     1       7.852   3.539  -2.244  1.00  0.00    -0.258 OA
BRANCH  13  15
HETATM   15  C3  UNL     1       7.632   1.973   0.128  1.00  0.00     0.150 C 
BRANCH  15  16
HETATM   16  C2  UNL     1       8.912   1.185  -0.116  1.00  0.00     0.283 C 
BRANCH  16  17
HETATM   17  C1  UNL     1       9.540   0.713   1.133  1.00  0.00     0.262 C 
HETATM   18  N1  UNL     1       9.883  -0.657   1.252  1.00  0.00    -0.060 NA
HETATM   19  O1  UNL     1       9.775   1.520   2.092  1.00  0.00    -0.275 OA
ENDBRANCH  16  17
BRANCH  16  20
HETATM   20  N2  UNL     1       8.700   0.054  -0.990  1.00  0.00    -0.066 N 
ATOM     21  H23 UNL     1       9.557  -0.472  -1.160  1.00  0.00     0.275 HD
ATOM     22  H22 UNL     1       8.164  -0.689  -0.542  1.00  0.00     0.275 HD
ATOM     23  H21 UNL     1       8.266   0.380  -1.853  1.00  0.00     0.275 HD
ENDBRANCH  16  20
ENDBRANCH  15  16
ENDBRANCH  13  15
ENDBRANCH  12  13
ENDBRANCH  11  12
ENDBRANCH  10  11
ENDBRANCH   1  10
BRANCH   9  24
HETATM   24  C24 UNL     1       3.914  -1.983   0.924  1.00  0.00     0.219 C 
BRANCH  24  25
HETATM   25  O7  UNL     1       3.290  -2.023   2.164  1.00  0.00    -0.395 OA
ATOM     26  H7  UNL     1       3.730  -2.562   2.810  1.00  0.00     0.209 HD
ENDBRANCH  24  25
ENDBRANCH   9  24
BRANCH   8  27
HETATM   27  O6  UNL     1       2.432  -2.891  -1.394  1.00  0.00    -0.387 OA
ATOM     28  H6  UNL     1       3.239  -2.727  -1.868  1.00  0.00     0.210 HD
ENDBRANCH   8  27
BRANCH   6  29
HETATM   29  S2  UNL     1      -1.471  -1.469   1.277  1.00  0.00    -0.141 SA
BRANCH  29  30
HETATM   30  C9  UNL     1      -2.877  -1.731   0.188  1.00  0.00     0.076 C 
BRANCH  30  31
HETATM   31  C10 UNL     1      -3.534  -0.451  -0.197  1.00  0.00     0.010 C 
BRANCH  31  32
HETATM   32  C11 UNL     1      -4.715  -0.747  -1.139  1.00  0.00     0.001 C 
BRANCH  32  33
HETATM   33  C12 UNL     1      -5.637  -1.731  -0.436  1.00  0.00     0.002 C 
BRANCH  33  34
HETATM   34  C13 UNL     1      -6.166  -1.240   0.859  1.00  0.00     0.027 C 
BRANCH  34  35
HETATM   35  C14 UNL     1      -7.053  -0.048   0.725  1.00  0.00     0.175 C 
BRANCH  35  36
HETATM   36  O4  UNL     1      -8.200  -0.466  -0.045  1.00  0.00    -0.351 OA
BRANCH  36  37
HETATM   37  C15 UNL     1      -9.190   0.460  -0.273  1.00  0.00     0.068 A 
HETATM   38  C16 UNL     1      -9.122   1.755   0.183  1.00  0.00     0.037 A 
HETATM   39  C17 UNL     1     -10.131   2.686  -0.049  1.00  0.00     0.003 A 
HETATM   40  C18 UNL     1     -11.250   2.319  -0.760  1.00  0.00     0.000 A 
HETATM   41  C19 UNL     1     -11.329   1.017  -1.223  1.00  0.00     0.003 A 
HETATM   42  C20 UNL     1     -10.323   0.104  -0.988  1.00  0.00     0.037 A 
ENDBRANCH  36  37
ENDBRANCH  35  36
ENDBRANCH  34  35
ENDBRANCH  33  34
ENDBRANCH  32  33
ENDBRANCH  31  32
ENDBRANCH  30  31
ENDBRANCH  29  30
ENDBRANCH   6  29
BRANCH   7  43
HETATM   43  O5  UNL     1       0.837  -2.766   1.071  1.00  0.00    -0.390 OA
ATOM     44  H5  UNL     1       1.395  -3.505   0.858  1.00  0.00     0.210 HD
ENDBRANCH   7  43
TORSDOF 21
