REMARK  19 active torsions:
REMARK  status: ('A' for Active; 'I' for Inactive)
REMARK    1  A    between atoms: C2_2  and  C3_3 
REMARK    2  A    between atoms: C3_3  and  N1_4 
REMARK    3  A    between atoms: N1_4  and  C4_5 
REMARK    4  A    between atoms: N1_4  and  C19_41 
REMARK    5  A    between atoms: N2_6  and  C5_8 
REMARK    6  A    between atoms: C5_8  and  C6_9 
REMARK    7  A    between atoms: C6_9  and  C7_10 
REMARK    8  A    between atoms: C7_10  and  N3_11 
REMARK    9  A    between atoms: N3_11  and  N4_13 
REMARK       I    between atoms: C8_15  and  N6_17 
REMARK   10  A    between atoms: N6_17  and  C9_19 
REMARK   11  A    between atoms: N7_21  and  C11_23 
REMARK   12  A    between atoms: C11_23  and  C12_24 
REMARK   13  A    between atoms: C12_24  and  C13_25 
REMARK   14  A    between atoms: C13_25  and  C14_26 
REMARK       I    between atoms: C14_26  and  N8_28 
REMARK   15  A    between atoms: N8_28  and  C15_30 
REMARK   16  A    between atoms: C18_33  and  N9_34 
REMARK   17  A    between atoms: C19_41  and  C20_42 
REMARK   18  A    between atoms: C20_42  and  C21_43 
REMARK   19  A    between atoms: C21_43  and  N12_44 
ROOT
HETATM    1  N4  UNL     1       0.718  -0.832   1.775  1.00  0.00    -0.278 N 
ATOM      2  H4  UNL     1       0.575  -1.634   2.388  1.00  0.00     0.189 HD
HETATM    3  C8  UNL     1       1.864  -0.609   1.248  1.00  0.00     0.208 C 
HETATM    4  N5  UNL     1       2.933  -1.488   1.525  1.00  0.00    -0.062 NA
HETATM    5  N6  UNL     1       2.034   0.508   0.400  1.00  0.00    -0.320 N 
ATOM      6  H6  UNL     1       1.219   0.831  -0.121  1.00  0.00     0.169 HD
ENDROOT
BRANCH   1   7
HETATM    7  N3  UNL     1      -0.328   0.041   1.495  1.00  0.00    -0.334 N 
ATOM      8  H3  UNL     1      -0.420   0.916   2.011  1.00  0.00     0.180 HD
BRANCH   7   9
HETATM    9  C7  UNL     1      -1.281  -0.301   0.469  1.00  0.00     0.141 C 
BRANCH   9  10
HETATM   10  C6  UNL     1      -1.987  -1.591   0.894  1.00  0.00     0.041 C 
BRANCH  10  11
HETATM   11  C5  UNL     1      -2.987  -1.871  -0.242  1.00  0.00     0.122 C 
BRANCH  11  12
HETATM   12  N2  UNL     1      -3.834  -0.686  -0.274  1.00  0.00    -0.386 N 
HETATM   13  C4  UNL     1      -4.555  -0.433   0.758  1.00  0.00     0.173 C 
ATOM     14  H2  UNL     1      -3.854  -0.076  -1.091  1.00  0.00     0.160 HD
BRANCH  13  15
HETATM   15  N1  UNL     1      -5.382   0.718   0.741  1.00  0.00    -0.377 N 
BRANCH  15  16
HETATM   16  C3  UNL     1      -4.901   1.905   0.031  1.00  0.00     0.123 C 
BRANCH  16  17
HETATM   17  C2  UNL     1      -4.519   3.015   0.951  1.00  0.00     0.015 C 
HETATM   18  C1  UNL     1      -4.046   4.176   0.096  1.00  0.00     0.006 C 
ENDBRANCH  16  17
ENDBRANCH  15  16
BRANCH  15  19
HETATM   19  C19 UNL     1      -6.618   0.720   1.447  1.00  0.00     0.125 C 
BRANCH  19  20
HETATM   20  C20 UNL     1      -7.123  -0.559   1.976  1.00  0.00     0.039 C 
BRANCH  20  21
HETATM   21  C21 UNL     1      -7.456  -1.574   0.915  1.00  0.00     0.123 C 
BRANCH  21  22
HETATM   22  N12 UNL     1      -8.483  -1.027   0.016  1.00  0.00    -0.367 N 
HETATM   23  C22 UNL     1      -9.026  -1.796  -0.844  1.00  0.00     0.196 C 
HETATM   24  N13 UNL     1     -10.018  -1.311  -1.729  1.00  0.00    -0.067 NA
HETATM   25  N14 UNL     1      -8.649  -3.147  -0.929  1.00  0.00    -0.067 NA
ATOM     26  H12 UNL     1      -8.757  -0.047   0.079  1.00  0.00     0.161 HD
ENDBRANCH  21  22
ENDBRANCH  20  21
ENDBRANCH  19  20
ENDBRANCH  15  19
ENDBRANCH  13  15
ENDBRANCH  11  12
ENDBRANCH  10  11
ENDBRANCH   9  10
ENDBRANCH   7   9
ENDBRANCH   1   7
BRANCH   5  27
HETATM   27  C9  UNL     1       3.251   1.217   0.216  1.00  0.00     0.075 C 
HETATM   28  C10 UNL     1       3.649   2.151   1.313  1.00  0.00     0.089 C 
HETATM   29  N7  UNL     1       3.933   1.039  -0.834  1.00  0.00    -0.380 N 
ATOM     30  H7  UNL     1       4.807   1.548  -0.969  1.00  0.00     0.160 HD
BRANCH  29  31
HETATM   31  C11 UNL     1       3.470   0.111  -1.844  1.00  0.00     0.121 C 
BRANCH  31  32
HETATM   32  C12 UNL     1       4.724  -0.396  -2.569  1.00  0.00     0.029 C 
BRANCH  32  33
HETATM   33  C13 UNL     1       5.643  -1.058  -1.565  1.00  0.00     0.105 C 
BRANCH  33  34
HETATM   34  C14 UNL     1       6.858  -1.544  -2.257  1.00  0.00     0.223 C 
HETATM   35  O1  UNL     1       6.911  -1.543  -3.502  1.00  0.00    -0.273 OA
HETATM   36  N8  UNL     1       7.957  -2.011  -1.448  1.00  0.00    -0.312 N 
ATOM     37  H8  UNL     1       8.078  -2.999  -1.226  1.00  0.00     0.170 HD
BRANCH  36  38
HETATM   38  C15 UNL     1       8.795  -1.095  -1.012  1.00  0.00     0.122 A 
HETATM   39  C16 UNL     1       8.615   0.232  -1.321  1.00  0.00     0.054 A 
HETATM   40  C17 UNL     1       9.484   1.183  -0.854  1.00  0.00     0.060 A 
HETATM   41  C18 UNL     1      10.532   0.742  -0.067  1.00  0.00     0.188 A 
HETATM   42  N10 UNL     1      10.669  -0.585   0.213  1.00  0.00    -0.279 N 
HETATM   43  N11 UNL     1       9.820  -1.485  -0.249  1.00  0.00    -0.284 N 
ATOM     44  H10 UNL     1      11.449  -0.891   0.795  1.00  0.00     0.189 HD
ATOM     45  H11 UNL     1       9.946  -2.472  -0.025  1.00  0.00     0.188 HD
BRANCH  41  46
HETATM   46  N9  UNL     1      11.465   1.668   0.457  1.00  0.00    -0.097 N 
HETATM   47  O2  UNL     1      12.420   1.306   1.193  1.00  0.00    -0.530 OA
HETATM   48  O3  UNL     1      11.329   2.997   0.161  1.00  0.00    -0.530 OA
ENDBRANCH  41  46
ENDBRANCH  36  38
ENDBRANCH  33  34
ENDBRANCH  32  33
ENDBRANCH  31  32
ENDBRANCH  29  31
ENDBRANCH   5  27
TORSDOF 19
