REMARK  17 active torsions:
REMARK  status: ('A' for Active; 'I' for Inactive)
REMARK    1  A    between atoms: C7_8  and  C8_9 
REMARK    2  A    between atoms: C8_9  and  C9_10 
REMARK    3  A    between atoms: C10_11  and  C11_12 
REMARK    4  A    between atoms: N2_19  and  C14_21 
REMARK    5  A    between atoms: C14_21  and  C15_22 
REMARK    6  A    between atoms: C15_22  and  S2_23 
REMARK    7  A    between atoms: S2_23  and  N3_26 
REMARK    8  A    between atoms: C16_28  and  C17_29 
REMARK    9  A    between atoms: C17_29  and  O4_30 
REMARK   10  A    between atoms: O4_30  and  C18_31 
REMARK   11  A    between atoms: C18_31  and  C19_32 
REMARK   12  A    between atoms: C19_32  and  C20_33 
REMARK   13  A    between atoms: C20_33  and  N4_34 
REMARK   14  A    between atoms: N4_34  and  C21_36 
REMARK   15  A    between atoms: C21_36  and  C22_37 
REMARK   16  A    between atoms: C22_37  and  C23_38 
REMARK   17  A    between atoms: C23_38  and  N5_39 
REMARK       I    between atoms: C24_41  and  N6_42 
ROOT
HETATM    1  C1  UNL     1      -6.747  -3.111  -1.012  1.00  0.00     0.210 C 
HETATM    2  O1  UNL     1      -6.657  -1.856  -1.270  1.00  0.00    -0.355 OA
HETATM    3  C2  UNL     1      -6.590  -0.582  -1.568  1.00  0.00     0.081 A 
HETATM    4  C3  UNL     1      -7.304  -0.134  -2.720  1.00  0.00     0.038 A 
HETATM    5  C4  UNL     1      -7.297   1.199  -3.032  1.00  0.00     0.003 A 
HETATM    6  C5  UNL     1      -6.622   2.136  -2.291  1.00  0.00     0.001 A 
HETATM    7  C6  UNL     1      -5.937   1.725  -1.185  1.00  0.00     0.017 A 
HETATM    8  C7  UNL     1      -5.938   0.332  -0.841  1.00  0.00     0.032 A 
ENDROOT
BRANCH   8   9
HETATM    9  C8  UNL     1      -4.935   0.065   0.169  1.00  0.00     0.096 C 
HETATM   10  N2  UNL     1      -3.996  -0.598   0.410  1.00  0.00    -0.381 N 
ATOM     11  H2  UNL     1      -3.604  -0.416   1.334  1.00  0.00     0.160 HD
BRANCH   9  12
HETATM   12  C9  UNL     1      -5.698   0.533   1.476  1.00  0.00    -0.045 C 
HETATM   13  C10 UNL     1      -6.443   0.794   2.395  1.00  0.00    -0.055 C 
BRANCH  13  14
HETATM   14  C11 UNL     1      -7.479   1.048   3.395  1.00  0.00     0.326 C 
HETATM   15  N1  UNL     1      -8.811   0.735   2.777  1.00  0.00    -0.051 N 
HETATM   16  C12 UNL     1      -8.921   1.616   1.648  1.00  0.00     0.245 C 
ATOM     17  H12 UNL     1      -8.935  -0.250   2.544  1.00  0.00     0.279 HD
ATOM     18  H11 UNL     1      -9.593   0.802   3.429  1.00  0.00     0.279 HD
HETATM   19  C13 UNL     1      -8.814   3.047   2.121  1.00  0.00     0.104 C 
HETATM   20  S1  UNL     1      -7.771   2.816   3.628  1.00  0.00    -0.122 SA
ENDBRANCH  13  14
ENDBRANCH   9  12
BRANCH  10  21
HETATM   21  C14 UNL     1      -3.287  -1.602  -0.310  1.00  0.00     0.137 C 
BRANCH  21  22
HETATM   22  C15 UNL     1      -2.230  -0.856  -1.206  1.00  0.00     0.183 C 
BRANCH  22  23
HETATM   23  S2  UNL     1      -1.314   0.155  -0.061  1.00  0.00     0.231 S 
HETATM   24  O2  UNL     1      -0.875  -0.759   1.030  1.00  0.00    -0.206 OA
HETATM   25  O3  UNL     1      -2.128   1.310   0.386  1.00  0.00    -0.206 OA
BRANCH  23  26
HETATM   26  N3  UNL     1       0.109   0.803  -0.883  1.00  0.00    -0.297 N 
HETATM   27  C16 UNL     1       1.173   0.382  -0.145  1.00  0.00     0.099 C 
ATOM     28  H3  UNL     1       0.129   1.371  -1.730  1.00  0.00     0.177 HD
BRANCH  27  29
HETATM   29  C17 UNL     1       2.585   0.236   0.046  1.00  0.00     0.212 C 
BRANCH  29  30
HETATM   30  O4  UNL     1       2.768  -0.462   1.331  1.00  0.00    -0.386 OA
BRANCH  30  31
HETATM   31  C18 UNL     1       4.100  -0.737   1.451  1.00  0.00     0.169 C 
BRANCH  31  32
HETATM   32  C19 UNL     1       4.497  -1.854   0.590  1.00  0.00     0.045 C 
BRANCH  32  33
HETATM   33  C20 UNL     1       5.940  -2.193   0.480  1.00  0.00     0.115 C 
BRANCH  33  34
HETATM   34  N4  UNL     1       6.801  -1.119   0.041  1.00  0.00    -0.421 N 
ATOM     35  H4  UNL     1       7.027  -0.972  -0.943  1.00  0.00     0.153 HD
BRANCH  34  36
HETATM   36  C21 UNL     1       7.311  -0.285   1.063  1.00  0.00     0.115 C 
BRANCH  36  37
HETATM   37  C22 UNL     1       8.192   0.804   0.418  1.00  0.00     0.039 C 
BRANCH  37  38
HETATM   38  C23 UNL     1       8.931   0.251  -0.729  1.00  0.00     0.123 C 
BRANCH  38  39
HETATM   39  N5  UNL     1       9.992   1.108  -1.180  1.00  0.00    -0.365 N 
HETATM   40  C24 UNL     1      11.183   0.651  -0.868  1.00  0.00     0.181 C 
HETATM   41  N6  UNL     1      12.337   1.312  -1.211  1.00  0.00    -0.374 N 
HETATM   42  N7  UNL     1      11.209  -0.621  -0.147  1.00  0.00    -0.064 NA
ATOM     43  H62 UNL     1      12.319   2.199  -1.714  1.00  0.00     0.158 HD
ATOM     44  H61 UNL     1      13.262   0.957  -0.969  1.00  0.00     0.158 HD
ATOM     45  H5  UNL     1       9.837   1.979  -1.688  1.00  0.00     0.162 HD
ENDBRANCH  38  39
ENDBRANCH  37  38
ENDBRANCH  36  37
ENDBRANCH  34  36
ENDBRANCH  33  34
ENDBRANCH  32  33
ENDBRANCH  31  32
ENDBRANCH  30  31
ENDBRANCH  29  30
ENDBRANCH  27  29
ENDBRANCH  23  26
ENDBRANCH  22  23
ENDBRANCH  21  22
ENDBRANCH  10  21
ENDBRANCH   8   9
TORSDOF 17
