REMARK  4 active torsions:
REMARK  status: ('A' for Active; 'I' for Inactive)
REMARK    1  A    between atoms: S1_2  and  C2_3 
REMARK    2  A    between atoms: C3_6  and  N2_7 
REMARK    3  A    between atoms: C4_12  and  N4_13 
REMARK    4  A    between atoms: C10_19  and  O1_20 
ROOT
HETATM    1  C2  UNL     1       2.909   0.407   0.106  1.00  0.00     0.110 A 
HETATM    2  N1  UNL     1       3.479  -0.164  -0.996  1.00  0.00    -0.184 N 
ATOM      3  H1  UNL     1       4.487  -0.122  -1.150  1.00  0.00     0.185 HD
HETATM    4  C3  UNL     1       2.680  -0.774  -1.859  1.00  0.00     0.678 A 
HETATM    5  N3  UNL     1       1.358  -0.836  -1.672  1.00  0.00    -0.175 N 
ATOM      6  H3  UNL     1       0.788  -1.317  -2.367  1.00  0.00     0.186 HD
HETATM    7  C4  UNL     1       0.742  -0.283  -0.592  1.00  0.00     0.144 A 
HETATM    8  C11 UNL     1       1.560   0.355   0.316  1.00  0.00     0.123 A 
HETATM    9  C12 UNL     1       1.013   0.971   1.489  1.00  0.00     0.106 C 
HETATM   10  N5  UNL     1       0.563   1.484   2.427  1.00  0.00    -0.191 NA
ENDROOT
BRANCH   1  11
HETATM   11  S1  UNL     1       4.002   1.225   1.261  1.00  0.00    -0.115 SA
HETATM   12  C1  UNL     1       5.720   1.127   0.714  1.00  0.00     0.097 C 
ENDBRANCH   1  11
BRANCH   7  13
HETATM   13  N4  UNL     1      -0.662  -0.365  -0.431  1.00  0.00    -0.339 N 
HETATM   14  C5  UNL     1      -1.211  -1.505   0.255  1.00  0.00     0.127 C 
HETATM   15  C6  UNL     1      -2.323  -1.190   1.204  1.00  0.00     0.024 C 
HETATM   16  C7  UNL     1      -3.351  -0.344   0.470  1.00  0.00    -0.013 C 
HETATM   17  C8  UNL     1      -4.545  -0.007   1.302  1.00  0.00     0.010 C 
HETATM   18  C9  UNL     1      -2.613   0.956   0.118  1.00  0.00     0.058 C 
HETATM   19  C10 UNL     1      -1.566   0.641  -0.922  1.00  0.00     0.221 C 
BRANCH  19  20
HETATM   20  O1  UNL     1      -0.919   1.820  -1.276  1.00  0.00    -0.377 OA
ATOM     21  H1  UNL     1      -1.516   2.484  -1.600  1.00  0.00     0.212 HD
ENDBRANCH  19  20
ENDBRANCH   7  13
BRANCH   4  22
HETATM   22  N2  UNL     1       3.208  -1.317  -2.904  1.00  0.00    -0.234 N 
ATOM     23  H22 UNL     1       4.217  -1.270  -3.047  1.00  0.00     0.174 HD
ATOM     24  H21 UNL     1       2.593  -1.787  -3.568  1.00  0.00     0.174 HD
ENDBRANCH   4  22
TORSDOF 4
