REMARK  4 active torsions:
REMARK  status: ('A' for Active; 'I' for Inactive)
REMARK    1  A    between atoms: C2_2  and  C3_3 
REMARK    2  A    between atoms: C5_7  and  C7_9 
REMARK       I    between atoms: C7_9  and  N1_11 
REMARK    3  A    between atoms: N1_11  and  C8_13 
REMARK    4  A    between atoms: N2_19  and  O4_20 
ROOT
HETATM    1  C3  UNL     1       3.045   0.519   0.236  1.00  0.00     0.189 C 
HETATM    2  C4  UNL     1       3.962   0.369   1.436  1.00  0.00     0.074 C 
HETATM    3  O1  UNL     1       2.013   1.418   0.492  1.00  0.00    -0.206 OA
HETATM    4  O2  UNL     1       1.194   0.927   1.388  1.00  0.00    -0.215 OA
HETATM    5  C5  UNL     1       0.380  -0.074   0.846  1.00  0.00     0.204 C 
HETATM    6  C6  UNL     1       0.157  -1.146   1.921  1.00  0.00     0.063 C 
HETATM    7  C12 UNL     1       1.060  -0.727  -0.310  1.00  0.00     0.232 C 
HETATM    8 CL1  UNL     1       0.511  -0.010  -1.840  1.00  0.00    -0.102 Cl
HETATM    9  N2  UNL     1       2.502  -0.725  -0.205  1.00  0.00    -0.136 NA
ENDROOT
BRANCH   5  10
HETATM   10  C7  UNL     1      -0.962   0.472   0.529  1.00  0.00     0.259 C 
HETATM   11  O3  UNL     1      -1.214   1.693   0.764  1.00  0.00    -0.270 OA
HETATM   12  N1  UNL     1      -1.942  -0.390  -0.036  1.00  0.00    -0.350 N 
ATOM     13  H1  UNL     1      -1.698  -1.365  -0.210  1.00  0.00     0.163 HD
BRANCH  12  14
HETATM   14  C8  UNL     1      -3.276   0.068  -0.374  1.00  0.00     0.022 C 
HETATM   15  C9  UNL     1      -4.004   0.601   0.842  1.00  0.00     0.037 C 
HETATM   16  C10 UNL     1      -4.051  -1.133  -0.889  1.00  0.00     0.037 C 
HETATM   17  C11 UNL     1      -3.251   1.173  -1.404  1.00  0.00     0.037 C 
ENDBRANCH  12  14
ENDBRANCH   5  10
BRANCH   9  18
HETATM   18  O4  UNL     1       2.906  -1.753   0.589  1.00  0.00    -0.308 OA
ATOM     19  H4  UNL     1       2.545  -2.581   0.295  1.00  0.00     0.237 HD
ENDBRANCH   9  18
BRANCH   1  20
HETATM   20  C2  UNL     1       3.891   1.152  -0.845  1.00  0.00     0.022 C 
HETATM   21  C1  UNL     1       4.266   0.466  -1.910  1.00  0.00     0.011 C 
ENDBRANCH   1  20
TORSDOF 4
