REMARK  7 active torsions:
REMARK  status: ('A' for Active; 'I' for Inactive)
REMARK    1  A    between atoms: C2_2  and  C3_3 
REMARK    2  A    between atoms: C4_4  and  C5_5 
REMARK    3  A    between atoms: C6_7  and  C7_8 
REMARK    4  A    between atoms: C7_8  and  C8_9 
REMARK    5  A    between atoms: C10_11  and  O1_12 
REMARK    6  A    between atoms: N2_18  and  N3_19 
REMARK    7  A    between atoms: C13_22  and  N4_23 
ROOT
HETATM    1  C8  UNL     1      -0.630   0.926  -0.012  1.00  0.00     0.031 C 
HETATM    2  C9  UNL     1      -1.339   2.074  -0.640  1.00  0.00     0.048 C 
HETATM    3  C10 UNL     1      -2.700   1.553  -1.093  1.00  0.00     0.169 C 
HETATM    4  C11 UNL     1      -2.825   0.221  -0.445  1.00  0.00     0.049 A 
HETATM    5  N1  UNL     1      -3.877  -0.606  -0.399  1.00  0.00    -0.351 N 
ATOM      6  H1  UNL     1      -4.746  -0.334  -0.858  1.00  0.00     0.166 HD
HETATM    7  C12 UNL     1      -3.813  -1.787   0.239  1.00  0.00     0.208 A 
HETATM    8  N2  UNL     1      -2.675  -2.142   0.837  1.00  0.00    -0.242 N 
HETATM    9  C13 UNL     1      -1.583  -1.346   0.822  1.00  0.00     0.130 A 
HETATM   10  C14 UNL     1      -1.646  -0.136   0.169  1.00  0.00     0.017 A 
ENDROOT
BRANCH   1  11
HETATM   11  C7  UNL     1       0.499   0.389  -0.865  1.00  0.00     0.038 C 
BRANCH  11  12
HETATM   12  C6  UNL     1       1.493   1.462  -1.094  1.00  0.00    -0.010 C 
HETATM   13  C2  UNL     1       2.750   1.354  -0.710  1.00  0.00    -0.012 C 
HETATM   14  C1  UNL     1       3.711   2.428  -0.948  1.00  0.00     0.058 C 
BRANCH  13  15
HETATM   15  C3  UNL     1       3.235   0.162  -0.031  1.00  0.00    -0.071 C 
HETATM   16  C4  UNL     1       3.652  -0.821   0.531  1.00  0.00    -0.086 C 
BRANCH  16  17
HETATM   17  C5  UNL     1       4.170  -2.007   1.225  1.00  0.00     0.208 C 
HETATM   18 CL1  UNL     1       5.556  -2.719   0.405  1.00  0.00    -0.117 Cl
ENDBRANCH  16  17
ENDBRANCH  13  15
ENDBRANCH  11  12
ENDBRANCH   1  11
BRANCH   3  19
HETATM   19  O1  UNL     1      -3.693   2.408  -0.671  1.00  0.00    -0.389 OA
ATOM     20  H1  UNL     1      -4.540   2.084  -0.953  1.00  0.00     0.210 HD
ENDBRANCH   3  19
BRANCH   9  21
HETATM   21  N4  UNL     1      -0.505  -1.729   1.414  1.00  0.00    -0.383 N 
ATOM     22  H42 UNL     1      -0.458  -2.626   1.898  1.00  0.00     0.157 HD
ATOM     23  H41 UNL     1       0.319  -1.128   1.403  1.00  0.00     0.157 HD
ENDBRANCH   9  21
BRANCH   8  24
HETATM   24  N3  UNL     1      -2.645  -3.390   1.498  1.00  0.00    -0.336 N 
ATOM     25  H32 UNL     1      -3.469  -3.991   1.509  1.00  0.00     0.177 HD
ATOM     26  H31 UNL     1      -1.775  -3.662   1.955  1.00  0.00     0.177 HD
ENDBRANCH   8  24
TORSDOF 7
