REMARK  3 active torsions:
REMARK  status: ('A' for Active; 'I' for Inactive)
REMARK    1  A    between atoms: C2_2  and  C3_3 
REMARK    2  A    between atoms: C5_7  and  N1_8 
REMARK    3  A    between atoms: N1_8  and  C6_10 
ROOT
HETATM    1  N1  UNL     1       0.269  -1.281  -0.382  1.00  0.00    -0.368 N 
ATOM      2  H1  UNL     1      -0.144  -2.140  -0.020  1.00  0.00     0.161 HD
ENDROOT
BRANCH   1   3
HETATM    3  C5  UNL     1      -0.563  -0.502  -1.208  1.00  0.00     0.147 C 
HETATM    4  C4  UNL     1      -1.253   0.605  -0.417  1.00  0.00     0.067 C 
HETATM    5  C2  UNL     1      -2.555  -0.113  -0.223  1.00  0.00     0.097 C 
HETATM    6  C1  UNL     1      -2.666  -0.870   1.096  1.00  0.00     0.039 C 
HETATM    7  S2  UNL     1      -2.202  -1.267  -1.564  1.00  0.00    -0.123 SA
BRANCH   5   8
HETATM    8  C3  UNL     1      -3.704   0.785  -0.461  1.00  0.00     0.192 C 
HETATM    9  O1  UNL     1      -4.421   0.615  -1.471  1.00  0.00    -0.647 OA
HETATM   10  O2  UNL     1      -4.022   1.817   0.397  1.00  0.00    -0.647 OA
ENDBRANCH   5   8
ENDBRANCH   1   3
BRANCH   1  11
HETATM   11  C6  UNL     1       1.479  -1.051  -0.025  1.00  0.00     0.113 A 
HETATM   12  S1  UNL     1       2.443  -2.069   1.005  1.00  0.00     0.006 SA
HETATM   13  N2  UNL     1       3.852  -1.155   1.021  1.00  0.00    -0.312 N 
HETATM   14  C7  UNL     1       3.576  -0.103   0.254  1.00  0.00     0.147 A 
ATOM     15  H2  UNL     1       4.724  -1.360   1.509  1.00  0.00     0.175 HD
HETATM   16  N3  UNL     1       4.585   0.882   0.060  1.00  0.00    -0.080 NA
HETATM   17  C8  UNL     1       2.343  -0.049  -0.289  1.00  0.00     0.110 A 
HETATM   18 CL1  UNL     1       1.838   1.307  -1.338  1.00  0.00    -0.078 Cl
ENDBRANCH   1  11
TORSDOF 3
