REMARK  10 active torsions:
REMARK  status: ('A' for Active; 'I' for Inactive)
REMARK    1  A    between atoms: C2_2  and  C3_3 
REMARK    2  A    between atoms: C3_3  and  C4_4 
REMARK    3  A    between atoms: C5_5  and  C6_6 
REMARK    4  A    between atoms: C8_10  and  C9_11 
REMARK    5  A    between atoms: C12_16  and  O3_17 
REMARK    6  A    between atoms: C13_19  and  C14_20 
REMARK    7  A    between atoms: C14_20  and  C15_21 
REMARK    8  A    between atoms: C15_21  and  C16_22 
REMARK    9  A    between atoms: C22_34  and  O6_35 
REMARK   10  A    between atoms: C23_37  and  C24_38 
REMARK       I    between atoms: C24_38  and  N4_40 
ROOT
HETATM    1  C6  UNL     1      -2.238  -0.492   0.127  1.00  0.00     0.170 C 
HETATM    2  O1  UNL     1      -1.468   0.504   0.701  1.00  0.00    -0.309 OA
HETATM    3  C7  UNL     1      -0.663   0.561   1.789  1.00  0.00     0.282 C 
HETATM    4  O2  UNL     1      -1.009   1.008   2.897  1.00  0.00    -0.263 OA
HETATM    5  C8  UNL     1       0.798   0.058   1.733  1.00  0.00     0.186 C 
HETATM    6  N1  UNL     1       1.249   0.417   0.437  1.00  0.00    -0.359 N 
ATOM      7  H1  UNL     1       0.463   0.486  -0.210  1.00  0.00     0.162 HD
HETATM    8  C12 UNL     1       2.444   0.703  -0.213  1.00  0.00     0.135 C 
HETATM    9  C13 UNL     1       3.712  -0.003  -0.324  1.00  0.00     0.159 C 
HETATM   10  N2  UNL     1       4.175   0.082  -1.751  1.00  0.00    -0.347 N 
ATOM     11  H2  UNL     1       5.117   0.414  -1.960  1.00  0.00     0.163 HD
HETATM   12  C18 UNL     1       3.316  -0.294  -2.800  1.00  0.00     0.240 C 
HETATM   13  O4  UNL     1       3.602   0.067  -3.969  1.00  0.00    -0.271 OA
HETATM   14  C19 UNL     1       2.066  -1.093  -2.703  1.00  0.00     0.172 C 
HETATM   15  C20 UNL     1       2.255  -2.242  -3.709  1.00  0.00     0.042 C 
HETATM   16  N3  UNL     1       0.891  -0.392  -3.133  1.00  0.00    -0.346 N 
ATOM     17  H3  UNL     1       1.062   0.526  -3.544  1.00  0.00     0.163 HD
HETATM   18  C21 UNL     1      -0.441  -0.769  -3.076  1.00  0.00     0.248 C 
HETATM   19  O5  UNL     1      -1.147  -0.518  -4.120  1.00  0.00    -0.271 OA
HETATM   20  C22 UNL     1      -1.190  -1.424  -1.990  1.00  0.00     0.225 C 
HETATM   21  C23 UNL     1      -2.254  -0.518  -1.386  1.00  0.00     0.149 C 
ENDROOT
BRANCH   1  22
HETATM   22  C5  UNL     1      -3.677  -0.194   0.512  1.00  0.00     0.002 C 
HETATM   23  C4  UNL     1      -4.141   1.047   0.380  1.00  0.00    -0.028 C 
BRANCH  23  24
HETATM   24  C3  UNL     1      -5.531   1.423   0.731  1.00  0.00     0.026 C 
BRANCH  24  25
HETATM   25  C2  UNL     1      -5.580   2.485   1.813  1.00  0.00    -0.001 C 
HETATM   26  C1  UNL     1      -4.869   3.748   1.361  1.00  0.00     0.005 C 
ENDBRANCH  24  25
ENDBRANCH  23  24
ENDBRANCH   1  22
BRANCH  21  27
HETATM   27  C24 UNL     1      -3.572  -1.063  -1.798  1.00  0.00     0.227 C 
HETATM   28  O7  UNL     1      -4.332  -0.402  -2.520  1.00  0.00    -0.273 OA
HETATM   29  N4  UNL     1      -3.947  -2.347  -1.355  1.00  0.00    -0.365 N 
HETATM   30  C25 UNL     1      -5.247  -2.913  -1.750  1.00  0.00     0.149 C 
ATOM     31  H4  UNL     1      -3.317  -2.885  -0.760  1.00  0.00     0.161 HD
ENDBRANCH  21  27
BRANCH  20  32
HETATM   32  O6  UNL     1      -1.759  -2.583  -2.556  1.00  0.00    -0.385 OA
ATOM     33  H6  UNL     1      -2.242  -3.005  -1.856  1.00  0.00     0.210 HD
ENDBRANCH  20  32
BRANCH   5  34
HETATM   34  C9  UNL     1       0.668  -1.444   1.986  1.00  0.00     0.010 C 
HETATM   35  C10 UNL     1      -0.030  -1.514   3.366  1.00  0.00     0.012 C 
HETATM   36  C11 UNL     1       2.025  -2.072   2.255  1.00  0.00     0.012 C 
ENDBRANCH   5  34
BRANCH   8  37
HETATM   37  O3  UNL     1       2.519   1.828  -0.903  1.00  0.00    -0.348 OA
ATOM     38  H3  UNL     1       3.336   2.023  -1.347  1.00  0.00     0.219 HD
ENDBRANCH   8  37
BRANCH   9  39
HETATM   39  C14 UNL     1       4.729   0.237   0.658  1.00  0.00     0.033 C 
BRANCH  39  40
HETATM   40  C15 UNL     1       5.377   1.498   0.994  1.00  0.00     0.002 C 
BRANCH  40  41
HETATM   41  C16 UNL     1       4.601   2.614   1.602  1.00  0.00    -0.004 C 
HETATM   42  C17 UNL     1       5.637   3.743   1.848  1.00  0.00     0.005 C 
ENDBRANCH  40  41
ENDBRANCH  39  40
ENDBRANCH   9  39
TORSDOF 10
