REMARK  8 active torsions:
REMARK  status: ('A' for Active; 'I' for Inactive)
REMARK    1  A    between atoms: S1_2  and  C2_3 
REMARK    2  A    between atoms: C2_3  and  C3_4 
REMARK    3  A    between atoms: C3_4  and  C4_5 
REMARK    4  A    between atoms: C6_10  and  C7_11 
REMARK    5  A    between atoms: C7_11  and  C8_12 
REMARK    6  A    between atoms: C14_24  and  C15_25 
REMARK    7  A    between atoms: C19_32  and  C20_33 
REMARK    8  A    between atoms: C23_39  and  O5_40 
ROOT
HETATM    1  C20 UNL     1       2.806   1.100   1.741  1.00  0.00     0.120 C 
HETATM    2  C21 UNL     1       2.345   2.009   2.890  1.00  0.00     0.028 C 
HETATM    3  C22 UNL     1       4.107   1.564   1.281  1.00  0.00     0.066 C 
HETATM    4  N5  UNL     1       5.137   1.924   0.937  1.00  0.00    -0.197 NA
ENDROOT
BRANCH   1   5
HETATM    5  C19 UNL     1       1.740   1.275   0.640  1.00  0.00     0.193 C 
HETATM    6  C18 UNL     1       2.063   0.447  -0.545  1.00  0.00     0.242 C 
HETATM    7  N4  UNL     1       2.869  -0.655  -0.714  1.00  0.00    -0.346 N 
HETATM    8  O4  UNL     1       1.463   0.853  -1.618  1.00  0.00    -0.271 OA
HETATM    9  C14 UNL     1       2.938  -1.957  -0.096  1.00  0.00     0.180 C 
ATOM     10  H4  UNL     1       3.575  -0.522  -1.438  1.00  0.00     0.163 HD
HETATM   11  C13 UNL     1       1.780  -2.429   0.637  1.00  0.00     0.241 C 
HETATM   12  N3  UNL     1       0.432  -2.554   0.260  1.00  0.00    -0.351 N 
HETATM   13  O3  UNL     1       2.019  -2.799   1.849  1.00  0.00    -0.271 OA
HETATM   14  C12 UNL     1      -0.140  -3.095  -0.937  1.00  0.00     0.225 C 
ATOM     15  H3  UNL     1      -0.242  -2.207   0.942  1.00  0.00     0.163 HD
HETATM   16  C11 UNL     1      -0.552  -2.129  -1.953  1.00  0.00     0.236 C 
HETATM   17  N2  UNL     1      -1.670  -1.300  -2.015  1.00  0.00    -0.346 N 
HETATM   18  O2  UNL     1       0.262  -2.037  -2.950  1.00  0.00    -0.272 OA
HETATM   19  C6  UNL     1      -2.205  -0.417  -0.992  1.00  0.00     0.177 C 
ATOM     20  H2  UNL     1      -2.182  -1.315  -2.897  1.00  0.00     0.163 HD
HETATM   21  C5  UNL     1      -2.197   1.009  -1.430  1.00  0.00     0.244 C 
HETATM   22  N1  UNL     1      -2.222   2.172  -0.680  1.00  0.00    -0.325 N 
HETATM   23  O1  UNL     1      -2.164   1.102  -2.708  1.00  0.00    -0.271 OA
HETATM   24  C4  UNL     1      -1.329   2.657   0.342  1.00  0.00     0.063 C 
ATOM     25  H1  UNL     1      -3.006   2.791  -0.886  1.00  0.00     0.169 HD
HETATM   26  C23 UNL     1      -0.750   1.648   1.231  1.00  0.00     0.160 C 
HETATM   27  N6  UNL     1       0.478   1.016   1.245  1.00  0.00    -0.355 N 
ATOM     28  H6  UNL     1       0.481   0.173   1.819  1.00  0.00     0.162 HD
BRANCH   9  29
HETATM   29  C15 UNL     1       3.442  -3.010  -1.109  1.00  0.00     0.009 C 
HETATM   30  C16 UNL     1       3.811  -4.249  -0.352  1.00  0.00     0.012 C 
HETATM   31  C17 UNL     1       4.720  -2.457  -1.706  1.00  0.00     0.012 C 
ENDBRANCH   9  29
BRANCH  19  32
HETATM   32  C7  UNL     1      -3.698  -0.779  -0.926  1.00  0.00     0.038 C 
BRANCH  32  33
HETATM   33  C8  UNL     1      -3.970  -2.174  -0.503  1.00  0.00    -0.020 C 
HETATM   34  C9  UNL     1      -5.504  -2.315  -0.515  1.00  0.00     0.009 C 
HETATM   35  C10 UNL     1      -3.515  -2.458   0.894  1.00  0.00     0.009 C 
ENDBRANCH  32  33
ENDBRANCH  19  32
BRANCH  24  36
HETATM   36  C3  UNL     1      -0.366   3.708  -0.172  1.00  0.00     0.072 C 
BRANCH  36  37
HETATM   37  C2  UNL     1      -1.270   4.859  -0.668  1.00  0.00     0.079 C 
BRANCH  37  38
HETATM   38  S1  UNL     1      -2.279   5.498   0.697  1.00  0.00    -0.173 SA
HETATM   39  C1  UNL     1      -1.231   6.291   1.942  1.00  0.00     0.089 C 
ENDBRANCH  37  38
ENDBRANCH  36  37
ENDBRANCH  24  36
BRANCH  26  40
HETATM   40  O5  UNL     1      -1.569   1.289   2.187  1.00  0.00    -0.345 OA
ATOM     41  H5  UNL     1      -1.193   0.634   2.764  1.00  0.00     0.219 HD
ENDBRANCH  26  40
ENDBRANCH   1   5
TORSDOF 8
