REMARK  8 active torsions:
REMARK  status: ('A' for Active; 'I' for Inactive)
REMARK    1  A    between atoms: C2_2  and  C3_3 
REMARK    2  A    between atoms: C3_3  and  C5_5 
REMARK    3  A    between atoms: C11_16  and  C12_17 
REMARK    4  A    between atoms: C12_17  and  C13_18 
REMARK    5  A    between atoms: C17_25  and  C18_26 
REMARK    6  A    between atoms: C18_26  and  C20_28 
REMARK    7  A    between atoms: C23_33  and  C24_34 
REMARK    8  A    between atoms: C24_34  and  O6_35 
ROOT
HETATM    1  C5  UNL     1       3.167  -0.246  -0.349  1.00  0.00     0.180 C 
HETATM    2  N1  UNL     1       2.695  -0.461   0.988  1.00  0.00    -0.346 N 
ATOM      3  H1  UNL     1       3.231   0.003   1.722  1.00  0.00     0.163 HD
HETATM    4  C6  UNL     1       1.609  -1.213   1.425  1.00  0.00     0.241 C 
HETATM    5  O1  UNL     1       1.429  -1.350   2.666  1.00  0.00    -0.271 OA
HETATM    6  C7  UNL     1       0.593  -1.902   0.561  1.00  0.00     0.175 C 
HETATM    7  C8  UNL     1       1.249  -2.978  -0.304  1.00  0.00     0.042 C 
HETATM    8  N2  UNL     1      -0.409  -2.573   1.350  1.00  0.00    -0.338 N 
HETATM    9  C9  UNL     1       0.106  -3.811   1.983  1.00  0.00     0.154 C 
HETATM   10  C10 UNL     1      -1.731  -2.244   1.599  1.00  0.00     0.266 C 
HETATM   11  O2  UNL     1      -2.174  -2.614   2.761  1.00  0.00    -0.266 OA
HETATM   12  C11 UNL     1      -2.750  -1.557   0.813  1.00  0.00     0.081 C 
HETATM   13  N3  UNL     1      -2.304  -0.823  -0.332  1.00  0.00    -0.320 N 
ATOM     14  H3  UNL     1      -1.911  -1.382  -1.089  1.00  0.00     0.169 HD
HETATM   15  C16 UNL     1      -2.335   0.567  -0.553  1.00  0.00     0.276 C 
HETATM   16  O3  UNL     1      -2.663   0.946  -1.706  1.00  0.00    -0.265 OA
HETATM   17  C17 UNL     1      -2.009   1.611   0.474  1.00  0.00     0.128 C 
HETATM   18  O4  UNL     1      -0.690   1.653   0.824  1.00  0.00    -0.276 OA
HETATM   19  C22 UNL     1       0.319   2.435   1.127  1.00  0.00     0.289 C 
HETATM   20  O5  UNL     1       0.513   3.222   2.127  1.00  0.00    -0.262 OA
HETATM   21  C23 UNL     1       1.495   2.477   0.198  1.00  0.00     0.208 C 
HETATM   22  N4  UNL     1       1.375   1.554  -0.909  1.00  0.00    -0.343 N 
ATOM     23  H4  UNL     1       0.582   1.699  -1.534  1.00  0.00     0.163 HD
HETATM   24  C25 UNL     1       2.227   0.478  -1.223  1.00  0.00     0.241 C 
HETATM   25  O7  UNL     1       2.202   0.057  -2.407  1.00  0.00    -0.271 OA
ENDROOT
BRANCH   1  26
HETATM   26  C3  UNL     1       4.559   0.352  -0.340  1.00  0.00     0.013 C 
HETATM   27  C4  UNL     1       5.476  -0.556   0.420  1.00  0.00     0.012 C 
BRANCH  26  28
HETATM   28  C2  UNL     1       5.041   0.577  -1.768  1.00  0.00     0.002 C 
HETATM   29  C1  UNL     1       6.400   1.193  -1.812  1.00  0.00     0.005 C 
ENDBRANCH  26  28
ENDBRANCH   1  26
BRANCH  21  30
HETATM   30  C24 UNL     1       1.820   3.883  -0.256  1.00  0.00     0.199 C 
BRANCH  30  31
HETATM   31  O6  UNL     1       1.941   4.772   0.777  1.00  0.00    -0.398 OA
ATOM     32  H6  UNL     1       2.145   5.655   0.492  1.00  0.00     0.209 HD
ENDBRANCH  30  31
ENDBRANCH  21  30
BRANCH  12  33
HETATM   33  C12 UNL     1      -4.012  -2.333   0.562  1.00  0.00     0.067 C 
BRANCH  33  34
HETATM   34  C13 UNL     1      -3.970  -3.603  -0.153  1.00  0.00    -0.017 C 
HETATM   35  C14 UNL     1      -3.421  -3.565  -1.553  1.00  0.00     0.010 C 
HETATM   36  C15 UNL     1      -3.442  -4.798   0.613  1.00  0.00     0.010 C 
ENDBRANCH  33  34
ENDBRANCH  12  33
BRANCH  17  37
HETATM   37  C18 UNL     1      -2.731   2.899   0.287  1.00  0.00     0.044 C 
HETATM   38  C19 UNL     1      -4.255   2.705   0.349  1.00  0.00     0.017 C 
BRANCH  37  39
HETATM   39  C20 UNL     1      -2.346   3.773  -0.836  1.00  0.00     0.006 C 
HETATM   40  C21 UNL     1      -3.260   5.015  -0.750  1.00  0.00     0.006 C 
ENDBRANCH  37  39
ENDBRANCH  17  37
TORSDOF 8
