REMARK  8 active torsions:
REMARK  status: ('A' for Active; 'I' for Inactive)
REMARK       I    between atoms: N1_2  and  C2_4 
REMARK       I    between atoms: C2_4  and  N2_6 
REMARK    1  A    between atoms: N2_6  and  C3_8 
REMARK    2  A    between atoms: C3_8  and  C4_9 
REMARK    3  A    between atoms: C4_9  and  C5_10 
REMARK    4  A    between atoms: C9_20  and  C10_21 
REMARK    5  A    between atoms: C10_21  and  C11_22 
REMARK    6  A    between atoms: C15_28  and  C16_29 
REMARK    7  A    between atoms: C19_32  and  C20_33 
REMARK    8  A    between atoms: C20_33  and  O6_34 
ROOT
HETATM    1  C5  UNL     1       2.974  -1.131  -1.415  1.00  0.00     0.112 C 
HETATM    2  C6  UNL     1       2.088  -2.083  -0.777  1.00  0.00     0.225 C 
HETATM    3  O2  UNL     1       2.712  -3.030  -0.187  1.00  0.00    -0.273 OA
HETATM    4  N3  UNL     1       0.682  -2.068  -0.745  1.00  0.00    -0.344 N 
ATOM      5  H3  UNL     1       0.290  -3.007  -0.817  1.00  0.00     0.163 HD
HETATM    6  C7  UNL     1      -0.336  -1.075  -0.638  1.00  0.00     0.207 C 
HETATM    7  C8  UNL     1      -0.421  -0.735   0.782  1.00  0.00     0.245 C 
HETATM    8  O3  UNL     1       0.646  -0.266   1.324  1.00  0.00    -0.271 OA
HETATM    9  N4  UNL     1      -1.510  -0.851   1.639  1.00  0.00    -0.345 N 
ATOM     10  H4  UNL     1      -1.306  -0.668   2.622  1.00  0.00     0.163 HD
HETATM   11  C9  UNL     1      -2.887  -1.190   1.355  1.00  0.00     0.184 C 
HETATM   12  C14 UNL     1      -3.361  -0.764   0.016  1.00  0.00     0.282 C 
HETATM   13  O4  UNL     1      -4.278  -1.544  -0.449  1.00  0.00    -0.263 OA
HETATM   14  O5  UNL     1      -2.907   0.251  -0.593  1.00  0.00    -0.313 OA
HETATM   15  C15 UNL     1      -2.354   1.327  -1.117  1.00  0.00     0.145 C 
HETATM   16  C19 UNL     1      -0.794   1.353  -0.976  1.00  0.00     0.071 C 
HETATM   17  C21 UNL     1      -0.273   0.110  -1.590  1.00  0.00    -0.035 C 
HETATM   18  C22 UNL     1       0.965   0.012  -2.329  1.00  0.00    -0.043 C 
HETATM   19  C23 UNL     1       1.085   0.585  -3.697  1.00  0.00     0.063 C 
HETATM   20  C24 UNL     1       2.589   0.403  -3.918  1.00  0.00     0.173 C 
HETATM   21  O7  UNL     1       3.111   0.788  -2.690  1.00  0.00    -0.380 OA
HETATM   22  C25 UNL     1       2.278   0.210  -1.700  1.00  0.00     0.163 C 
ENDROOT
BRANCH   1  23
HETATM   23  C4  UNL     1       4.308  -0.927  -0.737  1.00  0.00     0.036 C 
BRANCH  23  24
HETATM   24  C3  UNL     1       4.220  -0.427   0.659  1.00  0.00     0.125 C 
BRANCH  24  25
HETATM   25  N2  UNL     1       5.550  -0.268   1.199  1.00  0.00    -0.343 N 
HETATM   26  C2  UNL     1       6.494  -1.305   1.383  1.00  0.00     0.315 C 
HETATM   27  N1  UNL     1       7.764  -0.988   1.913  1.00  0.00    -0.347 N 
HETATM   28  O1  UNL     1       6.210  -2.473   1.084  1.00  0.00    -0.247 OA
HETATM   29  C1  UNL     1       8.809  -1.963   2.149  1.00  0.00     0.151 C 
ATOM     30  H1  UNL     1       7.957  -0.013   2.144  1.00  0.00     0.163 HD
ATOM     31  H2  UNL     1       5.833   0.673   1.471  1.00  0.00     0.164 HD
ENDBRANCH  24  25
ENDBRANCH  23  24
ENDBRANCH   1  23
BRANCH  16  32
HETATM   32  C20 UNL     1      -0.386   2.671  -1.464  1.00  0.00     0.175 C 
BRANCH  32  33
HETATM   33  O6  UNL     1       0.957   3.011  -1.456  1.00  0.00    -0.400 OA
ATOM     34  H6  UNL     1       1.222   3.867  -1.773  1.00  0.00     0.209 HD
ENDBRANCH  32  33
ENDBRANCH  16  32
BRANCH  15  35
HETATM   35  C16 UNL     1      -2.975   2.655  -0.781  1.00  0.00     0.008 C 
HETATM   36  C17 UNL     1      -2.982   3.022   0.655  1.00  0.00     0.012 C 
HETATM   37  C18 UNL     1      -4.492   2.607  -1.145  1.00  0.00     0.012 C 
ENDBRANCH  15  35
BRANCH  11  38
HETATM   38  C10 UNL     1      -3.806  -0.579   2.379  1.00  0.00     0.039 C 
BRANCH  38  39
HETATM   39  C11 UNL     1      -5.256  -0.844   2.205  1.00  0.00    -0.020 C 
HETATM   40  C12 UNL     1      -6.079  -0.170   3.314  1.00  0.00     0.009 C 
HETATM   41  C13 UNL     1      -5.589  -2.311   2.246  1.00  0.00     0.009 C 
ENDBRANCH  38  39
ENDBRANCH  11  38
TORSDOF 8
