REMARK  9 active torsions:
REMARK  status: ('A' for Active; 'I' for Inactive)
REMARK    1  A    between atoms: N1_1  and  C1_5 
REMARK    2  A    between atoms: C1_5  and  C2_6 
REMARK    3  A    between atoms: C2_6  and  C3_7 
REMARK    4  A    between atoms: C3_7  and  N2_8 
REMARK    5  A    between atoms: N2_8  and  C4_11 
REMARK    6  A    between atoms: C4_11  and  C5_12 
REMARK    7  A    between atoms: C5_12  and  N3_13 
REMARK    8  A    between atoms: C12_21  and  N4_22 
REMARK    9  A    between atoms: C17_30  and  O1_31 
ROOT
HETATM    1  N3  UNL     1       0.282  -1.110   0.773  1.00  0.00    -0.381 N 
HETATM    2  C6  UNL     1       0.118  -1.453  -0.563  1.00  0.00     0.086 C 
HETATM    3  C7  UNL     1      -0.318  -2.913  -0.666  1.00  0.00     0.027 C 
HETATM    4  C8  UNL     1      -0.203  -3.672   0.617  1.00  0.00     0.024 C 
HETATM    5  C9  UNL     1      -0.687  -2.974   1.836  1.00  0.00     0.105 C 
HETATM    6 CL1  UNL     1      -2.132  -3.707   2.492  1.00  0.00    -0.123 Cl
HETATM    7  C10 UNL     1      -0.809  -1.476   1.625  1.00  0.00     0.104 C 
HETATM    8  C11 UNL     1      -2.114  -1.060   1.108  1.00  0.00     0.053 C 
HETATM    9  C12 UNL     1      -2.310  -0.933  -0.351  1.00  0.00     0.103 C 
HETATM   10  C18 UNL     1      -1.050  -0.652  -1.124  1.00  0.00     0.051 C 
ENDROOT
BRANCH   1  11
HETATM   11  C5  UNL     1       1.499  -0.954   1.409  1.00  0.00     0.086 C 
BRANCH  11  12
HETATM   12  C4  UNL     1       2.431   0.125   1.176  1.00  0.00     0.276 C 
BRANCH  12  13
HETATM   13  N2  UNL     1       2.917   0.190  -0.197  1.00  0.00    -0.071 N 
ATOM     14  H22 UNL     1       2.187   0.386  -0.882  1.00  0.00     0.277 HD
ATOM     15  H21 UNL     1       3.198  -0.714  -0.576  1.00  0.00     0.277 HD
BRANCH  13  16
HETATM   16  C3  UNL     1       4.003   1.192  -0.182  1.00  0.00     0.234 C 
BRANCH  16  17
HETATM   17  C2  UNL     1       4.683   1.312  -1.511  1.00  0.00     0.055 C 
BRANCH  17  18
HETATM   18  C1  UNL     1       5.782   2.363  -1.335  1.00  0.00     0.231 C 
BRANCH  18  19
HETATM   19  N1  UNL     1       6.716   1.943  -0.297  1.00  0.00    -0.079 N 
ATOM     20  H13 UNL     1       6.242   1.736   0.582  1.00  0.00     0.274 HD
ATOM     21  H12 UNL     1       7.100   1.016  -0.482  1.00  0.00     0.274 HD
ATOM     22  H11 UNL     1       7.448   2.643  -0.180  1.00  0.00     0.274 HD
ENDBRANCH  18  19
ENDBRANCH  17  18
ENDBRANCH  16  17
ENDBRANCH  13  16
ENDBRANCH  12  13
ENDBRANCH  11  12
ENDBRANCH   1  11
BRANCH   9  23
HETATM   23  N4  UNL     1      -3.199   0.221  -0.588  1.00  0.00    -0.290 N 
HETATM   24  S1  UNL     1      -2.939   1.611  -1.488  1.00  0.00    -0.008 SA
HETATM   25  C13 UNL     1      -4.434   2.395  -1.246  1.00  0.00     0.054 A 
HETATM   26  C14 UNL     1      -5.237   3.516  -1.510  1.00  0.00     0.040 A 
HETATM   27  C16 UNL     1      -5.100   1.504  -0.441  1.00  0.00     0.102 A 
HETATM   28  C15 UNL     1      -6.402   3.268  -0.837  1.00  0.00     0.090 A 
HETATM   29  N5  UNL     1      -6.328   2.086  -0.207  1.00  0.00    -0.361 N 
ATOM     30  H5  UNL     1      -7.070   1.678   0.361  1.00  0.00     0.165 HD
HETATM   31  C17 UNL     1      -4.439   0.379  -0.111  1.00  0.00     0.177 A 
BRANCH  31  32
HETATM   32  O1  UNL     1      -4.951  -0.550   0.642  1.00  0.00    -0.344 OA
ATOM     33  H1  UNL     1      -5.831  -0.438   0.981  1.00  0.00     0.219 HD
ENDBRANCH  31  32
ENDBRANCH   9  23
TORSDOF 9
