REMARK  8 active torsions:
REMARK  status: ('A' for Active; 'I' for Inactive)
REMARK    1  A    between atoms: C2_2  and  C3_3 
REMARK    2  A    between atoms: C2_2  and  C4_6 
REMARK    3  A    between atoms: N1_14  and  O3_16 
REMARK    4  A    between atoms: O3_16  and  C11_17 
REMARK    5  A    between atoms: C14_20  and  C15_21 
REMARK    6  A    between atoms: C15_21  and  O4_22 
REMARK    7  A    between atoms: C17_27  and  O7_29 
REMARK    8  A    between atoms: C19_31  and  C20_32 
ROOT
HETATM    1  C4  UNL     1      -3.167  -0.327  -0.099  1.00  0.00     0.032 C 
HETATM    2  C5  UNL     1      -2.037  -1.242  -0.486  1.00  0.00     0.057 C 
HETATM    3  C6  UNL     1      -1.360  -1.287   0.897  1.00  0.00     0.141 C 
HETATM    4  F1  UNL     1      -2.373  -1.658   1.767  1.00  0.00    -0.239 F 
HETATM    5  C7  UNL     1      -1.137   0.169   1.104  1.00  0.00     0.034 C 
HETATM    6  C8  UNL     1      -0.115   0.812   0.275  1.00  0.00     0.014 C 
HETATM    7  C9  UNL     1       1.276   0.811   0.929  1.00  0.00     0.058 C 
HETATM    8  C10 UNL     1       2.137  -0.240   0.352  1.00  0.00     0.052 C 
HETATM    9  N1  UNL     1       3.090   0.162  -0.400  1.00  0.00    -0.271 N 
ATOM     10  H1  UNL     1       3.690  -0.557  -0.804  1.00  0.00     0.193 HD
HETATM   11  C14 UNL     1       2.121  -1.681   0.468  1.00  0.00     0.189 C 
HETATM   12  O5  UNL     1       2.478  -2.434  -0.651  1.00  0.00    -0.218 OA
HETATM   13  O6  UNL     1       1.604  -3.332  -0.156  1.00  0.00    -0.227 OA
HETATM   14  C16 UNL     1       0.816  -2.211   0.074  1.00  0.00     0.243 C 
HETATM   15  C17 UNL     1      -0.282  -2.253   1.032  1.00  0.00     0.123 C 
HETATM   16  C18 UNL     1      -0.936  -3.646   0.875  1.00  0.00     0.052 C 
HETATM   17  C19 UNL     1      -2.580   0.666   0.827  1.00  0.00     0.001 C 
ENDROOT
BRANCH   9  18
HETATM   18  O3  UNL     1       3.381   1.443  -0.713  1.00  0.00    -0.276 OA
BRANCH  18  19
HETATM   19  C11 UNL     1       4.479   1.691  -1.573  1.00  0.00     0.144 C 
HETATM   20  C12 UNL     1       4.105   2.435  -2.813  1.00  0.00     0.042 C 
HETATM   21  C13 UNL     1       5.572   2.490  -0.862  1.00  0.00     0.042 C 
ENDBRANCH  18  19
ENDBRANCH   9  18
BRANCH  11  22
HETATM   22  C15 UNL     1       2.866  -2.192   1.645  1.00  0.00     0.214 C 
BRANCH  22  23
HETATM   23  O4  UNL     1       2.651  -3.518   1.961  1.00  0.00    -0.397 OA
ATOM     24  H4  UNL     1       3.128  -3.845   2.715  1.00  0.00     0.209 HD
ENDBRANCH  22  23
ENDBRANCH  11  22
BRANCH  15  25
HETATM   25  O7  UNL     1       0.123  -2.249   2.385  1.00  0.00    -0.384 OA
ATOM     26  H7  UNL     1       0.827  -2.880   2.473  1.00  0.00     0.210 HD
ENDBRANCH  15  25
BRANCH  17  27
HETATM   27  C20 UNL     1      -2.639   2.095   0.476  1.00  0.00     0.001 C 
HETATM   28  C21 UNL     1      -2.028   2.982   1.581  1.00  0.00     0.005 C 
ENDBRANCH  17  27
BRANCH   1  29
HETATM   29  C2  UNL     1      -4.053   0.090  -1.164  1.00  0.00     0.014 C 
HETATM   30  C1  UNL     1      -3.712  -0.040  -2.434  1.00  0.00     0.026 C 
BRANCH  29  31
HETATM   31  C3  UNL     1      -5.390   0.620  -0.881  1.00  0.00     0.204 C 
HETATM   32  O1  UNL     1      -5.812   0.767   0.286  1.00  0.00    -0.644 OA
HETATM   33  O2  UNL     1      -6.252   0.983  -1.923  1.00  0.00    -0.644 OA
ENDBRANCH  29  31
ENDBRANCH   1  29
TORSDOF 8
