REMARK  5 active torsions:
REMARK  status: ('A' for Active; 'I' for Inactive)
REMARK    1  A    between atoms: C5_6  and  C6_7 
REMARK    2  A    between atoms: C6_7  and  N2_8 
REMARK    3  A    between atoms: N2_8  and  C7_11 
REMARK    4  A    between atoms: N3_14  and  C10_15 
REMARK    5  A    between atoms: C11_18  and  N5_19 
ROOT
HETATM    1  N1  UNL     1       9.540   3.366   0.142  1.00  0.00    -0.191 NA
HETATM    2  C1  UNL     1       8.534   2.834   0.042  1.00  0.00     0.103 C 
HETATM    3  C2  UNL     1       7.255   2.182  -0.089  1.00  0.00     0.088 A 
HETATM    4  C3  UNL     1       6.262   2.773  -0.856  1.00  0.00     0.028 A 
HETATM    5  C4  UNL     1       5.052   2.121  -0.959  1.00  0.00     0.028 A 
HETATM    6  C5  UNL     1       4.787   0.918  -0.339  1.00  0.00     0.036 A 
HETATM    7  N7  UNL     1       5.778   0.383   0.392  1.00  0.00    -0.344 N 
ATOM      8  H7  UNL     1       5.610  -0.507   0.861  1.00  0.00     0.167 HD
HETATM    9  C21 UNL     1       6.983   0.967   0.534  1.00  0.00     0.120 A 
HETATM   10  N8  UNL     1       7.938   0.457   1.235  1.00  0.00    -0.384 N 
ATOM     11  H81 UNL     1       7.739  -0.433   1.691  1.00  0.00     0.157 HD
ATOM     12  H82 UNL     1       8.851   0.899   1.343  1.00  0.00     0.157 HD
ENDROOT
BRANCH   6  13
HETATM   13  C6  UNL     1       3.453   0.284  -0.504  1.00  0.00     0.289 C 
BRANCH  13  14
HETATM   14  N2  UNL     1       3.370  -0.977   0.199  1.00  0.00    -0.066 N 
ATOM     15  H22 UNL     1       4.122  -1.605  -0.087  1.00  0.00     0.278 HD
ATOM     16  H21 UNL     1       3.614  -0.863   1.183  1.00  0.00     0.278 HD
BRANCH  14  17
HETATM   17  C7  UNL     1       2.092  -1.609   0.057  1.00  0.00     0.189 C 
HETATM   18  C8  UNL     1       1.014  -0.761   0.652  1.00  0.00     0.053 C 
HETATM   19  C9  UNL     1      -0.008  -0.426  -0.410  1.00  0.00     0.126 C 
HETATM   20  N3  UNL     1      -0.575  -1.703  -0.850  1.00  0.00    -0.365 N 
HETATM   21  C19 UNL     1       0.380  -2.626  -1.369  1.00  0.00     0.126 C 
HETATM   22  C20 UNL     1       1.756  -1.928  -1.372  1.00  0.00     0.053 C 
BRANCH  20  23
HETATM   23  C10 UNL     1      -1.973  -1.898  -0.728  1.00  0.00     0.142 A 
HETATM   24  N4  UNL     1      -2.736  -0.897  -0.235  1.00  0.00    -0.175 N 
HETATM   25  C11 UNL     1      -4.045  -0.923  -0.063  1.00  0.00     0.681 A 
ATOM     26  H4  UNL     1      -2.254  -0.038   0.030  1.00  0.00     0.186 HD
HETATM   27  N6  UNL     1      -4.700  -2.071  -0.415  1.00  0.00    -0.200 N 
HETATM   28  C17 UNL     1      -3.997  -3.107  -0.913  1.00  0.00     0.133 A 
ATOM     29  H6  UNL     1      -5.711  -2.142  -0.302  1.00  0.00     0.183 HD
HETATM   30  C18 UNL     1      -2.629  -3.039  -1.077  1.00  0.00     0.094 A 
HETATM   31 CL1  UNL     1      -1.767  -4.414  -1.725  1.00  0.00    -0.079 Cl
BRANCH  25  32
HETATM   32  N5  UNL     1      -4.814   0.145   0.456  1.00  0.00    -0.218 N 
HETATM   33  C12 UNL     1      -6.239   0.061   0.608  1.00  0.00     0.141 C 
HETATM   34  C13 UNL     1      -6.763   1.495   0.451  1.00  0.00     0.020 C 
HETATM   35  C14 UNL     1      -6.355   2.256   1.681  1.00  0.00     0.003 C 
HETATM   36  C15 UNL     1      -4.892   2.114   1.910  1.00  0.00     0.020 C 
HETATM   37  C16 UNL     1      -4.154   1.368   0.849  1.00  0.00     0.141 C 
ENDBRANCH  25  32
ENDBRANCH  20  23
ENDBRANCH  14  17
ENDBRANCH  13  14
ENDBRANCH   6  13
TORSDOF 5
