REMARK  7 active torsions:
REMARK  status: ('A' for Active; 'I' for Inactive)
REMARK       I    between atoms: C1_2  and  N1_3 
REMARK    1  A    between atoms: C1_2  and  O3_23 
REMARK    2  A    between atoms: N1_3  and  C2_5 
REMARK    3  A    between atoms: C2_5  and  C3_6 
REMARK    4  A    between atoms: C3_6  and  C4_7 
REMARK    5  A    between atoms: C6_9  and  C7_10 
REMARK    6  A    between atoms: O3_23  and  C14_24 
REMARK    7  A    between atoms: C22_33  and  O5_34 
ROOT
HETATM    1  C2  UNL     1      -1.603  -1.235   0.947  1.00  0.00     0.066 C 
HETATM    2  C11 UNL     1      -1.842  -2.202  -0.195  1.00  0.00     0.060 C 
HETATM    3  C12 UNL     1      -2.439  -3.425   0.450  1.00  0.00     0.235 C 
HETATM    4  N3  UNL     1      -2.457  -3.227   1.878  1.00  0.00    -0.073 N 
ATOM      5  H31 UNL     1      -1.742  -3.770   2.362  1.00  0.00     0.277 HD
ATOM      6  H32 UNL     1      -3.272  -3.647   2.325  1.00  0.00     0.277 HD
HETATM    7  C13 UNL     1      -2.350  -1.826   2.127  1.00  0.00     0.263 C 
ENDROOT
BRANCH   1   8
HETATM    8  N1  UNL     1      -0.222  -1.131   1.290  1.00  0.00    -0.326 N 
HETATM    9  C1  UNL     1       0.825  -0.628   0.494  1.00  0.00     0.361 C 
HETATM   10  O1  UNL     1       0.606  -0.206  -0.662  1.00  0.00    -0.238 OA
ATOM     11  H1  UNL     1       0.037  -1.459   2.220  1.00  0.00     0.165 HD
BRANCH   9  12
HETATM   12  O3  UNL     1       2.142  -0.567   0.927  1.00  0.00    -0.294 OA
BRANCH  12  13
HETATM   13  C14 UNL     1       3.201  -0.063   0.135  1.00  0.00     0.186 C 
HETATM   14  C15 UNL     1       4.212  -1.113  -0.206  1.00  0.00     0.203 C 
HETATM   15  O4  UNL     1       5.309  -1.180   0.565  1.00  0.00    -0.383 OA
HETATM   16  C16 UNL     1       5.818  -0.027   1.092  1.00  0.00     0.128 C 
HETATM   17  C17 UNL     1       7.310  -0.040   1.000  1.00  0.00     0.032 C 
HETATM   18  C21 UNL     1       5.217   1.237   0.547  1.00  0.00     0.046 C 
HETATM   19  C18 UNL     1       7.880   0.653  -0.177  1.00  0.00     0.002 C 
HETATM   20  C19 UNL     1       6.924   0.960  -1.273  1.00  0.00     0.001 C 
HETATM   21  C20 UNL     1       5.641   1.579  -0.836  1.00  0.00     0.010 C 
HETATM   22  C22 UNL     1       3.736   1.172   0.758  1.00  0.00     0.156 C 
BRANCH  22  23
HETATM   23  O5  UNL     1       3.122   2.317   0.234  1.00  0.00    -0.392 OA
ATOM     24  H5  UNL     1       3.465   3.108   0.633  1.00  0.00     0.210 HD
ENDBRANCH  22  23
ENDBRANCH  12  13
ENDBRANCH   9  12
ENDBRANCH   1   8
BRANCH   1  25
HETATM   25  C3  UNL     1      -2.169   0.119   0.686  1.00  0.00     0.100 C 
BRANCH  25  26
HETATM   26  C4  UNL     1      -3.606   0.129   0.320  1.00  0.00     0.080 A 
HETATM   27  C5  UNL     1      -4.391   1.236   0.031  1.00  0.00     0.062 A 
HETATM   28  C6  UNL     1      -5.671   0.799  -0.260  1.00  0.00     0.039 A 
HETATM   29  N2  UNL     1      -5.603  -0.537  -0.135  1.00  0.00    -0.265 N 
HETATM   30  O2  UNL     1      -4.399  -0.893   0.200  1.00  0.00    -0.242 OA
ATOM     31  H2  UNL     1      -6.383  -1.178  -0.282  1.00  0.00     0.194 HD
BRANCH  28  32
HETATM   32  C7  UNL     1      -6.823   1.622  -0.619  1.00  0.00     0.037 C 
HETATM   33  C8  UNL     1      -7.582   1.161  -1.863  1.00  0.00     0.011 C 
HETATM   34  C9  UNL     1      -8.864   1.577  -1.131  1.00  0.00     0.001 C 
HETATM   35  C10 UNL     1      -8.100   1.307   0.171  1.00  0.00     0.011 C 
ENDBRANCH  28  32
ENDBRANCH  25  26
ENDBRANCH   1  25
TORSDOF 7
