REMARK  9 active torsions:
REMARK  status: ('A' for Active; 'I' for Inactive)
REMARK    1  A    between atoms: O1_2  and  C2_3 
REMARK    2  A    between atoms: C2_3  and  C3_5 
REMARK    3  A    between atoms: C3_5  and  O3_6 
REMARK    4  A    between atoms: N1_10  and  C6_11 
REMARK    5  A    between atoms: C7_13  and  C8_14 
REMARK    6  A    between atoms: C8_14  and  N2_15 
REMARK       I    between atoms: N2_15  and  C9_17 
REMARK    7  A    between atoms: C9_17  and  C10_19 
REMARK    8  A    between atoms: C10_19  and  N3_20 
REMARK    9  A    between atoms: N3_20  and  C11_22 
ROOT
HETATM    1  C6  UNL     1      -2.043  -0.445   0.618  1.00  0.00     0.094 A 
HETATM    2  S1  UNL     1      -0.771  -0.498  -0.553  1.00  0.00    -0.074 SA
HETATM    3  C7  UNL     1       0.428  -1.286   0.360  1.00  0.00     0.004 A 
HETATM    4  C15 UNL     1      -0.196  -1.487   1.558  1.00  0.00     0.043 A 
HETATM    5  C16 UNL     1      -1.463  -1.057   1.691  1.00  0.00     0.068 A 
HETATM    6 CL1  UNL     1      -2.370  -1.287   3.228  1.00  0.00    -0.081 Cl
ENDROOT
BRANCH   1   7
HETATM    7  N1  UNL     1      -3.325   0.116   0.391  1.00  0.00    -0.374 N 
HETATM    8  C5  UNL     1      -3.605   0.621  -0.970  1.00  0.00     0.127 C 
HETATM    9  C4  UNL     1      -5.085   0.579  -1.150  1.00  0.00     0.068 C 
HETATM   10  C3  UNL     1      -5.784  -0.574  -0.513  1.00  0.00     0.148 C 
HETATM   11  C18 UNL     1      -5.425  -0.808   0.934  1.00  0.00     0.068 C 
HETATM   12  C17 UNL     1      -4.392   0.270   1.301  1.00  0.00     0.127 C 
BRANCH  10  13
HETATM   13  C2  UNL     1      -7.252  -0.240  -0.531  1.00  0.00     0.293 C 
HETATM   14  O2  UNL     1      -8.035  -0.969  -1.180  1.00  0.00    -0.262 OA
BRANCH  13  15
HETATM   15  O1  UNL     1      -7.706   0.871   0.174  1.00  0.00    -0.324 OA
HETATM   16  C1  UNL     1      -9.098   1.158   0.134  1.00  0.00     0.213 C 
ENDBRANCH  13  15
ENDBRANCH  10  13
BRANCH  10  17
HETATM   17  O3  UNL     1      -5.568  -1.711  -1.292  1.00  0.00    -0.379 OA
ATOM     18  H3  UNL     1      -4.642  -1.922  -1.281  1.00  0.00     0.211 HD
ENDBRANCH  10  17
ENDBRANCH   1   7
BRANCH   3  19
HETATM   19  C8  UNL     1       1.825  -1.684   0.006  1.00  0.00     0.169 C 
BRANCH  19  20
HETATM   20  N2  UNL     1       2.711  -0.676   0.548  1.00  0.00    -0.352 N 
HETATM   21  C9  UNL     1       4.149  -0.775   0.393  1.00  0.00     0.256 C 
HETATM   22  O4  UNL     1       4.556  -1.773  -0.230  1.00  0.00    -0.267 OA
ATOM     23  H2  UNL     1       2.316   0.120   1.049  1.00  0.00     0.163 HD
BRANCH  21  24
HETATM   24  C10 UNL     1       4.925   0.310   0.993  1.00  0.00     0.158 C 
BRANCH  24  25
HETATM   25  N3  UNL     1       6.294   0.285   0.838  1.00  0.00    -0.386 N 
ATOM     26  H3  UNL     1       6.832  -0.003   1.655  1.00  0.00     0.159 HD
BRANCH  25  27
HETATM   27  C11 UNL     1       7.024   0.601  -0.286  1.00  0.00     0.018 C 
HETATM   28  C12 UNL     1       6.830   2.058  -0.748  1.00  0.00     0.037 C 
HETATM   29  C13 UNL     1       8.527   0.605   0.172  1.00  0.00     0.037 C 
HETATM   30  C14 UNL     1       6.885  -0.253  -1.482  1.00  0.00     0.037 C 
ENDBRANCH  25  27
ENDBRANCH  24  25
ENDBRANCH  21  24
ENDBRANCH  19  20
ENDBRANCH   3  19
TORSDOF 9
