REMARK  6 active torsions:
REMARK  status: ('A' for Active; 'I' for Inactive)
REMARK       I    between atoms: C1_2  and  N1_3 
REMARK    1  A    between atoms: C1_2  and  C9_17 
REMARK    2  A    between atoms: N1_3  and  C2_5 
REMARK    3  A    between atoms: C10_18  and  C11_19 
REMARK    4  A    between atoms: C16_30  and  O2_31 
REMARK    5  A    between atoms: O2_31  and  C17_32 
REMARK    6  A    between atoms: C17_32  and  C18_33 
ROOT
HETATM    1  C9  UNL     1       1.122  -0.399  -0.413  1.00  0.00     0.070 A 
HETATM    2  C10 UNL     1       1.296   0.573  -1.351  1.00  0.00     0.010 A 
HETATM    3  C15 UNL     1       2.613   0.900  -1.712  1.00  0.00     0.103 A 
HETATM    4  N6  UNL     1       3.651   0.278  -1.155  1.00  0.00    -0.345 N 
ATOM      5  H6  UNL     1       4.589   0.552  -1.449  1.00  0.00     0.167 HD
HETATM    6  C16 UNL     1       3.536  -0.686  -0.231  1.00  0.00     0.165 A 
HETATM    7  C21 UNL     1       2.258  -1.022   0.138  1.00  0.00     0.101 A 
HETATM    8 CL1  UNL     1       2.066  -2.282   1.348  1.00  0.00    -0.079 Cl
ENDROOT
BRANCH   1   9
HETATM    9  C1  UNL     1      -0.139  -0.777   0.140  1.00  0.00     0.254 C 
HETATM   10  O1  UNL     1      -0.218  -2.008   0.540  1.00  0.00    -0.268 OA
HETATM   11  N1  UNL     1      -1.307   0.002   0.318  1.00  0.00    -0.350 N 
ATOM     12  H1  UNL     1      -1.313   0.982   0.036  1.00  0.00     0.163 HD
BRANCH  11  13
HETATM   13  C2  UNL     1      -2.502  -0.594   0.903  1.00  0.00     0.117 C 
HETATM   14  C3  UNL     1      -3.649  -0.597  -0.098  1.00  0.00     0.029 C 
HETATM   15  C4  UNL     1      -4.926  -0.935   0.637  1.00  0.00     0.021 C 
HETATM   16  C5  UNL     1      -5.904   0.200   0.649  1.00  0.00     0.114 C 
HETATM   17  N2  UNL     1      -6.185   0.727   1.946  1.00  0.00    -0.419 N 
HETATM   18  C6  UNL     1      -5.058   1.206   2.664  1.00  0.00     0.149 C 
ATOM     19  H2  UNL     1      -7.130   0.757   2.330  1.00  0.00     0.153 HD
HETATM   20  C7  UNL     1      -3.802   1.238   1.854  1.00  0.00     0.236 A 
HETATM   21  N3  UNL     1      -2.535   1.409   2.486  1.00  0.00    -0.059 N 
HETATM   22  C8  UNL     1      -2.956   0.093   2.142  1.00  0.00     0.241 A 
ATOM     23  H32 UNL     1      -1.707   1.968   2.281  1.00  0.00     0.278 HD
ATOM     24  H31 UNL     1      -2.224   1.854   3.350  1.00  0.00     0.278 HD
ENDBRANCH  11  13
ENDBRANCH   1   9
BRANCH   2  25
HETATM   25  C11 UNL     1       0.204   1.242  -2.084  1.00  0.00     0.007 A 
HETATM   26  C12 UNL     1      -0.697   0.465  -2.774  1.00  0.00     0.102 A 
HETATM   27  N4  UNL     1      -1.680   1.032  -3.456  1.00  0.00    -0.361 N 
HETATM   28  C13 UNL     1      -1.819   2.351  -3.490  1.00  0.00     0.180 A 
ATOM     29  H4  UNL     1      -2.342   0.445  -3.964  1.00  0.00     0.166 HD
HETATM   30  N5  UNL     1      -0.941   3.134  -2.816  1.00  0.00    -0.361 N 
HETATM   31  C14 UNL     1       0.068   2.603  -2.114  1.00  0.00     0.102 A 
ATOM     32  H5  UNL     1      -1.051   4.148  -2.844  1.00  0.00     0.166 HD
ENDBRANCH   2  25
BRANCH   6  33
HETATM   33  O2  UNL     1       4.656  -1.307   0.319  1.00  0.00    -0.334 OA
BRANCH  33  34
HETATM   34  C17 UNL     1       5.933  -0.894  -0.125  1.00  0.00     0.182 C 
BRANCH  34  35
HETATM   35  C18 UNL     1       7.042  -1.651   0.555  1.00  0.00     0.010 A 
HETATM   36  C19 UNL     1       8.431  -1.225   0.097  1.00  0.00     0.007 A 
HETATM   37  C20 UNL     1       7.916  -2.538  -0.313  1.00  0.00     0.007 A 
ENDBRANCH  34  35
ENDBRANCH  33  34
ENDBRANCH   6  33
TORSDOF 6
