REMARK  3 active torsions:
REMARK  status: ('A' for Active; 'I' for Inactive)
REMARK    1  A    between atoms: C2_2  and  C4_4 
REMARK    2  A    between atoms: C7_12  and  N4_13 
REMARK    3  A    between atoms: N5_15  and  C8_17 
ROOT
HETATM    1  C4  UNL     1      -1.050  -0.168   0.443  1.00  0.00     0.060 A 
HETATM    2  N1  UNL     1      -1.878  -0.708   1.372  1.00  0.00    -0.301 N 
ATOM      3  H1  UNL     1      -2.897  -0.661   1.354  1.00  0.00     0.186 HD
HETATM    4  N2  UNL     1      -1.139  -1.317   2.324  1.00  0.00    -0.289 N 
ATOM      5  H2  UNL     1      -1.524  -1.801   3.135  1.00  0.00     0.188 HD
HETATM    6  C5  UNL     1       0.159  -1.200   2.060  1.00  0.00     0.158 A 
HETATM    7  C6  UNL     1       1.253  -1.729   2.863  1.00  0.00     0.121 C 
HETATM    8  N3  UNL     1       2.139  -2.136   3.519  1.00  0.00    -0.190 NA
HETATM    9  C7  UNL     1       0.229  -0.475   0.874  1.00  0.00     0.111 A 
ENDROOT
BRANCH   9  10
HETATM   10  N4  UNL     1       1.420  -0.091   0.251  1.00  0.00    -0.294 N 
HETATM   11  N5  UNL     1       2.579  -0.245   0.734  1.00  0.00    -0.278 N 
ATOM     12  H5  UNL     1       2.683  -0.678   1.652  1.00  0.00     0.189 HD
ATOM     13  H4  UNL     1       1.349   0.349  -0.667  1.00  0.00     0.187 HD
BRANCH  11  14
HETATM   14  C8  UNL     1       3.750   0.175   0.022  1.00  0.00     0.199 C 
HETATM   15  N6  UNL     1       3.699   1.344  -0.774  1.00  0.00    -0.068 NA
HETATM   16  S1  UNL     1       5.143  -0.654   0.107  1.00  0.00    -0.043 SA
ENDBRANCH  11  14
ENDBRANCH   9  10
BRANCH   1  17
HETATM   17  C2  UNL     1      -1.437   0.540  -0.800  1.00  0.00     0.031 C 
HETATM   18  C1  UNL     1      -2.828   1.180  -0.714  1.00  0.00     0.016 C 
HETATM   19  C3  UNL     1      -1.553  -0.537  -1.914  1.00  0.00     0.016 C 
ENDBRANCH   1  17
TORSDOF 3
