REMARK  3 active torsions:
REMARK  status: ('A' for Active; 'I' for Inactive)
REMARK    1  A    between atoms: C3_3  and  N1_4 
REMARK    2  A    between atoms: N1_4  and  C4_6 
REMARK    3  A    between atoms: C4_6  and  C5_7 
ROOT
HETATM    1  C5  UNL     1       3.826   0.118   0.146  1.00  0.00     0.143 C 
HETATM    2  C6  UNL     1       3.130   1.355   0.438  1.00  0.00     0.060 C 
HETATM    3  N2  UNL     1       2.593   2.358   0.691  1.00  0.00    -0.197 NA
ENDROOT
BRANCH   1   4
HETATM    4  C4  UNL     1       3.058  -1.138   0.340  1.00  0.00     0.135 C 
BRANCH   4   5
HETATM    5  N1  UNL     1       1.907  -1.349  -0.455  1.00  0.00    -0.379 N 
ATOM      6  H1  UNL     1       1.983  -2.099  -1.142  1.00  0.00     0.160 HD
BRANCH   5   7
HETATM    7  C3  UNL     1       0.660  -0.668  -0.436  1.00  0.00     0.081 C 
HETATM    8  C2  UNL     1      -0.381  -1.042   0.532  1.00  0.00     0.076 C 
HETATM    9  C1  UNL     1       0.193  -1.335   1.913  1.00  0.00     0.020 C 
HETATM   10  C10 UNL     1      -1.565  -0.161   0.576  1.00  0.00     0.030 C 
HETATM   11  N4  UNL     1      -1.515   1.056  -0.168  1.00  0.00    -0.388 N 
HETATM   12  C11 UNL     1      -1.824   0.261   2.032  1.00  0.00     0.038 C 
HETATM   13  C12 UNL     1      -2.823  -0.976   0.218  1.00  0.00     0.038 C 
HETATM   14  C7  UNL     1      -0.774   0.984  -1.389  1.00  0.00     0.093 C 
ATOM     15  H4  UNL     1      -1.973   1.911   0.147  1.00  0.00     0.156 HD
HETATM   16  N3  UNL     1       0.442   0.253  -1.289  1.00  0.00    -0.354 N 
HETATM   17  C8  UNL     1      -0.448   2.441  -1.758  1.00  0.00     0.062 C 
HETATM   18  C9  UNL     1      -1.635   0.477  -2.554  1.00  0.00     0.062 C 
ATOM     19  H3  UNL     1       1.190   0.481  -1.944  1.00  0.00     0.163 HD
ENDBRANCH   5   7
ENDBRANCH   4   5
ENDBRANCH   1   4
TORSDOF 3
