REMARK  2 active torsions:
REMARK  status: ('A' for Active; 'I' for Inactive)
REMARK    1  A    between atoms: C2_7  and  N3_8 
REMARK    2  A    between atoms: N3_8  and  N4_10 
ROOT
HETATM    1  N3  UNL     1       1.107  -1.261   0.908  1.00  0.00    -0.279 N 
ATOM      2  H3  UNL     1       0.695  -2.166   0.682  1.00  0.00     0.189 HD
ENDROOT
BRANCH   1   3
HETATM    3  C2  UNL     1       2.377  -1.004   0.682  1.00  0.00     0.180 A 
HETATM    4  N2  UNL     1       3.301  -1.811   0.155  1.00  0.00    -0.277 N 
HETATM    5  N1  UNL     1       4.492  -1.377   0.014  1.00  0.00    -0.282 N 
ATOM      6  H2  UNL     1       3.058  -2.760  -0.130  1.00  0.00     0.189 HD
HETATM    7  C1  UNL     1       4.778  -0.128   0.398  1.00  0.00     0.160 A 
ATOM      8  H1  UNL     1       5.216  -1.974  -0.386  1.00  0.00     0.188 HD
HETATM    9  S1  UNL     1       6.229   0.657   0.320  1.00  0.00    -0.051 SA
HETATM   10  S2  UNL     1       3.269   0.421   0.978  1.00  0.00    -0.020 SA
ENDBRANCH   1   3
BRANCH   1  11
HETATM   11  N4  UNL     1       0.354  -0.233   1.472  1.00  0.00    -0.307 N 
HETATM   12  C3  UNL     1      -0.692   0.200   0.878  1.00  0.00     0.004 C 
HETATM   13  C4  UNL     1      -1.526   1.309   1.462  1.00  0.00     0.054 C 
HETATM   14  C8  UNL     1      -1.101  -0.393  -0.412  1.00  0.00     0.054 C 
HETATM   15  C5  UNL     1      -2.330   1.863   0.278  1.00  0.00     0.006 C 
HETATM   16  C6  UNL     1      -3.309   0.768  -0.107  1.00  0.00     0.001 C 
HETATM   17  C7  UNL     1      -2.581  -0.435  -0.616  1.00  0.00     0.006 C 
ATOM     18  H4  UNL     1       0.638   0.176   2.362  1.00  0.00     0.186 HD
ENDBRANCH   1  11
TORSDOF 2
