REMARK  13 active torsions:
REMARK  status: ('A' for Active; 'I' for Inactive)
REMARK    1  A    between atoms: C2_2  and  S1_3 
REMARK    2  A    between atoms: C2_2  and  C8_16 
REMARK    3  A    between atoms: S1_3  and  C3_4 
REMARK    4  A    between atoms: C5_6  and  O1_7 
REMARK    5  A    between atoms: C6_9  and  O2_10 
REMARK    6  A    between atoms: C7_12  and  O3_13 
REMARK    7  A    between atoms: C8_16  and  C9_18 
REMARK    8  A    between atoms: C9_18  and  O6_19 
REMARK    9  A    between atoms: C9_18  and  C10_21 
REMARK   10  A    between atoms: C12_24  and  O8_25 
REMARK   11  A    between atoms: O8_25  and  C13_26 
REMARK   12  A    between atoms: C18_31  and  C20_33 
REMARK   13  A    between atoms: C20_33  and  O9_34 
ROOT
HETATM    1  C9  UNL     1       0.368   1.554  -0.353  1.00  0.00     0.216 C 
ENDROOT
BRANCH   1   2
HETATM    2  C8  UNL     1       1.707   1.411  -0.919  1.00  0.00     0.172 C 
HETATM    3  O5  UNL     1       2.243   2.398  -1.416  1.00  0.00    -0.294 OA
BRANCH   2   4
HETATM    4  C2  UNL     1       2.436   0.130  -0.912  1.00  0.00     0.118 C 
HETATM    5  C1  UNL     1       1.777  -0.976  -1.663  1.00  0.00     0.029 C 
BRANCH   4   6
HETATM    6  S1  UNL     1       4.162   0.387  -1.485  1.00  0.00    -0.125 SA
BRANCH   6   7
HETATM    7  C3  UNL     1       5.110  -1.088  -1.043  1.00  0.00     0.189 C 
HETATM    8  C4  UNL     1       6.548  -0.945  -1.487  1.00  0.00     0.077 C 
HETATM    9  C5  UNL     1       7.148   0.202  -0.709  1.00  0.00     0.154 C 
HETATM   10  C6  UNL     1       6.455   0.443   0.596  1.00  0.00     0.202 C 
HETATM   11  C7  UNL     1       5.754  -0.742   1.156  1.00  0.00     0.289 C 
HETATM   12  O4  UNL     1       4.978  -1.442   0.270  1.00  0.00    -0.343 OA
BRANCH   9  13
HETATM   13  O1  UNL     1       7.014   1.374  -1.480  1.00  0.00    -0.393 OA
ATOM     14  H1  UNL     1       7.391   2.095  -0.991  1.00  0.00     0.210 HD
ENDBRANCH   9  13
BRANCH  10  15
HETATM   15  O2  UNL     1       7.448   0.832   1.520  1.00  0.00    -0.388 OA
ATOM     16  H2  UNL     1       7.008   0.985   2.348  1.00  0.00     0.210 HD
ENDBRANCH  10  15
BRANCH  11  17
HETATM   17  O3  UNL     1       6.629  -1.621   1.809  1.00  0.00    -0.368 OA
ATOM     18  H3  UNL     1       6.181  -2.378   2.167  1.00  0.00     0.212 HD
ENDBRANCH  11  17
ENDBRANCH   6   7
ENDBRANCH   4   6
ENDBRANCH   2   4
ENDBRANCH   1   2
BRANCH   1  19
HETATM   19  O6  UNL     1      -0.080   2.898  -0.417  1.00  0.00    -0.384 OA
ATOM     20  H6  UNL     1      -0.951   2.991  -0.049  1.00  0.00     0.211 HD
ENDBRANCH   1  19
BRANCH   1  21
HETATM   21  C10 UNL     1      -0.631   0.668  -1.001  1.00  0.00     0.076 C 
HETATM   22  C11 UNL     1      -1.389  -0.175  -0.277  1.00  0.00     0.182 C 
HETATM   23  O7  UNL     1      -2.351  -1.048  -0.759  1.00  0.00    -0.296 OA
HETATM   24  O10 UNL     1      -1.376  -0.355   1.095  1.00  0.00    -0.312 OA
HETATM   25  C12 UNL     1      -3.396  -1.072   0.225  1.00  0.00     0.305 C 
HETATM   26  C18 UNL     1      -2.737  -0.585   1.471  1.00  0.00     0.137 C 
HETATM   27  C19 UNL     1      -3.263   0.744   1.965  1.00  0.00     0.054 C 
BRANCH  25  28
HETATM   28  O8  UNL     1      -4.338  -0.160  -0.192  1.00  0.00    -0.352 OA
BRANCH  28  29
HETATM   29  C13 UNL     1      -5.591  -0.716  -0.407  1.00  0.00     0.124 C 
HETATM   30  C14 UNL     1      -6.591   0.113   0.373  1.00  0.00     0.032 C 
HETATM   31  C15 UNL     1      -6.428   1.471  -0.306  1.00  0.00     0.002 C 
HETATM   32  C16 UNL     1      -6.296   1.120  -1.759  1.00  0.00     0.002 C 
HETATM   33  C17 UNL     1      -6.024  -0.374  -1.839  1.00  0.00     0.032 C 
ENDBRANCH  28  29
ENDBRANCH  25  28
BRANCH  26  34
HETATM   34  C20 UNL     1      -2.703  -1.619   2.570  1.00  0.00     0.207 C 
BRANCH  34  35
HETATM   35  O9  UNL     1      -3.952  -1.954   3.047  1.00  0.00    -0.398 OA
ATOM     36  H9  UNL     1      -3.931  -2.605   3.739  1.00  0.00     0.209 HD
ENDBRANCH  34  35
ENDBRANCH  26  34
ENDBRANCH   1  21
TORSDOF 13
