REMARK  15 active torsions:
REMARK  status: ('A' for Active; 'I' for Inactive)
REMARK    1  A    between atoms: C3_3  and  C4_4 
REMARK    2  A    between atoms: C4_4  and  O1_5 
REMARK    3  A    between atoms: C5_7  and  O2_8 
REMARK    4  A    between atoms: C6_10  and  O3_11 
REMARK    5  A    between atoms: C7_13  and  O4_14 
REMARK    6  A    between atoms: C8_16  and  O5_17 
REMARK    7  A    between atoms: O5_17  and  C9_18 
REMARK    8  A    between atoms: C10_19  and  O6_20 
REMARK    9  A    between atoms: C13_23  and  C14_24 
REMARK   10  A    between atoms: C14_24  and  C15_25 
REMARK   11  A    between atoms: C15_25  and  C16_26 
REMARK   12  A    between atoms: C16_26  and  O7_27 
REMARK   13  A    between atoms: C17_29  and  O8_30 
REMARK   14  A    between atoms: C19_32  and  O9_33 
REMARK   15  A    between atoms: C21_35  and  O10_36 
ROOT
HETATM    1  C4  UNL     1       3.814  -0.062  -0.055  1.00  0.00     0.132 C 
HETATM    2  C5  UNL     1       3.725  -1.279  -0.915  1.00  0.00     0.190 C 
HETATM    3  C6  UNL     1       2.905  -2.373  -0.281  1.00  0.00     0.181 C 
HETATM    4  C7  UNL     1       1.828  -1.860   0.621  1.00  0.00     0.181 C 
HETATM    5  C8  UNL     1       1.326  -0.463   0.201  1.00  0.00     0.192 C 
HETATM    6  C21 UNL     1       2.433   0.521   0.145  1.00  0.00     0.193 C 
ENDROOT
BRANCH   5   7
HETATM    7  O5  UNL     1       0.203  -0.062   0.923  1.00  0.00    -0.335 OA
BRANCH   7   8
HETATM    8  C9  UNL     1      -1.120  -0.237   0.670  1.00  0.00     0.139 A 
HETATM    9  C10 UNL     1      -1.801  -1.248   1.316  1.00  0.00     0.105 A 
HETATM   10  C12 UNL     1      -3.123  -1.493   1.116  1.00  0.00     0.054 A 
HETATM   11  C13 UNL     1      -3.896  -0.731   0.235  1.00  0.00     0.003 A 
HETATM   12  C17 UNL     1      -3.243   0.282  -0.425  1.00  0.00     0.114 A 
HETATM   13  C19 UNL     1      -1.871   0.513  -0.196  1.00  0.00     0.138 A 
BRANCH   9  14
HETATM   14  O6  UNL     1      -1.117  -2.039   2.201  1.00  0.00    -0.353 OA
HETATM   15  C11 UNL     1      -1.779  -3.079   2.881  1.00  0.00     0.210 C 
ENDBRANCH   9  14
BRANCH  11  16
HETATM   16  C14 UNL     1      -5.254  -1.145   0.023  1.00  0.00     0.016 C 
BRANCH  16  17
HETATM   17  C15 UNL     1      -6.375  -0.620  -0.177  1.00  0.00     0.025 C 
BRANCH  17  18
HETATM   18  C16 UNL     1      -7.064   0.640  -0.315  1.00  0.00     0.131 C 
BRANCH  18  19
HETATM   19  O7  UNL     1      -6.444   1.823  -0.208  1.00  0.00    -0.373 OA
ATOM     20  H7  UNL     1      -6.898   2.653  -0.299  1.00  0.00     0.216 HD
ENDBRANCH  18  19
ENDBRANCH  17  18
ENDBRANCH  16  17
ENDBRANCH  11  16
BRANCH  12  21
HETATM   21  O8  UNL     1      -3.876   1.107  -1.342  1.00  0.00    -0.352 OA
HETATM   22  C18 UNL     1      -3.871   0.693  -2.711  1.00  0.00     0.210 C 
ENDBRANCH  12  21
BRANCH  13  23
HETATM   23  O9  UNL     1      -1.320   1.561  -0.908  1.00  0.00    -0.351 OA
HETATM   24  C20 UNL     1      -1.443   2.859  -0.297  1.00  0.00     0.210 C 
ENDBRANCH  13  23
ENDBRANCH   7   8
ENDBRANCH   5   7
BRANCH   4  25
HETATM   25  O4  UNL     1       2.262  -1.916   1.915  1.00  0.00    -0.390 OA
ATOM     26  H4  UNL     1       1.578  -1.590   2.488  1.00  0.00     0.210 HD
ENDBRANCH   4  25
BRANCH   6  27
HETATM   27  O10 UNL     1       2.531   1.375   1.219  1.00  0.00    -0.385 OA
HETATM   28  C22 UNL     1       2.482   2.711   0.939  1.00  0.00     0.202 C 
ENDBRANCH   6  27
BRANCH   3  29
HETATM   29  O3  UNL     1       2.426  -3.267  -1.265  1.00  0.00    -0.390 OA
ATOM     30  H3  UNL     1       1.909  -3.957  -0.865  1.00  0.00     0.210 HD
ENDBRANCH   3  29
BRANCH   1  31
HETATM   31  C3  UNL     1       4.612   0.947  -0.806  1.00  0.00     0.011 C 
HETATM   32  C2  UNL     1       5.905   1.062  -0.653  1.00  0.00    -0.032 C 
HETATM   33  C1  UNL     1       6.693   2.068  -1.403  1.00  0.00     0.036 C 
ENDBRANCH   1  31
BRANCH   1  34
HETATM   34  O1  UNL     1       4.497  -0.277   1.132  1.00  0.00    -0.380 OA
ATOM     35  H1  UNL     1       3.988  -0.920   1.611  1.00  0.00     0.211 HD
ENDBRANCH   1  34
BRANCH   2  36
HETATM   36  O2  UNL     1       3.118  -0.950  -2.126  1.00  0.00    -0.389 OA
ATOM     37  H2  UNL     1       3.061  -1.724  -2.673  1.00  0.00     0.210 HD
ENDBRANCH   2  36
TORSDOF 15
