REMARK  5 active torsions:
REMARK  status: ('A' for Active; 'I' for Inactive)
REMARK    1  A    between atoms: N1_1  and  C1_4 
REMARK    2  A    between atoms: C3_10  and  N4_11 
REMARK    3  A    between atoms: N5_17  and  C9_18 
REMARK    4  A    between atoms: C11_22  and  C12_23 
REMARK       I    between atoms: C12_23  and  N7_25 
REMARK    5  A    between atoms: N7_25  and  C13_27 
ROOT
HETATM    1  N4  UNL     1      -4.024  -0.184  -1.054  1.00  0.00    -0.365 N 
HETATM    2  C4  UNL     1      -3.570  -1.064  -2.113  1.00  0.00     0.125 C 
HETATM    3  C5  UNL     1      -2.720  -2.107  -1.400  1.00  0.00     0.033 C 
HETATM    4  C6  UNL     1      -2.125  -1.335  -0.281  1.00  0.00    -0.004 C 
HETATM    5  C7  UNL     1      -1.776  -2.206   0.919  1.00  0.00     0.033 C 
HETATM    6  C8  UNL     1      -0.889  -1.217   1.686  1.00  0.00     0.142 C 
HETATM    7  N5  UNL     1      -0.008  -0.787   0.628  1.00  0.00    -0.217 N 
HETATM    8  C17 UNL     1      -0.784  -0.723  -0.584  1.00  0.00     0.152 C 
HETATM    9  C18 UNL     1      -3.176  -0.353   0.106  1.00  0.00     0.135 C 
ENDROOT
BRANCH   7  10
HETATM   10  C9  UNL     1       1.368  -0.494   0.807  1.00  0.00     0.679 A 
HETATM   11  N6  UNL     1       2.155  -0.086  -0.212  1.00  0.00    -0.201 N 
HETATM   12  C10 UNL     1       3.458   0.203  -0.091  1.00  0.00     0.124 A 
ATOM     13  H6  UNL     1       1.730   0.008  -1.134  1.00  0.00     0.183 HD
HETATM   14  C11 UNL     1       4.060   0.085   1.133  1.00  0.00     0.063 A 
HETATM   15  C16 UNL     1       3.264  -0.333   2.185  1.00  0.00     0.124 A 
HETATM   16  N8  UNL     1       1.979  -0.604   2.004  1.00  0.00    -0.201 N 
ATOM     17  H8  UNL     1       1.428  -0.909   2.806  1.00  0.00     0.183 HD
BRANCH  14  18
HETATM   18  C12 UNL     1       5.478   0.380   1.352  1.00  0.00     0.254 C 
HETATM   19  O1  UNL     1       5.929   0.268   2.534  1.00  0.00    -0.268 OA
HETATM   20  N7  UNL     1       6.360   0.775   0.339  1.00  0.00    -0.352 N 
ATOM     21  H7  UNL     1       6.018   0.871  -0.617  1.00  0.00     0.163 HD
BRANCH  20  22
HETATM   22  C13 UNL     1       7.749   1.049   0.631  1.00  0.00     0.084 A 
HETATM   23  C14 UNL     1       8.714   0.520  -0.433  1.00  0.00     0.027 A 
HETATM   24  C15 UNL     1       8.510   2.018  -0.199  1.00  0.00     0.027 A 
ENDBRANCH  20  22
ENDBRANCH  14  18
ENDBRANCH   7  10
BRANCH   1  25
HETATM   25  C3  UNL     1      -5.125   0.712  -1.112  1.00  0.00     0.130 A 
HETATM   26  N3  UNL     1      -4.970   1.972  -1.553  1.00  0.00    -0.337 N 
HETATM   27  C2  UNL     1      -5.991   2.837  -1.616  1.00  0.00     0.183 A 
ATOM     28  H3  UNL     1      -4.044   2.280  -1.850  1.00  0.00     0.168 HD
HETATM   29  N2  UNL     1      -7.213   2.445  -1.230  1.00  0.00    -0.337 N 
HETATM   30  C1  UNL     1      -7.443   1.204  -0.779  1.00  0.00     0.125 A 
ATOM     31  H2  UNL     1      -7.987   3.107  -1.281  1.00  0.00     0.168 HD
HETATM   32  C19 UNL     1      -6.392   0.333  -0.721  1.00  0.00     0.121 A 
HETATM   33 CL1  UNL     1      -6.658  -1.295  -0.137  1.00  0.00    -0.076 Cl
BRANCH  30  34
HETATM   34  N1  UNL     1      -8.622   0.879  -0.423  1.00  0.00    -0.384 N 
ATOM     35  H12 UNL     1      -9.407   1.529  -0.466  1.00  0.00     0.157 HD
ATOM     36  H11 UNL     1      -8.797  -0.065  -0.080  1.00  0.00     0.157 HD
ENDBRANCH  30  34
ENDBRANCH   1  25
TORSDOF 5
