REMARK  9 active torsions:
REMARK  status: ('A' for Active; 'I' for Inactive)
REMARK    1  A    between atoms: C2_2  and  C3_3 
REMARK    2  A    between atoms: C13_13  and  O1_14 
REMARK    3  A    between atoms: C13_13  and  C14_16 
REMARK    4  A    between atoms: C14_16  and  O2_17 
REMARK    5  A    between atoms: O2_17  and  C15_18 
REMARK    6  A    between atoms: C15_18  and  C16_20 
REMARK    7  A    between atoms: C16_20  and  C17_21 
REMARK    8  A    between atoms: C17_21  and  O4_23 
REMARK    9  A    between atoms: C22_30  and  O7_31 
ROOT
HETATM    1  C3  UNL     1      -4.656   0.666  -0.444  1.00  0.00     0.007 C 
HETATM    2  C4  UNL     1      -3.921  -0.524   0.041  1.00  0.00     0.009 C 
HETATM    3  C5  UNL     1      -2.923  -1.104  -0.917  1.00  0.00     0.005 C 
HETATM    4  C6  UNL     1      -2.422  -2.426  -0.361  1.00  0.00    -0.018 C 
HETATM    5  C7  UNL     1      -3.498  -3.187   0.390  1.00  0.00     0.010 C 
HETATM    6  C8  UNL     1      -1.301  -2.197   0.598  1.00  0.00     0.008 C 
HETATM    7  C9  UNL     1       0.035  -1.912  -0.083  1.00  0.00     0.028 C 
HETATM    8  C10 UNL     1       1.105  -1.939   0.922  1.00  0.00    -0.021 C 
HETATM    9  C11 UNL     1       1.926  -1.014   1.323  1.00  0.00    -0.049 C 
HETATM   10  C12 UNL     1       2.932  -1.381   2.400  1.00  0.00     0.046 C 
HETATM   11  C13 UNL     1       2.029   0.403   0.856  1.00  0.00     0.124 C 
HETATM   12  C19 UNL     1       0.693   1.062   0.611  1.00  0.00     0.223 C 
HETATM   13  O5  UNL     1       0.786   2.423   1.072  1.00  0.00    -0.318 OA
HETATM   14  C20 UNL     1       0.016   3.401   0.471  1.00  0.00     0.261 C 
HETATM   15  O6  UNL     1       0.359   4.600   0.755  1.00  0.00    -0.265 OA
HETATM   16  C21 UNL     1      -1.121   3.158  -0.432  1.00  0.00     0.142 C 
HETATM   17  C22 UNL     1      -2.368   2.982   0.404  1.00  0.00     0.127 C 
HETATM   18  C23 UNL     1      -3.620   2.967  -0.409  1.00  0.00     0.033 C 
HETATM   19  C24 UNL     1      -3.813   1.680  -1.182  1.00  0.00     0.011 C 
ENDROOT
BRANCH  11  20
HETATM   20  O1  UNL     1       2.632   1.151   1.874  1.00  0.00    -0.381 OA
ATOM     21  H1  UNL     1       2.697   2.051   1.577  1.00  0.00     0.211 HD
ENDBRANCH  11  20
BRANCH  11  22
HETATM   22  C14 UNL     1       2.834   0.534  -0.389  1.00  0.00     0.223 C 
BRANCH  22  23
HETATM   23  O2  UNL     1       4.131   0.101  -0.410  1.00  0.00    -0.318 OA
BRANCH  23  24
HETATM   24  C15 UNL     1       5.251   0.477   0.233  1.00  0.00     0.261 C 
HETATM   25  O3  UNL     1       5.213   1.416   1.038  1.00  0.00    -0.265 OA
BRANCH  24  26
HETATM   26  C16 UNL     1       6.528  -0.272  -0.057  1.00  0.00     0.142 C 
BRANCH  26  27
HETATM   27  C17 UNL     1       6.325  -1.327  -1.093  1.00  0.00     0.123 C 
HETATM   28  C18 UNL     1       5.845  -0.717  -2.396  1.00  0.00     0.040 C 
BRANCH  27  29
HETATM   29  O4  UNL     1       7.554  -1.938  -1.342  1.00  0.00    -0.395 OA
ATOM     30  H4  UNL     1       7.425  -2.610  -2.001  1.00  0.00     0.210 HD
ENDBRANCH  27  29
ENDBRANCH  26  27
ENDBRANCH  24  26
ENDBRANCH  23  24
ENDBRANCH  22  23
ENDBRANCH  11  22
BRANCH  17  31
HETATM   31  O7  UNL     1      -2.474   3.933   1.412  1.00  0.00    -0.395 OA
ATOM     32  H7  UNL     1      -3.258   3.822   1.937  1.00  0.00     0.210 HD
ENDBRANCH  17  31
BRANCH   1  33
HETATM   33  C2  UNL     1      -5.913   0.350  -1.173  1.00  0.00    -0.032 C 
HETATM   34  C1  UNL     1      -6.256  -0.853  -1.612  1.00  0.00     0.007 C 
ENDBRANCH   1  33
TORSDOF 9
