REMARK  8 active torsions:
REMARK  status: ('A' for Active; 'I' for Inactive)
REMARK    1  A    between atoms: C4_6  and  C5_7 
REMARK    2  A    between atoms: C9_11  and  N2_12 
REMARK    3  A    between atoms: C10_15  and  S1_16 
REMARK    4  A    between atoms: S1_16  and  N3_19 
REMARK    5  A    between atoms: N3_19  and  C11_21 
REMARK    6  A    between atoms: C17_27  and  C18_28 
REMARK    7  A    between atoms: C18_28  and  O5_29 
REMARK    8  A    between atoms: N4_31  and  O6_33 
ROOT
HETATM    1  S1  UNL     1      -0.097   0.595   2.327  1.00  0.00     0.263 S 
HETATM    2  O3  UNL     1      -0.063   1.548   3.530  1.00  0.00    -0.200 OA
HETATM    3  O4  UNL     1       0.083  -0.814   2.815  1.00  0.00    -0.200 OA
ENDROOT
BRANCH   1   4
HETATM    4  C10 UNL     1       1.145   1.098   1.243  1.00  0.00     0.135 A 
HETATM    5  C2  UNL     1       1.373   2.460   1.002  1.00  0.00     0.031 A 
HETATM    6  C1  UNL     1       0.506   3.464   1.685  1.00  0.00     0.070 C 
HETATM    7  N1  UNL     1       2.340   2.839   0.163  1.00  0.00    -0.368 N 
HETATM    8  C3  UNL     1       3.126   1.968  -0.479  1.00  0.00     0.098 A 
ATOM      9  H1  UNL     1       2.486   3.836   0.005  1.00  0.00     0.165 HD
HETATM   10  C4  UNL     1       2.935   0.600  -0.270  1.00  0.00    -0.001 A 
HETATM   11  C9  UNL     1       1.929   0.154   0.608  1.00  0.00     0.136 A 
BRANCH  10  12
HETATM   12  C5  UNL     1       3.796  -0.299  -1.027  1.00  0.00    -0.020 C 
HETATM   13  C6  UNL     1       4.793   0.517  -1.873  1.00  0.00     0.019 C 
HETATM   14  C7  UNL     1       3.033  -1.084  -2.102  1.00  0.00     0.019 C 
HETATM   15  C8  UNL     1       4.661  -1.225  -0.207  1.00  0.00     0.019 C 
ENDBRANCH  10  12
BRANCH  11  16
HETATM   16  N2  UNL     1       1.853  -1.227   0.844  1.00  0.00    -0.113 N 
HETATM   17  O1  UNL     1       1.299  -2.114   0.198  1.00  0.00    -0.532 OA
HETATM   18  O2  UNL     1       2.494  -1.708   1.999  1.00  0.00    -0.532 OA
ENDBRANCH  11  16
ENDBRANCH   1   4
BRANCH   1  19
HETATM   19  N3  UNL     1      -1.674   0.707   1.722  1.00  0.00    -0.309 N 
ATOM     20  H3  UNL     1      -2.373   1.307   2.160  1.00  0.00     0.172 HD
BRANCH  19  21
HETATM   21  C11 UNL     1      -1.983  -0.085   0.560  1.00  0.00     0.108 C 
HETATM   22  C12 UNL     1      -2.089   0.950  -0.594  1.00  0.00     0.006 C 
HETATM   23  C13 UNL     1      -3.090   2.009  -0.280  1.00  0.00     0.012 C 
HETATM   24  C14 UNL     1      -2.363   0.323  -1.909  1.00  0.00     0.006 C 
HETATM   25  C15 UNL     1      -2.920  -1.062  -1.719  1.00  0.00     0.001 C 
HETATM   26  C16 UNL     1      -3.985  -0.974  -0.667  1.00  0.00     0.015 C 
HETATM   27  C17 UNL     1      -3.281  -0.838   0.671  1.00  0.00     0.086 C 
BRANCH  27  28
HETATM   28  C18 UNL     1      -3.141  -2.185   1.231  1.00  0.00     0.141 C 
HETATM   29  N4  UNL     1      -3.335  -3.238   0.486  1.00  0.00    -0.251 N 
ATOM     30  H4  UNL     1      -3.585  -3.100  -0.493  1.00  0.00     0.196 HD
BRANCH  28  31
HETATM   31  O5  UNL     1      -2.804  -2.435   2.548  1.00  0.00    -0.348 OA
ATOM     32  H5  UNL     1      -2.713  -3.308   2.911  1.00  0.00     0.219 HD
ENDBRANCH  28  31
BRANCH  29  33
HETATM   33  O6  UNL     1      -3.219  -4.521   0.955  1.00  0.00    -0.288 OA
ATOM     34  H6  UNL     1      -3.360  -5.288   0.412  1.00  0.00     0.244 HD
ENDBRANCH  29  33
ENDBRANCH  27  28
ENDBRANCH  19  21
ENDBRANCH   1  19
TORSDOF 8
