REMARK  9 active torsions:
REMARK  status: ('A' for Active; 'I' for Inactive)
REMARK    1  A    between atoms: C4_4  and  C5_5 
REMARK    2  A    between atoms: C5_5  and  C6_6 
REMARK    3  A    between atoms: C6_6  and  C7_7 
REMARK    4  A    between atoms: C12_13  and  O2_15 
REMARK    5  A    between atoms: C14_17  and  O3_18 
REMARK    6  A    between atoms: O3_18  and  C15_19 
REMARK    7  A    between atoms: C15_19  and  C16_21 
REMARK    8  A    between atoms: C18_24  and  O5_26 
REMARK    9  A    between atoms: C20_28  and  O6_29 
ROOT
HETATM    1  C7  UNL     1       1.910  -0.257  -0.191  1.00  0.00     0.004 C 
HETATM    2  C8  UNL     1       1.823   0.454   1.147  1.00  0.00     0.022 C 
HETATM    3  C9  UNL     1       2.662  -1.514  -0.010  1.00  0.00    -0.011 C 
HETATM    4  C10 UNL     1       2.478  -2.460  -0.954  1.00  0.00     0.050 C 
HETATM    5  C11 UNL     1       1.569  -2.191  -2.064  1.00  0.00     0.185 C 
HETATM    6  O1  UNL     1       1.762  -2.690  -3.200  1.00  0.00    -0.290 OA
HETATM    7  C12 UNL     1       0.374  -1.310  -1.889  1.00  0.00     0.145 C 
HETATM    8  C13 UNL     1       0.215  -0.443  -3.057  1.00  0.00     0.057 C 
HETATM    9  C14 UNL     1       0.493  -0.654  -0.542  1.00  0.00     0.185 C 
ENDROOT
BRANCH   9  10
HETATM   10  O3  UNL     1      -0.528   0.170  -0.171  1.00  0.00    -0.310 OA
BRANCH  10  11
HETATM   11  C15 UNL     1      -1.536   0.032   0.699  1.00  0.00     0.278 C 
HETATM   12  O4  UNL     1      -1.612  -1.025   1.313  1.00  0.00    -0.263 OA
BRANCH  11  13
HETATM   13  C16 UNL     1      -2.539   1.096   0.935  1.00  0.00     0.098 C 
HETATM   14  C17 UNL     1      -1.752   2.291   1.457  1.00  0.00     0.038 C 
HETATM   15  S1  UNL     1      -3.758   0.606   2.182  1.00  0.00    -0.109 SA
HETATM   16  C18 UNL     1      -4.771  -0.710   1.460  1.00  0.00     0.129 C 
HETATM   17  C19 UNL     1      -6.203  -0.522   1.920  1.00  0.00     0.061 C 
HETATM   18  C20 UNL     1      -4.656  -0.642  -0.043  1.00  0.00     0.163 C 
HETATM   19  C21 UNL     1      -4.568   0.773  -0.546  1.00  0.00     0.042 C 
HETATM   20  C22 UNL     1      -3.268   1.437  -0.329  1.00  0.00     0.012 C 
HETATM   21  C23 UNL     1      -3.523   2.950  -0.306  1.00  0.00     0.012 C 
BRANCH  16  22
HETATM   22  O5  UNL     1      -4.280  -1.922   1.920  1.00  0.00    -0.377 OA
ATOM     23  H5  UNL     1      -4.811  -2.612   1.541  1.00  0.00     0.211 HD
ENDBRANCH  16  22
BRANCH  18  24
HETATM   24  O6  UNL     1      -5.881  -1.151  -0.543  1.00  0.00    -0.392 OA
ATOM     25  H6  UNL     1      -5.809  -1.108  -1.489  1.00  0.00     0.210 HD
ENDBRANCH  18  24
ENDBRANCH  11  13
ENDBRANCH  10  11
ENDBRANCH   9  10
BRANCH   1  26
HETATM   26  C6  UNL     1       2.592   0.601  -1.138  1.00  0.00     0.019 C 
BRANCH  26  27
HETATM   27  C5  UNL     1       3.969   1.004  -0.738  1.00  0.00     0.028 C 
BRANCH  27  28
HETATM   28  C4  UNL     1       4.977  -0.017  -0.534  1.00  0.00    -0.025 C 
HETATM   29  C2  UNL     1       5.735  -0.033   0.551  1.00  0.00    -0.091 C 
HETATM   30  C1  UNL     1       5.658   0.949   1.654  1.00  0.00     0.042 C 
HETATM   31  C3  UNL     1       6.750  -1.134   0.674  1.00  0.00     0.042 C 
ENDBRANCH  27  28
ENDBRANCH  26  27
ENDBRANCH   1  26
BRANCH   7  32
HETATM   32  O2  UNL     1      -0.729  -2.197  -1.886  1.00  0.00    -0.379 OA
ATOM     33  H2  UNL     1      -1.488  -1.637  -1.775  1.00  0.00     0.211 HD
ENDBRANCH   7  32
TORSDOF 9
