REMARK  5 active torsions:
REMARK  status: ('A' for Active; 'I' for Inactive)
REMARK    1  A    between atoms: C7_9  and  C9_11 
REMARK    2  A    between atoms: C9_11  and  O3_12 
REMARK    3  A    between atoms: O3_12  and  C10_13 
REMARK    4  A    between atoms: C10_13  and  N1_15 
REMARK    5  A    between atoms: N1_15  and  N2_17 
ROOT
HETATM    1  C1  UNL     1      -4.327   0.725  -1.544  1.00  0.00     0.027 C 
HETATM    2  C2  UNL     1      -3.443   1.037  -0.637  1.00  0.00     0.030 C 
HETATM    3  C3  UNL     1      -3.013   2.325  -0.125  1.00  0.00     0.290 C 
HETATM    4  O1  UNL     1      -3.480   3.426  -0.519  1.00  0.00    -0.260 OA
HETATM    5  O2  UNL     1      -2.021   2.106   0.852  1.00  0.00    -0.310 OA
HETATM    6  C4  UNL     1      -2.087   0.805   1.337  1.00  0.00     0.156 C 
HETATM    7  C5  UNL     1      -0.671   0.347   1.694  1.00  0.00     0.035 C 
HETATM    8  C6  UNL     1       0.413   0.514   0.755  1.00  0.00     0.018 C 
HETATM    9  C7  UNL     1       0.839  -0.588  -0.193  1.00  0.00     0.024 C 
HETATM   10  C8  UNL     1       1.357  -1.767   0.549  1.00  0.00     0.022 C 
HETATM   11  C11 UNL     1      -0.328  -1.014  -1.138  1.00  0.00     0.174 C 
HETATM   12 CL1  UNL     1      -0.253  -2.789  -1.284  1.00  0.00    -0.087 Cl
HETATM   13 CL2  UNL     1       0.021  -0.407  -2.800  1.00  0.00    -0.087 Cl
HETATM   14  C12 UNL     1      -1.539  -0.521  -0.597  1.00  0.00    -0.123 C 
HETATM   15  C13 UNL     1      -2.639   0.027   0.104  1.00  0.00     0.070 C 
HETATM   16  C14 UNL     1      -3.679  -0.981   0.626  1.00  0.00     0.036 C 
ENDROOT
BRANCH   9  17
HETATM   17  C9  UNL     1       1.963  -0.021  -1.042  1.00  0.00     0.191 C 
BRANCH  17  18
HETATM   18  O3  UNL     1       3.052   0.376  -0.230  1.00  0.00    -0.325 OA
BRANCH  18  19
HETATM   19  C10 UNL     1       4.184   0.922  -0.817  1.00  0.00     0.228 C 
HETATM   20  S1  UNL     1       4.110   1.855  -2.153  1.00  0.00    -0.032 SA
BRANCH  19  21
HETATM   21  N1  UNL     1       5.450   0.656  -0.231  1.00  0.00    -0.277 N 
ATOM     22  H1  UNL     1       6.289   1.052  -0.655  1.00  0.00     0.189 HD
BRANCH  21  23
HETATM   23  N2  UNL     1       5.572  -0.138   0.916  1.00  0.00    -0.343 N 
ATOM     24  H22 UNL     1       4.723  -0.526   1.327  1.00  0.00     0.176 HD
ATOM     25  H21 UNL     1       6.481  -0.329   1.337  1.00  0.00     0.176 HD
ENDBRANCH  21  23
ENDBRANCH  19  21
ENDBRANCH  18  19
ENDBRANCH  17  18
ENDBRANCH   9  17
TORSDOF 5
