REMARK  5 active torsions:
REMARK  status: ('A' for Active; 'I' for Inactive)
REMARK    1  A    between atoms: C3_3  and  C4_4 
REMARK    2  A    between atoms: N1_9  and  N2_10 
REMARK    3  A    between atoms: N2_10  and  C7_12 
REMARK    4  A    between atoms: C7_12  and  N3_14 
REMARK    5  A    between atoms: N3_14  and  N4_16 
ROOT
HETATM    1  C4  UNL     1      -0.501  -0.732  -0.299  1.00  0.00     0.213 C 
HETATM    2  S1  UNL     1      -1.216  -2.321   0.306  1.00  0.00    -0.127 SA
HETATM    3  C5  UNL     1       0.394  -2.973   0.930  1.00  0.00     0.181 C 
HETATM    4  C6  UNL     1       0.959  -1.667   1.360  1.00  0.00     0.249 C 
HETATM    5  O1  UNL     1       1.614  -1.573   2.454  1.00  0.00    -0.271 OA
HETATM    6  N1  UNL     1       0.691  -0.611   0.457  1.00  0.00    -0.238 N 
ENDROOT
BRANCH   6   7
HETATM    7  N2  UNL     1       1.613   0.470   0.353  1.00  0.00    -0.269 N 
ATOM      8  H2  UNL     1       1.375   1.372   0.765  1.00  0.00     0.190 HD
BRANCH   7   9
HETATM    9  C7  UNL     1       2.863   0.315  -0.317  1.00  0.00     0.205 C 
HETATM   10  S2  UNL     1       3.228  -1.129  -0.985  1.00  0.00    -0.038 SA
BRANCH   9  11
HETATM   11  N3  UNL     1       3.778   1.385  -0.411  1.00  0.00    -0.282 N 
ATOM     12  H3  UNL     1       3.547   2.286   0.007  1.00  0.00     0.189 HD
BRANCH  11  13
HETATM   13  N4  UNL     1       4.994   1.220  -1.070  1.00  0.00    -0.343 N 
ATOM     14  H42 UNL     1       5.209   0.312  -1.482  1.00  0.00     0.176 HD
ATOM     15  H41 UNL     1       5.655   1.993  -1.138  1.00  0.00     0.176 HD
ENDBRANCH  11  13
ENDBRANCH   9  11
ENDBRANCH   7   9
ENDBRANCH   6   7
BRANCH   1  16
HETATM   16  C3  UNL     1      -1.472   0.363  -0.075  1.00  0.00     0.026 A 
HETATM   17  C2  UNL     1      -2.820   0.392  -0.296  1.00  0.00    -0.022 A 
HETATM   18  C1  UNL     1      -3.515  -0.848  -0.830  1.00  0.00     0.051 C 
HETATM   19  C9  UNL     1      -3.469   1.537  -0.019  1.00  0.00     0.069 A 
HETATM   20  C8  UNL     1      -2.722   2.575   0.462  1.00  0.00     0.097 A 
HETATM   21 CL2  UNL     1      -5.230   1.765  -0.245  1.00  0.00    -0.081 Cl
HETATM   22  S3  UNL     1      -1.149   1.921   0.510  1.00  0.00    -0.077 SA
HETATM   23 CL1  UNL     1      -3.239   4.209   0.922  1.00  0.00    -0.074 Cl
ENDBRANCH   1  16
TORSDOF 5
