REMARK  3 active torsions:
REMARK  status: ('A' for Active; 'I' for Inactive)
REMARK    1  A    between atoms: C2_2  and  C3_3 
REMARK    2  A    between atoms: C7_9  and  S1_10 
REMARK    3  A    between atoms: S1_10  and  C8_11 
REMARK       I    between atoms: N3_22  and  C14_23 
ROOT
HETATM    1  C3  UNL     1      -2.600  -0.917   0.467  1.00  0.00     0.087 C 
HETATM    2  C4  UNL     1      -1.199  -1.194   0.933  1.00  0.00     0.036 C 
HETATM    3  C5  UNL     1      -0.159  -0.452   0.098  1.00  0.00     0.042 C 
HETATM    4  C6  UNL     1       1.181  -0.867   0.582  1.00  0.00     0.068 C 
HETATM    5  N1  UNL     1       2.266  -0.071   0.222  1.00  0.00    -0.358 N 
ATOM      6  H1  UNL     1       3.170  -0.502   0.416  1.00  0.00     0.166 HD
HETATM    7  C7  UNL     1       2.354   1.062  -0.289  1.00  0.00     0.112 C 
HETATM    8  S2  UNL     1       0.824   1.916  -0.675  1.00  0.00    -0.098 SA
HETATM    9  C12 UNL     1      -0.446   1.016   0.260  1.00  0.00     0.081 C 
HETATM   10  C13 UNL     1      -1.819   1.328  -0.261  1.00  0.00     0.142 C 
HETATM   11  N3  UNL     1      -2.635   0.174  -0.488  1.00  0.00    -0.350 N 
HETATM   12  C14 UNL     1      -3.455   0.142  -1.650  1.00  0.00     0.184 C 
HETATM   13  N4  UNL     1      -3.954   1.240  -2.099  1.00  0.00    -0.374 N 
ATOM     14  H41 UNL     1      -4.542   1.217  -2.932  1.00  0.00     0.158 HD
ATOM     15  H42 UNL     1      -3.754   2.116  -1.617  1.00  0.00     0.158 HD
HETATM   16  N5  UNL     1      -3.732  -1.074  -2.319  1.00  0.00    -0.064 NA
ENDROOT
BRANCH   7  17
HETATM   17  S1  UNL     1       3.860   1.934  -0.682  1.00  0.00    -0.061 SA
BRANCH  17  18
HETATM   18  C8  UNL     1       5.317   1.014  -0.267  1.00  0.00     0.066 A 
HETATM   19  C9  UNL     1       5.486  -0.217   0.289  1.00  0.00     0.112 A 
HETATM   20  N2  UNL     1       6.818  -0.446   0.393  1.00  0.00    -0.339 N 
HETATM   21  C10 UNL     1       7.502   0.592  -0.076  1.00  0.00     0.228 A 
ATOM     22  H2  UNL     1       7.235  -1.294   0.776  1.00  0.00     0.167 HD
HETATM   23  F1  UNL     1       8.859   0.665  -0.109  1.00  0.00    -0.183 F 
HETATM   24  C11 UNL     1       6.590   1.511  -0.491  1.00  0.00     0.190 A 
HETATM   25  F2  UNL     1       6.931   2.719  -1.036  1.00  0.00    -0.200 F 
ENDBRANCH  17  18
ENDBRANCH   7  17
BRANCH   1  26
HETATM   26  C2  UNL     1      -3.438  -0.584   1.696  1.00  0.00     0.021 C 
HETATM   27  C1  UNL     1      -4.862  -0.287   1.361  1.00  0.00     0.007 C 
ENDBRANCH   1  26
TORSDOF 3
