REMARK  2 active torsions:
REMARK  status: ('A' for Active; 'I' for Inactive)
REMARK    1  A    between atoms: O1_2  and  C2_3 
REMARK    2  A    between atoms: C5_6  and  C6_7 
ROOT
HETATM    1  C6  UNL     1       1.147  -1.220  -0.888  1.00  0.00     0.111 C 
HETATM    2  C7  UNL     1       0.611  -0.330  -1.961  1.00  0.00     0.031 C 
HETATM    3  C8  UNL     1      -0.699   0.334  -1.622  1.00  0.00     0.030 C 
HETATM    4  C9  UNL     1      -0.796   1.754  -2.142  1.00  0.00     0.232 C 
HETATM    5  N1  UNL     1      -2.223   2.103  -2.009  1.00  0.00    -0.074 N 
ATOM      6  H11 UNL     1      -2.814   1.463  -2.540  1.00  0.00     0.277 HD
ATOM      7  H12 UNL     1      -2.443   2.968  -2.503  1.00  0.00     0.277 HD
HETATM    8  C10 UNL     1      -2.623   2.168  -0.637  1.00  0.00     0.259 C 
HETATM    9  C11 UNL     1      -3.640   1.125  -0.243  1.00  0.00     0.259 C 
HETATM   10  N2  UNL     1      -3.384   0.721   1.123  1.00  0.00    -0.072 N 
ATOM     11  H21 UNL     1      -3.461   1.520   1.752  1.00  0.00     0.277 HD
ATOM     12  H22 UNL     1      -2.397   0.495   1.249  1.00  0.00     0.277 HD
HETATM   13  C12 UNL     1      -4.207  -0.357   1.581  1.00  0.00     0.258 C 
HETATM   14  C13 UNL     1      -3.467  -1.666   1.759  1.00  0.00     0.195 C 
HETATM   15  O2  UNL     1      -2.285  -1.580   1.049  1.00  0.00    -0.388 OA
HETATM   16  C14 UNL     1      -2.139  -2.522   0.057  1.00  0.00     0.186 C 
HETATM   17  C15 UNL     1      -0.645  -2.707  -0.183  1.00  0.00     0.140 C 
HETATM   18  N3  UNL     1       0.129  -1.549   0.107  1.00  0.00    -0.411 N 
ATOM     19  H3  UNL     1      -0.016  -0.990   0.948  1.00  0.00     0.154 HD
ENDROOT
BRANCH   1  20
HETATM   20  C5  UNL     1       2.334  -0.603  -0.261  1.00  0.00    -0.012 A 
HETATM   21  C4  UNL     1       2.662   0.722  -0.359  1.00  0.00     0.014 A 
HETATM   22  C3  UNL     1       3.772   1.307   0.257  1.00  0.00     0.039 A 
HETATM   23  C2  UNL     1       4.568   0.461   1.007  1.00  0.00     0.091 A 
HETATM   24  C17 UNL     1       4.247  -0.873   1.113  1.00  0.00     0.089 A 
HETATM   25  C16 UNL     1       3.162  -1.443   0.510  1.00  0.00     0.067 A 
HETATM   26 CL2  UNL     1       5.275  -1.947   2.070  1.00  0.00    -0.080 Cl
HETATM   27 CL1  UNL     1       2.757  -3.143   0.644  1.00  0.00    -0.082 Cl
BRANCH  23  28
HETATM   28  O1  UNL     1       5.684   0.927   1.657  1.00  0.00    -0.354 OA
HETATM   29  C1  UNL     1       6.175   2.226   1.676  1.00  0.00     0.210 C 
ENDBRANCH  23  28
ENDBRANCH   1  20
TORSDOF 2
