REMARK  2 active torsions:
REMARK  status: ('A' for Active; 'I' for Inactive)
REMARK    1  A    between atoms: C3_6  and  C4_7 
REMARK    2  A    between atoms: N2_13  and  C9_14 
ROOT
HETATM    1  C4  UNL     1       0.341  -0.646  -0.373  1.00  0.00     0.116 C 
HETATM    2  C5  UNL     1       0.946  -2.019  -0.574  1.00  0.00     0.029 C 
HETATM    3  C6  UNL     1      -0.095  -2.962  -1.142  1.00  0.00     0.024 C 
HETATM    4  C7  UNL     1      -1.263  -3.124  -0.234  1.00  0.00     0.100 C 
HETATM    5 CL1  UNL     1      -0.917  -4.355   1.001  1.00  0.00    -0.123 Cl
HETATM    6  C8  UNL     1      -1.761  -1.861   0.372  1.00  0.00     0.144 C 
HETATM    7  N2  UNL     1      -1.065  -0.668  -0.076  1.00  0.00    -0.369 N 
ENDROOT
BRANCH   7   8
HETATM    8  C9  UNL     1      -1.838   0.495  -0.216  1.00  0.00     0.084 A 
HETATM    9  C10 UNL     1      -2.103   1.314   0.838  1.00  0.00     0.090 A 
HETATM   10  N3  UNL     1      -1.734   1.094   2.182  1.00  0.00    -0.099 NA
HETATM   11  C11 UNL     1      -2.846   2.477   0.603  1.00  0.00     0.120 A 
HETATM   12  N4  UNL     1      -3.307   2.821  -0.598  1.00  0.00    -0.330 N 
HETATM   13  C12 UNL     1      -3.037   2.000  -1.623  1.00  0.00     0.269 A 
ATOM     14  H4  UNL     1      -3.845   3.677  -0.733  1.00  0.00     0.168 HD
HETATM   15  O1  UNL     1      -3.494   2.357  -2.759  1.00  0.00    -0.266 OA
HETATM   16  C13 UNL     1      -2.312   0.842  -1.460  1.00  0.00     0.130 A 
HETATM   17 CL2  UNL     1      -2.057  -0.106  -2.910  1.00  0.00    -0.076 Cl
ENDBRANCH   7   8
BRANCH   1  18
HETATM   18  C3  UNL     1       1.197   0.229   0.446  1.00  0.00     0.219 C 
HETATM   19  N1  UNL     1       2.453   0.434  -0.299  1.00  0.00    -0.056 N 
HETATM   20  C2  UNL     1       3.137   1.530   0.390  1.00  0.00     0.243 C 
ATOM     21  H12 UNL     1       2.317   0.597  -1.297  1.00  0.00     0.279 HD
ATOM     22  H11 UNL     1       3.018  -0.410  -0.392  1.00  0.00     0.279 HD
HETATM   23  C1  UNL     1       4.580   1.529  -0.024  1.00  0.00     0.051 C 
HETATM   24  S1  UNL     1       2.958   0.945   2.126  1.00  0.00    -0.135 SA
HETATM   25  C14 UNL     1       1.656  -0.327   1.776  1.00  0.00     0.111 C 
ENDBRANCH   1  18
TORSDOF 2
