REMARK  6 active torsions:
REMARK  status: ('A' for Active; 'I' for Inactive)
REMARK    1  A    between atoms: C2_2  and  N1_4 
REMARK    2  A    between atoms: C6_8  and  C7_9 
REMARK       I    between atoms: C7_9  and  N2_11 
REMARK    3  A    between atoms: N2_11  and  C8_13 
REMARK    4  A    between atoms: C8_13  and  N3_15 
REMARK    5  A    between atoms: N3_15  and  C9_17 
REMARK    6  A    between atoms: C9_17  and  N4_20 
ROOT
HETATM    1  C7  UNL     1      -0.032  -0.535  -0.622  1.00  0.00     0.277 C 
HETATM    2  O1  UNL     1      -0.737  -0.994  -1.528  1.00  0.00    -0.266 OA
HETATM    3  N2  UNL     1      -0.549   0.052   0.533  1.00  0.00    -0.298 N 
ATOM      4  H2  UNL     1       0.119   0.401   1.221  1.00  0.00     0.171 HD
ENDROOT
BRANCH   3   5
HETATM    5  C8  UNL     1      -1.901   0.200   0.823  1.00  0.00     0.176 C 
HETATM    6  S1  UNL     1      -2.229   0.945   2.291  1.00  0.00    -0.041 SA
BRANCH   5   7
HETATM    7  N3  UNL     1      -2.981  -0.204   0.024  1.00  0.00    -0.335 N 
ATOM      8  H3  UNL     1      -2.793  -0.657  -0.870  1.00  0.00     0.164 HD
BRANCH   7   9
HETATM    9  C9  UNL     1      -4.365   0.005   0.435  1.00  0.00     0.190 C 
HETATM   10  C10 UNL     1      -4.692   1.450   0.636  1.00  0.00     0.070 C 
HETATM   11  C11 UNL     1      -5.275  -0.587  -0.609  1.00  0.00     0.070 C 
BRANCH   9  12
HETATM   12  N4  UNL     1      -4.602  -0.702   1.668  1.00  0.00    -0.053 N 
ATOM     13  H43 UNL     1      -4.363  -1.691   1.600  1.00  0.00     0.277 HD
ATOM     14  H42 UNL     1      -3.937  -0.443   2.397  1.00  0.00     0.277 HD
ATOM     15  H41 UNL     1      -5.570  -0.556   1.955  1.00  0.00     0.277 HD
ENDBRANCH   9  12
ENDBRANCH   7   9
ENDBRANCH   5   7
ENDBRANCH   3   5
BRANCH   1  16
HETATM   16  C6  UNL     1       1.423  -0.646  -0.838  1.00  0.00     0.139 A 
HETATM   17  C5  UNL     1       2.115  -1.183  -1.894  1.00  0.00     0.084 A 
HETATM   18  C4  UNL     1       3.444  -1.045  -1.620  1.00  0.00     0.137 A 
HETATM   19 CL1  UNL     1       1.330  -1.891  -3.292  1.00  0.00    -0.080 Cl
HETATM   20  N1  UNL     1       3.552  -0.441  -0.428  1.00  0.00    -0.297 N 
HETATM   21  N5  UNL     1       2.337  -0.211   0.023  1.00  0.00    -0.292 N 
ATOM     22  H5  UNL     1       2.126   0.240   0.913  1.00  0.00     0.187 HD
BRANCH  20  23
HETATM   23  C2  UNL     1       4.768  -0.090   0.267  1.00  0.00     0.099 C 
HETATM   24  C1  UNL     1       4.479   1.064   1.198  1.00  0.00     0.034 C 
HETATM   25  C3  UNL     1       5.771   0.333  -0.808  1.00  0.00     0.034 C 
ENDBRANCH  20  23
ENDBRANCH   1  16
TORSDOF 6
