REMARK  6 active torsions:
REMARK  status: ('A' for Active; 'I' for Inactive)
REMARK    1  A    between atoms: S1_2  and  C2_3 
REMARK    2  A    between atoms: C2_3  and  N2_8 
REMARK    3  A    between atoms: N1_4  and  O1_6 
REMARK    4  A    between atoms: N2_8  and  N3_10 
REMARK    5  A    between atoms: C3_12  and  C4_13 
REMARK    6  A    between atoms: C6_16  and  O3_17 
ROOT
HETATM    1  N3  UNL     1       0.098   0.167   0.863  1.00  0.00    -0.309 N 
ATOM      2  H3  UNL     1      -0.406  -0.576   1.348  1.00  0.00     0.186 HD
HETATM    3  C3  UNL     1      -0.514   0.800  -0.072  1.00  0.00     0.122 C 
ENDROOT
BRANCH   1   4
HETATM    4  N2  UNL     1       1.392   0.429   1.251  1.00  0.00    -0.279 N 
ATOM      5  H2  UNL     1       1.663   0.316   2.228  1.00  0.00     0.189 HD
BRANCH   4   6
HETATM    6  C2  UNL     1       2.348   0.855   0.299  1.00  0.00     0.178 C 
HETATM    7  N1  UNL     1       2.501   2.127   0.138  1.00  0.00    -0.246 N 
ATOM      8  H1  UNL     1       1.949   2.790   0.682  1.00  0.00     0.196 HD
BRANCH   6   9
HETATM    9  S1  UNL     1       3.283  -0.348  -0.622  1.00  0.00    -0.095 SA
HETATM   10  C1  UNL     1       2.793  -2.013  -0.124  1.00  0.00     0.099 C 
ENDBRANCH   6   9
BRANCH   7  11
HETATM   11  O1  UNL     1       3.415   2.568  -0.773  1.00  0.00    -0.288 OA
ATOM     12  H1  UNL     1       3.528   3.504  -0.891  1.00  0.00     0.244 HD
ENDBRANCH   7  11
ENDBRANCH   4   6
ENDBRANCH   1   4
BRANCH   3  13
HETATM   13  C4  UNL     1      -1.881   0.494  -0.454  1.00  0.00     0.025 A 
HETATM   14  C5  UNL     1      -2.667   1.076  -1.425  1.00  0.00     0.159 A 
HETATM   15  O2  UNL     1      -3.854   0.493  -1.442  1.00  0.00    -0.298 OA
HETATM   16  C6  UNL     1      -3.925  -0.450  -0.543  1.00  0.00     0.201 A 
HETATM   17  C7  UNL     1      -2.692  -0.485   0.110  1.00  0.00     0.082 A 
HETATM   18 BR1  UNL     1      -2.241  -1.677   1.516  1.00  0.00    -0.045 Br
BRANCH  16  19
HETATM   19  O3  UNL     1      -5.019  -1.272  -0.278  1.00  0.00    -0.340 OA
ATOM     20  H3  UNL     1      -5.071  -1.959   0.377  1.00  0.00     0.220 HD
ENDBRANCH  16  19
ENDBRANCH   3  13
TORSDOF 6
