REMARK  3 active torsions:
REMARK  status: ('A' for Active; 'I' for Inactive)
REMARK    1  A    between atoms: C2_2  and  C4_4 
REMARK    2  A    between atoms: C5_9  and  C6_10 
REMARK    3  A    between atoms: C7_14  and  N4_15 
REMARK       I    between atoms: N4_15  and  C8_17 
ROOT
HETATM    1  C6  UNL     1       1.146  -0.150   0.549  1.00  0.00     0.116 A 
HETATM    2  N3  UNL     1       1.969  -0.228   1.587  1.00  0.00    -0.255 N 
ATOM      3  H3  UNL     1       1.713  -0.124   2.569  1.00  0.00     0.195 HD
HETATM    4  O1  UNL     1       3.162  -0.462   1.124  1.00  0.00    -0.217 OA
HETATM    5  C7  UNL     1       3.184  -0.546  -0.175  1.00  0.00     0.197 A 
HETATM    6  C9  UNL     1       1.876  -0.347  -0.596  1.00  0.00     0.118 A 
HETATM    7 CL1  UNL     1       1.369  -0.363  -2.259  1.00  0.00    -0.077 Cl
ENDROOT
BRANCH   1   8
HETATM    8  C5  UNL     1      -0.288   0.100   0.597  1.00  0.00     0.121 A 
HETATM    9  N2  UNL     1      -1.085   0.302   1.642  1.00  0.00    -0.291 N 
HETATM   10  N1  UNL     1      -2.318   0.504   1.476  1.00  0.00    -0.297 N 
ATOM     11  H2  UNL     1      -0.696   0.293   2.585  1.00  0.00     0.187 HD
HETATM   12  C4  UNL     1      -2.830   0.516   0.251  1.00  0.00     0.071 A 
ATOM     13  H1  UNL     1      -2.923   0.658   2.283  1.00  0.00     0.187 HD
HETATM   14  S1  UNL     1      -1.437   0.218  -0.691  1.00  0.00    -0.054 SA
BRANCH  12  15
HETATM   15  C2  UNL     1      -4.249   0.739  -0.100  1.00  0.00     0.036 C 
HETATM   16  C1  UNL     1      -4.401   1.945  -0.986  1.00  0.00     0.016 C 
HETATM   17  C3  UNL     1      -4.745  -0.529  -0.783  1.00  0.00     0.016 C 
ENDBRANCH  12  15
ENDBRANCH   1   8
BRANCH   5  18
HETATM   18  N4  UNL     1       4.216  -0.768  -0.886  1.00  0.00    -0.308 N 
HETATM   19  C8  UNL     1       5.483  -0.949  -0.283  1.00  0.00     0.188 C 
HETATM   20  N5  UNL     1       6.526  -1.277  -0.983  1.00  0.00    -0.373 N 
HETATM   21  N6  UNL     1       5.657  -0.776   1.123  1.00  0.00    -0.064 NA
ATOM     22  H52 UNL     1       6.402  -1.401  -1.988  1.00  0.00     0.158 HD
ATOM     23  H51 UNL     1       7.439  -1.407  -0.548  1.00  0.00     0.158 HD
ATOM     24  H4  UNL     1       4.129  -0.816  -1.901  1.00  0.00     0.170 HD
ENDBRANCH   5  18
TORSDOF 3
