REMARK  5 active torsions:
REMARK  status: ('A' for Active; 'I' for Inactive)
REMARK    1  A    between atoms: N1_1  and  C1_4 
REMARK    2  A    between atoms: C1_4  and  S1_6 
REMARK    3  A    between atoms: S1_6  and  C2_7 
REMARK    4  A    between atoms: C2_7  and  N3_8 
REMARK    5  A    between atoms: N3_8  and  C3_10 
ROOT
HETATM    1  C3  UNL     1      -0.167   1.132   0.384  1.00  0.00     0.116 A 
HETATM    2  N4  UNL     1      -0.532   2.358   0.924  1.00  0.00    -0.318 N 
ATOM      3  H4  UNL     1       0.209   2.937   1.319  1.00  0.00     0.170 HD
HETATM    4  C4  UNL     1      -1.755   2.831   0.966  1.00  0.00     0.180 A 
HETATM    5 CL1  UNL     1      -2.128   4.401   1.673  1.00  0.00    -0.045 Cl
HETATM    6  N5  UNL     1      -2.745   2.083   0.451  1.00  0.00    -0.336 N 
ATOM      7  H5  UNL     1      -3.698   2.444   0.481  1.00  0.00     0.168 HD
HETATM    8  C5  UNL     1      -2.530   0.887  -0.098  1.00  0.00     0.023 A 
HETATM    9  C6  UNL     1      -1.233   0.406  -0.132  1.00  0.00     0.018 A 
HETATM   10  C7  UNL     1      -1.068  -0.921  -0.746  1.00  0.00     0.118 C 
HETATM   11  S2  UNL     1      -2.257  -2.017   0.140  1.00  0.00    -0.164 SA
HETATM   12  C8  UNL     1      -3.871  -1.200   0.015  1.00  0.00     0.080 C 
HETATM   13  C9  UNL     1      -3.660   0.120  -0.650  1.00  0.00     0.068 C 
ENDROOT
BRANCH   1  14
HETATM   14  N3  UNL     1       1.034   0.824   0.413  1.00  0.00    -0.346 N 
ATOM     15  H3  UNL     1       1.525   1.597   0.862  1.00  0.00     0.167 HD
BRANCH  14  16
HETATM   16  C2  UNL     1       1.979  -0.113   0.098  1.00  0.00     0.143 C 
BRANCH  16  17
HETATM   17  S1  UNL     1       3.698   0.424   0.439  1.00  0.00    -0.052 SA
BRANCH  17  18
HETATM   18  C1  UNL     1       4.802  -0.900  -0.021  1.00  0.00     0.153 C 
HETATM   19  N2  UNL     1       6.205  -0.713   0.154  1.00  0.00    -0.075 NA
BRANCH  18  20
HETATM   20  N1  UNL     1       4.352  -2.008  -0.504  1.00  0.00    -0.382 N 
ATOM     21  H12 UNL     1       4.983  -2.765  -0.767  1.00  0.00     0.157 HD
ATOM     22  H11 UNL     1       3.349  -2.142  -0.629  1.00  0.00     0.157 HD
ENDBRANCH  18  20
ENDBRANCH  17  18
ENDBRANCH  16  17
ENDBRANCH  14  16
ENDBRANCH   1  14
TORSDOF 5
