REMARK  9 active torsions:
REMARK  status: ('A' for Active; 'I' for Inactive)
REMARK    1  A    between atoms: C2_2  and  C3_3 
REMARK    2  A    between atoms: C3_3  and  O1_4 
REMARK    3  A    between atoms: C6_8  and  N1_9 
REMARK    4  A    between atoms: N1_9  and  C7_11 
REMARK    5  A    between atoms: C10_16  and  N3_17 
REMARK    6  A    between atoms: C15_23  and  O2_24 
REMARK    7  A    between atoms: O2_24  and  C16_25 
REMARK    8  A    between atoms: N5_35  and  C23_36 
REMARK    9  A    between atoms: C26_39  and  O3_40 
ROOT
HETATM    1  C7  UNL     1       1.079   0.404  -0.357  1.00  0.00     0.120 A 
HETATM    2  C8  UNL     1       1.115   1.773  -0.179  1.00  0.00     0.137 A 
HETATM    3  N2  UNL     1       0.003   2.438   0.091  1.00  0.00    -0.359 N 
ATOM      4  H2  UNL     1       0.033   3.449   0.223  1.00  0.00     0.165 HD
HETATM    5  C9  UNL     1      -1.168   1.780   0.192  1.00  0.00     0.089 A 
HETATM    6  C10 UNL     1      -2.328   2.485   0.468  1.00  0.00     0.101 A 
HETATM    7  C14 UNL     1      -3.532   1.826   0.569  1.00  0.00     0.178 A 
HETATM    8  F1  UNL     1      -4.667   2.518   0.836  1.00  0.00    -0.201 F 
HETATM    9  C15 UNL     1      -3.620   0.469   0.398  1.00  0.00     0.112 A 
HETATM   10  C21 UNL     1      -2.424  -0.207   0.123  1.00  0.00     0.072 A 
HETATM   11  C22 UNL     1      -1.191   0.404   0.013  1.00  0.00     0.068 A 
HETATM   12  N5  UNL     1      -0.099  -0.346  -0.263  1.00  0.00    -0.325 N 
ENDROOT
BRANCH   1  13
HETATM   13  N1  UNL     1       2.139  -0.187  -0.616  1.00  0.00    -0.368 N 
ATOM     14  H1  UNL     1       1.832  -1.157  -0.691  1.00  0.00     0.161 HD
BRANCH  13  15
HETATM   15  C6  UNL     1       3.447  -0.288  -0.853  1.00  0.00     0.112 C 
HETATM   16  C5  UNL     1       4.146   0.923  -1.495  1.00  0.00     0.030 C 
HETATM   17  C4  UNL     1       5.499   0.460  -1.994  1.00  0.00     0.040 C 
HETATM   18  C3  UNL     1       6.228  -0.426  -1.039  1.00  0.00     0.060 C 
HETATM   19  C27 UNL     1       5.673  -0.195   0.343  1.00  0.00     0.071 C 
HETATM   20  C26 UNL     1       4.212  -0.473   0.475  1.00  0.00     0.143 C 
BRANCH  18  21
HETATM   21  C2  UNL     1       7.733  -0.120  -0.963  1.00  0.00     0.033 C 
HETATM   22  C1  UNL     1       8.405  -0.346  -2.294  1.00  0.00     0.008 C 
ENDBRANCH  18  21
BRANCH  18  23
HETATM   23  O1  UNL     1       6.132  -1.768  -1.411  1.00  0.00    -0.390 OA
ATOM     24  H1  UNL     1       5.202  -1.957  -1.458  1.00  0.00     0.210 HD
ENDBRANCH  18  23
BRANCH  20  25
HETATM   25  O3  UNL     1       3.683   0.528   1.330  1.00  0.00    -0.393 OA
ATOM     26  H3  UNL     1       4.154   0.414   2.147  1.00  0.00     0.210 HD
ENDBRANCH  20  25
ENDBRANCH  13  15
ENDBRANCH   1  13
BRANCH  12  27
HETATM   27  C23 UNL     1      -0.093  -1.727  -0.430  1.00  0.00     0.092 A 
HETATM   28  C24 UNL     1      -0.775  -2.659  -1.313  1.00  0.00     0.028 A 
HETATM   29  C25 UNL     1      -0.596  -2.895   0.228  1.00  0.00     0.028 A 
ENDBRANCH  12  27
BRANCH   6  30
HETATM   30  N3  UNL     1      -2.205   3.889   0.643  1.00  0.00    -0.376 N 
HETATM   31  C11 UNL     1      -1.947   4.701   1.827  1.00  0.00     0.125 C 
HETATM   32  C12 UNL     1      -1.302   5.715   0.882  1.00  0.00     0.040 C 
HETATM   33  C13 UNL     1      -2.258   5.104  -0.125  1.00  0.00     0.125 C 
ENDBRANCH   6  30
BRANCH   9  34
HETATM   34  O2  UNL     1      -4.770  -0.230   0.480  1.00  0.00    -0.343 OA
BRANCH  34  35
HETATM   35  C16 UNL     1      -5.044  -1.578   0.339  1.00  0.00     0.132 C 
HETATM   36  C17 UNL     1      -5.846  -1.691  -0.983  1.00  0.00     0.060 C 
HETATM   37  C18 UNL     1      -6.492  -3.022  -1.153  1.00  0.00     0.235 C 
HETATM   38  N4  UNL     1      -7.236  -3.483  -0.019  1.00  0.00    -0.075 N 
HETATM   39  C19 UNL     1      -6.524  -3.385   1.231  1.00  0.00     0.235 C 
ATOM     40  H42 UNL     1      -8.132  -3.000   0.041  1.00  0.00     0.277 HD
ATOM     41  H41 UNL     1      -7.564  -4.437  -0.170  1.00  0.00     0.277 HD
HETATM   42  C20 UNL     1      -6.000  -1.981   1.449  1.00  0.00     0.060 C 
ENDBRANCH  34  35
ENDBRANCH   9  34
TORSDOF 9
