REMARK  13 active torsions:
REMARK  status: ('A' for Active; 'I' for Inactive)
REMARK    1  A    between atoms: N1_1  and  C1_4 
REMARK    2  A    between atoms: C4_7  and  N2_8 
REMARK    3  A    between atoms: N2_8  and  C5_10 
REMARK    4  A    between atoms: C5_10  and  C6_11 
REMARK    5  A    between atoms: C6_11  and  C7_12 
REMARK    6  A    between atoms: C7_12  and  C8_13 
REMARK    7  A    between atoms: C8_13  and  C9_14 
REMARK    8  A    between atoms: C9_14  and  C10_15 
REMARK    9  A    between atoms: C10_15  and  C11_16 
REMARK   10  A    between atoms: C11_16  and  C12_17 
REMARK   11  A    between atoms: C12_17  and  N3_18 
REMARK   12  A    between atoms: C13_22  and  N4_23 
REMARK   13  A    between atoms: C15_25  and  C16_26 
ROOT
HETATM    1  C1  UNL     1       1.999  -4.954   1.337  1.00  0.00     0.100 A 
HETATM    2  C2  UNL     1       0.749  -5.175   0.803  1.00  0.00     0.050 A 
HETATM    3  C3  UNL     1       0.221  -4.149   0.010  1.00  0.00     0.037 A 
HETATM    4  C4  UNL     1       0.913  -2.991  -0.219  1.00  0.00     0.074 A 
HETATM    5  C13 UNL     1       2.155  -2.836   0.344  1.00  0.00     0.156 A 
HETATM    6  N7  UNL     1       2.690  -3.814   1.116  1.00  0.00    -0.326 N 
ATOM      7  H7  UNL     1       3.614  -3.689   1.530  1.00  0.00     0.169 HD
ENDROOT
BRANCH   4   8
HETATM    8  N2  UNL     1       0.373  -1.968  -1.016  1.00  0.00    -0.387 N 
ATOM      9  H2  UNL     1       0.896  -1.108  -1.181  1.00  0.00     0.159 HD
BRANCH   8  10
HETATM   10  C5  UNL     1      -0.938  -2.155  -1.598  1.00  0.00     0.120 C 
BRANCH  10  11
HETATM   11  C6  UNL     1      -1.366  -0.967  -2.422  1.00  0.00     0.020 C 
BRANCH  11  12
HETATM   12  C7  UNL     1      -1.437   0.295  -1.633  1.00  0.00     0.002 C 
BRANCH  12  13
HETATM   13  C8  UNL     1      -2.420   0.212  -0.485  1.00  0.00     0.000 C 
BRANCH  13  14
HETATM   14  C9  UNL     1      -2.445   1.513   0.269  1.00  0.00     0.000 C 
BRANCH  14  15
HETATM   15  C10 UNL     1      -3.403   1.507   1.415  1.00  0.00     0.002 C 
BRANCH  15  16
HETATM   16  C11 UNL     1      -4.801   1.276   1.019  1.00  0.00     0.027 C 
BRANCH  16  17
HETATM   17  C12 UNL     1      -5.482   2.229   0.135  1.00  0.00     0.229 C 
BRANCH  17  18
HETATM   18  N3  UNL     1      -4.994   2.476  -1.161  1.00  0.00    -0.079 N 
ATOM     19  H33 UNL     1      -4.015   2.753  -1.086  1.00  0.00     0.274 HD
ATOM     20  H32 UNL     1      -4.920   1.584  -1.650  1.00  0.00     0.274 HD
ATOM     21  H31 UNL     1      -5.467   3.138  -1.775  1.00  0.00     0.274 HD
ENDBRANCH  17  18
ENDBRANCH  16  17
ENDBRANCH  15  16
ENDBRANCH  14  15
ENDBRANCH  13  14
ENDBRANCH  12  13
ENDBRANCH  11  12
ENDBRANCH  10  11
ENDBRANCH   8  10
ENDBRANCH   4   8
BRANCH   5  22
HETATM   22  N4  UNL     1       2.882  -1.623   0.104  1.00  0.00    -0.232 N 
HETATM   23  C14 UNL     1       2.779  -0.460   0.763  1.00  0.00     0.151 A 
HETATM   24  C15 UNL     1       3.655   0.455   0.218  1.00  0.00     0.077 A 
HETATM   25  N5  UNL     1       4.276  -0.225  -0.792  1.00  0.00    -0.284 N 
HETATM   26  N6  UNL     1       3.796  -1.446  -0.830  1.00  0.00    -0.234 N 
ATOM     27  H5  UNL     1       4.992   0.153  -1.412  1.00  0.00     0.188 HD
ATOM     28  H6  UNL     1       4.091  -2.162  -1.494  1.00  0.00     0.209 HD
BRANCH  24  29
HETATM   29  C16 UNL     1       3.886   1.839   0.609  1.00  0.00    -0.007 A 
HETATM   30  C17 UNL     1       3.164   2.357   1.655  1.00  0.00     0.014 A 
HETATM   31  C18 UNL     1       3.334   3.672   2.082  1.00  0.00     0.001 A 
HETATM   32  C19 UNL     1       4.257   4.426   1.407  1.00  0.00     0.000 A 
HETATM   33  C20 UNL     1       4.991   3.909   0.349  1.00  0.00     0.001 A 
HETATM   34  C21 UNL     1       4.813   2.593  -0.070  1.00  0.00     0.014 A 
ENDBRANCH  24  29
ENDBRANCH   5  22
BRANCH   1  35
HETATM   35  N1  UNL     1       2.488  -5.905   2.071  1.00  0.00    -0.385 N 
ATOM     36  H12 UNL     1       1.966  -6.766   2.238  1.00  0.00     0.157 HD
ATOM     37  H11 UNL     1       3.414  -5.741   2.467  1.00  0.00     0.157 HD
ENDBRANCH   1  35
TORSDOF 13
