REMARK  12 active torsions:
REMARK  status: ('A' for Active; 'I' for Inactive)
REMARK    1  A    between atoms: N1_1  and  N2_4 
REMARK    2  A    between atoms: N2_4  and  C1_6 
REMARK    3  A    between atoms: C4_10  and  N3_11 
REMARK    4  A    between atoms: N3_11  and  C5_13 
REMARK    5  A    between atoms: C5_13  and  C6_14 
REMARK    6  A    between atoms: C6_14  and  C7_15 
REMARK    7  A    between atoms: C7_15  and  N4_16 
REMARK    8  A    between atoms: N4_16  and  C8_19 
REMARK    9  A    between atoms: C8_19  and  C9_20 
REMARK   10  A    between atoms: C9_20  and  C10_21 
REMARK   11  A    between atoms: C10_21  and  S2_22 
REMARK   12  A    between atoms: S2_22  and  C11_23 
ROOT
HETATM    1  N4  UNL     1      -0.935  -0.788   0.903  1.00  0.00    -0.075 N 
ATOM      2  H41 UNL     1      -1.235  -1.516   0.254  1.00  0.00     0.277 HD
ATOM      3  H42 UNL     1      -1.791  -0.677   1.446  1.00  0.00     0.277 HD
ENDROOT
BRANCH   1   4
HETATM    4  C7  UNL     1      -0.623   0.441   0.184  1.00  0.00     0.234 C 
BRANCH   4   5
HETATM    5  C6  UNL     1      -1.947   0.775  -0.552  1.00  0.00     0.047 C 
BRANCH   5   6
HETATM    6  C5  UNL     1      -2.940   0.964   0.580  1.00  0.00     0.122 C 
BRANCH   6   7
HETATM    7  N3  UNL     1      -4.231   1.282   0.066  1.00  0.00    -0.382 N 
ATOM      8  H3  UNL     1      -4.636   2.203   0.236  1.00  0.00     0.160 HD
BRANCH   7   9
HETATM    9  C4  UNL     1      -4.960   0.307  -0.690  1.00  0.00     0.098 A 
HETATM   10  C1  UNL     1      -6.218   0.451  -1.234  1.00  0.00     0.081 A 
HETATM   11  C2  UNL     1      -6.720  -0.593  -1.906  1.00  0.00     0.041 A 
HETATM   12  C3  UNL     1      -5.950  -1.718  -2.002  1.00  0.00     0.054 A 
HETATM   13  S1  UNL     1      -4.544  -1.283  -1.148  1.00  0.00    -0.082 SA
BRANCH  10  14
HETATM   14  N2  UNL     1      -6.946   1.689  -1.055  1.00  0.00    -0.305 N 
ATOM     15  H2  UNL     1      -6.950   2.415  -1.771  1.00  0.00     0.186 HD
BRANCH  14  16
HETATM   16  N1  UNL     1      -7.640   1.841   0.141  1.00  0.00    -0.345 N 
ATOM     17  H12 UNL     1      -7.626   1.106   0.848  1.00  0.00     0.176 HD
ATOM     18  H11 UNL     1      -8.153   2.713   0.267  1.00  0.00     0.176 HD
ENDBRANCH  14  16
ENDBRANCH  10  14
ENDBRANCH   7   9
ENDBRANCH   6   7
ENDBRANCH   5   6
ENDBRANCH   4   5
ENDBRANCH   1   4
BRANCH   1  19
HETATM   19  C8  UNL     1       0.129  -1.264   1.734  1.00  0.00     0.233 C 
BRANCH  19  20
HETATM   20  C9  UNL     1       1.317  -1.743   0.920  1.00  0.00     0.038 C 
BRANCH  20  21
HETATM   21  C10 UNL     1       2.349  -2.242   1.938  1.00  0.00     0.084 C 
BRANCH  21  22
HETATM   22  S2  UNL     1       3.850  -2.853   1.161  1.00  0.00    -0.094 SA
BRANCH  22  23
HETATM   23  C11 UNL     1       4.810  -1.590   0.385  1.00  0.00     0.145 A 
HETATM   24  N5  UNL     1       4.729  -1.154  -0.881  1.00  0.00    -0.335 N 
HETATM   25  C12 UNL     1       5.659  -0.175  -1.073  1.00  0.00     0.061 A 
ATOM     26  H5  UNL     1       4.077  -1.499  -1.586  1.00  0.00     0.168 HD
HETATM   27  C13 UNL     1       6.006   0.592  -2.147  1.00  0.00     0.032 A 
HETATM   28  C17 UNL     1       6.303  -0.035   0.124  1.00  0.00     0.061 A 
HETATM   29  C14 UNL     1       7.023   1.535  -2.052  1.00  0.00     0.002 A 
HETATM   30  C15 UNL     1       7.672   1.681  -0.861  1.00  0.00     0.002 A 
HETATM   31  C16 UNL     1       7.323   0.907   0.224  1.00  0.00     0.032 A 
HETATM   32  N6  UNL     1       5.791  -0.893   1.014  1.00  0.00    -0.335 N 
ATOM     33  H6  UNL     1       6.083  -1.003   1.985  1.00  0.00     0.168 HD
ENDBRANCH  22  23
ENDBRANCH  21  22
ENDBRANCH  20  21
ENDBRANCH  19  20
ENDBRANCH   1  19
TORSDOF 12
