REMARK  12 active torsions:
REMARK  status: ('A' for Active; 'I' for Inactive)
REMARK    1  A    between atoms: C2_3  and  C3_4 
REMARK    2  A    between atoms: C3_4  and  N2_5 
REMARK    3  A    between atoms: N2_5  and  C4_7 
REMARK    4  A    between atoms: C4_7  and  C5_8 
REMARK    5  A    between atoms: C5_8  and  C6_9 
REMARK    6  A    between atoms: C6_9  and  N3_10 
REMARK    7  A    between atoms: N3_10  and  C7_13 
REMARK    8  A    between atoms: C7_13  and  C8_14 
REMARK    9  A    between atoms: C8_14  and  C9_15 
REMARK   10  A    between atoms: C9_15  and  N4_16 
REMARK   11  A    between atoms: N4_16  and  C10_18 
REMARK   12  A    between atoms: C17_25  and  O1_26 
ROOT
HETATM    1  N1  UNL     1       4.411   3.653  -3.510  1.00  0.00    -0.197 NA
HETATM    2  C1  UNL     1       4.935   2.804  -2.902  1.00  0.00     0.060 C 
HETATM    3  C2  UNL     1       5.581   1.716  -2.148  1.00  0.00     0.143 C 
ENDROOT
BRANCH   3   4
HETATM    4  C3  UNL     1       5.136   1.855  -0.706  1.00  0.00     0.127 C 
BRANCH   4   5
HETATM    5  N2  UNL     1       5.706   0.847   0.139  1.00  0.00    -0.420 N 
ATOM      6  H2  UNL     1       6.392   1.065   0.862  1.00  0.00     0.153 HD
BRANCH   5   7
HETATM    7  C4  UNL     1       5.245  -0.487  -0.103  1.00  0.00     0.115 C 
BRANCH   7   8
HETATM    8  C5  UNL     1       3.788  -0.609   0.306  1.00  0.00     0.046 C 
BRANCH   8   9
HETATM    9  C6  UNL     1       3.259  -1.995   0.048  1.00  0.00     0.234 C 
BRANCH   9  10
HETATM   10  N3  UNL     1       1.849  -2.014   0.461  1.00  0.00    -0.075 N 
ATOM     11  H32 UNL     1       1.322  -1.286  -0.022  1.00  0.00     0.277 HD
ATOM     12  H31 UNL     1       1.377  -2.839   0.092  1.00  0.00     0.277 HD
BRANCH  10  13
HETATM   13  C7  UNL     1       1.665  -1.917   1.868  1.00  0.00     0.234 C 
BRANCH  13  14
HETATM   14  C8  UNL     1       0.268  -2.138   2.310  1.00  0.00     0.047 C 
BRANCH  14  15
HETATM   15  C9  UNL     1      -0.801  -1.258   1.818  1.00  0.00     0.121 C 
BRANCH  15  16
HETATM   16  N4  UNL     1      -1.071  -1.250   0.405  1.00  0.00    -0.388 N 
ATOM     17  H4  UNL     1      -0.528  -1.810  -0.252  1.00  0.00     0.159 HD
BRANCH  16  18
HETATM   18  C10 UNL     1      -2.137  -0.416  -0.019  1.00  0.00     0.050 A 
HETATM   19  C11 UNL     1      -1.934   0.909  -0.288  1.00  0.00     0.004 A 
HETATM   20  C12 UNL     1      -0.690   1.498  -0.161  1.00  0.00     0.014 A 
HETATM   21  C16 UNL     1      -3.010   1.715  -0.703  1.00  0.00     0.010 A 
HETATM   22  C13 UNL     1      -0.458   2.836  -0.422  1.00  0.00     0.001 A 
HETATM   23  C14 UNL     1      -1.533   3.596  -0.826  1.00  0.00     0.001 A 
HETATM   24  C15 UNL     1      -2.790   3.049  -0.966  1.00  0.00     0.015 A 
HETATM   25  C17 UNL     1      -4.251   1.133  -0.827  1.00  0.00     0.089 A 
HETATM   26  C18 UNL     1      -4.469  -0.223  -0.554  1.00  0.00     0.035 A 
HETATM   27  C19 UNL     1      -5.717  -0.792  -0.685  1.00  0.00     0.060 A 
HETATM   28  C23 UNL     1      -3.390  -0.976  -0.151  1.00  0.00     0.006 A 
HETATM   29  N5  UNL     1      -6.791   0.016  -1.096  1.00  0.00    -0.101 NA
HETATM   30  C20 UNL     1      -5.886  -2.147  -0.406  1.00  0.00     0.027 A 
HETATM   31  C21 UNL     1      -4.828  -2.912  -0.005  1.00  0.00     0.003 A 
HETATM   32  C22 UNL     1      -3.589  -2.336   0.123  1.00  0.00     0.015 A 
BRANCH  25  33
HETATM   33  O1  UNL     1      -5.344   1.858  -1.225  1.00  0.00    -0.359 OA
ATOM     34  H1  UNL     1      -6.201   1.456  -1.311  1.00  0.00     0.217 HD
ENDBRANCH  25  33
ENDBRANCH  16  18
ENDBRANCH  15  16
ENDBRANCH  14  15
ENDBRANCH  13  14
ENDBRANCH  10  13
ENDBRANCH   9  10
ENDBRANCH   8   9
ENDBRANCH   7   8
ENDBRANCH   5   7
ENDBRANCH   4   5
ENDBRANCH   3   4
TORSDOF 12
