REMARK  12 active torsions:
REMARK  status: ('A' for Active; 'I' for Inactive)
REMARK    1  A    between atoms: C1_2  and  C2_3 
REMARK       I    between atoms: C1_2  and  N3_24 
REMARK    2  A    between atoms: C2_3  and  C3_4 
REMARK    3  A    between atoms: C3_4  and  C4_5 
REMARK    4  A    between atoms: N1_8  and  C7_9 
REMARK    5  A    between atoms: C7_9  and  C8_10 
REMARK       I    between atoms: C8_10  and  N2_12 
REMARK    6  A    between atoms: N2_12  and  C9_14 
REMARK    7  A    between atoms: C9_14  and  C10_15 
REMARK    8  A    between atoms: C10_15  and  O3_16 
REMARK    9  A    between atoms: O3_16  and  C11_17 
REMARK   10  A    between atoms: C18_29  and  C19_30 
REMARK   11  A    between atoms: N7_43  and  C28_44 
REMARK   12  A    between atoms: C28_44  and  C29_45 
ROOT
HETATM    1  O1  UNL     1      -1.610   1.886  -1.641  1.00  0.00    -0.273 OA
HETATM    2  C1  UNL     1      -1.630   0.642  -1.459  1.00  0.00     0.223 C 
HETATM    3  N3  UNL     1      -2.757  -0.152  -1.763  1.00  0.00    -0.311 N 
ATOM      4  H3  UNL     1      -2.770  -0.705  -2.620  1.00  0.00     0.170 HD
HETATM    5  C17 UNL     1      -3.758  -0.183  -0.975  1.00  0.00     0.140 A 
HETATM    6  N4  UNL     1      -3.894   0.479   0.178  1.00  0.00    -0.326 N 
ATOM      7  H4  UNL     1      -3.126   1.079   0.479  1.00  0.00     0.169 HD
HETATM    8  C18 UNL     1      -4.976   0.403   0.963  1.00  0.00     0.118 A 
HETATM    9  N5  UNL     1      -5.992  -0.408   0.538  1.00  0.00    -0.326 N 
ATOM     10  H5  UNL     1      -6.824  -0.479   1.123  1.00  0.00     0.169 HD
HETATM   11  C25 UNL     1      -5.962  -1.109  -0.589  1.00  0.00     0.141 A 
HETATM   12  C26 UNL     1      -4.828  -1.000  -1.363  1.00  0.00     0.122 A 
HETATM   13  N6  UNL     1      -5.045  -1.796  -2.428  1.00  0.00    -0.346 N 
ATOM     14  H6  UNL     1      -4.395  -1.944  -3.200  1.00  0.00     0.167 HD
HETATM   15  C27 UNL     1      -6.258  -2.364  -2.308  1.00  0.00     0.185 A 
HETATM   16  N7  UNL     1      -6.841  -1.946  -1.167  1.00  0.00    -0.323 N 
ENDROOT
BRANCH   2  17
HETATM   17  C2  UNL     1      -0.372   0.037  -0.892  1.00  0.00     0.107 C 
BRANCH  17  18
HETATM   18  C3  UNL     1       0.759   1.000  -0.912  1.00  0.00     0.043 C 
BRANCH  18  19
HETATM   19  C4  UNL     1       1.975   0.326  -0.322  1.00  0.00    -0.073 C 
HETATM   20  C5  UNL     1       2.562   0.837   0.752  1.00  0.00     0.021 C 
HETATM   21  C6  UNL     1       3.755   0.184   1.339  1.00  0.00     0.096 C 
HETATM   22  N1  UNL     1       4.299  -0.782   0.479  1.00  0.00    -0.341 N 
HETATM   23  C15 UNL     1       3.364  -1.680  -0.055  1.00  0.00     0.073 C 
HETATM   24  C16 UNL     1       2.453  -0.905  -0.997  1.00  0.00     0.079 C 
BRANCH  22  25
HETATM   25  C7  UNL     1       5.666  -1.041   0.436  1.00  0.00     0.169 C 
BRANCH  25  26
HETATM   26  C8  UNL     1       6.411   0.102  -0.157  1.00  0.00     0.257 C 
HETATM   27  O2  UNL     1       5.782   1.136  -0.542  1.00  0.00    -0.267 OA
HETATM   28  N2  UNL     1       7.816   0.093  -0.316  1.00  0.00    -0.354 N 
ATOM     29  H2  UNL     1       8.355  -0.718  -0.014  1.00  0.00     0.162 HD
BRANCH  28  30
HETATM   30  C9  UNL     1       8.485   1.216  -0.898  1.00  0.00     0.149 C 
BRANCH  30  31
HETATM   31  C10 UNL     1       9.960   0.959  -0.957  1.00  0.00     0.196 C 
BRANCH  31  32
HETATM   32  O3  UNL     1      10.441   0.754   0.351  1.00  0.00    -0.342 OA
BRANCH  32  33
HETATM   33  C11 UNL     1      11.825   0.492   0.478  1.00  0.00     0.109 A 
HETATM   34  C12 UNL     1      12.451  -0.721   0.359  1.00  0.00     0.045 A 
HETATM   35  C13 UNL     1      13.784  -0.742   0.519  1.00  0.00     0.010 A 
HETATM   36  C14 UNL     1      14.403   0.447   0.788  1.00  0.00     0.052 A 
HETATM   37  S1  UNL     1      13.111   1.559   0.809  1.00  0.00    -0.077 SA
ENDBRANCH  32  33
ENDBRANCH  31  32
ENDBRANCH  30  31
ENDBRANCH  28  30
ENDBRANCH  25  26
ENDBRANCH  22  25
ENDBRANCH  18  19
ENDBRANCH  17  18
ENDBRANCH   2  17
BRANCH   8  38
HETATM   38  C19 UNL     1      -5.131   1.118   2.217  1.00  0.00     0.008 A 
HETATM   39  C20 UNL     1      -4.163   1.955   2.710  1.00  0.00     0.015 A 
HETATM   40  C21 UNL     1      -4.341   2.630   3.927  1.00  0.00     0.001 A 
HETATM   41  C22 UNL     1      -5.491   2.465   4.650  1.00  0.00     0.000 A 
HETATM   42  C23 UNL     1      -6.465   1.633   4.170  1.00  0.00     0.001 A 
HETATM   43  C24 UNL     1      -6.280   0.967   2.962  1.00  0.00     0.015 A 
ENDBRANCH   8  38
BRANCH  16  44
HETATM   44  C28 UNL     1      -8.162  -2.350  -0.702  1.00  0.00     0.170 C 
BRANCH  44  45
HETATM   45  C29 UNL     1      -9.184  -1.433  -1.231  1.00  0.00    -0.040 A 
HETATM   46  C30 UNL     1      -9.748  -1.748  -2.457  1.00  0.00     0.009 A 
HETATM   47  C31 UNL     1     -10.712  -0.897  -2.963  1.00  0.00     0.001 A 
HETATM   48  C32 UNL     1     -11.118   0.242  -2.282  1.00  0.00     0.000 A 
HETATM   49  C33 UNL     1     -10.545   0.538  -1.063  1.00  0.00     0.001 A 
HETATM   50  C34 UNL     1      -9.577  -0.303  -0.541  1.00  0.00     0.009 A 
ENDBRANCH  44  45
ENDBRANCH  16  44
TORSDOF 12
