REMARK  13 active torsions:
REMARK  status: ('A' for Active; 'I' for Inactive)
REMARK    1  A    between atoms: C5_6  and  C6_7 
REMARK    2  A    between atoms: C10_11  and  C11_12 
REMARK    3  A    between atoms: C11_12  and  C12_13 
REMARK    4  A    between atoms: C12_13  and  C13_14 
REMARK       I    between atoms: C13_14  and  N2_16 
REMARK    5  A    between atoms: N2_16  and  C14_18 
REMARK    6  A    between atoms: C15_23  and  C16_24 
REMARK    7  A    between atoms: C16_24  and  C17_25 
REMARK    8  A    between atoms: C17_25  and  S1_26 
REMARK    9  A    between atoms: S1_26  and  C18_27 
REMARK   10  A    between atoms: C18_27  and  C19_28 
REMARK   11  A    between atoms: C19_28  and  C20_29 
REMARK       I    between atoms: N7_35  and  C22_37 
REMARK   12  A    between atoms: C22_37  and  C23_39 
REMARK   13  A    between atoms: C23_39  and  C24_40 
ROOT
HETATM    1  C14 UNL     1      -2.128  -1.840   0.443  1.00  0.00     0.167 A 
HETATM    2  N3  UNL     1      -1.101  -2.516  -0.072  1.00  0.00    -0.279 N 
ATOM      3  H3  UNL     1      -1.253  -3.408  -0.542  1.00  0.00     0.189 HD
HETATM    4  N4  UNL     1       0.068  -2.034   0.031  1.00  0.00    -0.296 N 
ATOM      5  H4  UNL     1       0.859  -2.545  -0.360  1.00  0.00     0.187 HD
HETATM    6  C15 UNL     1       0.273  -0.883   0.635  1.00  0.00     0.070 A 
HETATM    7  S3  UNL     1      -1.341  -0.461   1.091  1.00  0.00    -0.038 SA
ENDROOT
BRANCH   6   8
HETATM    8  C16 UNL     1       1.536  -0.096   0.910  1.00  0.00     0.076 C 
BRANCH   8   9
HETATM    9  C17 UNL     1       1.856   0.819  -0.220  1.00  0.00     0.080 C 
BRANCH   9  10
HETATM   10  S1  UNL     1       3.267   1.827   0.121  1.00  0.00    -0.168 SA
BRANCH  10  11
HETATM   11  C18 UNL     1       4.853   1.093   0.225  1.00  0.00     0.080 C 
BRANCH  11  12
HETATM   12  C19 UNL     1       5.109   0.137   1.374  1.00  0.00     0.076 C 
BRANCH  12  13
HETATM   13  C20 UNL     1       6.578  -0.219   1.227  1.00  0.00     0.070 A 
HETATM   14  N5  UNL     1       7.190  -1.164   0.557  1.00  0.00    -0.296 N 
HETATM   15  N6  UNL     1       8.455  -1.267   0.577  1.00  0.00    -0.279 N 
ATOM     16  H5  UNL     1       6.641  -1.828   0.010  1.00  0.00     0.187 HD
HETATM   17  C21 UNL     1       9.170  -0.400   1.290  1.00  0.00     0.167 A 
ATOM     18  H6  UNL     1       8.919  -2.008   0.051  1.00  0.00     0.189 HD
HETATM   19  N7  UNL     1      10.440  -0.280   1.442  1.00  0.00    -0.306 N 
HETATM   20  S2  UNL     1       7.916   0.598   1.952  1.00  0.00    -0.038 SA
HETATM   21  C22 UNL     1      11.388  -1.110   0.829  1.00  0.00     0.227 C 
ATOM     22  H7  UNL     1      10.780   0.467   2.048  1.00  0.00     0.171 HD
HETATM   23  O2  UNL     1      12.205  -1.730   1.560  1.00  0.00    -0.273 OA
BRANCH  21  24
HETATM   24  C23 UNL     1      11.448  -1.267  -0.660  1.00  0.00     0.141 C 
BRANCH  24  25
HETATM   25  C24 UNL     1      12.680  -0.645  -1.209  1.00  0.00    -0.050 A 
HETATM   26  C25 UNL     1      13.839  -1.351  -1.322  1.00  0.00     0.007 A 
HETATM   27  C26 UNL     1      15.015  -0.793  -1.836  1.00  0.00     0.001 A 
HETATM   28  C27 UNL     1      14.942   0.534  -2.231  1.00  0.00     0.000 A 
HETATM   29  C28 UNL     1      13.776   1.257  -2.122  1.00  0.00     0.001 A 
HETATM   30  C29 UNL     1      12.643   0.670  -1.611  1.00  0.00     0.007 A 
ENDBRANCH  24  25
ENDBRANCH  21  24
ENDBRANCH  12  13
ENDBRANCH  11  12
ENDBRANCH  10  11
ENDBRANCH   9  10
ENDBRANCH   8   9
ENDBRANCH   6   8
BRANCH   1  31
HETATM   31  N2  UNL     1      -3.404  -2.148   0.450  1.00  0.00    -0.306 N 
HETATM   32  C13 UNL     1      -4.283  -1.241   1.075  1.00  0.00     0.223 C 
HETATM   33  O1  UNL     1      -3.779  -0.318   1.793  1.00  0.00    -0.273 OA
ATOM     34  H2  UNL     1      -3.745  -3.008   0.021  1.00  0.00     0.171 HD
BRANCH  32  35
HETATM   35  C12 UNL     1      -5.772  -1.314   0.937  1.00  0.00     0.108 C 
BRANCH  35  36
HETATM   36  C11 UNL     1      -6.435  -0.225   1.747  1.00  0.00     0.048 C 
BRANCH  36  37
HETATM   37  C10 UNL     1      -7.900  -0.353   1.611  1.00  0.00    -0.057 A 
HETATM   38  C9  UNL     1      -8.638  -1.161   2.490  1.00  0.00     0.007 A 
HETATM   39  C8  UNL     1     -10.003  -1.256   2.363  1.00  0.00     0.001 A 
HETATM   40  C7  UNL     1     -10.642  -0.550   1.365  1.00  0.00     0.009 A 
HETATM   41  C6  UNL     1      -9.940   0.268   0.468  1.00  0.00    -0.025 A 
HETATM   42  C30 UNL     1      -8.576   0.347   0.614  1.00  0.00     0.016 A 
BRANCH  41  43
HETATM   43  C5  UNL     1     -10.654   1.027  -0.584  1.00  0.00     0.255 C 
HETATM   44  N1  UNL     1     -10.072   0.837  -1.877  1.00  0.00     0.093 N 
HETATM   45  C1  UNL     1     -11.079   0.559  -2.892  1.00  0.00     0.310 C 
HETATM   46  C2  UNL     1      -9.312   2.000  -2.223  1.00  0.00     0.273 C 
HETATM   47  C3  UNL     1      -9.601   3.084  -1.228  1.00  0.00     0.033 C 
HETATM   48  C4  UNL     1     -10.653   2.513  -0.311  1.00  0.00     0.042 C 
ENDBRANCH  41  43
ENDBRANCH  36  37
ENDBRANCH  35  36
ENDBRANCH  32  35
ENDBRANCH   1  31
TORSDOF 13
