REMARK  13 active torsions:
REMARK  status: ('A' for Active; 'I' for Inactive)
REMARK    1  A    between atoms: C2_2  and  C3_3 
REMARK    2  A    between atoms: C7_7  and  C8_8 
REMARK    3  A    between atoms: C8_8  and  C9_9 
REMARK    4  A    between atoms: C11_11  and  C12_12 
REMARK       I    between atoms: C12_12  and  N1_14 
REMARK    5  A    between atoms: C13_16  and  C14_17 
REMARK       I    between atoms: C14_17  and  N2_19 
REMARK    6  A    between atoms: N2_19  and  C15_20 
REMARK    7  A    between atoms: N2_19  and  C19_25 
REMARK    8  A    between atoms: C15_20  and  C16_21 
REMARK    9  A    between atoms: C16_21  and  N3_22 
REMARK   10  A    between atoms: C19_25  and  C20_26 
REMARK   11  A    between atoms: C26_35  and  O3_36 
REMARK   12  A    between atoms: N6_40  and  C28_41 
REMARK   13  A    between atoms: C28_41  and  C29_42 
ROOT
HETATM    1  C9  UNL     1      -1.387  -2.012  -0.313  1.00  0.00     0.015 A 
HETATM    2  C10 UNL     1      -0.280  -1.222  -0.286  1.00  0.00     0.044 A 
HETATM    3  C11 UNL     1       0.522  -1.607   0.773  1.00  0.00     0.056 A 
HETATM    4  C24 UNL     1      -0.132  -2.651   1.384  1.00  0.00     0.021 A 
HETATM    5  C25 UNL     1       0.363  -3.379   2.572  1.00  0.00     0.069 C 
HETATM    6  N4  UNL     1      -1.280  -2.868   0.701  1.00  0.00    -0.362 N 
ATOM      7  H4  UNL     1      -1.967  -3.586   0.931  1.00  0.00     0.165 HD
ENDROOT
BRANCH   1   8
HETATM    8  C8  UNL     1      -2.537  -1.919  -1.277  1.00  0.00     0.102 C 
BRANCH   8   9
HETATM    9  C7  UNL     1      -3.841  -1.813  -0.652  1.00  0.00     0.028 A 
HETATM   10  C6  UNL     1      -4.569  -0.759  -0.164  1.00  0.00     0.075 A 
HETATM   11  C5  UNL     1      -5.708  -1.275   0.472  1.00  0.00     0.064 A 
HETATM   12  N6  UNL     1      -4.384   0.551  -0.178  1.00  0.00    -0.307 N 
HETATM   13  C4  UNL     1      -6.646  -0.470   1.093  1.00  0.00     0.045 A 
HETATM   14  N5  UNL     1      -5.694  -2.590   0.373  1.00  0.00    -0.330 N 
HETATM   15  C3  UNL     1      -6.428   0.886   1.071  1.00  0.00     0.012 A 
HETATM   16  C35 UNL     1      -5.318   1.333   0.443  1.00  0.00     0.254 A 
HETATM   17  O4  UNL     1      -5.127   2.573   0.429  1.00  0.00    -0.267 OA
HETATM   18  C26 UNL     1      -4.599  -2.946  -0.289  1.00  0.00     0.151 A 
HETATM   19  C27 UNL     1      -6.727  -3.505   0.910  1.00  0.00     0.158 C 
BRANCH  15  20
HETATM   20  C2  UNL     1      -7.405   1.820   1.745  1.00  0.00     0.040 C 
HETATM   21  C1  UNL     1      -6.816   2.294   3.065  1.00  0.00     0.010 C 
ENDBRANCH  15  20
BRANCH  18  22
HETATM   22  O3  UNL     1      -4.268  -4.255  -0.574  1.00  0.00    -0.345 OA
ATOM     23  H3  UNL     1      -4.778  -5.018  -0.330  1.00  0.00     0.219 HD
ENDBRANCH  18  22
BRANCH  12  24
HETATM   24  C28 UNL     1      -3.337   1.168  -0.933  1.00  0.00     0.171 C 
BRANCH  24  25
HETATM   25  C29 UNL     1      -3.799   1.706  -2.259  1.00  0.00    -0.040 A 
HETATM   26  C30 UNL     1      -4.140   0.940  -3.326  1.00  0.00     0.009 A 
HETATM   27  C31 UNL     1      -4.539   1.549  -4.502  1.00  0.00     0.001 A 
HETATM   28  C32 UNL     1      -4.618   2.910  -4.672  1.00  0.00     0.000 A 
HETATM   29  C33 UNL     1      -4.273   3.688  -3.590  1.00  0.00     0.001 A 
HETATM   30  C34 UNL     1      -3.866   3.087  -2.392  1.00  0.00     0.009 A 
ENDBRANCH  24  25
ENDBRANCH  12  24
ENDBRANCH   8   9
ENDBRANCH   1   8
BRANCH   3  31
HETATM   31  C12 UNL     1       1.802  -0.968   1.138  1.00  0.00     0.257 C 
HETATM   32  O1  UNL     1       2.292  -1.339   2.257  1.00  0.00    -0.267 OA
HETATM   33  N1  UNL     1       2.435  -0.050   0.358  1.00  0.00    -0.328 N 
HETATM   34  C13 UNL     1       3.564   0.400   0.146  1.00  0.00     0.165 C 
ATOM     35  H1  UNL     1       1.758   0.416  -0.246  1.00  0.00     0.168 HD
BRANCH  34  36
HETATM   36  C14 UNL     1       4.842   0.056   0.755  1.00  0.00     0.259 C 
HETATM   37  O2  UNL     1       4.925  -0.807   1.667  1.00  0.00    -0.267 OA
HETATM   38  N2  UNL     1       6.032   0.683   0.343  1.00  0.00    -0.341 N 
BRANCH  38  39
HETATM   39  C15 UNL     1       7.345   0.434   0.915  1.00  0.00     0.156 C 
BRANCH  39  40
HETATM   40  C16 UNL     1       8.120  -0.588   0.178  1.00  0.00     0.291 C 
BRANCH  40  41
HETATM   41  N3  UNL     1       7.653  -1.925   0.144  1.00  0.00     0.081 N 
HETATM   42  C17 UNL     1       7.811  -2.626   1.415  1.00  0.00     0.309 C 
HETATM   43  C18 UNL     1       8.387  -2.684  -0.841  1.00  0.00     0.309 C 
ENDBRANCH  40  41
ENDBRANCH  39  40
ENDBRANCH  38  39
BRANCH  38  44
HETATM   44  C19 UNL     1       5.958   1.626  -0.783  1.00  0.00     0.172 C 
BRANCH  44  45
HETATM   45  C20 UNL     1       5.656   3.004  -0.278  1.00  0.00     0.000 A 
HETATM   46  C21 UNL     1       5.579   4.156  -1.012  1.00  0.00     0.017 A 
HETATM   47  C22 UNL     1       5.293   5.290  -0.356  1.00  0.00     0.008 A 
HETATM   48  C23 UNL     1       5.101   5.201   1.000  1.00  0.00     0.050 A 
HETATM   49  S1  UNL     1       5.327   3.543   1.309  1.00  0.00    -0.105 SA
ENDBRANCH  44  45
ENDBRANCH  38  44
ENDBRANCH  34  36
ENDBRANCH   3  31
TORSDOF 13
