REMARK  12 active torsions:
REMARK  status: ('A' for Active; 'I' for Inactive)
REMARK    1  A    between atoms: C1_2  and  C2_3 
REMARK       I    between atoms: C1_2  and  N2_16 
REMARK    2  A    between atoms: C2_3  and  O2_4 
REMARK    3  A    between atoms: O2_4  and  C3_5 
REMARK    4  A    between atoms: N2_16  and  C12_18 
REMARK    5  A    between atoms: C15_21  and  C16_22 
REMARK    6  A    between atoms: C16_22  and  C17_23 
REMARK       I    between atoms: C17_23  and  N3_25 
REMARK    7  A    between atoms: N3_25  and  C18_26 
REMARK    8  A    between atoms: N3_25  and  C28_41 
REMARK    9  A    between atoms: C18_26  and  C19_27 
REMARK   10  A    between atoms: C19_27  and  C20_28 
REMARK   11  A    between atoms: C20_28  and  N4_29 
REMARK   12  A    between atoms: C33_46  and  C34_47 
ROOT
HETATM    1  C17 UNL     1      -1.352  -0.191   0.990  1.00  0.00     0.228 C 
HETATM    2  O3  UNL     1      -0.757  -0.436   2.089  1.00  0.00    -0.273 OA
HETATM    3  N3  UNL     1      -2.769  -0.140   0.960  1.00  0.00    -0.317 N 
ENDROOT
BRANCH   1   4
HETATM    4  C16 UNL     1      -0.523   0.029  -0.206  1.00  0.00     0.141 C 
BRANCH   4   5
HETATM    5  C15 UNL     1       0.935  -0.075   0.116  1.00  0.00    -0.049 A 
HETATM    6  C14 UNL     1       1.729   1.016   0.343  1.00  0.00     0.010 A 
HETATM    7  C13 UNL     1       3.068   0.919   0.653  1.00  0.00     0.030 A 
HETATM    8  C12 UNL     1       3.679  -0.348   0.749  1.00  0.00     0.034 A 
HETATM    9  C36 UNL     1       2.885  -1.446   0.522  1.00  0.00     0.030 A 
HETATM   10  C35 UNL     1       1.529  -1.307   0.209  1.00  0.00     0.010 A 
BRANCH   8  11
HETATM   11  N2  UNL     1       5.045  -0.415   1.036  1.00  0.00    -0.325 N 
HETATM   12  C1  UNL     1       5.671  -1.465   1.711  1.00  0.00     0.246 C 
HETATM   13  O1  UNL     1       4.943  -2.437   2.120  1.00  0.00    -0.271 OA
ATOM     14  H2  UNL     1       5.629   0.362   0.729  1.00  0.00     0.169 HD
BRANCH  12  15
HETATM   15  C2  UNL     1       7.137  -1.547   2.001  1.00  0.00     0.278 C 
BRANCH  15  16
HETATM   16  O2  UNL     1       7.844  -0.606   1.290  1.00  0.00    -0.341 OA
BRANCH  16  17
HETATM   17  C3  UNL     1       7.946  -0.596  -0.076  1.00  0.00     0.083 A 
HETATM   18  C4  UNL     1       7.370  -1.543  -0.895  1.00  0.00     0.054 A 
HETATM   19  C5  UNL     1       7.566  -1.399  -2.260  1.00  0.00     0.091 A 
HETATM   20  N1  UNL     1       8.273  -0.407  -2.809  1.00  0.00    -0.365 N 
HETATM   21  C6  UNL     1       8.841   0.524  -2.013  1.00  0.00     0.045 A 
ATOM     22  H1  UNL     1       8.383  -0.353  -3.822  1.00  0.00     0.165 HD
HETATM   23  C7  UNL     1       9.581   1.564  -2.562  1.00  0.00     0.030 A 
HETATM   24  C11 UNL     1       8.682   0.436  -0.647  1.00  0.00     0.024 A 
HETATM   25  C8  UNL     1      10.157   2.507  -1.763  1.00  0.00     0.002 A 
HETATM   26  C9  UNL     1       9.985   2.401  -0.395  1.00  0.00     0.001 A 
HETATM   27  C10 UNL     1       9.258   1.380   0.158  1.00  0.00     0.016 A 
ENDBRANCH  16  17
ENDBRANCH  15  16
ENDBRANCH  12  15
ENDBRANCH   8  11
ENDBRANCH   4   5
ENDBRANCH   1   4
BRANCH   3  28
HETATM   28  C18 UNL     1      -3.470   0.339  -0.216  1.00  0.00     0.134 C 
BRANCH  28  29
HETATM   29  C19 UNL     1      -3.850  -0.640  -1.242  1.00  0.00     0.041 C 
BRANCH  29  30
HETATM   30  C20 UNL     1      -4.564  -0.094  -2.430  1.00  0.00     0.137 C 
BRANCH  30  31
HETATM   31  N4  UNL     1      -5.804   0.555  -2.185  1.00  0.00    -0.279 N 
HETATM   32  C21 UNL     1      -7.105  -0.069  -2.156  1.00  0.00     0.263 A 
HETATM   33  O4  UNL     1      -7.346  -1.278  -2.332  1.00  0.00    -0.267 OA
HETATM   34  C22 UNL     1      -8.128   0.931  -1.887  1.00  0.00     0.065 A 
HETATM   35  C23 UNL     1      -9.499   0.916  -1.751  1.00  0.00     0.021 A 
HETATM   36  C26 UNL     1      -7.495   2.148  -1.750  1.00  0.00     0.117 A 
HETATM   37  C24 UNL     1     -10.216   2.061  -1.489  1.00  0.00     0.018 A 
HETATM   38  C25 UNL     1      -9.552   3.261  -1.358  1.00  0.00     0.088 A 
HETATM   39  N5  UNL     1      -8.216   3.265  -1.493  1.00  0.00    -0.361 N 
ATOM     40  H5  UNL     1      -7.721   4.152  -1.397  1.00  0.00     0.165 HD
HETATM   41  C27 UNL     1      -6.060   1.926  -1.933  1.00  0.00     0.278 A 
HETATM   42  O5  UNL     1      -5.224   2.866  -1.863  1.00  0.00    -0.265 OA
ENDBRANCH  30  31
ENDBRANCH  29  30
ENDBRANCH  28  29
ENDBRANCH   3  28
BRANCH   3  43
HETATM   43  C28 UNL     1      -3.553  -0.459   2.102  1.00  0.00     0.054 A 
HETATM   44  C29 UNL     1      -4.148   0.612   2.808  1.00  0.00     0.031 A 
HETATM   45  C30 UNL     1      -4.921   0.406   3.920  1.00  0.00     0.002 A 
HETATM   46  C31 UNL     1      -5.138  -0.871   4.379  1.00  0.00     0.001 A 
HETATM   47  C32 UNL     1      -4.571  -1.919   3.710  1.00  0.00     0.021 A 
HETATM   48  C33 UNL     1      -3.762  -1.718   2.549  1.00  0.00     0.067 A 
BRANCH  48  49
HETATM   49  C34 UNL     1      -3.221  -2.901   1.939  1.00  0.00     0.211 C 
HETATM   50  O6  UNL     1      -3.500  -4.033   2.460  1.00  0.00    -0.644 OA
HETATM   51  O7  UNL     1      -2.425  -2.955   0.843  1.00  0.00    -0.644 OA
ENDBRANCH  48  49
ENDBRANCH   3  43
TORSDOF 12
