REMARK  13 active torsions:
REMARK  status: ('A' for Active; 'I' for Inactive)
REMARK    1  A    between atoms: C5_6  and  N2_7 
REMARK    2  A    between atoms: N3_10  and  C8_11 
REMARK    3  A    between atoms: C8_11  and  C9_12 
REMARK    4  A    between atoms: C9_12  and  C10_13 
REMARK    5  A    between atoms: C10_13  and  C11_14 
REMARK    6  A    between atoms: C11_14  and  N4_15 
REMARK    7  A    between atoms: N4_15  and  C12_16 
REMARK    8  A    between atoms: C14_18  and  C15_19 
REMARK    9  A    between atoms: C15_19  and  N5_20 
REMARK   10  A    between atoms: N5_20  and  C16_22 
REMARK   11  A    between atoms: C16_22  and  C17_23 
REMARK   12  A    between atoms: N6_31  and  C25_32 
REMARK   13  A    between atoms: C25_32  and  C26_33 
ROOT
HETATM    1  C12 UNL     1       0.975   1.313   0.043  1.00  0.00     0.178 A 
HETATM    2  C13 UNL     1       2.174   1.059   0.718  1.00  0.00     0.072 A 
HETATM    3  C14 UNL     1       3.031   2.056   1.154  1.00  0.00    -0.035 A 
HETATM    4  C31 UNL     1       2.658   3.335   0.902  1.00  0.00     0.026 A 
HETATM    5  C32 UNL     1       1.489   3.597   0.242  1.00  0.00     0.091 A 
HETATM    6  N8  UNL     1       0.675   2.600  -0.174  1.00  0.00    -0.341 N 
ATOM      7  H8  UNL     1      -0.188   2.834  -0.665  1.00  0.00     0.167 HD
ENDROOT
BRANCH   1   8
HETATM    8  N4  UNL     1       0.244   0.427  -0.360  1.00  0.00    -0.404 NA
BRANCH   8   9
HETATM    9  C11 UNL     1      -0.578  -0.505  -0.813  1.00  0.00     0.157 C 
BRANCH   9  10
HETATM   10  C10 UNL     1      -1.478  -0.218  -2.027  1.00  0.00     0.061 C 
BRANCH  10  11
HETATM   11  C9  UNL     1      -2.294   1.027  -1.723  1.00  0.00     0.036 C 
BRANCH  11  12
HETATM   12  C8  UNL     1      -2.962   0.918  -0.393  1.00  0.00     0.273 C 
BRANCH  12  13
HETATM   13  N3  UNL     1      -3.957  -0.146  -0.377  1.00  0.00     0.091 N 
HETATM   14  C7  UNL     1      -4.248  -0.527   1.006  1.00  0.00     0.292 C 
HETATM   15  C6  UNL     1      -5.423  -1.482   0.930  1.00  0.00     0.153 C 
HETATM   16  N2  UNL     1      -6.582  -0.641   0.680  1.00  0.00    -0.377 N 
HETATM   17  C34 UNL     1      -6.250   0.663   0.112  1.00  0.00     0.153 C 
HETATM   18  C33 UNL     1      -5.198   0.440  -0.927  1.00  0.00     0.292 C 
BRANCH  16  19
HETATM   19  C5  UNL     1      -7.917  -0.958   0.980  1.00  0.00     0.046 C 
HETATM   20  C4  UNL     1      -8.902  -0.580   0.092  1.00  0.00     0.019 A 
HETATM   21  C3  UNL     1      -8.761  -0.591  -1.282  1.00  0.00     0.033 A 
HETATM   22  C39 UNL     1     -10.197  -0.153   0.329  1.00  0.00     0.046 A 
HETATM   23  C2  UNL     1      -9.955  -0.176  -1.817  1.00  0.00     0.092 A 
HETATM   24  N1  UNL     1     -10.846   0.093  -0.832  1.00  0.00    -0.360 N 
HETATM   25  C1  UNL     1     -12.185   0.534  -1.085  1.00  0.00     0.155 C 
HETATM   26  C38 UNL     1     -10.803  -0.000   1.551  1.00  0.00     0.034 C 
HETATM   27  C37 UNL     1     -10.460  -0.622   2.714  1.00  0.00     0.057 C 
HETATM   28  C36 UNL     1      -9.343  -1.451   2.959  1.00  0.00     0.174 C 
HETATM   29  C35 UNL     1      -8.221  -1.624   2.183  1.00  0.00     0.085 C 
HETATM   30  O1  UNL     1      -9.399  -2.096   4.013  1.00  0.00    -0.288 OA
ENDBRANCH  16  19
ENDBRANCH  12  13
ENDBRANCH  11  12
ENDBRANCH  10  11
ENDBRANCH   9  10
ENDBRANCH   8   9
ENDBRANCH   1   8
BRANCH   3  31
HETATM   31  C15 UNL     1       4.315   1.695   1.827  1.00  0.00     0.158 C 
BRANCH  31  32
HETATM   32  N5  UNL     1       5.403   1.594   0.802  1.00  0.00    -0.393 N 
ATOM     33  H5  UNL     1       5.969   2.349   0.416  1.00  0.00     0.159 HD
BRANCH  32  34
HETATM   34  C16 UNL     1       5.467   0.236   0.495  1.00  0.00     0.113 C 
BRANCH  34  35
HETATM   35  C17 UNL     1       6.447  -0.416  -0.365  1.00  0.00     0.051 A 
HETATM   36  C18 UNL     1       6.385  -0.594  -1.726  1.00  0.00     0.044 A 
HETATM   37  C19 UNL     1       7.422  -1.445  -2.104  1.00  0.00    -0.007 A 
HETATM   38  C20 UNL     1       7.862  -2.010  -3.283  1.00  0.00     0.014 A 
HETATM   39  C24 UNL     1       8.122  -1.781  -0.946  1.00  0.00     0.045 A 
HETATM   40  C21 UNL     1       8.931  -2.880  -3.367  1.00  0.00     0.001 A 
HETATM   41  C22 UNL     1       9.581  -3.177  -2.207  1.00  0.00     0.002 A 
HETATM   42  C23 UNL     1       9.199  -2.648  -1.004  1.00  0.00     0.030 A 
HETATM   43  N6  UNL     1       7.495  -1.130   0.064  1.00  0.00    -0.341 N 
BRANCH  43  44
HETATM   44  C25 UNL     1       8.003  -1.097   1.414  1.00  0.00     0.168 C 
BRANCH  44  45
HETATM   45  C26 UNL     1       9.248  -0.226   1.348  1.00  0.00    -0.037 A 
HETATM   46  C27 UNL     1       9.242   1.034   0.807  1.00  0.00     0.026 A 
HETATM   47  C28 UNL     1      10.426   1.752   0.764  1.00  0.00     0.088 A 
HETATM   48  N7  UNL     1      11.553   1.243   1.235  1.00  0.00    -0.375 N 
HETATM   49  C29 UNL     1      11.614   0.009   1.781  1.00  0.00     0.088 A 
ATOM     50  H7  UNL     1      12.405   1.802   1.184  1.00  0.00     0.164 HD
HETATM   51  C30 UNL     1      10.439  -0.705   1.823  1.00  0.00     0.026 A 
ENDBRANCH  44  45
ENDBRANCH  43  44
ENDBRANCH  34  35
ENDBRANCH  32  34
ENDBRANCH  31  32
ENDBRANCH   3  31
TORSDOF 13
