REMARK  13 active torsions:
REMARK  status: ('A' for Active; 'I' for Inactive)
REMARK    1  A    between atoms: C5_6  and  C6_7 
REMARK    2  A    between atoms: C6_7  and  N2_8 
REMARK    3  A    between atoms: C8_11  and  C9_12 
REMARK    4  A    between atoms: C9_12  and  C10_13 
REMARK    5  A    between atoms: C13_16  and  O2_17 
REMARK    6  A    between atoms: C16_22  and  C17_23 
REMARK    7  A    between atoms: C21_27  and  C22_28 
REMARK    8  A    between atoms: C22_28  and  N4_29 
REMARK    9  A    between atoms: N5_37  and  C26_38 
REMARK   10  A    between atoms: C26_38  and  C27_39 
REMARK   11  A    between atoms: C27_39  and  C28_40 
REMARK   12  A    between atoms: C28_40  and  C29_41 
REMARK   13  A    between atoms: C29_41  and  C30_42 
ROOT
HETATM    1  N1  UNL     1       2.510   7.537  -2.136  1.00  0.00    -0.191 NA
HETATM    2  C1  UNL     1       1.812   6.762  -1.640  1.00  0.00     0.099 C 
HETATM    3  C2  UNL     1       0.936   5.790  -0.997  1.00  0.00     0.044 A 
HETATM    4  C3  UNL     1      -0.293   5.486  -1.525  1.00  0.00     0.023 A 
HETATM    5  C4  UNL     1      -1.123   4.554  -0.900  1.00  0.00     0.010 A 
HETATM    6  C5  UNL     1      -0.749   3.913   0.254  1.00  0.00    -0.040 A 
HETATM    7  C35 UNL     1       0.493   4.233   0.770  1.00  0.00     0.010 A 
HETATM    8  C36 UNL     1       1.322   5.152   0.161  1.00  0.00     0.023 A 
ENDROOT
BRANCH   6   9
HETATM    9  C6  UNL     1      -1.590   2.927   0.957  1.00  0.00     0.169 C 
BRANCH   9  10
HETATM   10  N2  UNL     1      -1.517   1.587   0.426  1.00  0.00    -0.288 N 
HETATM   11  C7  UNL     1      -2.417   1.078  -0.588  1.00  0.00     0.247 C 
HETATM   12  O1  UNL     1      -3.301   1.732  -1.191  1.00  0.00    -0.271 OA
HETATM   13  C8  UNL     1      -2.130  -0.352  -0.803  1.00  0.00     0.185 C 
HETATM   14  N3  UNL     1      -1.178  -0.628   0.190  1.00  0.00    -0.319 N 
HETATM   15  C16 UNL     1      -0.996  -1.876   0.710  1.00  0.00     0.103 C 
HETATM   16  C24 UNL     1      -0.604   0.514   0.761  1.00  0.00     0.310 C 
HETATM   17  O3  UNL     1      -0.513   0.475   2.149  1.00  0.00    -0.316 OA
HETATM   18  C34 UNL     1       0.760   0.690   0.245  1.00  0.00     0.300 C 
HETATM   19  C25 UNL     1       0.795   0.386   2.532  1.00  0.00     0.301 C 
HETATM   20  N5  UNL     1       1.604   0.289   1.340  1.00  0.00    -0.325 N 
HETATM   21  O4  UNL     1       1.234   1.078  -0.844  1.00  0.00    -0.265 OA
BRANCH  13  22
HETATM   22  C9  UNL     1      -1.735  -0.698  -2.192  1.00  0.00     0.073 C 
BRANCH  22  23
HETATM   23  C10 UNL     1      -2.728  -0.403  -3.242  1.00  0.00    -0.056 A 
HETATM   24  C11 UNL     1      -3.707  -1.360  -3.525  1.00  0.00     0.010 A 
HETATM   25  C12 UNL     1      -4.637  -1.140  -4.512  1.00  0.00     0.037 A 
HETATM   26  C13 UNL     1      -4.620   0.050  -5.250  1.00  0.00     0.065 A 
HETATM   27  C14 UNL     1      -3.661   0.999  -4.979  1.00  0.00     0.037 A 
HETATM   28  C15 UNL     1      -2.735   0.766  -3.988  1.00  0.00     0.010 A 
BRANCH  26  29
HETATM   29  O2  UNL     1      -5.565   0.264  -6.246  1.00  0.00    -0.361 OA
ATOM     30  H2  UNL     1      -5.553   1.071  -6.747  1.00  0.00     0.217 HD
ENDBRANCH  26  29
ENDBRANCH  22  23
ENDBRANCH  13  22
BRANCH  15  31
HETATM   31  C17 UNL     1      -2.139  -2.489   1.429  1.00  0.00    -0.020 A 
HETATM   32  C18 UNL     1      -3.166  -1.756   1.982  1.00  0.00     0.013 A 
HETATM   33  C19 UNL     1      -4.231  -2.317   2.651  1.00  0.00     0.002 A 
HETATM   34  C20 UNL     1      -4.268  -3.687   2.771  1.00  0.00     0.009 A 
HETATM   35  C21 UNL     1      -3.270  -4.488   2.239  1.00  0.00    -0.032 A 
HETATM   36  C23 UNL     1      -2.233  -3.878   1.584  1.00  0.00     0.021 A 
BRANCH  35  37
HETATM   37  C22 UNL     1      -3.344  -5.971   2.391  1.00  0.00     0.268 C 
BRANCH  37  38
HETATM   38  N4  UNL     1      -4.517  -6.309   3.165  1.00  0.00    -0.075 N 
ATOM     39  H43 UNL     1      -4.542  -5.825   4.063  1.00  0.00     0.274 HD
ATOM     40  H42 UNL     1      -5.370  -5.917   2.767  1.00  0.00     0.274 HD
ATOM     41  H41 UNL     1      -4.568  -7.322   3.269  1.00  0.00     0.274 HD
ENDBRANCH  37  38
ENDBRANCH  35  37
ENDBRANCH  15  31
BRANCH  20  42
HETATM   42  C26 UNL     1       2.987  -0.137   1.324  1.00  0.00     0.128 C 
BRANCH  42  43
HETATM   43  C27 UNL     1       3.949   0.983   1.481  1.00  0.00     0.020 C 
BRANCH  43  44
HETATM   44  C28 UNL     1       5.369   0.505   1.471  1.00  0.00     0.006 C 
BRANCH  44  45
HETATM   45  C29 UNL     1       5.705  -0.173   0.172  1.00  0.00     0.039 C 
BRANCH  45  46
HETATM   46  C30 UNL     1       7.162  -0.617   0.211  1.00  0.00    -0.051 A 
HETATM   47  C31 UNL     1       8.165   0.161  -0.209  1.00  0.00     0.014 A 
HETATM   48  C32 UNL     1       9.435  -0.348  -0.125  1.00  0.00     0.050 A 
HETATM   49  S1  UNL     1       9.179  -1.898   0.540  1.00  0.00    -0.113 SA
HETATM   50  C33 UNL     1       7.482  -1.857   0.691  1.00  0.00     0.056 A 
ENDBRANCH  45  46
ENDBRANCH  44  45
ENDBRANCH  43  44
ENDBRANCH  42  43
ENDBRANCH  20  42
ENDBRANCH   9  10
ENDBRANCH   6   9
TORSDOF 13
