REMARK  13 active torsions:
REMARK  status: ('A' for Active; 'I' for Inactive)
REMARK    1  A    between atoms: C2_2  and  C3_3 
REMARK    2  A    between atoms: C3_3  and  C4_4 
REMARK    3  A    between atoms: C4_4  and  C5_5 
REMARK    4  A    between atoms: N1_8  and  C7_9 
REMARK    5  A    between atoms: C7_9  and  C8_10 
REMARK    6  A    between atoms: C11_13  and  C12_14 
REMARK    7  A    between atoms: C17_19  and  C18_20 
REMARK    8  A    between atoms: C21_30  and  C22_31 
REMARK    9  A    between atoms: C22_31  and  C23_32 
REMARK   10  A    between atoms: N6_39  and  C30_40 
REMARK   11  A    between atoms: C30_40  and  O2_41 
REMARK   12  A    between atoms: N7_44  and  C32_45 
REMARK   13  A    between atoms: C32_45  and  C33_46 
ROOT
HETATM    1  C5  UNL     1      -2.244  -0.371   0.966  1.00  0.00     0.317 C 
HETATM    2  C6  UNL     1      -0.891  -0.625   0.364  1.00  0.00     0.258 C 
HETATM    3  O1  UNL     1      -0.321  -1.675   0.713  1.00  0.00    -0.271 OA
HETATM    4  N1  UNL     1      -0.079   0.110  -0.568  1.00  0.00    -0.319 N 
HETATM    5  C21 UNL     1      -0.140   1.510  -0.972  1.00  0.00     0.125 C 
HETATM    6  C29 UNL     1      -1.424   1.837  -1.661  1.00  0.00     0.303 C 
HETATM    7  N6  UNL     1      -2.633   1.412  -1.057  1.00  0.00     0.141 N 
HETATM    8  C31 UNL     1      -2.973   0.013  -1.230  1.00  0.00     0.547 C 
HETATM    9  N7  UNL     1      -3.288  -0.670   0.008  1.00  0.00     0.134 N 
ENDROOT
BRANCH   4  10
HETATM   10  C7  UNL     1       0.876  -0.686  -1.227  1.00  0.00     0.106 C 
BRANCH  10  11
HETATM   11  C8  UNL     1       2.164  -0.955  -0.624  1.00  0.00    -0.021 A 
HETATM   12  C9  UNL     1       2.607  -0.626   0.620  1.00  0.00     0.013 A 
HETATM   13  C10 UNL     1       3.862  -0.963   1.056  1.00  0.00     0.013 A 
HETATM   14  C11 UNL     1       4.770  -1.657   0.275  1.00  0.00    -0.025 A 
HETATM   15  C19 UNL     1       4.327  -1.994  -0.990  1.00  0.00     0.013 A 
HETATM   16  C20 UNL     1       3.071  -1.660  -1.433  1.00  0.00     0.013 A 
BRANCH  14  17
HETATM   17  C12 UNL     1       6.088  -2.021   0.735  1.00  0.00    -0.012 A 
HETATM   18  C13 UNL     1       6.250  -3.249   1.354  1.00  0.00     0.013 A 
HETATM   19  C14 UNL     1       7.497  -3.655   1.827  1.00  0.00     0.001 A 
HETATM   20  C15 UNL     1       8.583  -2.830   1.679  1.00  0.00     0.001 A 
HETATM   21  C16 UNL     1       8.438  -1.621   1.073  1.00  0.00     0.016 A 
HETATM   22  C17 UNL     1       7.177  -1.216   0.597  1.00  0.00     0.021 A 
BRANCH  22  23
HETATM   23  C18 UNL     1       7.069   0.075  -0.044  1.00  0.00     0.145 A 
HETATM   24  N2  UNL     1       8.094   0.954  -0.225  1.00  0.00    -0.271 N 
HETATM   25  N3  UNL     1       7.631   2.020  -0.846  1.00  0.00    -0.225 N 
ATOM     26  H2  UNL     1       9.060   0.811   0.071  1.00  0.00     0.190 HD
HETATM   27  N4  UNL     1       6.339   1.873  -1.078  1.00  0.00    -0.005 NA
ATOM     28  H3  UNL     1       8.186   2.835  -1.108  1.00  0.00     0.205 HD
HETATM   29  N5  UNL     1       6.015   0.691  -0.587  1.00  0.00    -0.266 N 
ATOM     30  H5  UNL     1       5.075   0.296  -0.618  1.00  0.00     0.186 HD
ENDBRANCH  22  23
ENDBRANCH  14  17
ENDBRANCH  10  11
ENDBRANCH   4  10
BRANCH   5  31
HETATM   31  C22 UNL     1       0.260   2.377   0.153  1.00  0.00     0.066 C 
BRANCH  31  32
HETATM   32  C23 UNL     1       0.256   3.819  -0.067  1.00  0.00    -0.056 A 
HETATM   33  C24 UNL     1      -0.847   4.559   0.247  1.00  0.00     0.007 A 
HETATM   34  C25 UNL     1      -0.909   5.925   0.061  1.00  0.00     0.001 A 
HETATM   35  C26 UNL     1       0.202   6.552  -0.466  1.00  0.00     0.000 A 
HETATM   36  C27 UNL     1       1.336   5.836  -0.796  1.00  0.00     0.001 A 
HETATM   37  C28 UNL     1       1.351   4.459  -0.590  1.00  0.00     0.007 A 
ENDBRANCH  31  32
ENDBRANCH   5  31
BRANCH   1  38
HETATM   38  C4  UNL     1      -2.398  -1.093   2.277  1.00  0.00     0.046 C 
BRANCH  38  39
HETATM   39  C3  UNL     1      -3.783  -0.779   2.801  1.00  0.00     0.002 C 
BRANCH  39  40
HETATM   40  C2  UNL     1      -4.024  -1.478   4.138  1.00  0.00    -0.004 C 
HETATM   41  C1  UNL     1      -5.394  -1.177   4.672  1.00  0.00     0.005 C 
ENDBRANCH  39  40
ENDBRANCH  38  39
ENDBRANCH   1  38
BRANCH   9  42
HETATM   42  C32 UNL     1      -3.283  -2.093  -0.255  1.00  0.00     0.315 C 
BRANCH  42  43
HETATM   43  C33 UNL     1      -4.308  -2.518  -1.236  1.00  0.00    -0.015 A 
HETATM   44  C34 UNL     1      -3.935  -2.686  -2.551  1.00  0.00     0.011 A 
HETATM   45  C35 UNL     1      -4.828  -3.079  -3.530  1.00  0.00     0.018 A 
HETATM   46  C36 UNL     1      -6.132  -3.297  -3.104  1.00  0.00     0.087 A 
HETATM   47  N8  UNL     1      -6.501  -3.137  -1.830  1.00  0.00    -0.375 N 
HETATM   48  C37 UNL     1      -5.623  -2.758  -0.912  1.00  0.00     0.096 A 
ATOM     49  H8  UNL     1      -7.470  -3.308  -1.561  1.00  0.00     0.164 HD
ENDBRANCH  42  43
ENDBRANCH   9  42
BRANCH   7  50
HETATM   50  C30 UNL     1      -3.720   2.124  -1.763  1.00  0.00     0.439 C 
BRANCH  50  51
HETATM   51  O2  UNL     1      -3.646   3.479  -1.688  1.00  0.00    -0.373 OA
ATOM     52  H2  UNL     1      -4.344   3.936  -2.142  1.00  0.00     0.211 HD
ENDBRANCH  50  51
ENDBRANCH   7  50
TORSDOF 13
