REMARK  8 active torsions:
REMARK  status: ('A' for Active; 'I' for Inactive)
REMARK    1  A    between atoms: C2_2  and  C3_3 
REMARK    2  A    between atoms: C3_3  and  O1_4 
REMARK    3  A    between atoms: O1_4  and  C4_5 
REMARK    4  A    between atoms: C4_5  and  C5_6 
REMARK    5  A    between atoms: C6_8  and  O3_9 
REMARK    6  A    between atoms: C17_22  and  C18_23 
REMARK    7  A    between atoms: C18_23  and  C19_25 
REMARK    8  A    between atoms: C20_26  and  C21_27 
ROOT
HETATM    1  C5  UNL     1       2.450   0.264   0.143  1.00  0.00     0.153 A 
HETATM    2  O2  UNL     1       2.635  -0.458   1.313  1.00  0.00    -0.332 OA
HETATM    3  C6  UNL     1       3.390  -0.836   0.105  1.00  0.00     0.202 A 
HETATM    4  C7  UNL     1       2.762  -2.039  -0.552  1.00  0.00     0.066 A 
HETATM    5  C8  UNL     1       1.354  -2.401  -0.220  1.00  0.00     0.005 A 
HETATM    6  C9  UNL     1       0.723  -3.674  -0.563  1.00  0.00     0.007 C 
HETATM    7  C10 UNL     1      -0.756  -3.716  -0.724  1.00  0.00     0.011 C 
HETATM    8  C11 UNL     1      -1.571  -3.038   0.287  1.00  0.00    -0.029 C 
HETATM    9  C12 UNL     1      -1.082  -3.158   1.703  1.00  0.00     0.016 C 
HETATM   10  C13 UNL     1      -2.997  -3.641   0.387  1.00  0.00     0.017 C 
HETATM   11  C14 UNL     1      -3.649  -2.557   1.270  1.00  0.00     0.080 C 
HETATM   12  C15 UNL     1      -2.749  -1.337   1.134  1.00  0.00     0.136 C 
HETATM   13  O4  UNL     1      -2.769  -0.450   1.955  1.00  0.00    -0.297 OA
HETATM   14  C16 UNL     1      -2.049  -1.644  -0.092  1.00  0.00     0.105 C 
HETATM   15  C17 UNL     1      -1.157  -0.754  -0.784  1.00  0.00     0.059 C 
HETATM   16  C25 UNL     1       0.001  -0.150  -0.128  1.00  0.00     0.169 C 
HETATM   17  O6  UNL     1      -0.099   0.304   0.994  1.00  0.00    -0.292 OA
HETATM   18  C26 UNL     1       1.333  -0.067  -0.797  1.00  0.00     0.112 C 
HETATM   19  C27 UNL     1       1.627  -1.454  -1.296  1.00  0.00    -0.017 A 
HETATM   20  C28 UNL     1       1.649  -1.768  -2.753  1.00  0.00     0.017 C 
ENDROOT
BRANCH  15  21
HETATM   21  C18 UNL     1      -1.928   0.209  -1.616  1.00  0.00     0.236 C 
HETATM   22  O5  UNL     1      -1.755   0.235  -2.889  1.00  0.00    -0.278 OA
BRANCH  21  23
HETATM   23  C19 UNL     1      -2.872   1.126  -1.045  1.00  0.00    -0.023 C 
HETATM   24  C20 UNL     1      -3.681   1.925  -0.583  1.00  0.00    -0.089 C 
BRANCH  24  25
HETATM   25  C21 UNL     1      -4.650   2.856  -0.018  1.00  0.00     0.013 C 
HETATM   26  C22 UNL     1      -4.469   2.932   1.466  1.00  0.00     0.028 C 
HETATM   27  C23 UNL     1      -6.075   2.454  -0.328  1.00  0.00     0.028 C 
HETATM   28  C24 UNL     1      -4.408   4.206  -0.648  1.00  0.00     0.028 C 
ENDBRANCH  24  25
ENDBRANCH  21  23
ENDBRANCH  15  21
BRANCH   1  29
HETATM   29  C4  UNL     1       3.038   1.660   0.139  1.00  0.00     0.212 C 
BRANCH  29  30
HETATM   30  O1  UNL     1       4.429   1.587   0.343  1.00  0.00    -0.388 OA
BRANCH  30  31
HETATM   31  C3  UNL     1       5.007   2.842   0.347  1.00  0.00     0.167 C 
BRANCH  31  32
HETATM   32  C2  UNL     1       6.479   2.687   0.568  1.00  0.00     0.022 C 
HETATM   33  C1  UNL     1       7.216   4.000   0.591  1.00  0.00     0.007 C 
ENDBRANCH  31  32
ENDBRANCH  30  31
ENDBRANCH  29  30
ENDBRANCH   1  29
BRANCH   3  34
HETATM   34  O3  UNL     1       4.729  -0.772   0.334  1.00  0.00    -0.362 OA
ATOM     35  H3  UNL     1       5.346  -1.494   0.309  1.00  0.00     0.213 HD
ENDBRANCH   3  34
TORSDOF 8
