REMARK  7 active torsions:
REMARK  status: ('A' for Active; 'I' for Inactive)
REMARK    1  A    between atoms: C2_2  and  C3_3 
REMARK    2  A    between atoms: C2_2  and  C15_17 
REMARK    3  A    between atoms: C3_3  and  C4_4 
REMARK    4  A    between atoms: C4_4  and  C5_5 
REMARK    5  A    between atoms: C18_21  and  C19_22 
REMARK    6  A    between atoms: C19_22  and  C20_24 
REMARK    7  A    between atoms: C27_33  and  O7_34 
ROOT
HETATM    1  C15 UNL     1      -1.166  -0.806  -0.708  1.00  0.00     0.057 C 
HETATM    2  C16 UNL     1      -1.650  -1.496   0.544  1.00  0.00     0.045 C 
HETATM    3  C17 UNL     1      -2.970  -0.828   0.868  1.00  0.00     0.132 C 
HETATM    4  O3  UNL     1      -2.764   0.531   0.978  1.00  0.00    -0.371 OA
HETATM    5  C18 UNL     1      -3.842   1.201   0.380  1.00  0.00     0.211 C 
HETATM    6  C21 UNL     1      -4.859   0.162   0.027  1.00  0.00    -0.004 C 
HETATM    7  C22 UNL     1      -5.745  -0.081   1.204  1.00  0.00     0.019 C 
HETATM    8  C23 UNL     1      -5.673   0.465  -1.184  1.00  0.00     0.019 C 
HETATM    9  C24 UNL     1      -3.938  -1.048  -0.231  1.00  0.00    -0.006 C 
HETATM   10  C25 UNL     1      -4.750  -2.318   0.036  1.00  0.00     0.019 C 
HETATM   11  C26 UNL     1      -3.460  -1.100  -1.612  1.00  0.00     0.045 C 
HETATM   12  C27 UNL     1      -1.963  -1.271  -1.831  1.00  0.00     0.128 C 
ENDROOT
BRANCH   1  13
HETATM   13  C2  UNL     1       0.336  -0.826  -0.841  1.00  0.00    -0.020 C 
HETATM   14  C1  UNL     1       0.794  -1.276  -2.048  1.00  0.00     0.028 C 
BRANCH  13  15
HETATM   15  C3  UNL     1       1.234  -0.509   0.105  1.00  0.00    -0.148 C 
BRANCH  15  16
HETATM   16  C4  UNL     1       2.119  -0.196   1.039  1.00  0.00     0.091 C 
BRANCH  16  17
HETATM   17  C5  UNL     1       3.591  -0.281   0.973  1.00  0.00     0.018 C 
HETATM   18  C6  UNL     1       4.152  -0.803  -0.313  1.00  0.00     0.058 C 
HETATM   19  C7  UNL     1       4.142  -2.308  -0.335  1.00  0.00     0.018 C 
HETATM   20  C8  UNL     1       5.556  -0.346  -0.541  1.00  0.00     0.146 C 
HETATM   21  O1  UNL     1       6.445  -1.137  -0.626  1.00  0.00    -0.296 OA
HETATM   22  C9  UNL     1       5.781   1.104  -0.655  1.00  0.00     0.074 C 
HETATM   23  C10 UNL     1       5.733   1.462  -2.148  1.00  0.00     0.031 C 
HETATM   24  C11 UNL     1       7.113   1.551  -0.124  1.00  0.00     0.031 C 
HETATM   25  C12 UNL     1       4.634   1.803   0.043  1.00  0.00     0.146 C 
HETATM   26  O2  UNL     1       4.213   2.821  -0.398  1.00  0.00    -0.296 OA
HETATM   27  C13 UNL     1       4.127   1.128   1.255  1.00  0.00     0.058 C 
HETATM   28  C14 UNL     1       5.193   1.042   2.310  1.00  0.00     0.018 C 
ENDBRANCH  16  17
ENDBRANCH  15  16
ENDBRANCH  13  15
ENDBRANCH   1  13
BRANCH  12  29
HETATM   29  O7  UNL     1      -1.808  -2.668  -1.995  1.00  0.00    -0.395 OA
ATOM     30  H7  UNL     1      -2.329  -2.972  -2.729  1.00  0.00     0.210 HD
ENDBRANCH  12  29
BRANCH   5  31
HETATM   31  C19 UNL     1      -4.286   2.231   1.331  1.00  0.00     0.254 C 
HETATM   32  O4  UNL     1      -3.757   2.254   2.505  1.00  0.00    -0.283 OA
BRANCH  31  33
HETATM   33  C20 UNL     1      -5.272   3.255   1.095  1.00  0.00     0.249 C 
HETATM   34  O5  UNL     1      -5.837   3.356  -0.006  1.00  0.00    -0.642 OA
HETATM   35  O6  UNL     1      -5.627   4.154   2.076  1.00  0.00    -0.642 OA
ENDBRANCH  31  33
ENDBRANCH   5  31
TORSDOF 7
