REMARK  6 active torsions:
REMARK  status: ('A' for Active; 'I' for Inactive)
REMARK    1  A    between atoms: C2_2  and  N1_4 
REMARK    2  A    between atoms: N1_4  and  C5_6 
REMARK    3  A    between atoms: C5_6  and  C6_7 
REMARK    4  A    between atoms: C6_7  and  C7_9 
REMARK    5  A    between atoms: C27_31  and  O4_32 
REMARK    6  A    between atoms: C28_34  and  O5_35 
ROOT
HETATM    1  C7  UNL     1       2.716  -0.997  -0.254  1.00  0.00     0.208 C 
HETATM    2  O2  UNL     1       1.459  -1.554  -0.617  1.00  0.00    -0.368 OA
HETATM    3  C8  UNL     1       0.958  -1.142   0.571  1.00  0.00     0.171 C 
HETATM    4  C9  UNL     1       1.958  -0.074   0.704  1.00  0.00     0.019 C 
HETATM    5  C10 UNL     1       2.519   0.001   2.100  1.00  0.00     0.021 C 
HETATM    6  C11 UNL     1       1.588   1.245   0.123  1.00  0.00     0.015 C 
HETATM    7  C12 UNL     1       0.388   1.176  -0.824  1.00  0.00     0.009 C 
HETATM    8  C13 UNL     1      -0.744   0.628  -0.041  1.00  0.00     0.034 C 
HETATM    9  C14 UNL     1      -2.092   0.707  -0.770  1.00  0.00    -0.030 C 
HETATM   10  C15 UNL     1      -1.994   0.261  -2.199  1.00  0.00     0.016 C 
HETATM   11  C16 UNL     1      -2.460   2.173  -0.780  1.00  0.00     0.037 C 
HETATM   12  C17 UNL     1      -3.843   2.480  -0.474  1.00  0.00    -0.022 C 
HETATM   13  C18 UNL     1      -4.818   1.603  -0.225  1.00  0.00    -0.068 C 
HETATM   14  C19 UNL     1      -6.194   2.091   0.073  1.00  0.00     0.113 C 
HETATM   15  C20 UNL     1      -7.089   1.095   0.677  1.00  0.00     0.130 C 
HETATM   16  O3  UNL     1      -8.176   1.449   1.142  1.00  0.00    -0.298 OA
HETATM   17  C21 UNL     1      -6.750  -0.351   0.763  1.00  0.00     0.079 C 
HETATM   18  C22 UNL     1      -5.277  -0.567   0.840  1.00  0.00     0.021 C 
HETATM   19  C23 UNL     1      -4.522   0.176  -0.260  1.00  0.00    -0.016 C 
HETATM   20  C24 UNL     1      -5.023  -0.386  -1.558  1.00  0.00     0.020 C 
HETATM   21  C25 UNL     1      -3.071  -0.078   0.032  1.00  0.00     0.009 C 
HETATM   22  C26 UNL     1      -2.736  -1.531   0.064  1.00  0.00     0.041 C 
HETATM   23  C27 UNL     1      -1.280  -1.832  -0.036  1.00  0.00     0.156 C 
HETATM   24  C28 UNL     1      -0.479  -0.686   0.601  1.00  0.00     0.115 C 
ENDROOT
BRANCH   1  25
HETATM   25  C6  UNL     1       3.629  -1.951   0.363  1.00  0.00     0.194 C 
HETATM   26  O1  UNL     1       3.093  -3.052   0.692  1.00  0.00    -0.289 OA
BRANCH  25  27
HETATM   27  C5  UNL     1       5.057  -1.770   0.630  1.00  0.00     0.138 C 
BRANCH  27  28
HETATM   28  N1  UNL     1       5.832  -0.880  -0.115  1.00  0.00    -0.387 N 
HETATM   29  C4  UNL     1       7.225  -1.331  -0.230  1.00  0.00     0.149 C 
BRANCH  28  30
HETATM   30  C2  UNL     1       5.718   0.512  -0.023  1.00  0.00     0.075 C 
HETATM   31  C1  UNL     1       6.323   1.108  -1.316  1.00  0.00     0.032 C 
HETATM   32  C3  UNL     1       6.421   1.182   1.126  1.00  0.00     0.032 C 
ENDBRANCH  28  30
ENDBRANCH  27  28
ENDBRANCH  25  27
ENDBRANCH   1  25
BRANCH  24  33
HETATM   33  O5  UNL     1      -0.847  -0.693   1.954  1.00  0.00    -0.384 OA
ATOM     34  H5  UNL     1      -1.752  -0.406   1.973  1.00  0.00     0.210 HD
ENDBRANCH  24  33
BRANCH  23  35
HETATM   35  O4  UNL     1      -1.001  -2.953   0.778  1.00  0.00    -0.392 OA
ATOM     36  H4  UNL     1      -0.073  -3.145   0.714  1.00  0.00     0.210 HD
ENDBRANCH  23  35
TORSDOF 6
