REMARK  6 active torsions:
REMARK  status: ('A' for Active; 'I' for Inactive)
REMARK    1  A    between atoms: C2_2  and  C3_3 
REMARK    2  A    between atoms: C3_3  and  C4_4 
REMARK    3  A    between atoms: C7_9  and  C8_10 
REMARK    4  A    between atoms: C24_28  and  O5_29 
REMARK    5  A    between atoms: C24_28  and  C25_31 
REMARK    6  A    between atoms: C25_31  and  O6_34 
ROOT
HETATM    1  C8  UNL     1       2.055   0.626  -0.419  1.00  0.00     0.010 C 
HETATM    2  C9  UNL     1       0.844   0.438   0.046  1.00  0.00    -0.072 C 
HETATM    3  C10 UNL     1      -0.079   1.663   0.166  1.00  0.00     0.011 C 
HETATM    4  C11 UNL     1       0.548   2.920  -0.222  1.00  0.00     0.015 C 
HETATM    5  C12 UNL     1      -1.394   1.430  -0.553  1.00  0.00     0.017 C 
HETATM    6  C13 UNL     1      -2.082   0.289   0.125  1.00  0.00     0.041 C 
HETATM    7  C14 UNL     1      -1.262  -0.939  -0.106  1.00  0.00     0.046 C 
HETATM    8  C15 UNL     1      -1.070  -1.357  -1.462  1.00  0.00     0.204 C 
HETATM    9  O3  UNL     1      -1.596  -0.937  -2.528  1.00  0.00    -0.288 OA
HETATM   10  C16 UNL     1      -0.109  -2.458  -1.718  1.00  0.00     0.196 C 
HETATM   11  O4  UNL     1      -0.001  -3.024  -2.834  1.00  0.00    -0.289 OA
HETATM   12  C17 UNL     1       0.758  -2.920  -0.637  1.00  0.00     0.092 C 
HETATM   13  C18 UNL     1       0.648  -2.067   0.562  1.00  0.00     0.003 C 
HETATM   14  C19 UNL     1      -0.533  -2.729   1.347  1.00  0.00     0.011 C 
HETATM   15  C20 UNL     1      -1.730  -1.958   0.904  1.00  0.00     0.003 C 
HETATM   16  C21 UNL     1      -2.941  -2.702   0.541  1.00  0.00     0.006 C 
HETATM   17  C22 UNL     1      -4.183  -2.041   1.085  1.00  0.00     0.004 C 
HETATM   18  C23 UNL     1      -4.095  -0.552   1.243  1.00  0.00     0.041 C 
HETATM   19  C24 UNL     1      -3.534   0.127  -0.022  1.00  0.00     0.093 C 
HETATM   20  C28 UNL     1       0.131  -0.717   0.507  1.00  0.00     0.036 C 
ENDROOT
BRANCH   1  21
HETATM   21  C7  UNL     1       3.161  -0.274  -0.658  1.00  0.00     0.173 C 
HETATM   22  C4  UNL     1       4.507   0.331  -0.991  1.00  0.00     0.074 C 
HETATM   23  C5  UNL     1       5.477  -0.766  -1.293  1.00  0.00     0.029 C 
HETATM   24  C6  UNL     1       3.735   0.634  -2.252  1.00  0.00     0.270 C 
HETATM   25  O1  UNL     1       3.685   1.608  -3.031  1.00  0.00    -0.264 OA
HETATM   26  O2  UNL     1       3.192  -0.638  -2.053  1.00  0.00    -0.310 OA
BRANCH  22  27
HETATM   27  C3  UNL     1       4.969   1.487  -0.240  1.00  0.00     0.022 C 
BRANCH  27  28
HETATM   28  C2  UNL     1       5.474   1.221   1.120  1.00  0.00    -0.003 C 
HETATM   29  C1  UNL     1       6.675   0.330   1.250  1.00  0.00     0.005 C 
ENDBRANCH  27  28
ENDBRANCH  22  27
ENDBRANCH   1  21
BRANCH  19  30
HETATM   30  O5  UNL     1      -3.976  -0.732  -1.038  1.00  0.00    -0.386 OA
ATOM     31  H5  UNL     1      -4.915  -0.837  -1.133  1.00  0.00     0.210 HD
ENDBRANCH  19  30
BRANCH  19  32
HETATM   32  C25 UNL     1      -4.341   1.368  -0.216  1.00  0.00     0.082 C 
HETATM   33  C26 UNL     1      -4.256   1.966  -1.592  1.00  0.00     0.049 C 
HETATM   34  C27 UNL     1      -4.169   2.385   0.898  1.00  0.00     0.049 C 
BRANCH  32  35
HETATM   35  O6  UNL     1      -5.698   0.957  -0.090  1.00  0.00    -0.388 OA
ATOM     36  H6  UNL     1      -6.212   1.747  -0.213  1.00  0.00     0.210 HD
ENDBRANCH  32  35
ENDBRANCH  19  32
TORSDOF 6
