REMARK  9 active torsions:
REMARK  status: ('A' for Active; 'I' for Inactive)
REMARK    1  A    between atoms: C2_2  and  O1_3 
REMARK    2  A    between atoms: O1_3  and  C3_4 
REMARK    3  A    between atoms: C3_4  and  C4_6 
REMARK    4  A    between atoms: C4_6  and  O3_7 
REMARK    5  A    between atoms: O3_7  and  N1_8 
REMARK    6  A    between atoms: N1_8  and  C5_10 
REMARK    7  A    between atoms: C8_13  and  O4_14 
REMARK    8  A    between atoms: C13_20  and  C14_22 
REMARK    9  A    between atoms: C15_31  and  N4_32 
ROOT
HETATM    1  C5  UNL     1       0.123   0.267  -0.048  1.00  0.00     0.078 C 
HETATM    2  C6  UNL     1      -1.226   0.751  -0.331  1.00  0.00     0.101 C 
HETATM    3  C7  UNL     1      -2.389  -0.135  -0.096  1.00  0.00     0.182 C 
HETATM    4  C8  UNL     1      -3.350   0.671   0.715  1.00  0.00     0.073 C 
HETATM    5  C10 UNL     1      -4.563   0.345   0.353  1.00  0.00     0.030 C 
HETATM    6  C11 UNL     1      -4.571  -0.686  -0.713  1.00  0.00     0.169 C 
HETATM    7  C12 UNL     1      -5.571  -0.313  -1.721  1.00  0.00     0.071 C 
HETATM    8  N2  UNL     1      -6.356  -0.023  -2.513  1.00  0.00    -0.196 NA
HETATM    9  C13 UNL     1      -3.191  -0.455  -1.285  1.00  0.00     0.248 C 
HETATM   10  F1  UNL     1      -3.322   0.759  -1.995  1.00  0.00    -0.229 F 
HETATM   11  S1  UNL     1      -2.023  -1.493   0.967  1.00  0.00     0.251 S 
HETATM   12  O5  UNL     1      -3.035  -2.547   1.037  1.00  0.00    -0.204 OA
HETATM   13  O6  UNL     1      -1.848  -0.935   2.374  1.00  0.00    -0.204 OA
HETATM   14  N3  UNL     1      -0.438  -2.080   0.536  1.00  0.00    -0.268 N 
ATOM     15  H3  UNL     1      -0.209  -3.074   0.569  1.00  0.00     0.180 HD
HETATM   16  C15 UNL     1       0.518  -1.111   0.138  1.00  0.00     0.133 C 
ENDROOT
BRANCH   9  17
HETATM   17  C14 UNL     1      -2.770  -1.453  -2.262  1.00  0.00     0.427 C 
HETATM   18  F2  UNL     1      -1.561  -1.135  -2.849  1.00  0.00    -0.167 F 
HETATM   19  F3  UNL     1      -2.814  -2.766  -1.850  1.00  0.00    -0.167 F 
HETATM   20  F4  UNL     1      -3.695  -1.390  -3.324  1.00  0.00    -0.167 F 
ENDBRANCH   9  17
BRANCH   4  21
HETATM   21  O4  UNL     1      -3.033   1.617   1.696  1.00  0.00    -0.358 OA
HETATM   22  C9  UNL     1      -3.948   2.035   2.664  1.00  0.00     0.209 C 
ENDBRANCH   4  21
BRANCH   1  23
HETATM   23  N1  UNL     1       1.043   1.165   0.040  1.00  0.00    -0.267 N 
ATOM     24  H1  UNL     1       0.794   2.146  -0.088  1.00  0.00     0.194 HD
BRANCH  23  25
HETATM   25  O3  UNL     1       2.313   0.844   0.295  1.00  0.00    -0.270 OA
BRANCH  25  26
HETATM   26  C4  UNL     1       3.464   1.402  -0.278  1.00  0.00     0.312 C 
BRANCH  26  27
HETATM   27  C3  UNL     1       4.725   0.841   0.219  1.00  0.00     0.285 C 
HETATM   28  O2  UNL     1       4.759  -0.052   1.087  1.00  0.00    -0.263 OA
BRANCH  27  29
HETATM   29  O1  UNL     1       5.921   1.309  -0.280  1.00  0.00    -0.320 OA
BRANCH  29  30
HETATM   30  C2  UNL     1       7.178   0.817   0.152  1.00  0.00     0.174 C 
HETATM   31  C1  UNL     1       7.335  -0.659  -0.101  1.00  0.00     0.034 C 
ENDBRANCH  29  30
ENDBRANCH  27  29
ENDBRANCH  26  27
ENDBRANCH  25  26
ENDBRANCH  23  25
ENDBRANCH   1  23
BRANCH  16  32
HETATM   32  N4  UNL     1       1.722  -1.456  -0.059  1.00  0.00    -0.383 N 
ATOM     33  H42 UNL     1       2.410  -0.759  -0.345  1.00  0.00     0.157 HD
ATOM     34  H41 UNL     1       2.001  -2.428   0.072  1.00  0.00     0.157 HD
ENDBRANCH  16  32
TORSDOF 9
