REMARK  5 active torsions:
REMARK  status: ('A' for Active; 'I' for Inactive)
REMARK    1  A    between atoms: N2_5  and  C3_6 
REMARK    2  A    between atoms: N3_11  and  C5_12 
REMARK    3  A    between atoms: C7_14  and  C8_15 
REMARK    4  A    between atoms: C15_25  and  C16_26 
REMARK       I    between atoms: N4_27  and  C17_29 
REMARK    5  A    between atoms: N6_31  and  O4_33 
ROOT
HETATM    1  C5  UNL     1      -0.263   0.791  -0.524  1.00  0.00     0.253 C 
HETATM    2  C6  UNL     1      -1.375  -0.122  -0.059  1.00  0.00     0.070 C 
HETATM    3  C7  UNL     1      -1.121  -1.468  -0.750  1.00  0.00     0.083 C 
HETATM    4  C14 UNL     1       0.113  -2.057  -0.131  1.00  0.00     0.319 C 
HETATM    5  F4  UNL     1       0.268  -1.667   1.180  1.00  0.00    -0.219 F 
HETATM    6  O3  UNL     1       1.274  -1.777  -0.818  1.00  0.00    -0.321 OA
HETATM    7  C15 UNL     1       1.600  -0.440  -0.873  1.00  0.00     0.305 C 
HETATM    8  O5  UNL     1       0.911   0.339   0.028  1.00  0.00    -0.330 OA
ENDROOT
BRANCH   1   9
HETATM    9  N3  UNL     1      -0.534   2.179  -0.242  1.00  0.00    -0.206 N 
HETATM   10  N1  UNL     1       0.042   2.951   0.667  1.00  0.00    -0.238 N 
HETATM   11  C1  UNL     1       1.085   2.582   1.599  1.00  0.00     0.183 C 
HETATM   12  C2  UNL     1      -0.535   4.165   0.561  1.00  0.00     0.351 A 
HETATM   13  O1  UNL     1      -0.256   5.187   1.264  1.00  0.00    -0.245 OA
HETATM   14  N2  UNL     1      -1.463   4.174  -0.397  1.00  0.00    -0.189 N 
HETATM   15  C4  UNL     1      -1.455   2.907  -0.902  1.00  0.00     0.354 A 
HETATM   16  O2  UNL     1      -2.218   2.552  -1.836  1.00  0.00    -0.244 OA
BRANCH  14  17
HETATM   17  C3  UNL     1      -2.314   5.272  -0.833  1.00  0.00     0.472 C 
HETATM   18  F1  UNL     1      -1.598   6.436  -1.008  1.00  0.00    -0.190 F 
HETATM   19  F2  UNL     1      -3.342   5.490   0.052  1.00  0.00    -0.190 F 
ENDBRANCH  14  17
ENDBRANCH   1   9
BRANCH   3  20
HETATM   20  C8  UNL     1      -2.278  -2.371  -0.552  1.00  0.00    -0.049 A 
HETATM   21  C9  UNL     1      -2.963  -2.837  -1.650  1.00  0.00     0.011 A 
HETATM   22  C10 UNL     1      -4.031  -3.667  -1.524  1.00  0.00     0.043 A 
HETATM   23  C11 UNL     1      -4.463  -4.068  -0.287  1.00  0.00     0.116 A 
HETATM   24  F3  UNL     1      -5.530  -4.896  -0.187  1.00  0.00    -0.206 F 
HETATM   25  C12 UNL     1      -3.788  -3.610   0.819  1.00  0.00     0.043 A 
HETATM   26  C13 UNL     1      -2.704  -2.768   0.705  1.00  0.00     0.011 A 
ENDBRANCH   3  20
BRANCH   7  27
HETATM   27  C16 UNL     1       3.044  -0.311  -0.577  1.00  0.00     0.123 C 
HETATM   28  N4  UNL     1       3.582  -1.168   0.204  1.00  0.00    -0.338 N 
HETATM   29  C17 UNL     1       4.955  -1.166   0.575  1.00  0.00     0.211 C 
ATOM     30  H4  UNL     1       2.987  -1.903   0.587  1.00  0.00     0.167 HD
HETATM   31  N5  UNL     1       5.722  -2.354   0.663  1.00  0.00    -0.061 NA
HETATM   32  N6  UNL     1       5.479  -0.011   0.832  1.00  0.00    -0.241 N 
ATOM     33  H6  UNL     1       4.919   0.839   0.766  1.00  0.00     0.197 HD
BRANCH  32  34
HETATM   34  O4  UNL     1       6.812   0.050   1.198  1.00  0.00    -0.287 OA
ATOM     35  H4  UNL     1       7.197   0.898   1.387  1.00  0.00     0.244 HD
ENDBRANCH  32  34
ENDBRANCH   7  27
TORSDOF 5
