REMARK  1 active torsions:
REMARK  status: ('A' for Active; 'I' for Inactive)
REMARK    1  A    between atoms: C2_2  and  C3_3 
ROOT
HETATM    1  C3  UNL     1       0.535  -0.198   0.229  1.00  0.00     0.099 C 
HETATM    2  C4  UNL     1       0.237  -1.491   0.907  1.00  0.00     0.042 C 
HETATM    3  C5  UNL     1      -1.248  -1.683   1.089  1.00  0.00     0.030 C 
HETATM    4  C6  UNL     1      -2.063  -1.254  -0.079  1.00  0.00     0.233 C 
HETATM    5  N1  UNL     1      -1.676   0.035  -0.624  1.00  0.00    -0.066 N 
ATOM      6  H11 UNL     1      -2.476   0.638  -0.816  1.00  0.00     0.277 HD
ATOM      7  H12 UNL     1      -1.322  -0.031  -1.578  1.00  0.00     0.277 HD
HETATM    8  C7  UNL     1      -0.746   0.628   0.265  1.00  0.00     0.246 C 
HETATM    9  C8  UNL     1      -0.245   1.974  -0.114  1.00  0.00     0.200 C 
HETATM   10  C9  UNL     1      -1.048   3.041   0.447  1.00  0.00     0.074 C 
HETATM   11  N2  UNL     1      -1.681   3.901   0.878  1.00  0.00    -0.196 NA
HETATM   12  C10 UNL     1       1.134   1.947   0.465  1.00  0.00     0.132 C 
HETATM   13  N3  UNL     1       1.917   2.969   0.544  1.00  0.00    -0.382 N 
ATOM     14  H31 UNL     1       2.857   2.951   0.939  1.00  0.00     0.158 HD
ATOM     15  H32 UNL     1       1.709   3.917   0.229  1.00  0.00     0.158 HD
HETATM   16  O1  UNL     1       1.422   0.636   0.901  1.00  0.00    -0.325 OA
ENDROOT
BRANCH   1  17
HETATM   17  C2  UNL     1       1.008  -0.427  -1.184  1.00  0.00     0.036 C 
HETATM   18  C1  UNL     1       2.265  -1.268  -1.122  1.00  0.00     0.008 C 
ENDBRANCH   1  17
TORSDOF 1
