REMARK  2 active torsions:
REMARK  status: ('A' for Active; 'I' for Inactive)
REMARK    1  A    between atoms: O1_2  and  N1_3 
REMARK    2  A    between atoms: C10_13  and  O2_14 
ROOT
HETATM    1  N1  UNL     1       2.288  -0.708   0.283  1.00  0.00    -0.275 N 
ATOM      2  H1  UNL     1       2.642  -1.664   0.331  1.00  0.00     0.193 HD
HETATM    3  C2  UNL     1       1.012  -0.539   0.336  1.00  0.00     0.016 C 
HETATM    4  C3  UNL     1       0.119  -1.686   0.461  1.00  0.00     0.056 C 
HETATM    5  C4  UNL     1      -1.271  -1.445  -0.061  1.00  0.00     0.017 C 
HETATM    6  C5  UNL     1      -1.684  -0.017  -0.067  1.00  0.00    -0.017 C 
HETATM    7  C6  UNL     1      -3.150   0.191   0.220  1.00  0.00     0.018 C 
HETATM    8  C7  UNL     1      -1.287   0.618  -1.395  1.00  0.00     0.012 C 
HETATM    9  C8  UNL     1       0.126   1.097  -1.196  1.00  0.00     0.014 C 
HETATM   10  C9  UNL     1       0.467   0.826   0.269  1.00  0.00     0.063 C 
HETATM   11  C10 UNL     1      -0.908   0.846   0.907  1.00  0.00     0.136 C 
ENDROOT
BRANCH   1  12
HETATM   12  O1  UNL     1       3.194   0.293   0.168  1.00  0.00    -0.285 OA
HETATM   13  C1  UNL     1       4.545  -0.085  -0.133  1.00  0.00     0.237 C 
ENDBRANCH   1  12
BRANCH  11  14
HETATM   14  O2  UNL     1      -0.915   0.352   2.188  1.00  0.00    -0.394 OA
ATOM     15  H2  UNL     1      -0.428   0.893   2.799  1.00  0.00     0.210 HD
ENDBRANCH  11  14
TORSDOF 2
