REMARK  1 active torsions:
REMARK  status: ('A' for Active; 'I' for Inactive)
REMARK       I    between atoms: C2_5  and  N3_6 
REMARK       I    between atoms: C2_5  and  N5_10 
REMARK    1  A    between atoms: N5_10  and  C4_12 
ROOT
HETATM    1  N1  UNL     1       3.030  -3.148   1.141  1.00  0.00    -0.171 NA
HETATM    2  C1  UNL     1       3.147  -2.140   0.556  1.00  0.00     0.196 C 
HETATM    3  N2  UNL     1       3.303  -0.944  -0.155  1.00  0.00    -0.125 N 
ATOM      4  H2  UNL     1       4.096  -0.835  -0.787  1.00  0.00     0.197 HD
HETATM    5  C2  UNL     1       2.470   0.010  -0.024  1.00  0.00     0.696 C 
HETATM    6  N3  UNL     1       2.685   1.197  -0.773  1.00  0.00    -0.125 N 
ATOM      7  H3  UNL     1       2.856   1.147  -1.777  1.00  0.00     0.197 HD
HETATM    8  C3  UNL     1       2.660   2.436  -0.122  1.00  0.00     0.196 C 
HETATM    9  N4  UNL     1       2.638   3.485   0.408  1.00  0.00    -0.171 NA
HETATM   10  N5  UNL     1       1.328  -0.021   0.824  1.00  0.00    -0.220 N 
ATOM     11  H5  UNL     1       1.436  -0.272   1.807  1.00  0.00     0.178 HD
ENDROOT
BRANCH  10  12
HETATM   12  C4  UNL     1       0.015   0.300   0.308  1.00  0.00     0.099 C 
HETATM   13  C5  UNL     1      -0.339  -0.664  -0.798  1.00  0.00     0.026 C 
HETATM   14  C6  UNL     1      -1.755  -1.109  -0.780  1.00  0.00     0.002 C 
HETATM   15  C7  UNL     1      -2.738  -0.087  -0.333  1.00  0.00     0.000 C 
HETATM   16  C8  UNL     1      -2.351   0.663   0.894  1.00  0.00     0.002 C 
HETATM   17  C9  UNL     1      -0.979   0.316   1.415  1.00  0.00     0.026 C 
ENDBRANCH  10  12
TORSDOF 1
