REMARK  13 active torsions:
REMARK  status: ('A' for Active; 'I' for Inactive)
REMARK    1  A    between atoms: O1_2  and  C2_3 
REMARK    2  A    between atoms: C2_3  and  O3_5 
REMARK    3  A    between atoms: O3_5  and  C3_6 
REMARK    4  A    between atoms: C3_6  and  C4_7 
REMARK    5  A    between atoms: C3_6  and  C12_27 
REMARK       I    between atoms: C4_7  and  N1_9 
REMARK    6  A    between atoms: C5_11  and  C6_12 
REMARK    7  A    between atoms: N3_16  and  O5_18 
REMARK    8  A    between atoms: N4_20  and  C8_21 
REMARK    9  A    between atoms: C11_24  and  O6_25 
REMARK   10  A    between atoms: C12_27  and  O7_28 
REMARK   11  A    between atoms: C12_27  and  C13_30 
REMARK   12  A    between atoms: C13_30  and  O8_31 
REMARK   13  A    between atoms: C13_30  and  O9_33 
ROOT
HETATM    1  C4  UNL     1       1.221   1.605  -0.110  1.00  0.00     0.254 C 
HETATM    2  O4  UNL     1       0.961   2.766  -0.583  1.00  0.00    -0.270 OA
HETATM    3  N1  UNL     1       0.760   1.229   1.089  1.00  0.00    -0.333 N 
ATOM      4  H1  UNL     1       1.529   1.455   1.720  1.00  0.00     0.168 HD
HETATM    5  C5  UNL     1      -0.080   0.765   1.823  1.00  0.00     0.125 C 
ENDROOT
BRANCH   1   6
HETATM    6  C3  UNL     1       2.061   0.667  -0.932  1.00  0.00     0.259 C 
BRANCH   6   7
HETATM    7  O3  UNL     1       2.240  -0.557  -0.253  1.00  0.00    -0.280 OA
BRANCH   7   8
HETATM    8  C2  UNL     1       1.755  -1.763  -0.742  1.00  0.00     0.406 C 
HETATM    9  O2  UNL     1       1.128  -1.771  -1.838  1.00  0.00    -0.229 OA
BRANCH   8  10
HETATM   10  O1  UNL     1       1.936  -2.965  -0.066  1.00  0.00    -0.303 OA
HETATM   11  C1  UNL     1       1.443  -4.197  -0.561  1.00  0.00     0.215 C 
ENDBRANCH   8  10
ENDBRANCH   7   8
ENDBRANCH   6   7
BRANCH   6  12
HETATM   12  C12 UNL     1       3.362   1.314  -1.331  1.00  0.00     0.212 C 
BRANCH  12  13
HETATM   13  O7  UNL     1       3.066   2.496  -1.983  1.00  0.00    -0.388 OA
ATOM     14  H7  UNL     1       3.886   2.904  -2.235  1.00  0.00     0.210 HD
ENDBRANCH  12  13
BRANCH  12  15
HETATM   15  C13 UNL     1       4.250   1.610  -0.150  1.00  0.00     0.287 C 
BRANCH  15  16
HETATM   16  O8  UNL     1       4.561   0.410   0.527  1.00  0.00    -0.369 OA
ATOM     17  H8  UNL     1       5.121   0.597   1.272  1.00  0.00     0.212 HD
ENDBRANCH  15  16
BRANCH  15  18
HETATM   18  O9  UNL     1       5.456   2.104  -0.637  1.00  0.00    -0.364 OA
HETATM   19  C14 UNL     1       5.778   3.327  -0.045  1.00  0.00     0.204 C 
ENDBRANCH  15  18
ENDBRANCH  12  15
ENDBRANCH   6  12
ENDBRANCH   1   6
BRANCH   5  20
HETATM   20  C6  UNL     1      -1.394   0.264   1.490  1.00  0.00     0.116 A 
HETATM   21  N2  UNL     1      -2.274  -0.242   2.386  1.00  0.00    -0.184 N 
HETATM   22  C7  UNL     1      -3.393  -0.614   1.744  1.00  0.00     0.707 A 
ATOM     23  H2  UNL     1      -2.112  -0.327   3.390  1.00  0.00     0.184 HD
HETATM   24  N3  UNL     1      -4.437  -1.138   2.310  1.00  0.00    -0.098 N 
HETATM   25  N4  UNL     1      -3.213  -0.342   0.445  1.00  0.00    -0.154 N 
ATOM     26  H3  UNL     1      -5.249  -1.394   1.748  1.00  0.00     0.213 HD
HETATM   27  C11 UNL     1      -1.990   0.196   0.285  1.00  0.00     0.187 A 
BRANCH  24  28
HETATM   28  O5  UNL     1      -4.445  -1.347   3.666  1.00  0.00    -0.276 OA
ATOM     29  H5  UNL     1      -5.209  -1.731   4.080  1.00  0.00     0.245 HD
ENDBRANCH  24  28
BRANCH  25  30
HETATM   30  C8  UNL     1      -4.216  -0.608  -0.579  1.00  0.00     0.102 C 
HETATM   31  C9  UNL     1      -4.427  -2.108  -0.744  1.00  0.00     0.033 C 
HETATM   32  C10 UNL     1      -5.550  -0.003  -0.207  1.00  0.00     0.033 C 
ENDBRANCH  25  30
BRANCH  27  33
HETATM   33  O6  UNL     1      -1.535   0.578  -0.969  1.00  0.00    -0.344 OA
ATOM     34  H6  UNL     1      -1.956   0.530  -1.819  1.00  0.00     0.219 HD
ENDBRANCH  27  33
ENDBRANCH   5  20
TORSDOF 13
