REMARK  11 active torsions:
REMARK  status: ('A' for Active; 'I' for Inactive)
REMARK    1  A    between atoms: C2_2  and  C7_21 
REMARK    2  A    between atoms: N1_3  and  N2_5 
REMARK    3  A    between atoms: N2_5  and  C3_7 
REMARK    4  A    between atoms: C4_10  and  N4_11 
REMARK    5  A    between atoms: C6_17  and  N6_18 
REMARK    6  A    between atoms: N8_27  and  C10_28 
REMARK    7  A    between atoms: C10_28  and  C12_31 
REMARK    8  A    between atoms: C12_31  and  O3_32 
REMARK    9  A    between atoms: C12_31  and  C13_34 
REMARK   10  A    between atoms: C13_34  and  N10_35 
REMARK   11  A    between atoms: N10_35  and  N11_36 
ROOT
HETATM    1  C10 UNL     1      -1.837   0.758   0.245  1.00  0.00     0.366 C 
HETATM    2  C11 UNL     1      -1.875  -0.494   1.051  1.00  0.00     0.098 C 
HETATM    3  N9  UNL     1      -1.910  -1.456   1.697  1.00  0.00    -0.195 NA
ENDROOT
BRANCH   1   4
HETATM    4  N8  UNL     1      -2.108   0.431  -1.100  1.00  0.00     0.147 N 
HETATM    5  C7  UNL     1      -1.235  -0.389  -1.827  1.00  0.00     0.467 C 
HETATM    6  N7  UNL     1      -1.748  -1.745  -1.822  1.00  0.00    -0.036 N 
HETATM    7  C8  UNL     1      -3.165  -1.581  -1.845  1.00  0.00     0.265 C 
ATOM      8  H72 UNL     1      -1.382  -2.334  -2.570  1.00  0.00     0.280 HD
ATOM      9  H71 UNL     1      -1.405  -2.319  -1.052  1.00  0.00     0.280 HD
HETATM   10  C9  UNL     1      -3.397  -0.188  -1.278  1.00  0.00     0.305 C 
BRANCH   5  11
HETATM   11  C2  UNL     1       0.201  -0.324  -1.540  1.00  0.00     0.060 C 
HETATM   12  C1  UNL     1       0.903   0.967  -1.550  1.00  0.00     0.069 C 
HETATM   13  N1  UNL     1       0.837  -1.390  -1.289  1.00  0.00    -0.304 N 
ATOM     14  H1  UNL     1       0.340  -2.280  -1.286  1.00  0.00     0.186 HD
BRANCH  13  15
HETATM   15  N2  UNL     1       2.185  -1.370  -1.020  1.00  0.00    -0.283 N 
ATOM     16  H2  UNL     1       2.784  -1.488  -1.837  1.00  0.00     0.188 HD
BRANCH  15  17
HETATM   17  C3  UNL     1       2.801  -1.231   0.065  1.00  0.00     0.170 A 
HETATM   18  N3  UNL     1       2.244  -1.059   1.276  1.00  0.00    -0.173 N 
HETATM   19  C4  UNL     1       2.976  -0.923   2.411  1.00  0.00     0.677 A 
ATOM     20  H3  UNL     1       1.227  -1.029   1.345  1.00  0.00     0.186 HD
HETATM   21  N5  UNL     1       4.310  -0.962   2.322  1.00  0.00    -0.200 N 
HETATM   22  C5  UNL     1       4.964  -1.129   1.159  1.00  0.00     0.146 A 
ATOM     23  H5  UNL     1       4.857  -0.860   3.177  1.00  0.00     0.183 HD
HETATM   24  C6  UNL     1       4.193  -1.264   0.020  1.00  0.00     0.164 A 
BRANCH  19  25
HETATM   25  N4  UNL     1       2.356  -0.754   3.546  1.00  0.00    -0.234 N 
ATOM     26  H42 UNL     1       1.339  -0.724   3.614  1.00  0.00     0.174 HD
ATOM     27  H41 UNL     1       2.906  -0.652   4.399  1.00  0.00     0.174 HD
ENDBRANCH  19  25
BRANCH  24  28
HETATM   28  N6  UNL     1       4.842  -1.444  -1.217  1.00  0.00    -0.110 N 
HETATM   29  O1  UNL     1       5.959  -1.969  -1.250  1.00  0.00    -0.532 OA
HETATM   30  O2  UNL     1       4.244  -1.044  -2.371  1.00  0.00    -0.532 OA
ENDBRANCH  24  28
ENDBRANCH  15  17
ENDBRANCH  13  15
ENDBRANCH   5  11
ENDBRANCH   1   4
BRANCH   1  31
HETATM   31  C12 UNL     1      -2.887   1.677   0.795  1.00  0.00     0.219 C 
BRANCH  31  32
HETATM   32  O3  UNL     1      -2.545   1.984   2.137  1.00  0.00    -0.386 OA
ATOM     33  H3  UNL     1      -3.210   2.566   2.485  1.00  0.00     0.210 HD
ENDBRANCH  31  32
BRANCH  31  34
HETATM   34  C13 UNL     1      -3.063   2.939   0.020  1.00  0.00     0.215 C 
BRANCH  34  35
HETATM   35  N10 UNL     1      -1.925   3.750  -0.025  1.00  0.00    -0.347 NA
BRANCH  35  36
HETATM   36  N11 UNL     1      -1.005   4.398  -0.042  1.00  0.00    -0.281 N 
ATOM     37 2H11 UNL     1      -1.487   3.798   0.628  1.00  0.00     0.191 HD
ATOM     38 1H11 UNL     1      -0.175   4.990  -0.075  1.00  0.00     0.191 HD
ENDBRANCH  35  36
ENDBRANCH  34  35
ENDBRANCH  31  34
ENDBRANCH   1  31
TORSDOF 11
