REMARK  8 active torsions:
REMARK  status: ('A' for Active; 'I' for Inactive)
REMARK    1  A    between atoms: O1_2  and  N1_3 
REMARK    2  A    between atoms: C2_5  and  C3_6 
REMARK    3  A    between atoms: C2_5  and  C8_20 
REMARK    4  A    between atoms: C3_6  and  C4_7 
REMARK    5  A    between atoms: C6_14  and  N4_15 
REMARK       I    between atoms: C8_20  and  N6_22 
REMARK    6  A    between atoms: N6_22  and  N7_24 
REMARK    7  A    between atoms: C9_26  and  C10_27 
REMARK    8  A    between atoms: C13_30  and  N8_31 
ROOT
HETATM    1  N1  UNL     1      -1.161   1.864  -0.938  1.00  0.00    -0.266 N 
ATOM      2  H1  UNL     1      -2.129   1.544  -0.925  1.00  0.00     0.194 HD
HETATM    3  C2  UNL     1      -0.237   0.993  -0.767  1.00  0.00     0.106 C 
ENDROOT
BRANCH   3   4
HETATM    4  C3  UNL     1      -0.565  -0.424  -0.558  1.00  0.00     0.124 C 
BRANCH   4   5
HETATM    5  C4  UNL     1      -2.019  -0.691  -0.577  1.00  0.00     0.047 A 
HETATM    6  N2  UNL     1      -2.735  -0.910   0.539  1.00  0.00    -0.310 N 
HETATM    7  C5  UNL     1      -4.045  -1.151   0.539  1.00  0.00     0.326 A 
ATOM      8  H2  UNL     1      -2.249  -0.891   1.435  1.00  0.00     0.170 HD
HETATM    9  O2  UNL     1      -4.644  -1.348   1.647  1.00  0.00    -0.247 OA
HETATM   10  N3  UNL     1      -4.699  -1.178  -0.637  1.00  0.00    -0.293 N 
HETATM   11  C6  UNL     1      -4.070  -0.971  -1.800  1.00  0.00     0.129 A 
ATOM     12  H3  UNL     1      -5.702  -1.361  -0.642  1.00  0.00     0.172 HD
HETATM   13  C7  UNL     1      -2.709  -0.723  -1.778  1.00  0.00     0.113 A 
HETATM   14  N5  UNL     1      -2.072  -0.508  -3.022  1.00  0.00    -0.096 NA
BRANCH  11  15
HETATM   15  N4  UNL     1      -4.735  -1.005  -2.913  1.00  0.00    -0.384 N 
ATOM     16  H42 UNL     1      -5.738  -1.188  -2.929  1.00  0.00     0.157 HD
ATOM     17  H41 UNL     1      -4.256  -0.847  -3.799  1.00  0.00     0.157 HD
ENDBRANCH  11  15
ENDBRANCH   4   5
ENDBRANCH   3   4
BRANCH   3  18
HETATM   18  C8  UNL     1       1.147   1.417  -0.778  1.00  0.00     0.284 C 
HETATM   19  O3  UNL     1       1.419   2.654  -0.957  1.00  0.00    -0.265 OA
HETATM   20  N6  UNL     1       2.231   0.509  -0.597  1.00  0.00    -0.265 N 
ATOM     21  H6  UNL     1       2.045  -0.484  -0.452  1.00  0.00     0.190 HD
BRANCH  20  22
HETATM   22  N7  UNL     1       3.516   0.966  -0.617  1.00  0.00    -0.306 N 
HETATM   23  C9  UNL     1       4.495   0.697   0.130  1.00  0.00     0.144 C 
ATOM     24  H7  UNL     1       3.718   1.636  -1.359  1.00  0.00     0.186 HD
BRANCH  23  25
HETATM   25  C10 UNL     1       4.385  -0.249   1.252  1.00  0.00     0.095 A 
HETATM   26  C11 UNL     1       5.413  -0.601   2.119  1.00  0.00     0.043 A 
HETATM   27  C12 UNL     1       4.859  -1.499   2.995  1.00  0.00     0.065 A 
HETATM   28  C13 UNL     1       3.521  -1.657   2.628  1.00  0.00     0.215 A 
HETATM   29  O6  UNL     1       3.299  -0.891   1.589  1.00  0.00    -0.287 OA
BRANCH  28  30
HETATM   30  N8  UNL     1       2.592  -2.503   3.283  1.00  0.00    -0.090 N 
HETATM   31  O4  UNL     1       2.950  -3.168   4.252  1.00  0.00    -0.530 OA
HETATM   32  O5  UNL     1       1.314  -2.568   2.828  1.00  0.00    -0.530 OA
ENDBRANCH  28  30
ENDBRANCH  23  25
ENDBRANCH  20  22
ENDBRANCH   3  18
BRANCH   1  33
HETATM   33  O1  UNL     1      -0.930   3.190  -1.136  1.00  0.00    -0.285 OA
HETATM   34  C1  UNL     1      -1.854   4.124  -0.619  1.00  0.00     0.237 C 
ENDBRANCH   1  33
TORSDOF 8
