REMARK  8 active torsions:
REMARK  status: ('A' for Active; 'I' for Inactive)
REMARK    1  A    between atoms: O1_2  and  S1_3 
REMARK    2  A    between atoms: S1_3  and  C2_6 
REMARK    3  A    between atoms: C5_9  and  N1_10 
REMARK    4  A    between atoms: N2_12  and  N3_14 
REMARK    5  A    between atoms: N3_14  and  C6_16 
REMARK    6  A    between atoms: C7_17  and  O4_18 
REMARK    7  A    between atoms: N4_20  and  C8_21 
REMARK    8  A    between atoms: C8_21  and  O5_22 
ROOT
HETATM    1  N3  UNL     1      -1.052  -0.242  -0.525  1.00  0.00    -0.277 N 
ATOM      2  H3  UNL     1      -0.238   0.288  -0.835  1.00  0.00     0.189 HD
ENDROOT
BRANCH   1   3
HETATM    3  N2  UNL     1      -0.949  -1.610  -0.298  1.00  0.00    -0.242 N 
HETATM    4  N1  UNL     1       0.160  -2.114   0.015  1.00  0.00    -0.287 N 
ATOM      5  H1  UNL     1       0.245  -3.117   0.183  1.00  0.00     0.188 HD
ATOM      6  H2  UNL     1      -1.773  -2.205  -0.385  1.00  0.00     0.208 HD
BRANCH   4   7
HETATM    7  C5  UNL     1       1.291  -1.266   0.131  1.00  0.00     0.049 A 
HETATM    8  C4  UNL     1       2.181  -1.124  -0.914  1.00  0.00     0.032 A 
HETATM    9  C3  UNL     1       3.289  -0.313  -0.841  1.00  0.00     0.028 A 
HETATM   10  C2  UNL     1       3.529   0.386   0.309  1.00  0.00     0.086 A 
HETATM   11  C12 UNL     1       2.654   0.256   1.358  1.00  0.00     0.028 A 
HETATM   12  C11 UNL     1       1.536  -0.562   1.286  1.00  0.00     0.032 A 
BRANCH  10  13
HETATM   13  S1  UNL     1       4.899   1.415   0.456  1.00  0.00     0.297 S 
HETATM   14  O2  UNL     1       4.624   2.627   1.331  1.00  0.00    -0.193 OA
HETATM   15  O3  UNL     1       5.232   1.977  -0.918  1.00  0.00    -0.193 OA
BRANCH  13  16
HETATM   16  O1  UNL     1       6.256   0.668   1.047  1.00  0.00    -0.277 OA
HETATM   17  C1  UNL     1       6.306  -0.687   0.802  1.00  0.00     0.225 C 
ENDBRANCH  13  16
ENDBRANCH  10  13
ENDBRANCH   4   7
ENDBRANCH   1   3
BRANCH   1  18
HETATM   18  C6  UNL     1      -2.314   0.424  -0.321  1.00  0.00     0.169 A 
HETATM   19  C7  UNL     1      -3.402  -0.286   0.093  1.00  0.00     0.182 A 
HETATM   20  N4  UNL     1      -4.611   0.300   0.298  1.00  0.00    -0.256 N 
HETATM   21  C9  UNL     1      -4.714   1.606   0.083  1.00  0.00     0.333 A 
HETATM   22  O6  UNL     1      -5.847   2.155   0.275  1.00  0.00    -0.246 OA
HETATM   23  N5  UNL     1      -3.662   2.338  -0.326  1.00  0.00    -0.273 N 
HETATM   24  C10 UNL     1      -2.447   1.777  -0.537  1.00  0.00     0.281 A 
ATOM     25  H5  UNL     1      -3.782   3.339  -0.481  1.00  0.00     0.173 HD
HETATM   26  O7  UNL     1      -1.450   2.444  -0.919  1.00  0.00    -0.265 OA
BRANCH  19  27
HETATM   27  O4  UNL     1      -3.256  -1.654   0.308  1.00  0.00    -0.344 OA
ATOM     28  H4  UNL     1      -4.014  -2.149   0.596  1.00  0.00     0.219 HD
ENDBRANCH  19  27
BRANCH  20  29
HETATM   29  C8  UNL     1      -5.691  -0.549   0.735  1.00  0.00     0.302 C 
BRANCH  29  30
HETATM   30  O5  UNL     1      -6.330  -1.027  -0.414  1.00  0.00    -0.382 OA
ATOM     31  H5  UNL     1      -7.042  -1.586  -0.126  1.00  0.00     0.211 HD
ENDBRANCH  29  30
ENDBRANCH  20  29
ENDBRANCH   1  18
TORSDOF 8
