REMARK  9 active torsions:
REMARK  status: ('A' for Active; 'I' for Inactive)
REMARK    1  A    between atoms: O1_2  and  C2_3 
REMARK    2  A    between atoms: C4_5  and  C5_6 
REMARK    3  A    between atoms: C5_6  and  N2_11 
REMARK    4  A    between atoms: N1_7  and  O2_9 
REMARK    5  A    between atoms: N2_11  and  C6_13 
REMARK    6  A    between atoms: C12_19  and  O3_20 
REMARK    7  A    between atoms: O3_20  and  C13_21 
REMARK    8  A    between atoms: C19_29  and  O4_30 
REMARK    9  A    between atoms: C21_32  and  O5_33 
ROOT
HETATM    1  C2  UNL     1       0.575  -3.025   1.100  1.00  0.00     0.105 A 
HETATM    2  C3  UNL     1       0.944  -1.742   1.388  1.00  0.00     0.058 A 
HETATM    3  C4  UNL     1       0.270  -0.632   0.862  1.00  0.00     0.048 A 
HETATM    4  C12 UNL     1      -0.800  -0.882   0.032  1.00  0.00     0.119 A 
HETATM    5  C19 UNL     1      -1.194  -2.168  -0.274  1.00  0.00     0.139 A 
HETATM    6  C21 UNL     1      -0.493  -3.234   0.269  1.00  0.00     0.138 A 
ENDROOT
BRANCH   3   7
HETATM    7  C5  UNL     1       0.799   0.669   1.220  1.00  0.00     0.134 C 
HETATM    8  N1  UNL     1       0.920   1.054   2.458  1.00  0.00    -0.252 N 
ATOM      9  H1  UNL     1       0.637   0.432   3.216  1.00  0.00     0.196 HD
BRANCH   8  10
HETATM   10  O2  UNL     1       1.433   2.309   2.746  1.00  0.00    -0.288 OA
ATOM     11  H2  UNL     1       1.521   2.590   3.649  1.00  0.00     0.244 HD
ENDBRANCH   8  10
BRANCH   7  12
HETATM   12  N2  UNL     1       1.271   1.564   0.216  1.00  0.00    -0.370 N 
ATOM     13  H2  UNL     1       0.601   2.031  -0.395  1.00  0.00     0.161 HD
BRANCH  12  14
HETATM   14  C6  UNL     1       2.700   1.822   0.049  1.00  0.00     0.083 C 
HETATM   15  C7  UNL     1       3.374   0.496  -0.272  1.00  0.00     0.025 C 
HETATM   16  C8  UNL     1       4.469   0.637  -1.297  1.00  0.00     0.002 C 
HETATM   17  C9  UNL     1       5.317   1.856  -1.104  1.00  0.00     0.000 C 
HETATM   18  C10 UNL     1       4.448   3.081  -1.097  1.00  0.00     0.002 C 
HETATM   19  C11 UNL     1       2.971   2.731  -1.118  1.00  0.00     0.025 C 
ENDBRANCH  12  14
ENDBRANCH   7  12
ENDBRANCH   3   7
BRANCH   4  20
HETATM   20  O3  UNL     1      -1.510   0.140  -0.515  1.00  0.00    -0.342 OA
BRANCH  20  21
HETATM   21  C13 UNL     1      -2.662   0.795  -0.155  1.00  0.00     0.129 C 
HETATM   22  C14 UNL     1      -2.428   2.246   0.178  1.00  0.00     0.038 C 
HETATM   23  C15 UNL     1      -3.707   2.746   0.867  1.00  0.00     0.081 C 
HETATM   24  C16 UNL     1      -4.926   2.576   0.043  1.00  0.00     0.243 C 
HETATM   25  F1  UNL     1      -5.074   3.596  -0.906  1.00  0.00    -0.206 F 
HETATM   26  F2  UNL     1      -6.031   2.662   0.875  1.00  0.00    -0.206 F 
HETATM   27  C17 UNL     1      -5.002   1.249  -0.669  1.00  0.00     0.081 C 
HETATM   28  C18 UNL     1      -3.700   0.838  -1.278  1.00  0.00     0.038 C 
ENDBRANCH  20  21
ENDBRANCH   4  20
BRANCH   1  29
HETATM   29  O1  UNL     1       1.259  -4.128   1.633  1.00  0.00    -0.353 OA
HETATM   30  C1  UNL     1       2.348  -3.835   2.523  1.00  0.00     0.210 C 
ENDBRANCH   1  29
BRANCH   5  31
HETATM   31  O4  UNL     1      -2.251  -2.531  -1.088  1.00  0.00    -0.351 OA
HETATM   32  C20 UNL     1      -3.519  -2.901  -0.553  1.00  0.00     0.210 C 
ENDBRANCH   5  31
BRANCH   6  33
HETATM   33  O5  UNL     1      -0.862  -4.566  -0.021  1.00  0.00    -0.351 OA
HETATM   34  C22 UNL     1      -0.300  -5.232  -1.151  1.00  0.00     0.210 C 
ENDBRANCH   6  33
TORSDOF 9
