REMARK  7 active torsions:
REMARK  status: ('A' for Active; 'I' for Inactive)
REMARK    1  A    between atoms: N1_2  and  C3_4 
REMARK    2  A    between atoms: C3_4  and  C4_5 
REMARK    3  A    between atoms: C4_5  and  N2_6 
REMARK    4  A    between atoms: N2_6  and  C5_8 
REMARK    5  A    between atoms: C8_13  and  C9_14 
REMARK    6  A    between atoms: C12_18  and  C13_19 
REMARK       I    between atoms: C13_19  and  N4_21 
REMARK    7  A    between atoms: N4_21  and  C14_23 
ROOT
HETATM    1  C5  UNL     1      -2.908  -1.795  -0.997  1.00  0.00     0.069 A 
HETATM    2  C6  UNL     1      -2.322  -0.958  -0.106  1.00  0.00     0.063 A 
HETATM    3  C7  UNL     1      -0.992  -0.522  -0.260  1.00  0.00     0.052 A 
HETATM    4  N3  UNL     1      -0.362   0.271   0.546  1.00  0.00    -0.348 N 
ATOM      5  H3  UNL     1      -0.830   0.637   1.376  1.00  0.00     0.166 HD
HETATM    6  C8  UNL     1       0.890   0.604   0.288  1.00  0.00     0.093 A 
HETATM    7  S2  UNL     1       1.208  -0.234  -1.154  1.00  0.00    -0.069 SA
HETATM    8  C18 UNL     1      -0.318  -0.986  -1.358  1.00  0.00     0.036 A 
HETATM    9  C19 UNL     1      -0.930  -1.857  -2.284  1.00  0.00     0.066 A 
HETATM   10  C20 UNL     1      -2.225  -2.257  -2.097  1.00  0.00     0.144 A 
HETATM   11  F1  UNL     1      -2.816  -3.080  -2.965  1.00  0.00    -0.204 F 
ENDROOT
BRANCH   6  12
HETATM   12  C9  UNL     1       1.728   1.509   1.122  1.00  0.00     0.054 A 
HETATM   13  S1  UNL     1       1.236   2.293   2.579  1.00  0.00    -0.098 SA
HETATM   14  C10 UNL     1       2.676   3.132   2.913  1.00  0.00     0.051 A 
HETATM   15  C11 UNL     1       3.492   2.778   1.884  1.00  0.00     0.026 A 
HETATM   16  C12 UNL     1       2.996   1.929   0.948  1.00  0.00     0.052 A 
BRANCH  16  17
HETATM   17  C13 UNL     1       3.869   1.489  -0.187  1.00  0.00     0.253 C 
HETATM   18  O1  UNL     1       3.577   1.737  -1.372  1.00  0.00    -0.268 OA
HETATM   19  N4  UNL     1       5.033   0.792   0.141  1.00  0.00    -0.351 N 
ATOM     20  H4  UNL     1       5.201   0.623   1.133  1.00  0.00     0.163 HD
BRANCH  19  21
HETATM   21  C14 UNL     1       6.028   0.283  -0.781  1.00  0.00     0.103 C 
HETATM   22  C15 UNL     1       7.363   1.014  -0.676  1.00  0.00     0.028 C 
HETATM   23  C16 UNL     1       7.943  -0.175   0.070  1.00  0.00     0.024 C 
HETATM   24  C17 UNL     1       6.744  -0.966  -0.426  1.00  0.00     0.105 C 
HETATM   25 CL1  UNL     1       7.185  -2.008  -1.811  1.00  0.00    -0.123 Cl
ENDBRANCH  19  21
ENDBRANCH  16  17
ENDBRANCH   6  12
BRANCH   1  26
HETATM   26  N2  UNL     1      -4.275  -2.248  -0.780  1.00  0.00    -0.386 N 
ATOM     27  H2  UNL     1      -4.647  -2.972  -1.395  1.00  0.00     0.159 HD
BRANCH  26  28
HETATM   28  C4  UNL     1      -5.129  -1.730   0.254  1.00  0.00     0.139 C 
BRANCH  28  29
HETATM   29  C3  UNL     1      -5.518  -0.316  -0.121  1.00  0.00     0.135 C 
BRANCH  29  30
HETATM   30  N1  UNL     1      -6.382   0.328   0.815  1.00  0.00    -0.419 N 
HETATM   31  C1  UNL     1      -5.833   0.643   2.086  1.00  0.00     0.142 C 
HETATM   32  C2  UNL     1      -7.738  -0.132   0.801  1.00  0.00     0.142 C 
ENDBRANCH  29  30
ENDBRANCH  28  29
ENDBRANCH  26  28
ENDBRANCH   1  26
TORSDOF 7
