REMARK  8 active torsions:
REMARK  status: ('A' for Active; 'I' for Inactive)
REMARK    1  A    between atoms: C2_2  and  O1_3 
REMARK    2  A    between atoms: N1_8  and  C6_9 
REMARK    3  A    between atoms: C6_9  and  C7_10 
REMARK    4  A    between atoms: C7_10  and  C8_11 
REMARK    5  A    between atoms: C8_11  and  C9_12 
REMARK    6  A    between atoms: C9_12  and  C10_13 
REMARK    7  A    between atoms: C10_13  and  C11_14 
REMARK    8  A    between atoms: C11_14  and  N2_15 
ROOT
HETATM    1  C10 UNL     1       1.672   1.240  -0.410  1.00  0.00     0.020 C 
ENDROOT
BRANCH   1   2
HETATM    2  C9  UNL     1       0.452   1.619  -1.202  1.00  0.00     0.002 C 
BRANCH   2   3
HETATM    3  C8  UNL     1      -0.684   0.662  -1.137  1.00  0.00     0.002 C 
BRANCH   3   4
HETATM    4  C7  UNL     1      -1.113   0.530   0.316  1.00  0.00     0.030 C 
BRANCH   4   5
HETATM    5  C6  UNL     1      -2.258  -0.412   0.516  1.00  0.00     0.276 C 
BRANCH   5   6
HETATM    6  N1  UNL     1      -3.465  -0.037  -0.186  1.00  0.00     0.125 N 
HETATM    7  C5  UNL     1      -4.059   1.165   0.356  1.00  0.00     0.276 C 
HETATM    8  C4  UNL     1      -5.321   1.455  -0.427  1.00  0.00     0.033 C 
HETATM    9  C3  UNL     1      -6.276   0.286  -0.444  1.00  0.00     0.044 C 
HETATM   10  C2  UNL     1      -5.729  -0.885   0.331  1.00  0.00     0.113 C 
HETATM   11  C1  UNL     1      -6.595  -2.092  -0.021  1.00  0.00     0.051 C 
HETATM   12  C21 UNL     1      -4.346  -1.184  -0.144  1.00  0.00     0.438 C 
HETATM   13  F1  UNL     1      -4.436  -1.681  -1.433  1.00  0.00    -0.213 F 
BRANCH  10  14
HETATM   14  O1  UNL     1      -5.829  -0.706   1.708  1.00  0.00    -0.385 OA
ATOM     15  H1  UNL     1      -5.290   0.045   1.927  1.00  0.00     0.210 HD
ENDBRANCH  10  14
ENDBRANCH   5   6
ENDBRANCH   4   5
ENDBRANCH   3   4
ENDBRANCH   2   3
ENDBRANCH   1   2
BRANCH   1  16
HETATM   16  C11 UNL     1       2.211  -0.055  -0.905  1.00  0.00     0.126 C 
BRANCH  16  17
HETATM   17  N2  UNL     1       3.395  -0.504  -0.197  1.00  0.00    -0.344 N 
HETATM   18  C12 UNL     1       3.528  -1.666   0.664  1.00  0.00     0.100 A 
HETATM   19  C13 UNL     1       2.663  -2.510   1.309  1.00  0.00     0.118 A 
HETATM   20  C15 UNL     1       4.837  -1.896   0.808  1.00  0.00     0.129 A 
HETATM   21  N3  UNL     1       1.232  -2.503   1.330  1.00  0.00    -0.092 NA
HETATM   22  S1  UNL     1       3.721  -3.604   2.102  1.00  0.00    -0.058 SA
HETATM   23  C14 UNL     1       5.210  -2.960   1.593  1.00  0.00     0.112 A 
HETATM   24 CL1  UNL     1       6.820  -3.553   2.005  1.00  0.00    -0.073 Cl
HETATM   25  O2  UNL     1       5.558  -0.926   0.069  1.00  0.00    -0.315 OA
HETATM   26  C16 UNL     1       4.668   0.144  -0.251  1.00  0.00     0.143 C 
HETATM   27  C17 UNL     1       5.073   0.689  -1.572  1.00  0.00     0.062 C 
HETATM   28  C20 UNL     1       4.903   1.200   0.789  1.00  0.00     0.062 C 
HETATM   29  C18 UNL     1       5.503   2.139  -1.342  1.00  0.00     0.005 C 
HETATM   30  C19 UNL     1       5.918   2.097   0.116  1.00  0.00     0.005 C 
ENDBRANCH  16  17
ENDBRANCH   1  16
TORSDOF 8
