REMARK  8 active torsions:
REMARK  status: ('A' for Active; 'I' for Inactive)
REMARK    1  A    between atoms: O1_2  and  C2_3 
REMARK    2  A    between atoms: C4_5  and  C5_6 
REMARK    3  A    between atoms: C5_6  and  C6_7 
REMARK       I    between atoms: C6_7  and  N1_9 
REMARK    4  A    between atoms: N1_9  and  C7_11 
REMARK    5  A    between atoms: C9_13  and  O3_14 
REMARK    6  A    between atoms: N2_16  and  C10_17 
REMARK    7  A    between atoms: C19_28  and  O4_29 
REMARK    8  A    between atoms: C21_31  and  O5_32 
ROOT
HETATM    1  C6  UNL     1      -1.132   0.428   0.439  1.00  0.00     0.226 C 
HETATM    2  O2  UNL     1      -1.537  -0.330  -0.472  1.00  0.00    -0.273 OA
HETATM    3  N1  UNL     1       0.230   0.597   0.686  1.00  0.00    -0.325 N 
ATOM      4  H1  UNL     1       0.497   1.228   1.442  1.00  0.00     0.169 HD
ENDROOT
BRANCH   3   5
HETATM    5  C7  UNL     1       1.273  -0.041  -0.033  1.00  0.00     0.061 A 
HETATM    6  C8  UNL     1       1.225  -0.917  -1.066  1.00  0.00     0.087 A 
HETATM    7  C9  UNL     1       2.526  -1.227  -1.392  1.00  0.00     0.145 A 
HETATM    8  N2  UNL     1       3.397  -0.569  -0.590  1.00  0.00    -0.325 N 
HETATM    9  C16 UNL     1       2.638   0.157   0.241  1.00  0.00     0.037 A 
HETATM   10  C17 UNL     1       3.132   1.046   1.303  1.00  0.00     0.071 C 
BRANCH   7  11
HETATM   11  O3  UNL     1       2.894  -2.099  -2.407  1.00  0.00    -0.346 OA
ATOM     12  H3  UNL     1       3.792  -2.313  -2.632  1.00  0.00     0.219 HD
ENDBRANCH   7  11
BRANCH   8  13
HETATM   13  C10 UNL     1       4.855  -0.643  -0.638  1.00  0.00     0.092 C 
HETATM   14  C11 UNL     1       5.428  -1.107   0.642  1.00  0.00     0.032 C 
HETATM   15  C12 UNL     1       6.941  -1.162   0.475  1.00  0.00     0.081 C 
HETATM   16  C13 UNL     1       7.357   0.291   0.344  1.00  0.00     0.243 C 
HETATM   17  F1  UNL     1       7.030   0.969   1.507  1.00  0.00    -0.206 F 
HETATM   18  F2  UNL     1       8.755   0.289   0.288  1.00  0.00    -0.206 F 
HETATM   19  C14 UNL     1       6.794   0.969  -0.860  1.00  0.00     0.081 C 
HETATM   20  C15 UNL     1       5.437   0.569  -1.264  1.00  0.00     0.032 C 
ENDBRANCH   8  13
ENDBRANCH   3   5
BRANCH   1  21
HETATM   21  C5  UNL     1      -2.176   1.136   1.239  1.00  0.00     0.141 C 
BRANCH  21  22
HETATM   22  C4  UNL     1      -3.544   0.788   0.773  1.00  0.00    -0.044 A 
HETATM   23  C3  UNL     1      -4.192   1.483  -0.212  1.00  0.00     0.047 A 
HETATM   24  C2  UNL     1      -5.454   1.135  -0.617  1.00  0.00     0.104 A 
HETATM   25  C21 UNL     1      -6.112   0.072  -0.044  1.00  0.00     0.135 A 
HETATM   26  C19 UNL     1      -5.468  -0.638   0.952  1.00  0.00     0.104 A 
HETATM   27  C18 UNL     1      -4.196  -0.280   1.353  1.00  0.00     0.047 A 
BRANCH  24  28
HETATM   28  O1  UNL     1      -6.076   1.861  -1.614  1.00  0.00    -0.353 OA
HETATM   29  C1  UNL     1      -5.431   2.956  -2.224  1.00  0.00     0.210 C 
ENDBRANCH  24  28
BRANCH  25  30
HETATM   30  O5  UNL     1      -7.404  -0.295  -0.449  1.00  0.00    -0.351 OA
HETATM   31  C22 UNL     1      -7.612  -1.224  -1.489  1.00  0.00     0.210 C 
ENDBRANCH  25  30
BRANCH  26  32
HETATM   32  O4  UNL     1      -6.111  -1.714   1.545  1.00  0.00    -0.353 OA
HETATM   33  C20 UNL     1      -5.468  -2.451   2.564  1.00  0.00     0.210 C 
ENDBRANCH  26  32
ENDBRANCH  21  22
ENDBRANCH   1  21
TORSDOF 8
