REMARK  11 active torsions:
REMARK  status: ('A' for Active; 'I' for Inactive)
REMARK    1  A    between atoms: C2_2  and  C3_3 
REMARK    2  A    between atoms: C3_3  and  N1_4 
REMARK    3  A    between atoms: N1_4  and  C4_5 
REMARK    4  A    between atoms: N1_4  and  C6_8 
REMARK    5  A    between atoms: C4_5  and  C5_6 
REMARK    6  A    between atoms: C10_14  and  N3_15 
REMARK    7  A    between atoms: N3_15  and  C11_16 
REMARK    8  A    between atoms: N3_15  and  C13_18 
REMARK    9  A    between atoms: C20_26  and  C21_27 
REMARK   10  A    between atoms: C21_27  and  O1_28 
REMARK   11  A    between atoms: N4_30  and  O2_32 
ROOT
HETATM    1  C6  UNL     1      -2.244  -0.537  -0.250  1.00  0.00     0.115 C 
HETATM    2  N2  UNL     1      -1.295  -0.943   0.463  1.00  0.00    -0.364 N 
ATOM      3  H2  UNL     1      -1.091  -0.394   1.298  1.00  0.00     0.162 HD
HETATM    4  C7  UNL     1      -0.457  -2.099   0.237  1.00  0.00     0.153 C 
HETATM    5  C8  UNL     1       0.932  -1.639  -0.056  1.00  0.00    -0.024 A 
HETATM    6  C9  UNL     1       1.335  -0.354   0.335  1.00  0.00     0.042 A 
HETATM    7  C10 UNL     1       2.602   0.118   0.092  1.00  0.00     0.069 A 
HETATM    8  C15 UNL     1       3.462  -0.739  -0.557  1.00  0.00     0.143 A 
HETATM    9  F1  UNL     1       4.721  -0.302  -0.808  1.00  0.00    -0.204 F 
HETATM   10  C16 UNL     1       3.103  -2.003  -0.954  1.00  0.00     0.052 A 
HETATM   11  C17 UNL     1       1.817  -2.443  -0.693  1.00  0.00    -0.046 A 
HETATM   12  C18 UNL     1       1.362  -3.803  -1.118  1.00  0.00     0.042 C 
HETATM   13  C19 UNL     1       0.020  -3.602  -1.745  1.00  0.00     0.047 C 
HETATM   14  C20 UNL     1      -1.000  -2.988  -0.802  1.00  0.00     0.121 C 
HETATM   15  N5  UNL     1      -2.057  -2.440  -1.572  1.00  0.00    -0.377 N 
ATOM     16  H5  UNL     1      -2.364  -2.988  -2.376  1.00  0.00     0.160 HD
HETATM   17  C22 UNL     1      -2.660  -1.350  -1.373  1.00  0.00     0.132 C 
ENDROOT
BRANCH   1  18
HETATM   18  N1  UNL     1      -3.023   0.648   0.054  1.00  0.00    -0.365 N 
BRANCH  18  19
HETATM   19  C3  UNL     1      -2.791   1.753  -0.795  1.00  0.00     0.124 C 
BRANCH  19  20
HETATM   20  C2  UNL     1      -2.040   2.872  -0.153  1.00  0.00     0.015 C 
HETATM   21  C1  UNL     1      -1.806   3.990  -1.193  1.00  0.00     0.006 C 
ENDBRANCH  19  20
ENDBRANCH  18  19
BRANCH  18  22
HETATM   22  C4  UNL     1      -3.907   0.573   1.162  1.00  0.00     0.139 C 
BRANCH  22  23
HETATM   23  C5  UNL     1      -3.561   1.330   2.392  1.00  0.00     0.134 C 
HETATM   24 CL1  UNL     1      -1.968   0.889   3.062  1.00  0.00    -0.129 Cl
ENDBRANCH  22  23
ENDBRANCH  18  22
ENDBRANCH   1  18
BRANCH  14  25
HETATM   25  C21 UNL     1      -1.610  -4.219  -0.129  1.00  0.00     0.167 C 
HETATM   26  N4  UNL     1      -2.746  -4.630  -0.432  1.00  0.00    -0.249 N 
ATOM     27  H4  UNL     1      -3.023  -5.457   0.097  1.00  0.00     0.196 HD
BRANCH  25  28
HETATM   28  O1  UNL     1      -0.865  -4.874   0.833  1.00  0.00    -0.346 OA
ATOM     29  H1  UNL     1      -1.244  -5.638   1.251  1.00  0.00     0.219 HD
ENDBRANCH  25  28
BRANCH  26  30
HETATM   30  O2  UNL     1      -3.683  -4.228  -1.296  1.00  0.00    -0.288 OA
ATOM     31  H2  UNL     1      -4.549  -4.541  -1.527  1.00  0.00     0.244 HD
ENDBRANCH  26  30
ENDBRANCH  14  25
BRANCH   7  32
HETATM   32  N3  UNL     1       3.040   1.392   0.471  1.00  0.00    -0.379 N 
BRANCH  32  33
HETATM   33  C11 UNL     1       4.094   1.491   1.486  1.00  0.00     0.118 C 
HETATM   34  C12 UNL     1       3.534   2.092   2.758  1.00  0.00     0.026 C 
ENDBRANCH  32  33
BRANCH  32  35
HETATM   35  C13 UNL     1       2.541   2.638  -0.059  1.00  0.00     0.118 C 
HETATM   36  C14 UNL     1       3.572   3.360  -0.895  1.00  0.00     0.026 C 
ENDBRANCH  32  35
ENDBRANCH   7  32
TORSDOF 11
