REMARK  9 active torsions:
REMARK  status: ('A' for Active; 'I' for Inactive)
REMARK    1  A    between atoms: C3_3  and  O1_4 
REMARK    2  A    between atoms: C7_9  and  C8_10 
REMARK    3  A    between atoms: C8_10  and  C9_11 
REMARK    4  A    between atoms: C9_11  and  C10_12 
REMARK    5  A    between atoms: C10_12  and  O2_15 
REMARK    6  A    between atoms: C15_19  and  O4_20 
REMARK    7  A    between atoms: O4_20  and  C16_21 
REMARK    8  A    between atoms: C16_21  and  C17_23 
REMARK    9  A    between atoms: C20_27  and  O6_28 
ROOT
HETATM    1  C1  UNL     1       2.773   3.571   0.938  1.00  0.00     0.017 C 
HETATM    2  C2  UNL     1       2.100   2.520   0.455  1.00  0.00    -0.054 C 
HETATM    3  C3  UNL     1       1.885   2.520  -1.009  1.00  0.00     0.148 C 
HETATM    4  C4  UNL     1       0.394   2.688  -1.263  1.00  0.00     0.052 C 
HETATM    5  C5  UNL     1      -0.324   1.778  -0.316  1.00  0.00     0.012 C 
HETATM    6  C6  UNL     1      -1.688   1.511  -0.901  1.00  0.00     0.018 C 
HETATM    7  C7  UNL     1      -1.945   0.235  -0.687  1.00  0.00     0.044 C 
HETATM    8  O3  UNL     1      -0.907  -0.398  -0.020  1.00  0.00    -0.347 OA
HETATM    9  C14 UNL     1       0.240   0.405  -0.258  1.00  0.00     0.171 C 
HETATM   10  C15 UNL     1       1.336   0.195   0.723  1.00  0.00     0.171 C 
HETATM   11  C23 UNL     1       1.666   1.502   1.455  1.00  0.00     0.052 C 
HETATM   12  C24 UNL     1       0.349   1.937   2.100  1.00  0.00    -0.007 C 
HETATM   13  C25 UNL     1       0.549   2.900   3.221  1.00  0.00     0.011 C 
HETATM   14  C26 UNL     1      -0.565   2.412   1.026  1.00  0.00     0.021 C 
ENDROOT
BRANCH  10  15
HETATM   15  O4  UNL     1       2.509  -0.341   0.146  1.00  0.00    -0.309 OA
BRANCH  15  16
HETATM   16  C16 UNL     1       3.019  -1.532   0.578  1.00  0.00     0.293 C 
HETATM   17  O5  UNL     1       2.482  -2.201   1.494  1.00  0.00    -0.259 OA
BRANCH  16  18
HETATM   18  C17 UNL     1       4.239  -2.078  -0.031  1.00  0.00     0.043 A 
HETATM   19  C18 UNL     1       4.891  -1.391  -1.053  1.00  0.00     0.044 A 
HETATM   20  C19 UNL     1       6.027  -1.892  -1.625  1.00  0.00     0.069 A 
HETATM   21 CL1  UNL     1       6.833  -1.020  -2.907  1.00  0.00    -0.081 Cl
HETATM   22  C20 UNL     1       6.539  -3.087  -1.191  1.00  0.00     0.109 A 
HETATM   23  C21 UNL     1       5.929  -3.814  -0.174  1.00  0.00     0.069 A 
HETATM   24 CL2  UNL     1       6.580  -5.339   0.383  1.00  0.00    -0.081 Cl
HETATM   25  C22 UNL     1       4.789  -3.271   0.371  1.00  0.00     0.044 A 
BRANCH  22  26
HETATM   26  O6  UNL     1       7.679  -3.594  -1.762  1.00  0.00    -0.357 OA
ATOM     27  H6  UNL     1       8.034  -4.422  -1.461  1.00  0.00     0.217 HD
ENDBRANCH  22  26
ENDBRANCH  16  18
ENDBRANCH  15  16
ENDBRANCH  10  15
BRANCH   7  28
HETATM   28  C8  UNL     1      -3.210  -0.456  -1.113  1.00  0.00     0.067 C 
BRANCH  28  29
HETATM   29  C9  UNL     1      -3.843  -0.969   0.132  1.00  0.00     0.043 C 
BRANCH  29  30
HETATM   30  C10 UNL     1      -5.122  -1.703  -0.004  1.00  0.00     0.053 C 
HETATM   31  C11 UNL     1      -4.889  -2.887  -0.910  1.00  0.00     0.045 C 
HETATM   32  C12 UNL     1      -5.331  -2.367   1.409  1.00  0.00     0.045 C 
BRANCH  30  33
HETATM   33  O2  UNL     1      -6.214  -0.966  -0.193  1.00  0.00    -0.386 OA
HETATM   34  C13 UNL     1      -6.375  -0.126  -1.234  1.00  0.00     0.202 C 
ENDBRANCH  30  33
ENDBRANCH  29  30
ENDBRANCH  28  29
ENDBRANCH   7  28
BRANCH   3  35
HETATM   35  O1  UNL     1       2.613   3.517  -1.623  1.00  0.00    -0.391 OA
ATOM     36  H1  UNL     1       2.475   3.517  -2.563  1.00  0.00     0.210 HD
ENDBRANCH   3  35
TORSDOF 9
