REMARK  2 active torsions:
REMARK  status: ('A' for Active; 'I' for Inactive)
REMARK    1  A    between atoms: C1_2  and  C2_4 
REMARK    2  A    between atoms: C2_4  and  N2_5 
ROOT
HETATM    1  C2  UNL     1      -0.344  -0.385  -0.273  1.00  0.00     0.369 C 
HETATM    2  N3  UNL     1      -0.364   0.870  -1.088  1.00  0.00    -0.080 NA
HETATM    3  N4  UNL     1      -0.636   1.601   0.107  1.00  0.00    -0.267 N 
ATOM      4  H4  UNL     1      -0.515   2.563   0.424  1.00  0.00     0.185 HD
HETATM    5  C3  UNL     1      -1.154   0.386   0.665  1.00  0.00     0.297 C 
HETATM    6  O2  UNL     1      -1.968   0.197   1.575  1.00  0.00    -0.267 OA
ENDROOT
BRANCH   1   7
HETATM    7  C1  UNL     1       0.983  -0.730   0.117  1.00  0.00     0.295 C 
HETATM    8  N1  UNL     1       1.721   0.158   1.035  1.00  0.00    -0.058 NA
HETATM    9  O1  UNL     1       1.604  -1.714  -0.247  1.00  0.00    -0.272 OA
ENDBRANCH   1   7
BRANCH   1  10
HETATM   10  N2  UNL     1      -1.123  -1.345  -0.999  1.00  0.00    -0.036 N 
ATOM     11  H23 UNL     1      -0.601  -1.635  -1.826  1.00  0.00     0.278 HD
ATOM     12  H22 UNL     1      -1.152  -2.215  -0.468  1.00  0.00     0.278 HD
ATOM     13  H21 UNL     1      -2.073  -1.098  -1.278  1.00  0.00     0.278 HD
ENDBRANCH   1  10
TORSDOF 2
