REMARK  1 active torsions:
REMARK  status: ('A' for Active; 'I' for Inactive)
REMARK       I    between atoms: C3_3  and  N1_5 
REMARK       I    between atoms: N1_5  and  C4_7 
REMARK    1  A    between atoms: N3_9  and  N4_11 
ROOT
HETATM    1  C1  UNL     1       2.450   1.151   0.905  1.00  0.00     0.022 C 
HETATM    2  C2  UNL     1       2.187   0.146   0.331  1.00  0.00    -0.016 C 
HETATM    3  C3  UNL     1       1.883  -1.396  -0.545  1.00  0.00     0.302 C 
HETATM    4  O1  UNL     1       3.049  -1.561  -0.474  1.00  0.00    -0.258 OA
HETATM    5  N1  UNL     1       0.551  -1.208  -0.626  1.00  0.00    -0.289 N 
ATOM      6  H1  UNL     1       0.132  -1.981  -1.143  1.00  0.00     0.172 HD
HETATM    7  C4  UNL     1      -0.429  -0.331  -0.249  1.00  0.00     0.209 C 
HETATM    8  N2  UNL     1      -0.477   0.794   0.575  1.00  0.00    -0.062 NA
HETATM    9  N3  UNL     1      -1.660  -0.662  -0.713  1.00  0.00    -0.280 N 
ATOM     10  H3  UNL     1      -1.745  -1.503  -1.283  1.00  0.00     0.189 HD
ENDROOT
BRANCH   9  11
HETATM   11  N4  UNL     1      -2.777   0.049  -0.469  1.00  0.00    -0.343 N 
ATOM     12  H42 UNL     1      -2.673   0.887   0.103  1.00  0.00     0.176 HD
ATOM     13  H41 UNL     1      -3.703  -0.200  -0.818  1.00  0.00     0.176 HD
ENDBRANCH   9  11
TORSDOF 1
