REMARK  1 active torsions:
REMARK  status: ('A' for Active; 'I' for Inactive)
REMARK    1  A    between atoms: N4_10  and  N5_12 
ROOT
HETATM    1  C1  UNL     1      -0.976   1.166   0.612  1.00  0.00     0.197 C 
HETATM    2  N1  UNL     1       0.187   0.480   0.141  1.00  0.00    -0.123 N 
HETATM    3  N2  UNL     1       1.424   0.985   0.088  1.00  0.00    -0.235 N 
ATOM      4  H2  UNL     1       1.681   1.928   0.380  1.00  0.00     0.192 HD
HETATM    5  C2  UNL     1       2.281   0.075  -0.405  1.00  0.00     0.353 A 
HETATM    6  O1  UNL     1       3.519   0.214  -0.591  1.00  0.00    -0.245 OA
HETATM    7  N3  UNL     1       1.516  -1.001  -0.650  1.00  0.00    -0.137 N 
ATOM      8  H3  UNL     1       1.868  -1.877  -1.035  1.00  0.00     0.189 HD
HETATM    9  C3  UNL     1       0.237  -0.783  -0.327  1.00  0.00     0.717 A 
HETATM   10  N4  UNL     1      -0.747  -1.628  -0.446  1.00  0.00    -0.137 N 
ATOM     11  H4  UNL     1      -0.554  -2.557  -0.820  1.00  0.00     0.205 HD
ENDROOT
BRANCH  10  12
HETATM   12  N5  UNL     1      -2.054  -1.310  -0.082  1.00  0.00    -0.331 N 
ATOM     13  H52 UNL     1      -2.230  -0.377   0.290  1.00  0.00     0.177 HD
ATOM     14  H51 UNL     1      -2.825  -1.972  -0.175  1.00  0.00     0.177 HD
ENDBRANCH  10  12
TORSDOF 1
