REMARK  11 active torsions:
REMARK  status: ('A' for Active; 'I' for Inactive)
REMARK    1  A    between atoms: C2_2  and  C3_3 
REMARK    2  A    between atoms: C4_4  and  C5_5 
REMARK    3  A    between atoms: C10_10  and  O1_11 
REMARK    4  A    between atoms: C13_15  and  O2_16 
REMARK    5  A    between atoms: C14_18  and  C15_19 
REMARK    6  A    between atoms: C15_19  and  O3_20 
REMARK    7  A    between atoms: C16_23  and  O5_24 
REMARK    8  A    between atoms: O5_24  and  C17_25 
REMARK    9  A    between atoms: C17_25  and  C18_26 
REMARK   10  A    between atoms: C18_26  and  C19_27 
REMARK   11  A    between atoms: C19_27  and  N1_28 
ROOT
HETATM    1  C3  UNL     1      -2.466   1.691  -0.353  1.00  0.00     0.016 C 
HETATM    2  C4  UNL     1      -3.582   1.411   0.654  1.00  0.00    -0.006 C 
HETATM    3  C7  UNL     1      -3.328   0.019   1.195  1.00  0.00     0.017 C 
HETATM    4  C8  UNL     1      -2.250  -0.538   0.329  1.00  0.00    -0.013 C 
HETATM    5  C9  UNL     1      -2.800  -1.186  -0.885  1.00  0.00     0.018 C 
HETATM    6  C10 UNL     1      -1.316  -1.460   1.073  1.00  0.00     0.131 C 
HETATM    7  C11 UNL     1       0.022  -1.635   0.468  1.00  0.00     0.026 C 
HETATM    8  C12 UNL     1       0.175  -3.126   0.201  1.00  0.00     0.042 C 
HETATM    9  C13 UNL     1       1.476  -3.520  -0.391  1.00  0.00     0.149 C 
HETATM   10  C14 UNL     1       2.607  -2.568  -0.156  1.00  0.00     0.176 C 
HETATM   11  O4  UNL     1       2.619  -1.531  -1.113  1.00  0.00    -0.351 OA
HETATM   12  C16 UNL     1       1.835  -0.456  -0.667  1.00  0.00     0.264 C 
HETATM   13  C20 UNL     1       0.368  -0.857  -0.726  1.00  0.00     0.048 C 
HETATM   14  C21 UNL     1      -0.435   0.355  -1.022  1.00  0.00     0.016 C 
HETATM   15  C22 UNL     1      -1.432   0.709   0.041  1.00  0.00     0.005 C 
ENDROOT
BRANCH  12  16
HETATM   16  O5  UNL     1       2.148   0.614  -1.468  1.00  0.00    -0.361 OA
BRANCH  16  17
HETATM   17  C17 UNL     1       2.772   1.672  -0.835  1.00  0.00     0.172 C 
BRANCH  17  18
HETATM   18  C18 UNL     1       4.094   1.277  -0.211  1.00  0.00     0.053 C 
BRANCH  18  19
HETATM   19  C19 UNL     1       4.745   2.472   0.466  1.00  0.00     0.231 C 
BRANCH  19  20
HETATM   20  N1  UNL     1       3.925   3.019   1.504  1.00  0.00    -0.079 N 
ATOM     21  H13 UNL     1       2.996   3.254   1.155  1.00  0.00     0.274 HD
ATOM     22  H12 UNL     1       3.667   2.305   2.185  1.00  0.00     0.274 HD
ATOM     23  H11 UNL     1       4.362   3.821   1.958  1.00  0.00     0.274 HD
ENDBRANCH  19  20
ENDBRANCH  18  19
ENDBRANCH  17  18
ENDBRANCH  16  17
ENDBRANCH  12  16
BRANCH  10  24
HETATM   24  C15 UNL     1       3.898  -3.356  -0.421  1.00  0.00     0.198 C 
BRANCH  24  25
HETATM   25  O3  UNL     1       4.941  -2.481  -0.247  1.00  0.00    -0.398 OA
ATOM     26  H3  UNL     1       5.740  -2.969  -0.411  1.00  0.00     0.209 HD
ENDBRANCH  24  25
ENDBRANCH  10  24
BRANCH   9  27
HETATM   27  O2  UNL     1       1.797  -4.805   0.110  1.00  0.00    -0.393 OA
ATOM     28  H2  UNL     1       2.631  -5.057  -0.269  1.00  0.00     0.210 HD
ENDBRANCH   9  27
BRANCH   6  29
HETATM   29  O1  UNL     1      -2.030  -2.669   1.239  1.00  0.00    -0.394 OA
ATOM     30  H1  UNL     1      -1.442  -3.250   1.708  1.00  0.00     0.210 HD
ENDBRANCH   6  29
BRANCH   1  31
HETATM   31  C2  UNL     1      -1.986   3.068  -0.127  1.00  0.00    -0.031 C 
HETATM   32  C1  UNL     1      -0.821   3.436   0.354  1.00  0.00     0.007 C 
ENDBRANCH   1  31
BRANCH   2  33
HETATM   33  C5  UNL     1      -4.917   1.540   0.009  1.00  0.00     0.001 C 
HETATM   34  C6  UNL     1      -5.230   2.880  -0.570  1.00  0.00     0.005 C 
ENDBRANCH   2  33
TORSDOF 11
