REMARK  17 active torsions:
REMARK  status: ('A' for Active; 'I' for Inactive)
REMARK    1  A    between atoms: C2_2  and  C3_3 
REMARK    2  A    between atoms: C3_3  and  C4_4 
REMARK    3  A    between atoms: C4_4  and  C5_5 
REMARK    4  A    between atoms: C5_5  and  C6_6 
REMARK    5  A    between atoms: C6_6  and  O1_7 
REMARK    6  A    between atoms: C6_6  and  C7_9 
REMARK    7  A    between atoms: C8_10  and  C9_11 
REMARK    8  A    between atoms: C12_14  and  C13_15 
REMARK    9  A    between atoms: C14_16  and  C15_17 
REMARK   10  A    between atoms: C15_17  and  O2_18 
REMARK   11  A    between atoms: C15_17  and  C16_20 
REMARK   12  A    between atoms: C16_20  and  C17_21 
REMARK   13  A    between atoms: C17_21  and  O3_23 
REMARK   14  A    between atoms: C22_27  and  O4_28 
REMARK   15  A    between atoms: C22_27  and  C23_30 
REMARK   16  A    between atoms: C23_30  and  O5_31 
REMARK   17  A    between atoms: C25_34  and  O6_35 
ROOT
HETATM    1  C9  UNL     1       0.944  -0.134   0.587  1.00  0.00    -0.073 C 
HETATM    2  C10 UNL     1      -0.031   0.925   1.009  1.00  0.00     0.035 C 
HETATM    3  C11 UNL     1      -1.438   0.431   0.757  1.00  0.00     0.013 C 
HETATM    4  C12 UNL     1      -1.480  -0.184  -0.624  1.00  0.00     0.013 C 
HETATM    5  C20 UNL     1      -0.853  -1.491  -0.601  1.00  0.00     0.007 C 
HETATM    6  C21 UNL     1      -1.656  -2.676  -0.198  1.00  0.00     0.046 C 
HETATM    7  C22 UNL     1      -0.784  -3.906  -0.154  1.00  0.00     0.082 C 
HETATM    8  C24 UNL     1       0.630  -3.723  -0.553  1.00  0.00     0.072 C 
HETATM    9  C25 UNL     1       1.329  -2.534   0.011  1.00  0.00     0.129 C 
HETATM   10  C26 UNL     1       0.335  -1.469   0.344  1.00  0.00     0.048 C 
ENDROOT
BRANCH   1  11
HETATM   11  C8  UNL     1       1.936   0.328  -0.385  1.00  0.00     0.002 C 
HETATM   12  C7  UNL     1       3.183   0.674  -0.190  1.00  0.00     0.005 C 
BRANCH  12  13
HETATM   13  C6  UNL     1       3.893   0.676   1.114  1.00  0.00     0.141 C 
BRANCH  13  14
HETATM   14  C5  UNL     1       4.747   1.906   1.189  1.00  0.00     0.036 C 
BRANCH  14  15
HETATM   15  C4  UNL     1       5.770   2.122   0.158  1.00  0.00     0.003 C 
BRANCH  15  16
HETATM   16  C3  UNL     1       6.834   1.068   0.046  1.00  0.00    -0.000 C 
BRANCH  16  17
HETATM   17  C2  UNL     1       7.844   1.463  -1.047  1.00  0.00    -0.005 C 
HETATM   18  C1  UNL     1       8.490   2.770  -0.711  1.00  0.00     0.005 C 
ENDBRANCH  16  17
ENDBRANCH  15  16
ENDBRANCH  14  15
ENDBRANCH  13  14
BRANCH  13  19
HETATM   19  O1  UNL     1       4.669  -0.453   1.193  1.00  0.00    -0.392 OA
ATOM     20  H1  UNL     1       4.128  -1.232   1.145  1.00  0.00     0.210 HD
ENDBRANCH  13  19
ENDBRANCH  12  13
ENDBRANCH   1  11
BRANCH   9  21
HETATM   21  O6  UNL     1       2.271  -2.136  -0.941  1.00  0.00    -0.395 OA
ATOM     22  H6  UNL     1       2.717  -1.378  -0.581  1.00  0.00     0.210 HD
ENDBRANCH   9  21
BRANCH   4  23
HETATM   23  C13 UNL     1      -2.817  -0.022  -1.191  1.00  0.00    -0.023 C 
HETATM   24  C14 UNL     1      -3.908   0.398  -0.634  1.00  0.00     0.001 C 
BRANCH  24  25
HETATM   25  C15 UNL     1      -5.173   0.481  -1.422  1.00  0.00     0.143 C 
BRANCH  25  26
HETATM   26  O2  UNL     1      -6.069  -0.529  -1.090  1.00  0.00    -0.392 OA
ATOM     27  H2  UNL     1      -6.874  -0.476  -1.592  1.00  0.00     0.210 HD
ENDBRANCH  25  26
BRANCH  25  28
HETATM   28  C16 UNL     1      -5.868   1.799  -1.256  1.00  0.00     0.067 C 
BRANCH  28  29
HETATM   29  C17 UNL     1      -6.244   2.075   0.182  1.00  0.00     0.119 C 
HETATM   30  C18 UNL     1      -7.170   1.035   0.738  1.00  0.00     0.039 C 
BRANCH  29  31
HETATM   31  O3  UNL     1      -6.895   3.308   0.192  1.00  0.00    -0.391 OA
HETATM   32  C19 UNL     1      -6.217   4.215   0.967  1.00  0.00     0.202 C 
ENDBRANCH  29  31
ENDBRANCH  28  29
ENDBRANCH  25  28
ENDBRANCH  24  25
ENDBRANCH   4  23
BRANCH   7  33
HETATM   33  O4  UNL     1      -1.291  -4.900  -1.047  1.00  0.00    -0.388 OA
ATOM     34  H4  UNL     1      -0.742  -5.675  -1.019  1.00  0.00     0.210 HD
ENDBRANCH   7  33
BRANCH   7  35
HETATM   35  C23 UNL     1      -0.839  -4.608   1.206  1.00  0.00     0.201 C 
BRANCH  35  36
HETATM   36  O5  UNL     1      -2.167  -4.953   1.469  1.00  0.00    -0.398 OA
ATOM     37  H5  UNL     1      -2.201  -5.388   2.313  1.00  0.00     0.209 HD
ENDBRANCH  35  36
ENDBRANCH   7  35
TORSDOF 17
