REMARK  13 active torsions:
REMARK  status: ('A' for Active; 'I' for Inactive)
REMARK    1  A    between atoms: C2_2  and  C3_3 
REMARK    2  A    between atoms: C3_3  and  C4_4 
REMARK    3  A    between atoms: C4_4  and  C5_5 
REMARK    4  A    between atoms: C5_5  and  C6_6 
REMARK    5  A    between atoms: C6_6  and  C7_7 
REMARK    6  A    between atoms: C8_9  and  O2_10 
REMARK    7  A    between atoms: C9_12  and  C10_13 
REMARK    8  A    between atoms: C10_13  and  C11_14 
REMARK    9  A    between atoms: C11_14  and  C12_15 
REMARK   10  A    between atoms: C15_21  and  C16_22 
REMARK   11  A    between atoms: C16_22  and  N2_23 
REMARK   12  A    between atoms: C16_22  and  C17_27 
REMARK   13  A    between atoms: C17_27  and  C18_28 
ROOT
HETATM    1  C7  UNL     1       2.197   0.136  -0.421  1.00  0.00     0.216 C 
HETATM    2  O1  UNL     1       1.847   1.119   0.467  1.00  0.00    -0.345 OA
HETATM    3  C8  UNL     1       2.329   2.367   0.107  1.00  0.00     0.280 C 
HETATM    4  C9  UNL     1       1.565   3.099  -0.917  1.00  0.00     0.139 C 
HETATM    5  N1  UNL     1       0.127   2.929  -0.908  1.00  0.00    -0.350 N 
ATOM      6  H1  UNL     1      -0.355   3.439  -1.648  1.00  0.00     0.163 HD
HETATM    7  C14 UNL     1      -0.712   2.209  -0.089  1.00  0.00     0.243 C 
HETATM    8  O3  UNL     1      -1.523   2.898   0.648  1.00  0.00    -0.271 OA
HETATM    9  C15 UNL     1      -0.864   0.748   0.112  1.00  0.00     0.206 C 
HETATM   10  N3  UNL     1      -0.301  -0.047  -0.929  1.00  0.00    -0.344 N 
ATOM     11  H3  UNL     1      -0.941  -0.661  -1.433  1.00  0.00     0.163 HD
HETATM   12  C25 UNL     1       1.044  -0.072  -1.332  1.00  0.00     0.247 C 
HETATM   13  O4  UNL     1       1.307  -0.283  -2.544  1.00  0.00    -0.271 OA
ENDROOT
BRANCH   9  14
HETATM   14  C16 UNL     1      -2.379   0.462   0.204  1.00  0.00     0.215 C 
BRANCH  14  15
HETATM   15  N2  UNL     1      -2.930   0.898  -1.052  1.00  0.00    -0.073 N 
ATOM     16  H23 UNL     1      -2.709   1.867  -1.282  1.00  0.00     0.274 HD
ATOM     17  H22 UNL     1      -2.482   0.476  -1.865  1.00  0.00     0.274 HD
ATOM     18  H21 UNL     1      -3.931   0.709  -0.991  1.00  0.00     0.274 HD
ENDBRANCH  14  15
BRANCH  14  19
HETATM   19  C17 UNL     1      -2.651  -0.941   0.588  1.00  0.00     0.040 C 
BRANCH  19  20
HETATM   20  C18 UNL     1      -4.108  -1.297   0.707  1.00  0.00    -0.012 C 
HETATM   21  C19 UNL     1      -4.235  -2.749   1.117  1.00  0.00     0.005 C 
HETATM   22  C20 UNL     1      -4.489  -3.649  -0.072  1.00  0.00     0.001 C 
HETATM   23  C21 UNL     1      -5.795  -3.308  -0.757  1.00  0.00     0.004 C 
HETATM   24  C22 UNL     1      -6.161  -1.870  -0.611  1.00  0.00    -0.018 C 
HETATM   25  C23 UNL     1      -7.124  -1.610   0.514  1.00  0.00     0.010 C 
HETATM   26  C24 UNL     1      -4.923  -0.998  -0.526  1.00  0.00     0.009 C 
ENDBRANCH  19  20
ENDBRANCH  14  19
ENDBRANCH   9  14
BRANCH   4  27
HETATM   27  C10 UNL     1       1.788   4.602  -0.684  1.00  0.00     0.030 C 
BRANCH  27  28
HETATM   28  C11 UNL     1       3.224   5.013  -0.778  1.00  0.00     0.002 C 
BRANCH  28  29
HETATM   29  C12 UNL     1       3.247   6.537  -0.542  1.00  0.00    -0.004 C 
HETATM   30  C13 UNL     1       2.408   7.206  -1.611  1.00  0.00     0.005 C 
ENDBRANCH  28  29
ENDBRANCH  27  28
ENDBRANCH   4  27
BRANCH   1  31
HETATM   31  C6  UNL     1       2.490  -1.147   0.370  1.00  0.00     0.042 C 
BRANCH  31  32
HETATM   32  C5  UNL     1       2.876  -2.247  -0.590  1.00  0.00     0.003 C 
BRANCH  32  33
HETATM   33  C4  UNL     1       3.158  -3.506   0.184  1.00  0.00     0.000 C 
BRANCH  33  34
HETATM   34  C3  UNL     1       4.286  -3.344   1.176  1.00  0.00    -0.000 C 
BRANCH  34  35
HETATM   35  C2  UNL     1       4.484  -4.667   1.888  1.00  0.00    -0.005 C 
HETATM   36  C1  UNL     1       5.610  -4.528   2.879  1.00  0.00     0.005 C 
ENDBRANCH  34  35
ENDBRANCH  33  34
ENDBRANCH  32  33
ENDBRANCH  31  32
ENDBRANCH   1  31
BRANCH   3  37
HETATM   37  O2  UNL     1       3.639   2.187  -0.404  1.00  0.00    -0.369 OA
ATOM     38  H2  UNL     1       3.970   3.043  -0.651  1.00  0.00     0.212 HD
ENDBRANCH   3  37
TORSDOF 13
