REMARK  11 active torsions:
REMARK  status: ('A' for Active; 'I' for Inactive)
REMARK    1  A    between atoms: C13_15  and  C14_16 
REMARK    2  A    between atoms: C15_17  and  C16_18 
REMARK    3  A    between atoms: C16_18  and  C17_19 
REMARK    4  A    between atoms: C17_19  and  C18_20 
REMARK    5  A    between atoms: C18_20  and  C19_21 
REMARK    6  A    between atoms: C19_21  and  N2_22 
REMARK    7  A    between atoms: N2_22  and  N3_24 
REMARK    8  A    between atoms: N5_30  and  C21_31 
REMARK    9  A    between atoms: C21_31  and  C22_32 
REMARK   10  A    between atoms: C22_32  and  C23_33 
REMARK   11  A    between atoms: C26_38  and  O4_39 
ROOT
HETATM    1  C1  UNL     1      -4.922  -4.275  -1.511  1.00  0.00     0.153 C 
HETATM    2  N1  UNL     1      -4.734  -2.842  -1.624  1.00  0.00    -0.347 N 
HETATM    3  C2  UNL     1      -5.742  -1.867  -1.385  1.00  0.00     0.228 C 
HETATM    4  O1  UNL     1      -6.967  -2.156  -1.162  1.00  0.00    -0.273 OA
HETATM    5  C3  UNL     1      -5.078  -0.579  -1.453  1.00  0.00     0.041 C 
HETATM    6  C4  UNL     1      -5.937   0.543  -1.947  1.00  0.00     0.025 C 
HETATM    7  C5  UNL     1      -4.024  -0.826  -2.547  1.00  0.00     0.049 C 
HETATM    8  C6  UNL     1      -3.514  -2.107  -1.993  1.00  0.00     0.117 C 
HETATM    9  C7  UNL     1      -2.615  -1.901  -0.750  1.00  0.00    -0.052 C 
HETATM   10  C8  UNL     1      -1.222  -1.783  -1.125  1.00  0.00    -0.020 C 
HETATM   11  C9  UNL     1      -0.339  -0.633  -0.943  1.00  0.00     0.042 C 
HETATM   12  C10 UNL     1       0.145  -0.304   0.482  1.00  0.00    -0.005 C 
HETATM   13  C11 UNL     1       1.083  -1.388   0.763  1.00  0.00     0.021 C 
HETATM   14  C12 UNL     1       0.456   1.093   0.534  1.00  0.00    -0.027 A 
HETATM   15  C13 UNL     1       1.746   1.466   0.427  1.00  0.00    -0.013 A 
HETATM   16  C20 UNL     1       2.190   2.816   0.564  1.00  0.00     0.102 A 
HETATM   17  N5  UNL     1       1.310   3.784   0.806  1.00  0.00    -0.364 N 
HETATM   18  C24 UNL     1       0.037   3.447   0.909  1.00  0.00     0.100 A 
HETATM   19  C25 UNL     1      -0.455   2.136   0.786  1.00  0.00    -0.006 A 
HETATM   20  C26 UNL     1      -1.892   2.297   0.978  1.00  0.00     0.153 C 
HETATM   21  C27 UNL     1      -2.698   1.147   1.499  1.00  0.00     0.043 C 
HETATM   22  C28 UNL     1      -2.178  -0.069   0.801  1.00  0.00     0.010 C 
HETATM   23  C29 UNL     1      -3.238  -1.031   0.287  1.00  0.00    -0.013 C 
HETATM   24  C30 UNL     1      -3.964  -1.767   1.391  1.00  0.00     0.020 C 
HETATM   25  C31 UNL     1      -4.334  -0.109  -0.271  1.00  0.00     0.033 C 
HETATM   26  C32 UNL     1      -1.007  -0.550   1.503  1.00  0.00    -0.031 C 
HETATM   27  C33 UNL     1      -1.087  -1.946   2.045  1.00  0.00     0.016 C 
HETATM   28  C34 UNL     1      -0.559   0.124   2.783  1.00  0.00     0.016 C 
ENDROOT
BRANCH  15  29
HETATM   29  C14 UNL     1       2.771   0.597  -0.031  1.00  0.00     0.009 C 
HETATM   30  C15 UNL     1       4.072   0.814   0.254  1.00  0.00    -0.026 C 
BRANCH  30  31
HETATM   31  C16 UNL     1       5.156  -0.090  -0.224  1.00  0.00     0.027 C 
BRANCH  31  32
HETATM   32  C17 UNL     1       4.655  -1.237  -1.029  1.00  0.00     0.005 C 
BRANCH  32  33
HETATM   33  C18 UNL     1       5.817  -2.102  -1.448  1.00  0.00     0.021 C 
BRANCH  33  34
HETATM   34  C19 UNL     1       6.820  -1.382  -2.284  1.00  0.00     0.141 C 
BRANCH  34  35
HETATM   35  N2  UNL     1       7.889  -2.308  -2.632  1.00  0.00    -0.323 N 
ATOM     36  H2  UNL     1       8.069  -2.510  -3.615  1.00  0.00     0.181 HD
BRANCH  35  37
HETATM   37  N3  UNL     1       8.672  -2.925  -1.659  1.00  0.00    -0.254 N 
HETATM   38  N4  UNL     1       9.223  -2.206  -0.775  1.00  0.00    -0.331 N 
ATOM     39  H42 UNL     1       9.086  -1.195  -0.789  1.00  0.00     0.178 HD
ATOM     40  H41 UNL     1       9.796  -2.658  -0.063  1.00  0.00     0.178 HD
ATOM     41  H3  UNL     1       8.799  -3.937  -1.659  1.00  0.00     0.207 HD
ENDBRANCH  35  37
ENDBRANCH  34  35
ENDBRANCH  33  34
ENDBRANCH  32  33
ENDBRANCH  31  32
ENDBRANCH  30  31
ENDBRANCH  15  29
BRANCH  17  42
HETATM   42  C21 UNL     1       1.778   5.149   0.944  1.00  0.00     0.138 C 
BRANCH  42  43
HETATM   43  C22 UNL     1       2.086   5.365   2.423  1.00  0.00     0.133 C 
BRANCH  43  44
HETATM   44  C23 UNL     1       2.574   6.746   2.663  1.00  0.00     0.174 C 
HETATM   45  O2  UNL     1       2.914   7.136   3.804  1.00  0.00    -0.648 OA
HETATM   46  O3  UNL     1       2.663   7.644   1.613  1.00  0.00    -0.648 OA
ENDBRANCH  43  44
ENDBRANCH  42  43
ENDBRANCH  17  42
BRANCH  20  47
HETATM   47  O4  UNL     1      -2.243   3.497   1.631  1.00  0.00    -0.391 OA
ATOM     48  H4  UNL     1      -3.179   3.602   1.756  1.00  0.00     0.210 HD
ENDBRANCH  20  47
TORSDOF 11
