REMARK  13 active torsions:
REMARK  status: ('A' for Active; 'I' for Inactive)
REMARK    1  A    between atoms: C4_5  and  C5_6 
REMARK    2  A    between atoms: C5_6  and  C6_7 
REMARK    3  A    between atoms: C11_12  and  N1_13 
REMARK    4  A    between atoms: N1_13  and  C12_15 
REMARK    5  A    between atoms: C12_15  and  C13_16 
REMARK    6  A    between atoms: C18_21  and  C19_22 
REMARK    7  A    between atoms: C19_22  and  N2_23 
REMARK    8  A    between atoms: N3_29  and  C25_30 
REMARK    9  A    between atoms: C26_31  and  C27_32 
REMARK   10  A    between atoms: C29_36  and  N5_37 
REMARK   11  A    between atoms: N7_47  and  C33_48 
REMARK   12  A    between atoms: C33_48  and  C34_49 
REMARK   13  A    between atoms: C34_49  and  C35_50 
ROOT
HETATM    1  C1  UNL     1       1.577   2.394  -1.267  1.00  0.00     0.041 C 
HETATM    2  C2  UNL     1       2.423   1.847  -0.200  1.00  0.00     0.155 C 
HETATM    3  C3  UNL     1       1.909   0.708   0.581  1.00  0.00     0.172 C 
HETATM    4  O1  UNL     1       2.255   0.859   1.789  1.00  0.00    -0.293 OA
HETATM    5  C4  UNL     1       1.113  -0.585   0.428  1.00  0.00     0.168 C 
HETATM    6  N3  UNL     1       1.636  -1.330  -0.651  1.00  0.00    -0.308 N 
HETATM    7  C31 UNL     1       2.867  -0.945  -1.425  1.00  0.00     0.316 C 
HETATM    8  O2  UNL     1       3.004  -1.604  -2.508  1.00  0.00    -0.262 OA
HETATM    9  C32 UNL     1       3.867   0.014  -1.152  1.00  0.00     0.312 C 
HETATM   10  O3  UNL     1       5.095  -0.365  -1.329  1.00  0.00    -0.262 OA
HETATM   11  N7  UNL     1       3.708   1.359  -0.695  1.00  0.00    -0.332 N 
ENDROOT
BRANCH   5  12
HETATM   12  C5  UNL     1      -0.324  -0.109   0.496  1.00  0.00     0.074 C 
BRANCH  12  13
HETATM   13  C6  UNL     1      -1.358  -1.158   0.645  1.00  0.00    -0.029 A 
HETATM   14  C7  UNL     1      -1.050  -1.884   1.861  1.00  0.00     0.009 A 
HETATM   15  C8  UNL     1      -1.776  -2.981   2.193  1.00  0.00     0.001 A 
HETATM   16  C9  UNL     1      -2.789  -3.391   1.373  1.00  0.00     0.002 A 
HETATM   17  C10 UNL     1      -3.092  -2.720   0.228  1.00  0.00     0.030 A 
HETATM   18  C11 UNL     1      -2.383  -1.584  -0.151  1.00  0.00     0.038 A 
BRANCH  18  19
HETATM   19  N1  UNL     1      -2.788  -0.820  -1.259  1.00  0.00    -0.365 N 
ATOM     20  H1  UNL     1      -2.054  -0.494  -1.888  1.00  0.00     0.165 HD
BRANCH  19  21
HETATM   21  C12 UNL     1      -4.107  -0.463  -1.583  1.00  0.00     0.100 C 
BRANCH  21  22
HETATM   22  C13 UNL     1      -5.348  -0.864  -1.048  1.00  0.00    -0.013 A 
HETATM   23  C14 UNL     1      -5.978  -2.050  -1.149  1.00  0.00     0.013 A 
HETATM   24  C15 UNL     1      -7.237  -2.366  -0.691  1.00  0.00     0.001 A 
HETATM   25  C16 UNL     1      -7.953  -1.411  -0.063  1.00  0.00     0.001 A 
HETATM   26  C17 UNL     1      -7.370  -0.144   0.074  1.00  0.00     0.010 A 
HETATM   27  C18 UNL     1      -6.122   0.137  -0.396  1.00  0.00    -0.028 A 
BRANCH  27  28
HETATM   28  C19 UNL     1      -5.595   1.526  -0.253  1.00  0.00     0.167 C 
BRANCH  28  29
HETATM   29  N2  UNL     1      -6.759   2.417  -0.059  1.00  0.00    -0.362 N 
HETATM   30  C20 UNL     1      -7.163   2.915   1.094  1.00  0.00     0.090 A 
HETATM   31  C21 UNL     1      -8.352   3.622   1.236  1.00  0.00     0.017 A 
HETATM   32  C22 UNL     1      -9.101   3.786   0.122  1.00  0.00     0.003 A 
HETATM   33  C23 UNL     1      -8.692   3.277  -1.082  1.00  0.00     0.017 A 
HETATM   34  C24 UNL     1      -7.510   2.584  -1.190  1.00  0.00     0.090 A 
ENDBRANCH  28  29
ENDBRANCH  27  28
ENDBRANCH  21  22
ENDBRANCH  19  21
ENDBRANCH  18  19
ENDBRANCH  12  13
ENDBRANCH   5  12
BRANCH   6  35
HETATM   35  C25 UNL     1       1.165  -2.485  -1.310  1.00  0.00     0.096 C 
HETATM   36  C26 UNL     1       1.757  -3.787  -1.172  1.00  0.00     0.031 C 
BRANCH  36  37
HETATM   37  C27 UNL     1       1.708  -4.827  -0.196  1.00  0.00    -0.003 A 
HETATM   38  C28 UNL     1       0.710  -5.834  -0.393  1.00  0.00     0.119 A 
HETATM   39  N4  UNL     1       0.636  -6.914   0.361  1.00  0.00    -0.201 N 
HETATM   40  C29 UNL     1       1.491  -7.146   1.359  1.00  0.00     0.675 A 
ATOM     41  H4  UNL     1      -0.100  -7.595   0.175  1.00  0.00     0.183 HD
HETATM   42  N6  UNL     1       2.460  -6.226   1.596  1.00  0.00    -0.201 N 
HETATM   43  C30 UNL     1       2.552  -5.099   0.834  1.00  0.00     0.119 A 
ATOM     44  H6  UNL     1       3.127  -6.379   2.352  1.00  0.00     0.183 HD
BRANCH  40  45
HETATM   45  N5  UNL     1       1.395  -8.206   2.075  1.00  0.00    -0.234 N 
ATOM     46  H52 UNL     1       0.667  -8.898   1.897  1.00  0.00     0.174 HD
ATOM     47  H51 UNL     1       2.049  -8.383   2.838  1.00  0.00     0.174 HD
ENDBRANCH  40  45
ENDBRANCH  36  37
ENDBRANCH   6  35
BRANCH  11  48
HETATM   48  C33 UNL     1       4.909   2.105  -0.655  1.00  0.00     0.132 C 
BRANCH  48  49
HETATM   49  C34 UNL     1       5.326   2.322   0.785  1.00  0.00     0.061 C 
BRANCH  49  50
HETATM   50  C35 UNL     1       6.712   2.811   0.813  1.00  0.00    -0.029 A 
HETATM   51  C36 UNL     1       7.746   2.143   1.506  1.00  0.00     0.096 A 
HETATM   52  N8  UNL     1       8.827   2.862   1.337  1.00  0.00    -0.365 N 
HETATM   53  C37 UNL     1       8.579   3.942   0.592  1.00  0.00     0.042 A 
ATOM     54  H8  UNL     1       9.741   2.627   1.725  1.00  0.00     0.165 HD
HETATM   55  C38 UNL     1       9.414   4.948   0.133  1.00  0.00     0.030 A 
HETATM   56  C42 UNL     1       7.235   3.941   0.247  1.00  0.00    -0.002 A 
HETATM   57  C39 UNL     1       8.885   5.927  -0.661  1.00  0.00     0.002 A 
HETATM   58  C40 UNL     1       7.559   5.954  -1.020  1.00  0.00     0.001 A 
HETATM   59  C41 UNL     1       6.739   4.939  -0.546  1.00  0.00     0.014 A 
ENDBRANCH  49  50
ENDBRANCH  48  49
ENDBRANCH  11  48
TORSDOF 13
