REMARK  14 active torsions:
REMARK  status: ('A' for Active; 'I' for Inactive)
REMARK    1  A    between atoms: N2_10  and  C9_11 
REMARK    2  A    between atoms: N2_10  and  C34_43 
REMARK    3  A    between atoms: C9_11  and  C10_12 
REMARK    4  A    between atoms: C11_13  and  C12_14 
REMARK    5  A    between atoms: C14_16  and  C15_17 
REMARK    6  A    between atoms: C18_20  and  N3_21 
REMARK    7  A    between atoms: C21_25  and  C22_26 
REMARK    8  A    between atoms: C21_25  and  C24_29 
REMARK    9  A    between atoms: C24_29  and  N5_30 
REMARK   10  A    between atoms: C32_40  and  C33_41 
REMARK   11  A    between atoms: C34_43  and  C35_44 
REMARK       I    between atoms: C35_44  and  N7_46 
REMARK   12  A    between atoms: N7_46  and  C36_48 
REMARK   13  A    between atoms: C36_48  and  C37_49 
REMARK   14  A    between atoms: C38_50  and  C39_51 
ROOT
HETATM    1  C12 UNL     1       0.413  -0.521  -0.754  1.00  0.00    -0.011 A 
HETATM    2  C13 UNL     1      -0.955  -0.807  -0.895  1.00  0.00     0.043 A 
HETATM    3  C14 UNL     1      -1.652   0.356  -0.664  1.00  0.00     0.043 A 
HETATM    4  N6  UNL     1      -0.809   1.333  -0.387  1.00  0.00    -0.357 N 
ATOM      5  H6  UNL     1      -1.054   2.300  -0.173  1.00  0.00     0.166 HD
HETATM    6  C32 UNL     1       0.448   0.813  -0.439  1.00  0.00     0.033 A 
ENDROOT
BRANCH   1   7
HETATM    7  C11 UNL     1       1.459  -1.508  -0.956  1.00  0.00     0.011 C 
HETATM    8  C10 UNL     1       2.762  -1.321  -0.968  1.00  0.00     0.005 C 
BRANCH   8   9
HETATM    9  C9  UNL     1       3.637  -2.468  -1.194  1.00  0.00     0.304 C 
BRANCH   9  10
HETATM   10  N2  UNL     1       4.643  -2.781  -0.233  1.00  0.00     0.066 N 
HETATM   11  N1  UNL     1       4.210  -3.555   0.810  1.00  0.00    -0.204 N 
HETATM   12  C1  UNL     1       3.217  -3.221   1.847  1.00  0.00     0.186 C 
HETATM   13  C2  UNL     1       4.810  -4.687   0.768  1.00  0.00     0.070 A 
HETATM   14  C3  UNL     1       4.737  -5.826   1.575  1.00  0.00     0.032 A 
HETATM   15  C7  UNL     1       5.681  -4.739  -0.293  1.00  0.00     0.018 A 
HETATM   16  C4  UNL     1       5.488  -6.953   1.338  1.00  0.00     0.002 A 
HETATM   17  C5  UNL     1       6.363  -7.004   0.272  1.00  0.00     0.001 A 
HETATM   18  C6  UNL     1       6.443  -5.889  -0.529  1.00  0.00     0.015 A 
HETATM   19  C8  UNL     1       5.584  -3.590  -0.901  1.00  0.00     0.249 A 
BRANCH  10  20
HETATM   20  C34 UNL     1       5.409  -1.653   0.259  1.00  0.00     0.309 C 
BRANCH  20  21
HETATM   21  C35 UNL     1       6.002  -0.777  -0.717  1.00  0.00     0.268 C 
HETATM   22  O2  UNL     1       5.840  -0.956  -1.948  1.00  0.00    -0.267 OA
HETATM   23  N7  UNL     1       6.805   0.336  -0.360  1.00  0.00    -0.346 N 
ATOM     24  H7  UNL     1       6.979   0.544   0.623  1.00  0.00     0.163 HD
BRANCH  23  25
HETATM   25  C36 UNL     1       7.374   1.172  -1.383  1.00  0.00     0.217 C 
BRANCH  25  26
HETATM   26  C37 UNL     1       8.171   2.227  -0.787  1.00  0.00    -0.086 C 
HETATM   27  C38 UNL     1       8.856   3.113  -0.320  1.00  0.00    -0.096 C 
BRANCH  27  28
HETATM   28  C39 UNL     1       9.706   4.195   0.216  1.00  0.00     0.013 C 
HETATM   29  C40 UNL     1       9.265   4.638   1.575  1.00  0.00     0.028 C 
HETATM   30  C41 UNL     1       9.583   5.333  -0.773  1.00  0.00     0.028 C 
HETATM   31  C42 UNL     1      11.158   3.793   0.263  1.00  0.00     0.028 C 
ENDBRANCH  27  28
ENDBRANCH  25  26
ENDBRANCH  23  25
ENDBRANCH  20  21
ENDBRANCH  10  20
ENDBRANCH   9  10
ENDBRANCH   8   9
ENDBRANCH   1   7
BRANCH   6  32
HETATM   32  C33 UNL     1       1.640   1.627  -0.167  1.00  0.00     0.169 C 
HETATM   33  S1  UNL     1       2.092   1.960   1.380  1.00  0.00    -0.120 SA
ENDBRANCH   6  32
BRANCH   3  34
HETATM   34  C15 UNL     1      -3.126   0.500  -0.786  1.00  0.00    -0.009 A 
HETATM   35  C16 UNL     1      -3.763   1.714  -0.676  1.00  0.00     0.016 A 
HETATM   36  C17 UNL     1      -5.128   1.844  -0.840  1.00  0.00     0.031 A 
HETATM   37  C18 UNL     1      -5.916   0.743  -1.124  1.00  0.00     0.038 A 
HETATM   38  C30 UNL     1      -5.256  -0.491  -1.232  1.00  0.00     0.031 A 
HETATM   39  C31 UNL     1      -3.890  -0.615  -1.067  1.00  0.00     0.016 A 
BRANCH  37  40
HETATM   40  N3  UNL     1      -7.293   0.791  -1.347  1.00  0.00    -0.302 N 
HETATM   41  C19 UNL     1      -8.032   0.591  -2.577  1.00  0.00     0.228 C 
HETATM   42  O1  UNL     1      -7.888  -0.188  -3.523  1.00  0.00    -0.273 OA
HETATM   43  C20 UNL     1      -8.907   1.702  -2.078  1.00  0.00     0.141 C 
HETATM   44  C21 UNL     1      -8.580   1.010  -0.725  1.00  0.00     0.084 C 
BRANCH  44  45
HETATM   45  C22 UNL     1      -8.635   1.955   0.391  1.00  0.00     0.021 C 
HETATM   46  C23 UNL     1      -7.821   1.896   1.414  1.00  0.00     0.098 C 
HETATM   47  N4  UNL     1      -7.849   2.794   2.502  1.00  0.00    -0.115 NA
ENDBRANCH  44  45
BRANCH  44  48
HETATM   48  C24 UNL     1      -9.369  -0.240  -0.507  1.00  0.00     0.164 C 
BRANCH  48  49
HETATM   49  N5  UNL     1     -10.631   0.001   0.112  1.00  0.00    -0.364 N 
HETATM   50  C25 UNL     1     -11.729   0.246  -0.644  1.00  0.00     0.090 A 
HETATM   51  C26 UNL     1     -12.981   0.477  -0.128  1.00  0.00     0.017 A 
HETATM   52  C27 UNL     1     -13.165   0.464   1.228  1.00  0.00     0.003 A 
HETATM   53  C28 UNL     1     -12.031   0.210   2.017  1.00  0.00     0.017 A 
HETATM   54  C29 UNL     1     -10.802  -0.014   1.449  1.00  0.00     0.090 A 
ENDBRANCH  48  49
ENDBRANCH  44  48
ENDBRANCH  37  40
ENDBRANCH   3  34
TORSDOF 14
