REMARK  11 active torsions:
REMARK  status: ('A' for Active; 'I' for Inactive)
REMARK    1  A    between atoms: C3_3  and  C4_4 
REMARK    2  A    between atoms: C5_5  and  C6_6 
REMARK    3  A    between atoms: C6_6  and  C7_8 
REMARK    4  A    between atoms: C7_8  and  C9_10 
REMARK    5  A    between atoms: C9_10  and  O2_11 
REMARK    6  A    between atoms: C9_10  and  C10_13 
REMARK    7  A    between atoms: C10_13  and  O3_14 
REMARK    8  A    between atoms: C10_13  and  C12_16 
REMARK    9  A    between atoms: C12_16  and  O4_17 
REMARK   10  A    between atoms: C14_23  and  O5_24 
REMARK   11  A    between atoms: C15_26  and  O6_27 
ROOT
HETATM    1  C10 UNL     1      -1.178  -0.988   0.486  1.00  0.00     0.216 C 
ENDROOT
BRANCH   1   2
HETATM    2  C9  UNL     1      -0.597  -1.777  -0.624  1.00  0.00     0.163 C 
BRANCH   2   3
HETATM    3  C7  UNL     1       0.234  -1.061  -1.613  1.00  0.00     0.087 C 
HETATM    4  C8  UNL     1       0.812  -1.985  -2.653  1.00  0.00     0.021 C 
BRANCH   3   5
HETATM    5  C6  UNL     1       1.376  -0.346  -0.996  1.00  0.00     0.155 C 
HETATM    6  O1  UNL     1       1.385   0.897  -1.044  1.00  0.00    -0.293 OA
BRANCH   5   7
HETATM    7  C5  UNL     1       2.461  -1.056  -0.352  1.00  0.00     0.050 C 
HETATM    8  C4  UNL     1       3.517  -0.573   0.225  1.00  0.00     0.003 C 
BRANCH   8   9
HETATM    9  C3  UNL     1       3.918   0.793   0.393  1.00  0.00    -0.004 C 
HETATM   10  C2  UNL     1       5.047   1.099   1.018  1.00  0.00    -0.031 C 
HETATM   11  C1  UNL     1       5.489   2.491   1.209  1.00  0.00     0.036 C 
ENDBRANCH   8   9
ENDBRANCH   5   7
ENDBRANCH   3   5
ENDBRANCH   2   3
BRANCH   2  12
HETATM   12  O2  UNL     1      -1.659  -2.483  -1.208  1.00  0.00    -0.392 OA
ATOM     13  H2  UNL     1      -2.194  -2.944  -0.572  1.00  0.00     0.210 HD
ENDBRANCH   2  12
ENDBRANCH   1   2
BRANCH   1  14
HETATM   14  O3  UNL     1      -0.266  -0.209   1.146  1.00  0.00    -0.383 OA
HETATM   15  C11 UNL     1      -0.073  -0.608   2.491  1.00  0.00     0.202 C 
ENDBRANCH   1  14
BRANCH   1  16
HETATM   16  C12 UNL     1      -2.491  -0.299   0.193  1.00  0.00     0.281 C 
HETATM   17  N1  UNL     1      -3.082   0.100   1.483  1.00  0.00    -0.035 N 
HETATM   18  C13 UNL     1      -3.862   1.273   1.241  1.00  0.00     0.270 C 
ATOM     19  H12 UNL     1      -3.612  -0.648   1.929  1.00  0.00     0.281 HD
ATOM     20  H11 UNL     1      -2.388   0.225   2.220  1.00  0.00     0.281 HD
HETATM   21  C14 UNL     1      -3.116   2.056   0.182  1.00  0.00     0.177 C 
HETATM   22  C15 UNL     1      -2.407   0.946  -0.605  1.00  0.00     0.214 C 
BRANCH  16  23
HETATM   23  O4  UNL     1      -3.426  -1.213  -0.323  1.00  0.00    -0.361 OA
ATOM     24  H4  UNL     1      -4.251  -0.780  -0.507  1.00  0.00     0.212 HD
ENDBRANCH  16  23
BRANCH  21  25
HETATM   25  O5  UNL     1      -3.932   2.821  -0.614  1.00  0.00    -0.391 OA
ATOM     26  H5  UNL     1      -3.464   3.312  -1.279  1.00  0.00     0.210 HD
ENDBRANCH  21  25
BRANCH  22  27
HETATM   27  O6  UNL     1      -3.044   0.803  -1.867  1.00  0.00    -0.388 OA
ATOM     28  H6  UNL     1      -2.990   1.602  -2.379  1.00  0.00     0.210 HD
ENDBRANCH  22  27
ENDBRANCH   1  16
TORSDOF 11
