REMARK  11 active torsions:
REMARK  status: ('A' for Active; 'I' for Inactive)
REMARK    1  A    between atoms: C2_2  and  O1_3 
REMARK    2  A    between atoms: O1_3  and  C3_4 
REMARK       I    between atoms: C3_4  and  N1_6 
REMARK    3  A    between atoms: N1_6  and  C4_8 
REMARK    4  A    between atoms: C4_8  and  O3_9 
REMARK    5  A    between atoms: C4_8  and  C5_11 
REMARK    6  A    between atoms: C5_11  and  C6_12 
REMARK    7  A    between atoms: C5_11  and  N2_16 
REMARK    8  A    between atoms: C6_12  and  C7_13 
REMARK    9  A    between atoms: N2_16  and  C10_18 
REMARK   10  A    between atoms: C10_18  and  C11_19 
REMARK       I    between atoms: C11_19  and  N3_21 
REMARK       I    between atoms: N3_21  and  C12_23 
REMARK   11  A    between atoms: C12_23  and  O6_25 
ROOT
HETATM    1  C5  UNL     1      -0.868  -0.878  -0.717  1.00  0.00     0.130 C 
ENDROOT
BRANCH   1   2
HETATM    2  C4  UNL     1      -1.511   0.032  -1.680  1.00  0.00     0.244 C 
BRANCH   2   3
HETATM    3  N1  UNL     1      -1.698   1.366  -1.157  1.00  0.00    -0.308 N 
HETATM    4  C3  UNL     1      -2.954   1.893  -0.801  1.00  0.00     0.362 C 
HETATM    5  O2  UNL     1      -3.968   1.177  -0.942  1.00  0.00    -0.238 OA
ATOM      6  H1  UNL     1      -0.876   1.958  -1.039  1.00  0.00     0.167 HD
BRANCH   4   7
HETATM    7  O1  UNL     1      -3.055   3.164  -0.311  1.00  0.00    -0.304 OA
BRANCH   7   8
HETATM    8  C2  UNL     1      -4.285   3.750   0.063  1.00  0.00     0.176 C 
HETATM    9  C1  UNL     1      -4.103   5.150   0.567  1.00  0.00     0.034 C 
ENDBRANCH   7   8
ENDBRANCH   4   7
ENDBRANCH   2   3
BRANCH   2  10
HETATM   10  O3  UNL     1      -1.051  -0.027  -2.978  1.00  0.00    -0.375 OA
ATOM     11  H3  UNL     1      -0.928  -0.904  -3.322  1.00  0.00     0.212 HD
ENDBRANCH   2  10
ENDBRANCH   1   2
BRANCH   1  12
HETATM   12  C6  UNL     1      -1.259  -2.334  -1.048  1.00  0.00     0.033 C 
BRANCH  12  13
HETATM   13  C7  UNL     1      -0.596  -3.278  -0.053  1.00  0.00    -0.021 C 
HETATM   14  C8  UNL     1      -0.957  -4.700  -0.347  1.00  0.00     0.009 C 
HETATM   15  C9  UNL     1      -0.966  -2.843   1.327  1.00  0.00     0.009 C 
ENDBRANCH  12  13
ENDBRANCH   1  12
BRANCH   1  16
HETATM   16  N2  UNL     1       0.483  -0.863  -0.459  1.00  0.00    -0.386 N 
ATOM     17  H2  UNL     1       1.002  -1.710  -0.689  1.00  0.00     0.159 HD
BRANCH  16  18
HETATM   18  C10 UNL     1       1.209   0.181   0.080  1.00  0.00     0.158 C 
BRANCH  18  19
HETATM   19  C11 UNL     1       2.654  -0.244   0.242  1.00  0.00     0.264 C 
HETATM   20  O4  UNL     1       3.020  -1.403  -0.100  1.00  0.00    -0.267 OA
HETATM   21  N3  UNL     1       3.559   0.698   0.784  1.00  0.00    -0.268 N 
HETATM   22  C12 UNL     1       4.945   0.395   0.979  1.00  0.00     0.367 C 
ATOM     23  H3  UNL     1       3.214   1.622   1.044  1.00  0.00     0.174 HD
HETATM   24  O5  UNL     1       5.417  -0.729   0.673  1.00  0.00    -0.238 OA
BRANCH  22  25
HETATM   25  O6  UNL     1       5.807   1.341   1.513  1.00  0.00    -0.309 OA
HETATM   26  C13 UNL     1       7.194   1.049   1.712  1.00  0.00     0.215 C 
ENDBRANCH  22  25
ENDBRANCH  18  19
ENDBRANCH  16  18
ENDBRANCH   1  16
TORSDOF 11
