REMARK  12 active torsions:
REMARK  status: ('A' for Active; 'I' for Inactive)
REMARK    1  A    between atoms: O1_3  and  C2_4 
REMARK    2  A    between atoms: C4_6  and  O2_7 
REMARK    3  A    between atoms: C6_12  and  C7_13 
REMARK    4  A    between atoms: C7_13  and  C8_14 
REMARK    5  A    between atoms: C8_14  and  C9_15 
REMARK    6  A    between atoms: C9_15  and  C10_16 
REMARK    7  A    between atoms: C10_16  and  C11_17 
REMARK    8  A    between atoms: C11_17  and  N3_18 
REMARK       I    between atoms: N3_18  and  C12_20 
REMARK    9  A    between atoms: C13_25  and  S1_26 
REMARK   10  A    between atoms: S1_26  and  C14_27 
REMARK   11  A    between atoms: C14_27  and  C15_28 
REMARK   12  A    between atoms: C15_28  and  N6_29 
ROOT
HETATM    1  N1  UNL     1       1.274  -8.260  -2.351  1.00  0.00    -0.164 NA
HETATM    2  C1  UNL     1       1.530  -7.119  -2.446  1.00  0.00     0.234 C 
HETATM    3  O1  UNL     1       1.819  -5.789  -2.572  1.00  0.00    -0.240 OA
ENDROOT
BRANCH   3   4
HETATM    4  C2  UNL     1       1.016  -4.831  -1.951  1.00  0.00     0.092 A 
HETATM    5  C3  UNL     1      -0.069  -5.252  -1.213  1.00  0.00     0.077 A 
HETATM    6  C4  UNL     1      -0.889  -4.337  -0.582  1.00  0.00     0.096 A 
HETATM    7  C5  UNL     1      -0.657  -2.988  -0.665  1.00  0.00     0.077 A 
HETATM    8  N2  UNL     1      -1.302  -1.899  -0.155  1.00  0.00    -0.355 N 
HETATM    9  C21 UNL     1       0.421  -2.549  -1.398  1.00  0.00     0.015 A 
HETATM   10  C6  UNL     1      -0.688  -0.771  -0.527  1.00  0.00     0.027 A 
ATOM     11  H2  UNL     1      -2.137  -1.940   0.429  1.00  0.00     0.166 HD
HETATM   12  C13 UNL     1       0.398  -1.186  -1.311  1.00  0.00     0.035 A 
HETATM   13  C22 UNL     1       1.252  -3.477  -2.037  1.00  0.00     0.053 A 
BRANCH   6  14
HETATM   14  O2  UNL     1      -1.962  -4.800   0.147  1.00  0.00    -0.358 OA
ATOM     15  H2  UNL     1      -2.526  -4.171   0.581  1.00  0.00     0.217 HD
ENDBRANCH   6  14
BRANCH  10  16
HETATM   16  C7  UNL     1      -0.997   0.646  -0.206  1.00  0.00     0.058 C 
BRANCH  16  17
HETATM   17  C8  UNL     1      -2.247   0.843   0.548  1.00  0.00     0.006 C 
BRANCH  17  18
HETATM   18  C9  UNL     1      -3.478   0.451  -0.199  1.00  0.00     0.002 C 
BRANCH  18  19
HETATM   19  C10 UNL     1      -4.733   0.634   0.633  1.00  0.00     0.020 C 
BRANCH  19  20
HETATM   20  C11 UNL     1      -4.957   2.047   1.076  1.00  0.00     0.122 C 
BRANCH  20  21
HETATM   21  N3  UNL     1      -6.148   2.128   1.882  1.00  0.00    -0.365 N 
HETATM   22  C12 UNL     1      -7.420   1.914   1.310  1.00  0.00     0.181 C 
HETATM   23  N4  UNL     1      -8.064   0.844   1.635  1.00  0.00    -0.374 N 
HETATM   24  N5  UNL     1      -8.049   2.807   0.396  1.00  0.00    -0.064 NA
ATOM     25  H42 UNL     1      -7.614   0.204   2.290  1.00  0.00     0.158 HD
ATOM     26  H41 UNL     1      -8.984   0.689   1.222  1.00  0.00     0.158 HD
ATOM     27  H3  UNL     1      -6.071   2.342   2.876  1.00  0.00     0.162 HD
ENDBRANCH  20  21
ENDBRANCH  19  20
ENDBRANCH  18  19
ENDBRANCH  17  18
ENDBRANCH  16  17
ENDBRANCH  10  16
BRANCH  12  28
HETATM   28  S1  UNL     1       1.532  -0.042  -2.067  1.00  0.00    -0.125 SA
BRANCH  28  29
HETATM   29  C14 UNL     1       2.814   0.321  -0.807  1.00  0.00     0.099 C 
BRANCH  29  30
HETATM   30  C15 UNL     1       3.817   1.318  -1.291  1.00  0.00     0.136 C 
BRANCH  30  31
HETATM   31  N6  UNL     1       4.757   1.566  -0.215  1.00  0.00    -0.351 N 
HETATM   32  C16 UNL     1       5.972   0.804  -0.042  1.00  0.00     0.126 C 
HETATM   33  C17 UNL     1       6.630   1.248   1.266  1.00  0.00     0.020 C 
HETATM   34  C18 UNL     1       6.887   2.740   1.191  1.00  0.00     0.011 C 
HETATM   35  C19 UNL     1       5.552   3.432   1.370  1.00  0.00     0.103 C 
HETATM   36  C20 UNL     1       4.492   2.615   0.737  1.00  0.00     0.219 C 
HETATM   37  O3  UNL     1       3.276   2.848   1.046  1.00  0.00    -0.273 OA
ENDBRANCH  30  31
ENDBRANCH  29  30
ENDBRANCH  28  29
ENDBRANCH  12  28
ENDBRANCH   3   4
TORSDOF 12
