REMARK  16 active torsions:
REMARK  status: ('A' for Active; 'I' for Inactive)
REMARK    1  A    between atoms: C2_3  and  O1_4 
REMARK    2  A    between atoms: O1_4  and  C3_5 
REMARK    3  A    between atoms: C3_5  and  C4_7 
REMARK    4  A    between atoms: C4_7  and  C5_8 
REMARK    5  A    between atoms: C5_8  and  C6_9 
REMARK    6  A    between atoms: C6_9  and  C7_10 
REMARK    7  A    between atoms: C10_13  and  O3_14 
REMARK    8  A    between atoms: C12_17  and  O4_18 
REMARK    9  A    between atoms: C13_20  and  C14_21 
REMARK   10  A    between atoms: C14_21  and  C15_22 
REMARK   11  A    between atoms: C16_23  and  C17_24 
REMARK   12  A    between atoms: C17_24  and  C18_25 
REMARK   13  A    between atoms: C18_25  and  N2_26 
REMARK   14  A    between atoms: N2_26  and  C19_29 
REMARK   15  A    between atoms: C19_29  and  C20_30 
REMARK   16  A    between atoms: C20_30  and  O5_31 
ROOT
HETATM    1  N1  UNL     1      -7.751  -1.333   1.987  1.00  0.00    -0.189 NA
HETATM    2  C1  UNL     1      -7.055  -0.695   1.289  1.00  0.00     0.125 C 
HETATM    3  C2  UNL     1      -6.221   0.074   0.429  1.00  0.00     0.161 C 
HETATM    4  C21 UNL     1      -6.707   1.156  -0.140  1.00  0.00    -0.035 C 
HETATM    5  C22 UNL     1      -5.843   1.964  -1.038  1.00  0.00     0.038 C 
HETATM    6  C23 UNL     1      -6.591   2.553  -2.198  1.00  0.00     0.004 C 
HETATM    7  C24 UNL     1      -7.965   3.040  -1.859  1.00  0.00     0.001 C 
HETATM    8  C25 UNL     1      -8.228   3.027  -0.367  1.00  0.00     0.004 C 
HETATM    9  C26 UNL     1      -8.127   1.598   0.098  1.00  0.00     0.038 C 
ENDROOT
BRANCH   3  10
HETATM   10  O1  UNL     1      -4.925  -0.323   0.206  1.00  0.00    -0.267 OA
BRANCH  10  11
HETATM   11  C3  UNL     1      -3.825   0.056   0.936  1.00  0.00     0.264 C 
HETATM   12  O2  UNL     1      -4.000   0.836   1.898  1.00  0.00    -0.265 OA
BRANCH  11  13
HETATM   13  C4  UNL     1      -2.443  -0.419   0.634  1.00  0.00     0.112 C 
BRANCH  13  14
HETATM   14  C5  UNL     1      -2.522  -1.381  -0.526  1.00  0.00     0.013 C 
BRANCH  14  15
HETATM   15  C6  UNL     1      -1.181  -1.924  -0.925  1.00  0.00     0.028 C 
BRANCH  15  16
HETATM   16  C7  UNL     1      -0.492  -2.662   0.153  1.00  0.00    -0.023 C 
HETATM   17  C8  UNL     1       0.675  -2.375   0.670  1.00  0.00    -0.074 C 
HETATM   18  C9  UNL     1       1.249  -3.199   1.747  1.00  0.00     0.066 C 
HETATM   19  C13 UNL     1       1.456  -1.220   0.197  1.00  0.00     0.046 C 
HETATM   20  C10 UNL     1       1.459  -2.308   2.945  1.00  0.00     0.124 C 
HETATM   21  C11 UNL     1       1.940  -0.934   2.625  1.00  0.00     0.064 C 
HETATM   22  C12 UNL     1       2.519  -0.897   1.252  1.00  0.00     0.129 C 
BRANCH  20  23
HETATM   23  O3  UNL     1       2.355  -2.900   3.854  1.00  0.00    -0.395 OA
ATOM     24  H3  UNL     1       2.487  -2.339   4.609  1.00  0.00     0.210 HD
ENDBRANCH  20  23
BRANCH  22  25
HETATM   25  O4  UNL     1       3.629  -1.728   1.133  1.00  0.00    -0.395 OA
ATOM     26  H4  UNL     1       3.998  -1.704   0.258  1.00  0.00     0.210 HD
ENDBRANCH  22  25
BRANCH  19  27
HETATM   27  C14 UNL     1       2.188  -1.465  -1.093  1.00  0.00     0.038 C 
BRANCH  27  28
HETATM   28  C15 UNL     1       2.917  -0.218  -1.447  1.00  0.00    -0.030 C 
HETATM   29  C16 UNL     1       4.238  -0.189  -1.587  1.00  0.00    -0.029 C 
BRANCH  29  30
HETATM   30  C17 UNL     1       4.981   1.042  -1.939  1.00  0.00     0.054 C 
BRANCH  30  31
HETATM   31  C18 UNL     1       5.967   1.374  -0.849  1.00  0.00     0.236 C 
BRANCH  31  32
HETATM   32  N2  UNL     1       6.885   0.267  -0.722  1.00  0.00    -0.073 N 
ATOM     33  H22 UNL     1       6.377  -0.603  -0.565  1.00  0.00     0.277 HD
ATOM     34  H21 UNL     1       7.317   0.055  -1.622  1.00  0.00     0.277 HD
BRANCH  32  35
HETATM   35  C19 UNL     1       7.886   0.452   0.284  1.00  0.00     0.258 C 
BRANCH  35  36
HETATM   36  C20 UNL     1       8.830   1.545  -0.140  1.00  0.00     0.191 C 
BRANCH  36  37
HETATM   37  O5  UNL     1       9.418   1.156  -1.342  1.00  0.00    -0.399 OA
ATOM     38  H5  UNL     1      10.014   1.846  -1.610  1.00  0.00     0.209 HD
ENDBRANCH  36  37
ENDBRANCH  35  36
ENDBRANCH  32  35
ENDBRANCH  31  32
ENDBRANCH  30  31
ENDBRANCH  29  30
ENDBRANCH  27  28
ENDBRANCH  19  27
ENDBRANCH  15  16
ENDBRANCH  14  15
ENDBRANCH  13  14
ENDBRANCH  11  13
ENDBRANCH  10  11
ENDBRANCH   3  10
TORSDOF 16
