REMARK  13 active torsions:
REMARK  status: ('A' for Active; 'I' for Inactive)
REMARK    1  A    between atoms: C2_2  and  C3_3 
REMARK    2  A    between atoms: C3_3  and  C4_4 
REMARK    3  A    between atoms: C4_4  and  C5_5 
REMARK    4  A    between atoms: C5_5  and  C6_6 
REMARK    5  A    between atoms: C6_6  and  N1_7 
REMARK    6  A    between atoms: N1_7  and  C7_9 
REMARK    7  A    between atoms: N3_13  and  C9_15 
REMARK    8  A    between atoms: C9_15  and  C10_16 
REMARK    9  A    between atoms: C10_16  and  C11_17 
REMARK   10  A    between atoms: N6_26  and  C16_27 
REMARK   11  A    between atoms: C19_30  and  N7_31 
REMARK   12  A    between atoms: N7_31  and  C20_33 
REMARK   13  A    between atoms: C20_33  and  C21_34 
ROOT
HETATM    1  C7  UNL     1      -2.855  -0.061  -1.220  1.00  0.00     0.151 A 
HETATM    2  N2  UNL     1      -3.058   1.226  -0.908  1.00  0.00    -0.174 N 
ATOM      3  H2  UNL     1      -4.012   1.588  -0.896  1.00  0.00     0.186 HD
HETATM    4  C8  UNL     1      -2.043   2.054  -0.610  1.00  0.00     0.681 A 
HETATM    5  N3  UNL     1      -2.245   3.292  -0.312  1.00  0.00    -0.226 N 
ATOM      6  H3  UNL     1      -3.202   3.646  -0.303  1.00  0.00     0.177 HD
HETATM    7  N4  UNL     1      -0.797   1.564  -0.630  1.00  0.00    -0.174 N 
ATOM      8  H4  UNL     1      -0.020   2.186  -0.406  1.00  0.00     0.186 HD
HETATM    9  C13 UNL     1      -0.528   0.261  -0.939  1.00  0.00     0.155 A 
HETATM   10  C14 UNL     1      -1.553  -0.577  -1.240  1.00  0.00     0.123 A 
HETATM   11  N5  UNL     1      -1.058  -1.781  -1.505  1.00  0.00    -0.346 N 
ATOM     12  H5  UNL     1      -1.583  -2.617  -1.763  1.00  0.00     0.167 HD
HETATM   13  C15 UNL     1       0.290  -1.674  -1.363  1.00  0.00     0.185 A 
HETATM   14  N6  UNL     1       0.625  -0.432  -1.017  1.00  0.00    -0.322 N 
ENDROOT
BRANCH  14  15
HETATM   15  C16 UNL     1       1.902   0.170  -0.754  1.00  0.00     0.094 C 
HETATM   16  C17 UNL     1       2.023   0.377   0.735  1.00  0.00     0.028 C 
HETATM   17  C18 UNL     1       3.458   0.043   1.118  1.00  0.00     0.027 C 
HETATM   18  C19 UNL     1       4.127  -0.160  -0.204  1.00  0.00     0.079 C 
HETATM   19  C25 UNL     1       3.046  -0.821  -1.015  1.00  0.00     0.050 C 
BRANCH  18  20
HETATM   20  N7  UNL     1       5.360  -0.842  -0.164  1.00  0.00    -0.412 N 
ATOM     21  H7  UNL     1       6.225  -0.393  -0.464  1.00  0.00     0.153 HD
BRANCH  20  22
HETATM   22  C20 UNL     1       5.348  -2.176   0.310  1.00  0.00     0.171 C 
BRANCH  22  23
HETATM   23  C21 UNL     1       6.725  -2.719   0.279  1.00  0.00     0.026 A 
HETATM   24  C22 UNL     1       7.687  -2.631   1.263  1.00  0.00     0.028 A 
HETATM   25  C23 UNL     1       8.828  -3.270   0.834  1.00  0.00     0.019 A 
HETATM   26  C24 UNL     1       8.560  -3.748  -0.417  1.00  0.00     0.088 A 
HETATM   27  N8  UNL     1       7.296  -3.403  -0.720  1.00  0.00    -0.368 N 
ATOM     28  H8  UNL     1       6.832  -3.633  -1.599  1.00  0.00     0.165 HD
ENDBRANCH  22  23
ENDBRANCH  20  22
ENDBRANCH  18  20
ENDBRANCH  14  15
BRANCH   1  29
HETATM   29  N1  UNL     1      -3.850  -0.805  -1.496  1.00  0.00    -0.354 N 
ATOM     30  H1  UNL     1      -3.623  -1.773  -1.723  1.00  0.00     0.166 HD
BRANCH  29  31
HETATM   31  C6  UNL     1      -5.220  -0.482  -1.532  1.00  0.00     0.062 C 
BRANCH  31  32
HETATM   32  C5  UNL     1      -5.911  -0.734  -0.243  1.00  0.00     0.044 C 
BRANCH  32  33
HETATM   33  C4  UNL     1      -5.962  -2.147   0.185  1.00  0.00     0.005 C 
BRANCH  33  34
HETATM   34  C3  UNL     1      -4.624  -2.776   0.387  1.00  0.00     0.000 C 
BRANCH  34  35
HETATM   35  C2  UNL     1      -4.813  -4.214   0.920  1.00  0.00    -0.005 C 
HETATM   36  C1  UNL     1      -5.548  -4.223   2.227  1.00  0.00     0.005 C 
ENDBRANCH  34  35
ENDBRANCH  33  34
ENDBRANCH  32  33
ENDBRANCH  31  32
ENDBRANCH  29  31
ENDBRANCH   1  29
BRANCH   5  37
HETATM   37  C9  UNL     1      -1.162   4.198   0.011  1.00  0.00     0.138 C 
BRANCH  37  38
HETATM   38  C10 UNL     1      -1.698   5.595   0.254  1.00  0.00     0.020 C 
BRANCH  38  39
HETATM   39  C11 UNL     1      -0.520   6.503   0.587  1.00  0.00    -0.003 C 
HETATM   40  C12 UNL     1      -1.044   7.900   0.829  1.00  0.00     0.005 C 
ENDBRANCH  38  39
ENDBRANCH  37  38
ENDBRANCH   5  37
TORSDOF 13
