REMARK  14 active torsions:
REMARK  status: ('A' for Active; 'I' for Inactive)
REMARK    1  A    between atoms: C2_2  and  C3_3 
REMARK    2  A    between atoms: C3_3  and  C4_4 
REMARK    3  A    between atoms: C4_4  and  C5_5 
REMARK    4  A    between atoms: C5_5  and  C6_6 
REMARK    5  A    between atoms: C6_6  and  C7_7 
REMARK    6  A    between atoms: C7_7  and  N1_8 
REMARK    7  A    between atoms: N1_8  and  C8_10 
REMARK    8  A    between atoms: C9_11  and  O1_12 
REMARK    9  A    between atoms: C10_16  and  N3_17 
REMARK   10  A    between atoms: N3_17  and  C11_19 
REMARK   11  A    between atoms: C15_26  and  C16_27 
REMARK   12  A    between atoms: C16_27  and  C17_28 
REMARK   13  A    between atoms: C19_30  and  N5_31 
REMARK       I    between atoms: N5_31  and  C20_33 
REMARK   14  A    between atoms: C20_33  and  C21_35 
ROOT
HETATM    1  C8  UNL     1       0.122   0.202  -0.951  1.00  0.00     0.107 A 
HETATM    2  C9  UNL     1      -0.177  -1.090  -1.309  1.00  0.00     0.171 A 
HETATM    3  N2  UNL     1      -1.274  -1.729  -0.802  1.00  0.00    -0.321 N 
ATOM      4  H2  UNL     1      -1.468  -2.688  -1.089  1.00  0.00     0.169 HD
HETATM    5  C10 UNL     1      -2.100  -1.125   0.063  1.00  0.00     0.112 A 
HETATM    6  C15 UNL     1      -1.809   0.170   0.425  1.00  0.00     0.015 A 
HETATM    7  C19 UNL     1      -0.682   0.875  -0.076  1.00  0.00     0.075 A 
ENDROOT
BRANCH   7   8
HETATM    8  N5  UNL     1      -0.587   2.059   0.283  1.00  0.00    -0.324 N 
HETATM    9  C20 UNL     1       0.148   3.176   0.114  1.00  0.00     0.233 C 
HETATM   10  O2  UNL     1       1.341   3.284   0.484  1.00  0.00    -0.272 OA
ATOM     11  H5  UNL     1      -1.336   2.259   0.946  1.00  0.00     0.169 HD
BRANCH   9  12
HETATM   12  C21 UNL     1      -0.400   4.431  -0.543  1.00  0.00     0.147 C 
HETATM   13  C22 UNL     1      -1.540   4.960   0.344  1.00  0.00     0.022 C 
HETATM   14  C23 UNL     1      -2.336   5.842  -0.595  1.00  0.00     0.008 C 
HETATM   15  C24 UNL     1      -2.005   5.359  -2.001  1.00  0.00     0.079 C 
HETATM   16  C25 UNL     1      -1.138   4.139  -1.779  1.00  0.00     0.140 C 
HETATM   17  O3  UNL     1      -1.171   3.217  -2.548  1.00  0.00    -0.297 OA
ENDBRANCH   9  12
ENDBRANCH   7   8
BRANCH   1  18
HETATM   18  N1  UNL     1       1.277   0.769  -1.529  1.00  0.00    -0.385 N 
ATOM     19  H1  UNL     1       1.162   1.569  -2.151  1.00  0.00     0.159 HD
BRANCH  18  20
HETATM   20  C7  UNL     1       2.609   0.280  -1.289  1.00  0.00     0.120 C 
BRANCH  20  21
HETATM   21  C6  UNL     1       3.033   0.127   0.121  1.00  0.00     0.020 C 
BRANCH  21  22
HETATM   22  C5  UNL     1       4.472  -0.423   0.069  1.00  0.00     0.002 C 
BRANCH  22  23
HETATM   23  C4  UNL     1       5.004  -0.617   1.470  1.00  0.00     0.000 C 
BRANCH  23  24
HETATM   24  C3  UNL     1       6.401  -1.151   1.485  1.00  0.00    -0.000 C 
BRANCH  24  25
HETATM   25  C2  UNL     1       6.512  -2.497   0.796  1.00  0.00    -0.005 C 
HETATM   26  C1  UNL     1       7.936  -3.007   0.828  1.00  0.00     0.005 C 
ENDBRANCH  24  25
ENDBRANCH  23  24
ENDBRANCH  22  23
ENDBRANCH  21  22
ENDBRANCH  20  21
ENDBRANCH  18  20
ENDBRANCH   1  18
BRANCH   6  27
HETATM   27  C16 UNL     1      -2.737   0.867   1.354  1.00  0.00     0.044 C 
BRANCH  27  28
HETATM   28  C17 UNL     1      -3.969   1.402   0.649  1.00  0.00     0.000 C 
HETATM   29  C18 UNL     1      -4.898   2.091   1.617  1.00  0.00     0.005 C 
ENDBRANCH  27  28
ENDBRANCH   6  27
BRANCH   2  30
HETATM   30  O1  UNL     1       0.621  -1.797  -2.199  1.00  0.00    -0.344 OA
ATOM     31  H1  UNL     1       0.414  -2.691  -2.447  1.00  0.00     0.219 HD
ENDBRANCH   2  30
BRANCH   5  32
HETATM   32  N3  UNL     1      -3.198  -1.835   0.597  1.00  0.00    -0.369 N 
ATOM     33  H3  UNL     1      -3.747  -1.324   1.289  1.00  0.00     0.161 HD
BRANCH  32  34
HETATM   34  C11 UNL     1      -3.653  -3.143   0.321  1.00  0.00     0.110 C 
HETATM   35  C12 UNL     1      -4.128  -3.407  -1.075  1.00  0.00     0.054 C 
HETATM   36  C13 UNL     1      -3.988  -4.909  -1.189  1.00  0.00     0.234 C 
HETATM   37  N4  UNL     1      -2.840  -5.264  -0.418  1.00  0.00    -0.073 N 
HETATM   38  C14 UNL     1      -2.725  -4.256   0.634  1.00  0.00     0.257 C 
ATOM     39  H42 UNL     1      -2.871  -6.219  -0.062  1.00  0.00     0.277 HD
ATOM     40  H41 UNL     1      -1.992  -5.365  -0.976  1.00  0.00     0.277 HD
ENDBRANCH  32  34
ENDBRANCH   5  32
TORSDOF 14
