REMARK  14 active torsions:
REMARK  status: ('A' for Active; 'I' for Inactive)
REMARK    1  A    between atoms: C2_2  and  C3_3 
REMARK    2  A    between atoms: C3_3  and  C4_4 
REMARK    3  A    between atoms: C4_4  and  C5_5 
REMARK    4  A    between atoms: C4_4  and  N1_16 
REMARK    5  A    between atoms: C5_5  and  C6_6 
REMARK    6  A    between atoms: C9_10  and  O2_11 
REMARK    7  A    between atoms: C10_13  and  O3_14 
REMARK    8  A    between atoms: N1_16  and  C11_18 
REMARK    9  A    between atoms: C11_18  and  C12_19 
REMARK   10  A    between atoms: C12_19  and  C13_20 
REMARK   11  A    between atoms: C13_20  and  C14_21 
REMARK   12  A    between atoms: C13_20  and  N3_32 
REMARK   13  A    between atoms: C14_21  and  N2_22 
REMARK   14  A    between atoms: N3_32  and  C24_34 
ROOT
HETATM    1  C12 UNL     1      -0.174   0.784  -0.486  1.00  0.00     0.046 C 
ENDROOT
BRANCH   1   2
HETATM    2  C11 UNL     1       1.037  -0.002  -1.044  1.00  0.00     0.121 C 
BRANCH   2   3
HETATM    3  N1  UNL     1       2.105   0.045  -0.136  1.00  0.00    -0.396 N 
ATOM      4  H1  UNL     1       1.971   0.568   0.730  1.00  0.00     0.159 HD
BRANCH   3   5
HETATM    5  C4  UNL     1       3.345  -0.578  -0.338  1.00  0.00    -0.016 C 
BRANCH   5   6
HETATM    6  C3  UNL     1       4.319  -0.071  -1.325  1.00  0.00     0.052 C 
BRANCH   6   7
HETATM    7  C2  UNL     1       3.697   0.424  -2.593  1.00  0.00     0.001 C 
HETATM    8  C1  UNL     1       4.866   0.864  -3.513  1.00  0.00     0.005 C 
ENDBRANCH   6   7
ENDBRANCH   5   6
BRANCH   5   9
HETATM    9  C5  UNL     1       3.921  -1.115   0.950  1.00  0.00     0.086 C 
BRANCH   9  10
HETATM   10  C6  UNL     1       4.704  -0.269   1.846  1.00  0.00     0.158 C 
HETATM   11  O1  UNL     1       5.020  -1.082   2.966  1.00  0.00    -0.375 OA
HETATM   12  C7  UNL     1       6.351  -1.368   2.937  1.00  0.00     0.149 C 
HETATM   13  C8  UNL     1       6.743  -2.503   2.040  1.00  0.00     0.042 C 
HETATM   14  C9  UNL     1       7.009  -0.077   2.481  1.00  0.00     0.178 C 
HETATM   15  C10 UNL     1       5.982   0.317   1.386  1.00  0.00     0.178 C 
BRANCH  14  16
HETATM   16  O2  UNL     1       6.996   0.817   3.526  1.00  0.00    -0.390 OA
ATOM     17  H2  UNL     1       7.408   1.624   3.241  1.00  0.00     0.210 HD
ENDBRANCH  14  16
BRANCH  15  18
HETATM   18  O3  UNL     1       6.001   1.735   1.453  1.00  0.00    -0.390 OA
ATOM     19  H3  UNL     1       6.822   2.111   1.158  1.00  0.00     0.210 HD
ENDBRANCH  15  18
ENDBRANCH   9  10
ENDBRANCH   5   9
ENDBRANCH   3   5
ENDBRANCH   2   3
ENDBRANCH   1   2
BRANCH   1  20
HETATM   20  C13 UNL     1      -1.339   0.731  -1.460  1.00  0.00     0.112 C 
BRANCH  20  21
HETATM   21  C14 UNL     1      -2.504   1.494  -0.933  1.00  0.00     0.297 C 
BRANCH  21  22
HETATM   22  N2  UNL     1      -3.048   1.149   0.309  1.00  0.00     0.090 N 
HETATM   23  C15 UNL     1      -4.100   2.157   0.596  1.00  0.00     0.273 C 
HETATM   24  C16 UNL     1      -4.670   1.932   1.958  1.00  0.00     0.035 C 
HETATM   25  C17 UNL     1      -5.559   0.707   1.877  1.00  0.00    -0.007 C 
HETATM   26  C18 UNL     1      -7.014   1.040   1.703  1.00  0.00     0.005 C 
HETATM   27  C22 UNL     1      -5.111  -0.104   0.681  1.00  0.00     0.018 C 
HETATM   28  C19 UNL     1      -7.666  -0.117   0.949  1.00  0.00     0.000 C 
HETATM   29  C20 UNL     1      -7.037  -1.449   1.331  1.00  0.00     0.000 C 
HETATM   30  C21 UNL     1      -5.569  -1.522   0.940  1.00  0.00     0.007 C 
HETATM   31  C23 UNL     1      -3.578  -0.120   0.587  1.00  0.00     0.277 C 
ENDBRANCH  21  22
ENDBRANCH  20  21
BRANCH  20  32
HETATM   32  N3  UNL     1      -1.637  -0.558  -1.975  1.00  0.00    -0.374 N 
ATOM     33  H3  UNL     1      -1.212  -1.378  -1.542  1.00  0.00     0.161 HD
BRANCH  32  34
HETATM   34  C24 UNL     1      -2.524  -0.736  -3.093  1.00  0.00     0.066 C 
HETATM   35  C25 UNL     1      -2.385   0.087  -4.341  1.00  0.00     0.088 C 
HETATM   36  N4  UNL     1      -3.476  -1.603  -3.100  1.00  0.00    -0.389 N 
ATOM     37  H42 UNL     1      -3.570  -2.162  -2.252  1.00  0.00     0.157 HD
ATOM     38  H41 UNL     1      -4.105  -1.729  -3.893  1.00  0.00     0.157 HD
ENDBRANCH  32  34
ENDBRANCH  20  32
ENDBRANCH   1  20
TORSDOF 14
