REMARK  17 active torsions:
REMARK  status: ('A' for Active; 'I' for Inactive)
REMARK    1  A    between atoms: C2_2  and  C3_3 
REMARK    2  A    between atoms: C2_2  and  C18_27 
REMARK    3  A    between atoms: C3_3  and  C4_4 
REMARK    4  A    between atoms: C4_4  and  C5_5 
REMARK    5  A    between atoms: C6_6  and  O1_7 
REMARK    6  A    between atoms: C8_10  and  O2_11 
REMARK    7  A    between atoms: C12_16  and  O3_17 
REMARK    8  A    between atoms: C17_24  and  O5_25 
REMARK    9  A    between atoms: C18_27  and  C19_28 
REMARK   10  A    between atoms: C19_28  and  C20_29 
REMARK   11  A    between atoms: C20_29  and  C21_30 
REMARK   12  A    between atoms: C21_30  and  C22_31 
REMARK   13  A    between atoms: C22_31  and  C23_32 
REMARK   14  A    between atoms: C23_32  and  C24_33 
REMARK   15  A    between atoms: C24_33  and  C25_34 
REMARK   16  A    between atoms: C25_34  and  C26_35 
REMARK   17  A    between atoms: C26_35  and  O6_36 
ROOT
HETATM    1  C5  UNL     1      -2.212  -0.706  -0.702  1.00  0.00     0.055 C 
HETATM    2  C6  UNL     1      -2.710  -0.404  -2.066  1.00  0.00     0.128 C 
HETATM    3  C7  UNL     1      -3.804   0.611  -1.815  1.00  0.00     0.072 C 
HETATM    4  C8  UNL     1      -5.011  -0.031  -1.279  1.00  0.00     0.086 C 
HETATM    5  C9  UNL     1      -6.038   1.053  -1.002  1.00  0.00     0.011 C 
HETATM    6  C10 UNL     1      -6.176   1.959  -2.225  1.00  0.00     0.020 C 
HETATM    7  C11 UNL     1      -7.433   0.549  -0.807  1.00  0.00     0.020 C 
HETATM    8  C12 UNL     1      -5.694   1.877   0.205  1.00  0.00     0.136 C 
HETATM    9  C13 UNL     1      -5.425   1.014   1.396  1.00  0.00     0.111 C 
HETATM   10  C14 UNL     1      -5.391  -0.428   1.068  1.00  0.00     0.143 C 
HETATM   11  O4  UNL     1      -5.913  -1.235   1.790  1.00  0.00    -0.297 OA
HETATM   12  C15 UNL     1      -4.699  -0.946  -0.177  1.00  0.00     0.075 C 
HETATM   13  C16 UNL     1      -5.247  -2.368  -0.379  1.00  0.00     0.029 C 
HETATM   14  C17 UNL     1      -3.286  -1.193   0.223  1.00  0.00     0.144 C 
ENDROOT
BRANCH   1  15
HETATM   15  C4  UNL     1      -1.107  -1.747  -0.852  1.00  0.00     0.095 C 
BRANCH  15  16
HETATM   16  C3  UNL     1       0.066  -1.472  -0.530  1.00  0.00    -0.149 C 
BRANCH  16  17
HETATM   17  C2  UNL     1       1.400  -1.190  -0.175  1.00  0.00    -0.027 C 
HETATM   18  C1  UNL     1       1.588   0.038   0.336  1.00  0.00     0.027 C 
BRANCH  17  19
HETATM   19  C18 UNL     1       2.543  -2.059  -0.457  1.00  0.00     0.046 C 
BRANCH  19  20
HETATM   20  C19 UNL     1       3.879  -1.603  -0.064  1.00  0.00     0.005 C 
BRANCH  20  21
HETATM   21  C20 UNL     1       4.168  -1.507   1.383  1.00  0.00     0.000 C 
BRANCH  21  22
HETATM   22  C21 UNL     1       5.634  -1.050   1.561  1.00  0.00     0.000 C 
BRANCH  22  23
HETATM   23  C22 UNL     1       5.865   0.243   0.886  1.00  0.00     0.000 C 
BRANCH  23  24
HETATM   24  C23 UNL     1       7.281   0.758   1.074  1.00  0.00     0.000 C 
BRANCH  24  25
HETATM   25  C24 UNL     1       7.578   0.948   2.505  1.00  0.00     0.002 C 
BRANCH  25  26
HETATM   26  C25 UNL     1       8.959   1.491   2.789  1.00  0.00     0.026 C 
BRANCH  26  27
HETATM   27  C26 UNL     1       9.274   2.830   2.248  1.00  0.00     0.164 C 
BRANCH  27  28
HETATM   28  O6  UNL     1       9.226   2.960   0.868  1.00  0.00    -0.401 OA
ATOM     29  H6  UNL     1       9.428   3.821   0.520  1.00  0.00     0.209 HD
ENDBRANCH  27  28
ENDBRANCH  26  27
ENDBRANCH  25  26
ENDBRANCH  24  25
ENDBRANCH  23  24
ENDBRANCH  22  23
ENDBRANCH  21  22
ENDBRANCH  20  21
ENDBRANCH  19  20
ENDBRANCH  17  19
ENDBRANCH  16  17
ENDBRANCH  15  16
ENDBRANCH   1  15
BRANCH   2  30
HETATM   30  O1  UNL     1      -3.009  -1.435  -2.879  1.00  0.00    -0.395 OA
ATOM     31  H1  UNL     1      -3.328  -1.242  -3.753  1.00  0.00     0.210 HD
ENDBRANCH   2  30
BRANCH  14  32
HETATM   32  O5  UNL     1      -2.977  -2.527   0.480  1.00  0.00    -0.394 OA
ATOM     33  H5  UNL     1      -3.658  -2.836   1.066  1.00  0.00     0.210 HD
ENDBRANCH  14  32
BRANCH   4  34
HETATM   34  O2  UNL     1      -5.624  -0.822  -2.274  1.00  0.00    -0.388 OA
ATOM     35  H2  UNL     1      -6.405  -1.237  -1.927  1.00  0.00     0.210 HD
ENDBRANCH   4  34
BRANCH   8  36
HETATM   36  O3  UNL     1      -4.772   2.895  -0.007  1.00  0.00    -0.394 OA
ATOM     37  H3  UNL     1      -4.554   3.416   0.757  1.00  0.00     0.210 HD
ENDBRANCH   8  36
TORSDOF 17
