REMARK  13 active torsions:
REMARK  status: ('A' for Active; 'I' for Inactive)
REMARK    1  A    between atoms: N1_1  and  C1_4 
REMARK    2  A    between atoms: C3_8  and  C4_9 
REMARK    3  A    between atoms: C5_10  and  C6_11 
REMARK    4  A    between atoms: C6_11  and  C7_12 
REMARK    5  A    between atoms: C7_12  and  C8_13 
REMARK    6  A    between atoms: C8_13  and  C9_14 
REMARK    7  A    between atoms: C9_14  and  N3_15 
REMARK    8  A    between atoms: N3_15  and  C10_18 
REMARK    9  A    between atoms: C10_18  and  C11_19 
REMARK   10  A    between atoms: C11_19  and  C12_20 
REMARK   11  A    between atoms: C12_20  and  C13_21 
REMARK   12  A    between atoms: C13_21  and  N4_22 
REMARK   13  A    between atoms: C17_28  and  N5_29 
ROOT
HETATM    1  C6  UNL     1       2.937  -2.569   0.433  1.00  0.00     0.094 C 
ENDROOT
BRANCH   1   2
HETATM    2  C5  UNL     1       4.038  -1.608   0.363  1.00  0.00    -0.101 C 
HETATM    3  C4  UNL     1       4.934  -0.798   0.311  1.00  0.00    -0.062 C 
BRANCH   3   4
HETATM    4  C3  UNL     1       5.982   0.181   0.256  1.00  0.00     0.077 A 
HETATM    5  C2  UNL     1       6.155   1.035  -0.824  1.00  0.00     0.130 A 
HETATM    6  N2  UNL     1       7.162   1.936  -0.816  1.00  0.00    -0.201 N 
HETATM    7  C1  UNL     1       8.022   2.050   0.206  1.00  0.00     0.677 A 
ATOM      8  H2  UNL     1       7.272   2.554  -1.620  1.00  0.00     0.183 HD
HETATM    9  N6  UNL     1       7.872   1.232   1.263  1.00  0.00    -0.176 N 
HETATM   10  C17 UNL     1       6.882   0.322   1.292  1.00  0.00     0.135 A 
ATOM     11  H6  UNL     1       8.516   1.302   2.051  1.00  0.00     0.186 HD
BRANCH   7  12
HETATM   12  N1  UNL     1       8.982   2.939   0.170  1.00  0.00    -0.234 N 
ATOM     13  H12 UNL     1       9.096   3.559  -0.632  1.00  0.00     0.174 HD
ATOM     14  H11 UNL     1       9.636   3.026   0.948  1.00  0.00     0.174 HD
ENDBRANCH   7  12
BRANCH  10  15
HETATM   15  N5  UNL     1       6.760  -0.452   2.321  1.00  0.00    -0.384 N 
ATOM     16  H52 UNL     1       6.009  -1.142   2.343  1.00  0.00     0.157 HD
ATOM     17  H51 UNL     1       7.425  -0.348   3.087  1.00  0.00     0.157 HD
ENDBRANCH  10  15
ENDBRANCH   3   4
ENDBRANCH   1   2
BRANCH   1  18
HETATM   18  C7  UNL     1       1.608  -1.878   0.661  1.00  0.00     0.014 C 
BRANCH  18  19
HETATM   19  C8  UNL     1       1.355  -0.936  -0.472  1.00  0.00     0.028 C 
BRANCH  19  20
HETATM   20  C9  UNL     1       0.032  -0.236  -0.262  1.00  0.00     0.232 C 
BRANCH  20  21
HETATM   21  N3  UNL     1      -0.999  -1.271  -0.214  1.00  0.00    -0.075 N 
ATOM     22  H32 UNL     1      -0.994  -1.880  -1.032  1.00  0.00     0.277 HD
ATOM     23  H31 UNL     1      -0.813  -1.991   0.485  1.00  0.00     0.277 HD
BRANCH  21  24
HETATM   24  C10 UNL     1      -2.293  -0.582  -0.009  1.00  0.00     0.232 C 
BRANCH  24  25
HETATM   25  C11 UNL     1      -3.392  -1.603   0.049  1.00  0.00     0.029 C 
BRANCH  25  26
HETATM   26  C12 UNL     1      -4.737  -0.981   0.277  1.00  0.00     0.022 C 
BRANCH  26  27
HETATM   27  C13 UNL     1      -5.060  -0.042  -0.832  1.00  0.00     0.127 C 
BRANCH  27  28
HETATM   28  N4  UNL     1      -6.395   0.570  -0.640  1.00  0.00    -0.342 N 
HETATM   29  C14 UNL     1      -6.661   1.786   0.071  1.00  0.00     0.137 C 
HETATM   30  C15 UNL     1      -7.606   2.632  -0.759  1.00  0.00     0.104 C 
HETATM   31  S1  UNL     1      -8.768   1.297  -1.277  1.00  0.00    -0.068 SA
HETATM   32  C16 UNL     1      -7.564  -0.036  -1.168  1.00  0.00     0.281 C 
HETATM   33  O1  UNL     1      -7.805  -1.208  -1.510  1.00  0.00    -0.260 OA
ENDBRANCH  27  28
ENDBRANCH  26  27
ENDBRANCH  25  26
ENDBRANCH  24  25
ENDBRANCH  21  24
ENDBRANCH  20  21
ENDBRANCH  19  20
ENDBRANCH  18  19
ENDBRANCH   1  18
TORSDOF 13
