REMARK  14 active torsions:
REMARK  status: ('A' for Active; 'I' for Inactive)
REMARK    1  A    between atoms: C2_2  and  C3_3 
REMARK    2  A    between atoms: C3_3  and  C4_4 
REMARK    3  A    between atoms: C4_4  and  C5_5 
REMARK    4  A    between atoms: C5_5  and  C6_6 
REMARK    5  A    between atoms: C6_6  and  C7_7 
REMARK    6  A    between atoms: C7_7  and  C8_8 
REMARK    7  A    between atoms: C8_8  and  C9_9 
REMARK    8  A    between atoms: C9_9  and  C10_10 
REMARK    9  A    between atoms: C10_10  and  C11_11 
REMARK   10  A    between atoms: C11_11  and  C12_12 
REMARK   11  A    between atoms: C15_17  and  O1_18 
REMARK   12  A    between atoms: C16_20  and  O2_21 
REMARK   13  A    between atoms: C17_23  and  O3_24 
REMARK   14  A    between atoms: C18_26  and  O4_27 
ROOT
HETATM    1  C12 UNL     1      -1.693  -0.171  -0.364  1.00  0.00     0.220 C 
HETATM    2  N1  UNL     1      -2.535  -0.862  -1.259  1.00  0.00    -0.376 N 
ATOM      3  H1  UNL     1      -2.289  -0.951  -2.245  1.00  0.00     0.161 HD
HETATM    4  C13 UNL     1      -3.722  -1.426  -0.760  1.00  0.00     0.068 C 
HETATM    5  C14 UNL     1      -4.224  -0.730   0.460  1.00  0.00     0.087 C 
HETATM    6  C15 UNL     1      -5.709  -0.736   0.572  1.00  0.00     0.161 C 
HETATM    7  C16 UNL     1      -6.335   0.620   0.666  1.00  0.00     0.178 C 
HETATM    8  C17 UNL     1      -5.775   1.497  -0.433  1.00  0.00     0.180 C 
HETATM    9  C18 UNL     1      -4.316   1.702  -0.201  1.00  0.00     0.179 C 
HETATM   10  C19 UNL     1      -3.651   0.655   0.626  1.00  0.00     0.167 C 
HETATM   11  O5  UNL     1      -2.308   0.731   0.476  1.00  0.00    -0.358 OA
ENDROOT
BRANCH   1  12
HETATM   12  C11 UNL     1      -0.869  -1.189   0.398  1.00  0.00     0.054 C 
BRANCH  12  13
HETATM   13  C10 UNL     1      -0.026  -2.032  -0.490  1.00  0.00     0.004 C 
BRANCH  13  14
HETATM   14  C9  UNL     1       0.939  -1.224  -1.288  1.00  0.00     0.000 C 
BRANCH  14  15
HETATM   15  C8  UNL     1       1.856  -0.460  -0.340  1.00  0.00     0.000 C 
BRANCH  15  16
HETATM   16  C7  UNL     1       2.857   0.361  -1.110  1.00  0.00     0.000 C 
BRANCH  16  17
HETATM   17  C6  UNL     1       3.730   1.118  -0.153  1.00  0.00     0.000 C 
BRANCH  17  18
HETATM   18  C5  UNL     1       4.476   0.193   0.743  1.00  0.00     0.000 C 
BRANCH  18  19
HETATM   19  C4  UNL     1       5.387   0.939   1.708  1.00  0.00     0.000 C 
BRANCH  19  20
HETATM   20  C3  UNL     1       6.420   1.770   0.973  1.00  0.00    -0.000 C 
BRANCH  20  21
HETATM   21  C2  UNL     1       7.300   0.920   0.099  1.00  0.00    -0.005 C 
HETATM   22  C1  UNL     1       8.064  -0.119   0.865  1.00  0.00     0.005 C 
ENDBRANCH  20  21
ENDBRANCH  19  20
ENDBRANCH  18  19
ENDBRANCH  17  18
ENDBRANCH  16  17
ENDBRANCH  15  16
ENDBRANCH  14  15
ENDBRANCH  13  14
ENDBRANCH  12  13
ENDBRANCH   1  12
BRANCH   9  23
HETATM   23  O4  UNL     1      -3.627   1.940  -1.410  1.00  0.00    -0.390 OA
ATOM     24  H4  UNL     1      -2.698   2.071  -1.262  1.00  0.00     0.210 HD
ENDBRANCH   9  23
BRANCH   6  25
HETATM   25  O1  UNL     1      -6.235  -1.427  -0.542  1.00  0.00    -0.392 OA
ATOM     26  H1  UNL     1      -7.182  -1.431  -0.471  1.00  0.00     0.210 HD
ENDBRANCH   6  25
BRANCH   8  27
HETATM   27  O3  UNL     1      -6.052   0.988  -1.684  1.00  0.00    -0.390 OA
ATOM     28  H3  UNL     1      -5.700   1.538  -2.374  1.00  0.00     0.210 HD
ENDBRANCH   8  27
BRANCH   7  29
HETATM   29  O2  UNL     1      -7.699   0.498   0.495  1.00  0.00    -0.390 OA
ATOM     30  H2  UNL     1      -8.096   1.359   0.555  1.00  0.00     0.210 HD
ENDBRANCH   7  29
TORSDOF 14
