REMARK  14 active torsions:
REMARK  status: ('A' for Active; 'I' for Inactive)
REMARK    1  A    between atoms: C3_5  and  N2_6 
REMARK    2  A    between atoms: N2_6  and  C4_8 
REMARK    3  A    between atoms: C4_8  and  C5_9 
REMARK    4  A    between atoms: C5_9  and  C6_10 
REMARK    5  A    between atoms: C6_10  and  C7_11 
REMARK    6  A    between atoms: C7_11  and  C8_12 
REMARK    7  A    between atoms: C8_12  and  C9_13 
REMARK    8  A    between atoms: C9_13  and  C10_14 
REMARK    9  A    between atoms: C10_14  and  N3_15 
REMARK   10  A    between atoms: C13_19  and  N4_20 
REMARK   11  A    between atoms: N4_20  and  C14_22 
REMARK   12  A    between atoms: C17_25  and  C18_26 
REMARK   13  A    between atoms: C18_26  and  C19_27 
REMARK   14  A    between atoms: C19_27  and  O1_28 
ROOT
HETATM    1  N3  UNL     1      -0.243  -3.124  -0.583  1.00  0.00    -0.376 N 
ATOM      2  H3  UNL     1       0.300  -3.901  -0.959  1.00  0.00     0.161 HD
HETATM    3  C11 UNL     1      -1.423  -3.323  -0.111  1.00  0.00     0.105 A 
HETATM    4  C12 UNL     1      -2.190  -2.275   0.411  1.00  0.00     0.096 A 
HETATM    5  C13 UNL     1      -3.448  -2.475   0.913  1.00  0.00     0.105 A 
HETATM    6  N5  UNL     1      -3.967  -3.731   0.904  1.00  0.00    -0.339 N 
ATOM      7  H5  UNL     1      -4.902  -3.911   1.271  1.00  0.00     0.168 HD
HETATM    8  C22 UNL     1      -3.228  -4.723   0.405  1.00  0.00     0.183 A 
HETATM    9  N6  UNL     1      -1.988  -4.541  -0.093  1.00  0.00    -0.339 N 
ATOM     10  H6  UNL     1      -1.472  -5.340  -0.461  1.00  0.00     0.168 HD
ENDROOT
BRANCH   1  11
HETATM   11  C10 UNL     1       0.313  -1.762  -0.574  1.00  0.00     0.121 C 
BRANCH  11  12
HETATM   12  C9  UNL     1       1.591  -1.798  -1.355  1.00  0.00     0.020 C 
BRANCH  12  13
HETATM   13  C8  UNL     1       2.294  -0.481  -1.457  1.00  0.00     0.002 C 
BRANCH  13  14
HETATM   14  C7  UNL     1       2.646  -0.004  -0.071  1.00  0.00     0.000 C 
BRANCH  14  15
HETATM   15  C6  UNL     1       3.361   1.329  -0.071  1.00  0.00     0.002 C 
BRANCH  15  16
HETATM   16  C5  UNL     1       4.630   1.208  -0.853  1.00  0.00     0.020 C 
BRANCH  16  17
HETATM   17  C4  UNL     1       5.584   0.172  -0.309  1.00  0.00     0.138 C 
BRANCH  17  18
HETATM   18  N2  UNL     1       6.777   0.145  -1.138  1.00  0.00    -0.225 N 
ATOM     19  H2  UNL     1       6.753  -0.302  -2.055  1.00  0.00     0.177 HD
BRANCH  18  20
HETATM   20  C3  UNL     1       7.872   0.690  -0.710  1.00  0.00     0.694 A 
HETATM   21  N1  UNL     1       9.037   0.728  -1.386  1.00  0.00    -0.179 N 
HETATM   22  C2  UNL     1       9.957   1.370  -0.642  1.00  0.00     0.108 A 
ATOM     23  H1  UNL     1       9.196   0.333  -2.313  1.00  0.00     0.185 HD
HETATM   24  C1  UNL     1      11.380   1.646  -0.987  1.00  0.00     0.091 C 
HETATM   25  N8  UNL     1       9.352   1.728   0.500  1.00  0.00    -0.275 N 
HETATM   26  N7  UNL     1       8.093   1.315   0.454  1.00  0.00    -0.131 N 
ATOM     27  H8  UNL     1       9.787   2.232   1.273  1.00  0.00     0.189 HD
ATOM     28  H7  UNL     1       7.401   1.452   1.190  1.00  0.00     0.205 HD
ENDBRANCH  18  20
ENDBRANCH  17  18
ENDBRANCH  16  17
ENDBRANCH  15  16
ENDBRANCH  14  15
ENDBRANCH  13  14
ENDBRANCH  12  13
ENDBRANCH  11  12
ENDBRANCH   1  11
BRANCH   5  29
HETATM   29  N4  UNL     1      -4.218  -1.392   1.414  1.00  0.00    -0.372 N 
ATOM     30  H4  UNL     1      -5.153  -1.556   1.788  1.00  0.00     0.161 HD
BRANCH  29  31
HETATM   31  C14 UNL     1      -3.669  -0.062   1.390  1.00  0.00     0.083 C 
HETATM   32  C15 UNL     1      -4.413   0.863   2.342  1.00  0.00     0.025 C 
HETATM   33  C16 UNL     1      -5.818   1.108   1.937  1.00  0.00     0.007 C 
HETATM   34  C17 UNL     1      -6.013   1.419   0.467  1.00  0.00    -0.012 C 
HETATM   35  C20 UNL     1      -5.261   0.539  -0.460  1.00  0.00     0.007 C 
HETATM   36  C21 UNL     1      -3.814   0.449  -0.028  1.00  0.00     0.025 C 
BRANCH  34  37
HETATM   37  C18 UNL     1      -7.492   1.493   0.242  1.00  0.00     0.030 C 
BRANCH  37  38
HETATM   38  C19 UNL     1      -7.935   1.789  -1.144  1.00  0.00     0.164 C 
BRANCH  38  39
HETATM   39  O1  UNL     1      -7.546   0.857  -2.090  1.00  0.00    -0.401 OA
ATOM     40  H1  UNL     1      -7.829   1.046  -2.977  1.00  0.00     0.209 HD
ENDBRANCH  38  39
ENDBRANCH  37  38
ENDBRANCH  34  37
ENDBRANCH  29  31
ENDBRANCH   5  29
TORSDOF 14
