REMARK  12 active torsions:
REMARK  status: ('A' for Active; 'I' for Inactive)
REMARK    1  A    between atoms: C2_2  and  C3_3 
REMARK    2  A    between atoms: C3_3  and  C4_4 
REMARK    3  A    between atoms: C4_4  and  N1_5 
REMARK    4  A    between atoms: N1_5  and  C5_6 
REMARK    5  A    between atoms: N1_5  and  C15_30 
REMARK    6  A    between atoms: C5_6  and  C6_7 
REMARK    7  A    between atoms: C7_8  and  C8_9 
REMARK    8  A    between atoms: C15_30  and  C16_31 
REMARK    9  A    between atoms: C16_31  and  C17_32 
REMARK   10  A    between atoms: C17_32  and  C18_33 
REMARK   11  A    between atoms: C18_33  and  C19_34 
REMARK   12  A    between atoms: C19_34  and  N7_35 
ROOT
HETATM    1  C8  UNL     1      -3.067   0.325   1.502  1.00  0.00     0.150 C 
HETATM    2  N2  UNL     1      -3.858  -0.602   2.269  1.00  0.00    -0.342 N 
ATOM      3  H2  UNL     1      -3.602  -0.691   3.252  1.00  0.00     0.163 HD
HETATM    4  C9  UNL     1      -4.942  -1.407   1.845  1.00  0.00     0.286 C 
HETATM    5  O1  UNL     1      -5.275  -2.377   2.567  1.00  0.00    -0.264 OA
HETATM    6  C10 UNL     1      -5.719  -1.199   0.617  1.00  0.00     0.169 C 
HETATM    7  N3  UNL     1      -6.575  -2.109   0.294  1.00  0.00    -0.381 N 
ATOM      8  H31 UNL     1      -7.115  -1.964  -0.559  1.00  0.00     0.157 HD
ATOM      9  H32 UNL     1      -6.610  -2.893   0.945  1.00  0.00     0.157 HD
HETATM   10  N4  UNL     1      -5.670  -0.101  -0.295  1.00  0.00    -0.324 N 
ATOM     11  H4  UNL     1      -6.132  -0.212  -1.198  1.00  0.00     0.169 HD
HETATM   12  C11 UNL     1      -5.013   1.153  -0.028  1.00  0.00     0.123 A 
HETATM   13  N5  UNL     1      -5.635   2.188  -0.638  1.00  0.00    -0.318 N 
ATOM     14  H5  UNL     1      -6.459   2.027  -1.218  1.00  0.00     0.170 HD
HETATM   15  C12 UNL     1      -5.153   3.429  -0.470  1.00  0.00     0.180 A 
HETATM   16  S1  UNL     1      -5.907   4.681  -1.210  1.00  0.00    -0.040 SA
HETATM   17  N6  UNL     1      -4.069   3.602   0.299  1.00  0.00    -0.299 N 
ATOM     18  H6  UNL     1      -3.710   4.549   0.421  1.00  0.00     0.171 HD
HETATM   19  C13 UNL     1      -3.430   2.595   0.918  1.00  0.00     0.260 A 
HETATM   20  O2  UNL     1      -2.410   2.849   1.631  1.00  0.00    -0.267 OA
HETATM   21  C14 UNL     1      -3.894   1.308   0.768  1.00  0.00     0.080 A 
ENDROOT
BRANCH   1  22
HETATM   22  C7  UNL     1      -2.180  -0.445   0.595  1.00  0.00     0.001 C 
HETATM   23  C6  UNL     1      -1.226   0.067  -0.165  1.00  0.00    -0.009 C 
BRANCH  23  24
HETATM   24  C5  UNL     1      -0.411  -0.823  -1.028  1.00  0.00     0.144 C 
BRANCH  24  25
HETATM   25  N1  UNL     1       0.984  -0.787  -0.733  1.00  0.00    -0.409 N 
BRANCH  25  26
HETATM   26  C4  UNL     1       1.302  -1.347   0.535  1.00  0.00     0.117 C 
BRANCH  26  27
HETATM   27  C3  UNL     1       1.082  -2.842   0.600  1.00  0.00     0.019 C 
BRANCH  27  28
HETATM   28  C2  UNL     1       1.935  -3.570  -0.420  1.00  0.00    -0.003 C 
HETATM   29  C1  UNL     1       1.664  -5.054  -0.296  1.00  0.00     0.005 C 
ENDBRANCH  27  28
ENDBRANCH  26  27
ENDBRANCH  25  26
BRANCH  25  30
HETATM   30  C15 UNL     1       1.648   0.427  -1.056  1.00  0.00     0.117 C 
BRANCH  30  31
HETATM   31  C16 UNL     1       3.132   0.242  -1.273  1.00  0.00     0.020 C 
BRANCH  31  32
HETATM   32  C17 UNL     1       3.835   1.538  -1.617  1.00  0.00     0.007 C 
BRANCH  32  33
HETATM   33  C18 UNL     1       3.724   2.597  -0.592  1.00  0.00     0.044 C 
BRANCH  33  34
HETATM   34  C19 UNL     1       4.289   2.357   0.750  1.00  0.00     0.055 C 
BRANCH  34  35
HETATM   35  N7  UNL     1       5.662   2.166   0.915  1.00  0.00    -0.406 N 
HETATM   36  C20 UNL     1       6.330   1.020   0.460  1.00  0.00     0.145 C 
ATOM     37  H7  UNL     1       6.202   2.891   1.387  1.00  0.00     0.158 HD
ENDBRANCH  34  35
ENDBRANCH  33  34
ENDBRANCH  32  33
ENDBRANCH  31  32
ENDBRANCH  30  31
ENDBRANCH  25  30
ENDBRANCH  24  25
ENDBRANCH  23  24
ENDBRANCH   1  22
TORSDOF 12
