REMARK  14 active torsions:
REMARK  status: ('A' for Active; 'I' for Inactive)
REMARK    1  A    between atoms: O1_2  and  C2_3 
REMARK    2  A    between atoms: C3_6  and  N2_7 
REMARK    3  A    between atoms: C7_15  and  N4_16 
REMARK    4  A    between atoms: N4_16  and  C8_18 
REMARK    5  A    between atoms: C8_18  and  C9_19 
REMARK    6  A    between atoms: C9_19  and  C10_20 
REMARK    7  A    between atoms: C10_20  and  C11_21 
REMARK    8  A    between atoms: C11_21  and  C12_22 
REMARK    9  A    between atoms: C12_22  and  C13_23 
REMARK   10  A    between atoms: C13_23  and  C14_24 
REMARK   11  A    between atoms: C14_24  and  C15_25 
REMARK   12  A    between atoms: C15_25  and  N5_26 
REMARK   13  A    between atoms: N5_26  and  C16_29 
REMARK   14  A    between atoms: C16_29  and  C17_30 
ROOT
HETATM    1  N4  UNL     1       4.247   1.390  -1.626  1.00  0.00    -0.388 N 
ATOM      2  H4  UNL     1       4.143   2.397  -1.748  1.00  0.00     0.159 HD
ENDROOT
BRANCH   1   3
HETATM    3  C7  UNL     1       4.576   0.873  -2.685  1.00  0.00     0.059 A 
HETATM    4  C6  UNL     1       4.842  -0.428  -3.017  1.00  0.00     0.048 A 
HETATM    5  C5  UNL     1       5.067  -0.850  -4.302  1.00  0.00     0.091 A 
HETATM    6  N3  UNL     1       5.033   0.024  -5.329  1.00  0.00    -0.361 N 
HETATM    7  C4  UNL     1       4.774   1.326  -5.074  1.00  0.00     0.105 A 
ATOM      8  H3  UNL     1       5.200  -0.293  -6.284  1.00  0.00     0.165 HD
HETATM    9  C3  UNL     1       4.691   2.191  -6.159  1.00  0.00     0.131 A 
HETATM   10  C23 UNL     1       4.555   1.755  -3.798  1.00  0.00     0.092 A 
HETATM   11  N1  UNL     1       4.375   3.493  -5.879  1.00  0.00    -0.307 N 
HETATM   12  C2  UNL     1       4.159   3.928  -4.634  1.00  0.00     0.225 A 
ATOM     13  H1  UNL     1       4.302   4.157  -6.650  1.00  0.00     0.171 HD
HETATM   14  N7  UNL     1       4.259   3.027  -3.599  1.00  0.00    -0.318 N 
ATOM     15  H7  UNL     1       4.099   3.352  -2.646  1.00  0.00     0.169 HD
BRANCH   9  16
HETATM   16  N2  UNL     1       4.931   1.769  -7.310  1.00  0.00    -0.383 N 
ATOM     17  H22 UNL     1       4.870   2.404  -8.106  1.00  0.00     0.157 HD
ATOM     18  H21 UNL     1       5.166   0.799  -7.519  1.00  0.00     0.157 HD
ENDBRANCH   9  16
BRANCH  12  19
HETATM   19  O1  UNL     1       3.837   5.172  -4.239  1.00  0.00    -0.327 OA
HETATM   20  C1  UNL     1       3.618   6.274  -5.169  1.00  0.00     0.213 C 
ENDBRANCH  12  19
ENDBRANCH   1   3
BRANCH   1  21
HETATM   21  C8  UNL     1       3.964   1.034  -0.281  1.00  0.00     0.120 C 
BRANCH  21  22
HETATM   22  C9  UNL     1       3.137   2.181   0.270  1.00  0.00     0.020 C 
BRANCH  22  23
HETATM   23  C10 UNL     1       2.546   2.127   1.586  1.00  0.00     0.002 C 
BRANCH  23  24
HETATM   24  C11 UNL     1       1.528   0.996   1.808  1.00  0.00     0.000 C 
BRANCH  24  25
HETATM   25  C12 UNL     1       0.544   1.017   0.688  1.00  0.00     0.000 C 
BRANCH  25  26
HETATM   26  C13 UNL     1      -0.660   0.150   0.780  1.00  0.00     0.002 C 
BRANCH  26  27
HETATM   27  C14 UNL     1      -1.640   0.643   1.836  1.00  0.00     0.027 C 
BRANCH  27  28
HETATM   28  C15 UNL     1      -2.834  -0.250   1.868  1.00  0.00     0.232 C 
BRANCH  28  29
HETATM   29  N5  UNL     1      -2.609  -1.588   2.368  1.00  0.00    -0.075 N 
ATOM     30  H52 UNL     1      -1.746  -1.996   2.009  1.00  0.00     0.277 HD
ATOM     31  H51 UNL     1      -2.371  -1.596   3.360  1.00  0.00     0.277 HD
BRANCH  29  32
HETATM   32  C16 UNL     1      -3.766  -2.404   2.074  1.00  0.00     0.237 C 
BRANCH  32  33
HETATM   33  C17 UNL     1      -3.773  -3.639   2.896  1.00  0.00     0.013 C 
HETATM   34  C18 UNL     1      -3.858  -3.339   4.385  1.00  0.00     0.008 C 
HETATM   35  C19 UNL     1      -5.020  -2.414   4.670  1.00  0.00     0.020 C 
HETATM   36  C20 UNL     1      -6.344  -3.013   4.359  1.00  0.00     0.113 C 
HETATM   37  N6  UNL     1      -6.734  -2.976   3.000  1.00  0.00    -0.421 N 
HETATM   38  C21 UNL     1      -6.137  -3.892   2.102  1.00  0.00     0.114 C 
ATOM     39  H6  UNL     1      -7.430  -2.305   2.675  1.00  0.00     0.153 HD
HETATM   40  C22 UNL     1      -4.895  -4.590   2.572  1.00  0.00     0.025 C 
ENDBRANCH  32  33
ENDBRANCH  29  32
ENDBRANCH  28  29
ENDBRANCH  27  28
ENDBRANCH  26  27
ENDBRANCH  25  26
ENDBRANCH  24  25
ENDBRANCH  23  24
ENDBRANCH  22  23
ENDBRANCH  21  22
ENDBRANCH   1  21
TORSDOF 14
