REMARK  14 active torsions:
REMARK  status: ('A' for Active; 'I' for Inactive)
REMARK    1  A    between atoms: C4_8  and  C5_9 
REMARK    2  A    between atoms: C5_9  and  C6_10 
REMARK    3  A    between atoms: C6_10  and  C7_11 
REMARK    4  A    between atoms: C7_11  and  C8_12 
REMARK    5  A    between atoms: C8_12  and  C9_13 
REMARK    6  A    between atoms: C10_14  and  C11_15 
REMARK    7  A    between atoms: C13_20  and  C14_21 
REMARK    8  A    between atoms: C14_21  and  C15_22 
REMARK    9  A    between atoms: C15_22  and  C16_23 
REMARK   10  A    between atoms: C16_23  and  C17_24 
REMARK   11  A    between atoms: C17_24  and  C18_25 
REMARK   12  A    between atoms: C18_25  and  C19_26 
REMARK   13  A    between atoms: C19_26  and  O3_27 
REMARK   14  A    between atoms: N3_29  and  O4_31 
ROOT
HETATM    1  C11 UNL     1      -0.805  -0.579   1.500  1.00  0.00     0.199 C 
HETATM    2  N2  UNL     1      -0.927   0.735   0.963  1.00  0.00    -0.343 N 
ATOM      3  H2  UNL     1      -1.761   0.994   0.436  1.00  0.00     0.163 HD
HETATM    4  C12 UNL     1       0.106   1.680   1.159  1.00  0.00     0.241 C 
HETATM    5  O2  UNL     1      -0.125   2.908   1.193  1.00  0.00    -0.271 OA
HETATM    6  C13 UNL     1       1.488   1.208   1.326  1.00  0.00     0.176 C 
HETATM    7  N4  UNL     1       1.592  -0.071   1.950  1.00  0.00    -0.346 N 
ATOM      8  H4  UNL     1       2.402  -0.297   2.527  1.00  0.00     0.163 HD
HETATM    9  C20 UNL     1       0.561  -1.025   1.762  1.00  0.00     0.244 C 
HETATM   10  O5  UNL     1       0.793  -2.272   1.815  1.00  0.00    -0.271 OA
ENDROOT
BRANCH   1  11
HETATM   11  C10 UNL     1      -1.393  -1.557   0.512  1.00  0.00     0.003 C 
HETATM   12  C9  UNL     1      -1.484  -1.187  -0.759  1.00  0.00    -0.028 C 
BRANCH  12  13
HETATM   13  C8  UNL     1      -2.071  -2.166  -1.741  1.00  0.00     0.027 C 
BRANCH  13  14
HETATM   14  C7  UNL     1      -3.303  -1.532  -2.363  1.00  0.00     0.004 C 
BRANCH  14  15
HETATM   15  C6  UNL     1      -4.281  -1.234  -1.248  1.00  0.00     0.005 C 
BRANCH  15  16
HETATM   16  C5  UNL     1      -5.515  -0.604  -1.851  1.00  0.00     0.048 C 
BRANCH  16  17
HETATM   17  C4  UNL     1      -6.463  -0.325  -0.714  1.00  0.00     0.010 A 
HETATM   18  C2  UNL     1      -6.412   0.690   0.201  1.00  0.00     0.022 A 
HETATM   19  C1  UNL     1      -5.290   1.715   0.137  1.00  0.00     0.069 C 
HETATM   20  N1  UNL     1      -7.351   0.732   1.110  1.00  0.00    -0.321 N 
HETATM   21  C3  UNL     1      -8.297  -0.203   1.099  1.00  0.00     0.288 A 
ATOM     22  H1  UNL     1      -7.358   1.469   1.815  1.00  0.00     0.169 HD
HETATM   23  O1  UNL     1      -9.288  -0.320   1.905  1.00  0.00    -0.260 OA
HETATM   24  S1  UNL     1      -7.863  -1.178  -0.228  1.00  0.00    -0.032 SA
ENDBRANCH  16  17
ENDBRANCH  15  16
ENDBRANCH  14  15
ENDBRANCH  13  14
ENDBRANCH  12  13
ENDBRANCH   1  11
BRANCH   6  25
HETATM   25  C14 UNL     1       2.215   1.153  -0.013  1.00  0.00     0.035 C 
BRANCH  25  26
HETATM   26  C15 UNL     1       3.623   0.654   0.285  1.00  0.00     0.002 C 
BRANCH  26  27
HETATM   27  C16 UNL     1       4.434   0.563  -0.982  1.00  0.00     0.001 C 
BRANCH  27  28
HETATM   28  C17 UNL     1       5.811   0.056  -0.665  1.00  0.00     0.008 C 
BRANCH  28  29
HETATM   29  C18 UNL     1       6.560   0.932   0.281  1.00  0.00     0.086 C 
BRANCH  29  30
HETATM   30  C19 UNL     1       7.914   0.325   0.506  1.00  0.00     0.135 C 
HETATM   31  N3  UNL     1       8.998   0.929   0.227  1.00  0.00    -0.251 N 
ATOM     32  H3  UNL     1       8.964   1.869  -0.169  1.00  0.00     0.196 HD
BRANCH  30  33
HETATM   33  O3  UNL     1       7.940  -0.951   1.043  1.00  0.00    -0.348 OA
ATOM     34  H3  UNL     1       8.797  -1.335   1.185  1.00  0.00     0.219 HD
ENDBRANCH  30  33
BRANCH  31  35
HETATM   35  O4  UNL     1      10.197   0.339   0.449  1.00  0.00    -0.288 OA
ATOM     36  H4  UNL     1      11.007   0.790   0.241  1.00  0.00     0.244 HD
ENDBRANCH  31  35
ENDBRANCH  29  30
ENDBRANCH  28  29
ENDBRANCH  27  28
ENDBRANCH  26  27
ENDBRANCH  25  26
ENDBRANCH   6  25
TORSDOF 14
