REMARK  13 active torsions:
REMARK  status: ('A' for Active; 'I' for Inactive)
REMARK    1  A    between atoms: N1_1  and  C1_5 
REMARK    2  A    between atoms: C4_8  and  C5_9 
REMARK    3  A    between atoms: C5_9  and  C6_10 
REMARK    4  A    between atoms: C6_10  and  C7_11 
REMARK    5  A    between atoms: C7_11  and  C8_12 
REMARK    6  A    between atoms: C8_12  and  C9_13 
REMARK    7  A    between atoms: C9_13  and  C10_14 
REMARK    8  A    between atoms: C10_14  and  C11_15 
REMARK    9  A    between atoms: C11_15  and  C12_16 
REMARK   10  A    between atoms: C12_16  and  C13_17 
REMARK   11  A    between atoms: C13_17  and  C14_18 
REMARK   12  A    between atoms: C14_18  and  O1_19 
REMARK   13  A    between atoms: O1_19  and  C15_20 
ROOT
HETATM    1  C9  UNL     1       0.716   2.052   0.313  1.00  0.00     0.000 C 
ENDROOT
BRANCH   1   2
HETATM    2  C8  UNL     1      -0.638   1.401   0.136  1.00  0.00     0.000 C 
BRANCH   2   3
HETATM    3  C7  UNL     1      -1.351   1.453   1.465  1.00  0.00     0.000 C 
BRANCH   3   4
HETATM    4  C6  UNL     1      -2.733   0.803   1.370  1.00  0.00     0.000 C 
BRANCH   4   5
HETATM    5  C5  UNL     1      -3.597   1.483   0.381  1.00  0.00     0.007 C 
BRANCH   5   6
HETATM    6  C4  UNL     1      -4.965   1.011   0.182  1.00  0.00     0.013 C 
HETATM    7  C3  UNL     1      -5.897   1.036   1.358  1.00  0.00     0.011 C 
HETATM    8  C2  UNL     1      -7.054   0.142   0.898  1.00  0.00     0.064 C 
HETATM    9  C1  UNL     1      -6.700  -0.363  -0.484  1.00  0.00     0.220 C 
HETATM   10  C21 UNL     1      -5.154  -0.350  -0.432  1.00  0.00     0.146 C 
HETATM   11  N6  UNL     1      -6.951  -1.758  -0.670  1.00  0.00    -0.308 N 
HETATM   12  N5  UNL     1      -4.940  -1.453   0.448  1.00  0.00    -0.334 N 
HETATM   13  C22 UNL     1      -5.891  -2.451   0.015  1.00  0.00     0.318 C 
ATOM     14  H5  UNL     1      -4.267  -1.521   1.211  1.00  0.00     0.164 HD
HETATM   15  O3  UNL     1      -5.828  -3.691   0.191  1.00  0.00    -0.247 OA
ATOM     16  H6  UNL     1      -7.725  -2.178  -1.184  1.00  0.00     0.166 HD
BRANCH   9  17
HETATM   17  N1  UNL     1      -7.149   0.485  -1.542  1.00  0.00    -0.051 N 
ATOM     18  H13 UNL     1      -8.153   0.652  -1.467  1.00  0.00     0.277 HD
ATOM     19  H12 UNL     1      -6.807   1.437  -1.409  1.00  0.00     0.277 HD
ATOM     20  H11 UNL     1      -6.910   0.145  -2.473  1.00  0.00     0.277 HD
ENDBRANCH   9  17
ENDBRANCH   5   6
ENDBRANCH   4   5
ENDBRANCH   3   4
ENDBRANCH   2   3
ENDBRANCH   1   2
BRANCH   1  21
HETATM   21  C10 UNL     1       1.542   2.080  -0.931  1.00  0.00     0.000 C 
BRANCH  21  22
HETATM   22  C11 UNL     1       1.795   0.671  -1.420  1.00  0.00     0.000 C 
BRANCH  22  23
HETATM   23  C12 UNL     1       2.526  -0.132  -0.368  1.00  0.00     0.002 C 
BRANCH  23  24
HETATM   24  C13 UNL     1       2.734  -1.534  -0.954  1.00  0.00     0.027 C 
BRANCH  24  25
HETATM   25  C14 UNL     1       3.454  -2.336   0.074  1.00  0.00     0.177 C 
BRANCH  25  26
HETATM   26  O1  UNL     1       4.677  -1.774   0.391  1.00  0.00    -0.334 OA
BRANCH  26  27
HETATM   27  C15 UNL     1       5.763  -1.535  -0.395  1.00  0.00     0.172 A 
HETATM   28  N2  UNL     1       6.010  -1.766  -1.685  1.00  0.00    -0.343 N 
HETATM   29  C16 UNL     1       7.254  -1.345  -2.003  1.00  0.00     0.122 A 
ATOM     30  H2  UNL     1       5.355  -2.198  -2.337  1.00  0.00     0.167 HD
HETATM   31  C17 UNL     1       7.849  -0.817  -0.882  1.00  0.00     0.079 A 
HETATM   32  N3  UNL     1       9.045  -0.265  -0.611  1.00  0.00    -0.358 N 
HETATM   33  C20 UNL     1       6.923  -0.935   0.119  1.00  0.00     0.115 A 
HETATM   34  C18 UNL     1       9.349   0.174   0.622  1.00  0.00     0.163 A 
ATOM     35  H3  UNL     1       9.735  -0.178  -1.357  1.00  0.00     0.165 HD
HETATM   36  C19 UNL     1       8.433   0.067   1.648  1.00  0.00     0.261 A 
HETATM   37  O2  UNL     1       8.742   0.485   2.793  1.00  0.00    -0.267 OA
HETATM   38  N4  UNL     1       7.246  -0.489   1.351  1.00  0.00    -0.317 N 
ATOM     39  H4  UNL     1       6.554  -0.578   2.095  1.00  0.00     0.169 HD
ENDBRANCH  26  27
ENDBRANCH  25  26
ENDBRANCH  24  25
ENDBRANCH  23  24
ENDBRANCH  22  23
ENDBRANCH  21  22
ENDBRANCH   1  21
TORSDOF 13
