REMARK  15 active torsions:
REMARK  status: ('A' for Active; 'I' for Inactive)
REMARK    1  A    between atoms: C2_2  and  C3_3 
REMARK    2  A    between atoms: C3_3  and  C4_4 
REMARK    3  A    between atoms: C4_4  and  C5_5 
REMARK    4  A    between atoms: C5_5  and  C6_6 
REMARK    5  A    between atoms: C6_6  and  C7_7 
REMARK    6  A    between atoms: C7_7  and  C8_8 
REMARK    7  A    between atoms: C8_8  and  C9_9 
REMARK    8  A    between atoms: C9_9  and  N1_10 
REMARK    9  A    between atoms: N1_10  and  C10_12 
REMARK   10  A    between atoms: C11_15  and  N3_16 
REMARK   11  A    between atoms: N3_16  and  C13_18 
REMARK   12  A    between atoms: C13_18  and  C14_19 
REMARK   13  A    between atoms: C18_23  and  C19_24 
REMARK   14  A    between atoms: C19_24  and  O1_25 
REMARK   15  A    between atoms: C22_35  and  N6_36 
ROOT
HETATM    1  C10 UNL     1       0.674   1.474   0.172  1.00  0.00     0.707 A 
HETATM    2  N2  UNL     1      -0.605   1.066   0.149  1.00  0.00    -0.021 N 
ATOM      3  H2  UNL     1      -0.804   0.084  -0.042  1.00  0.00     0.203 HD
HETATM    4  C11 UNL     1      -1.628   1.900   0.368  1.00  0.00     0.709 A 
HETATM    5  N5  UNL     1      -1.370   3.217   0.624  1.00  0.00    -0.022 N 
ATOM      6  H5  UNL     1      -2.140   3.864   0.793  1.00  0.00     0.203 HD
HETATM    7  C22 UNL     1      -0.102   3.660   0.653  1.00  0.00     0.705 A 
HETATM    8  N7  UNL     1       0.888   2.787   0.429  1.00  0.00    -0.022 N 
ATOM      9  H7  UNL     1       1.849   3.127   0.453  1.00  0.00     0.203 HD
ENDROOT
BRANCH   4  10
HETATM   10  N3  UNL     1      -2.954   1.424   0.293  1.00  0.00    -0.215 N 
HETATM   11  C12 UNL     1      -3.795   1.827  -0.810  1.00  0.00     0.169 C 
BRANCH  10  12
HETATM   12  C13 UNL     1      -3.470   0.531   1.288  1.00  0.00     0.197 C 
BRANCH  12  13
HETATM   13  C14 UNL     1      -4.925   0.301   1.044  1.00  0.00     0.031 A 
HETATM   14  C15 UNL     1      -5.363  -0.640   0.139  1.00  0.00     0.041 A 
HETATM   15  C16 UNL     1      -6.733  -0.829  -0.071  1.00  0.00     0.008 A 
HETATM   16  C17 UNL     1      -7.504  -1.647  -0.868  1.00  0.00     0.049 A 
HETATM   17  C20 UNL     1      -7.657  -0.066   0.634  1.00  0.00     0.153 A 
HETATM   18  C18 UNL     1      -8.835  -1.361  -0.627  1.00  0.00     0.078 A 
HETATM   19  O2  UNL     1      -8.859  -0.412   0.276  1.00  0.00    -0.306 OA
HETATM   20  C21 UNL     1      -7.171   0.859   1.526  1.00  0.00     0.280 A 
HETATM   21  O3  UNL     1      -7.972   1.567   2.186  1.00  0.00    -0.265 OA
HETATM   22  N4  UNL     1      -5.836   1.027   1.715  1.00  0.00    -0.323 N 
ATOM     23  H4  UNL     1      -5.515   1.725   2.386  1.00  0.00     0.169 HD
BRANCH  18  24
HETATM   24  C19 UNL     1     -10.026  -2.016  -1.281  1.00  0.00     0.229 C 
BRANCH  24  25
HETATM   25  O1  UNL     1     -11.194  -1.414  -0.855  1.00  0.00    -0.394 OA
ATOM     26  H1  UNL     1     -11.944  -1.827  -1.267  1.00  0.00     0.209 HD
ENDBRANCH  24  25
ENDBRANCH  18  24
ENDBRANCH  12  13
ENDBRANCH  10  12
ENDBRANCH   4  10
BRANCH   1  27
HETATM   27  N1  UNL     1       1.632   0.690  -0.016  1.00  0.00    -0.225 N 
ATOM     28  H1  UNL     1       2.566   1.098   0.019  1.00  0.00     0.177 HD
BRANCH  27  29
HETATM   29  C9  UNL     1       1.561  -0.706  -0.273  1.00  0.00     0.138 C 
BRANCH  29  30
HETATM   30  C8  UNL     1       3.064  -1.127  -0.378  1.00  0.00     0.020 C 
BRANCH  30  31
HETATM   31  C7  UNL     1       3.597  -0.334  -1.524  1.00  0.00     0.002 C 
BRANCH  31  32
HETATM   32  C6  UNL     1       5.074  -0.570  -1.710  1.00  0.00     0.000 C 
BRANCH  32  33
HETATM   33  C5  UNL     1       5.813  -0.108  -0.477  1.00  0.00     0.000 C 
BRANCH  33  34
HETATM   34  C4  UNL     1       7.308  -0.265  -0.597  1.00  0.00     0.000 C 
BRANCH  34  35
HETATM   35  C3  UNL     1       7.673  -1.709  -0.803  1.00  0.00    -0.000 C 
BRANCH  35  36
HETATM   36  C2  UNL     1       9.197  -1.858  -0.918  1.00  0.00    -0.005 C 
HETATM   37  C1  UNL     1       9.797  -1.338   0.357  1.00  0.00     0.005 C 
ENDBRANCH  35  36
ENDBRANCH  34  35
ENDBRANCH  33  34
ENDBRANCH  32  33
ENDBRANCH  31  32
ENDBRANCH  30  31
ENDBRANCH  29  30
ENDBRANCH  27  29
ENDBRANCH   1  27
BRANCH   7  38
HETATM   38  N6  UNL     1       0.143   4.895   0.889  1.00  0.00    -0.234 N 
ATOM     39  H62 UNL     1      -0.611   5.560   1.060  1.00  0.00     0.174 HD
ATOM     40  H61 UNL     1       1.106   5.231   0.911  1.00  0.00     0.174 HD
ENDBRANCH   7  38
TORSDOF 15
