REMARK  8 active torsions:
REMARK  status: ('A' for Active; 'I' for Inactive)
REMARK    1  A    between atoms: C2_2  and  C3_3 
REMARK    2  A    between atoms: C3_3  and  N1_4 
REMARK       I    between atoms: N1_4  and  C4_6 
REMARK       I    between atoms: C4_6  and  N2_8 
REMARK    3  A    between atoms: N2_8  and  C5_10 
REMARK    4  A    between atoms: C6_11  and  N3_12 
REMARK    5  A    between atoms: N3_12  and  C7_14 
REMARK    6  A    between atoms: C7_14  and  C8_18 
REMARK    7  A    between atoms: C17_29  and  C18_30 
REMARK    8  A    between atoms: C18_30  and  O4_31 
ROOT
HETATM    1  C5  UNL     1       1.335  -1.453  -0.461  1.00  0.00     0.141 C 
HETATM    2  C6  UNL     1      -0.166  -1.185  -0.305  1.00  0.00     0.117 C 
HETATM    3  C15 UNL     1      -0.732  -2.234   0.665  1.00  0.00     0.138 C 
HETATM    4  C16 UNL     1      -0.610  -3.543  -0.071  1.00  0.00     0.261 C 
HETATM    5  O2  UNL     1      -1.466  -4.425   0.129  1.00  0.00    -0.265 OA
HETATM    6  O3  UNL     1       0.479  -3.624  -0.919  1.00  0.00    -0.312 OA
HETATM    7  C17 UNL     1       1.640  -2.926  -0.520  1.00  0.00     0.180 C 
ENDROOT
BRANCH   2   8
HETATM    8  N3  UNL     1      -0.410   0.110   0.245  1.00  0.00    -0.373 N 
ATOM      9  H3  UNL     1       0.422   0.552   0.636  1.00  0.00     0.161 HD
BRANCH   8  10
HETATM   10  C7  UNL     1      -1.555   0.886   0.353  1.00  0.00     0.075 C 
HETATM   11  N4  UNL     1      -1.350   2.203   0.270  1.00  0.00    -0.389 N 
ATOM     12  H42 UNL     1      -0.368   2.450   0.144  1.00  0.00     0.157 HD
ATOM     13  H41 UNL     1      -2.192   2.774   0.349  1.00  0.00     0.157 HD
BRANCH  10  14
HETATM   14  C8  UNL     1      -2.961   0.532   0.533  1.00  0.00     0.052 C 
HETATM   15  C9  UNL     1      -3.779   1.755   0.965  1.00  0.00     0.012 C 
HETATM   16  C10 UNL     1      -4.348   2.519  -0.175  1.00  0.00     0.001 C 
HETATM   17  C11 UNL     1      -5.510   1.861  -0.854  1.00  0.00     0.000 C 
HETATM   18  C12 UNL     1      -5.920   0.564  -0.254  1.00  0.00     0.000 C 
HETATM   19  C13 UNL     1      -4.920  -0.547  -0.397  1.00  0.00     0.001 C 
HETATM   20  C14 UNL     1      -3.526  -0.045  -0.727  1.00  0.00     0.012 C 
ENDBRANCH  10  14
ENDBRANCH   8  10
ENDBRANCH   2   8
BRANCH   1  21
HETATM   21  N2  UNL     1       2.133  -0.761   0.503  1.00  0.00    -0.334 N 
HETATM   22  C4  UNL     1       3.077   0.230   0.120  1.00  0.00     0.316 C 
HETATM   23  N1  UNL     1       3.869   0.918   1.079  1.00  0.00    -0.343 N 
HETATM   24  O1  UNL     1       3.232   0.520  -1.089  1.00  0.00    -0.247 OA
ATOM     25  H1  UNL     1       3.741   0.683   2.063  1.00  0.00     0.164 HD
ATOM     26  H2  UNL     1       2.022  -0.985   1.492  1.00  0.00     0.164 HD
BRANCH  23  27
HETATM   27  C3  UNL     1       4.841   1.926   0.745  1.00  0.00     0.124 C 
BRANCH  27  28
HETATM   28  C2  UNL     1       5.952   1.423  -0.152  1.00  0.00     0.015 C 
HETATM   29  C1  UNL     1       6.892   2.603  -0.407  1.00  0.00     0.006 C 
ENDBRANCH  27  28
ENDBRANCH  23  27
ENDBRANCH   1  21
BRANCH   7  30
HETATM   30  C18 UNL     1       2.676  -3.189  -1.597  1.00  0.00     0.198 C 
BRANCH  30  31
HETATM   31  O4  UNL     1       2.890  -4.552  -1.657  1.00  0.00    -0.398 OA
ATOM     32  H4  UNL     1       3.539  -4.717  -2.331  1.00  0.00     0.209 HD
ENDBRANCH  30  31
ENDBRANCH   7  30
TORSDOF 8
