REMARK  10 active torsions:
REMARK  status: ('A' for Active; 'I' for Inactive)
REMARK    1  A    between atoms: C7_7  and  O1_8 
REMARK    2  A    between atoms: C8_10  and  O2_11 
REMARK    3  A    between atoms: C9_13  and  O3_14 
REMARK    4  A    between atoms: C12_20  and  O4_21 
REMARK    5  A    between atoms: C12_20  and  C13_23 
REMARK    6  A    between atoms: C13_23  and  C14_24 
REMARK    7  A    between atoms: C14_24  and  C15_25 
REMARK    8  A    between atoms: C15_25  and  C16_26 
REMARK    9  A    between atoms: C16_26  and  C17_27 
REMARK   10  A    between atoms: C17_27  and  C18_28 
ROOT
HETATM    1  C1  UNL     1      -2.427  -0.381  -1.636  1.00  0.00     0.017 C 
HETATM    2  C2  UNL     1      -2.009  -0.532  -0.219  1.00  0.00    -0.022 C 
HETATM    3  C3  UNL     1      -1.571  -1.977  -0.089  1.00  0.00     0.011 C 
HETATM    4  C4  UNL     1      -2.902  -2.740  -0.179  1.00  0.00     0.001 C 
HETATM    5  C5  UNL     1      -3.980  -1.732   0.088  1.00  0.00     0.008 C 
HETATM    6  C6  UNL     1      -3.174  -0.635   0.747  1.00  0.00     0.026 C 
HETATM    7  C7  UNL     1      -3.910   0.536   1.152  1.00  0.00     0.154 C 
HETATM    8  C8  UNL     1      -2.947   1.651   1.542  1.00  0.00     0.184 C 
HETATM    9  C9  UNL     1      -1.976   1.753   0.451  1.00  0.00     0.115 C 
HETATM   10  C10 UNL     1      -1.008   2.874   0.428  1.00  0.00     0.161 C 
HETATM   11  N1  UNL     1      -0.312   2.409  -0.808  1.00  0.00    -0.387 N 
ATOM     12  H1  UNL     1      -0.110   2.949  -1.650  1.00  0.00     0.159 HD
HETATM   13  C11 UNL     1       0.014   1.019  -0.547  1.00  0.00     0.046 C 
HETATM   14  C12 UNL     1       1.146   0.561  -1.044  1.00  0.00     0.066 C 
HETATM   15  C19 UNL     1      -1.085   0.515   0.270  1.00  0.00     0.043 C 
HETATM   16  C20 UNL     1      -0.500   0.237   1.626  1.00  0.00     0.026 C 
ENDROOT
BRANCH  14  17
HETATM   17  O4  UNL     1       1.932   1.496  -1.800  1.00  0.00    -0.363 OA
ATOM     18  H4  UNL     1       2.748   1.166  -2.158  1.00  0.00     0.217 HD
ENDBRANCH  14  17
BRANCH  14  19
HETATM   19  C13 UNL     1       1.774  -0.756  -0.969  1.00  0.00     0.066 C 
BRANCH  19  20
HETATM   20  C14 UNL     1       3.101  -0.788  -0.215  1.00  0.00     0.006 C 
BRANCH  20  21
HETATM   21  C15 UNL     1       4.162   0.087  -0.784  1.00  0.00     0.001 C 
BRANCH  21  22
HETATM   22  C16 UNL     1       5.424  -0.101   0.054  1.00  0.00     0.007 C 
BRANCH  22  23
HETATM   23  C17 UNL     1       5.949  -1.495   0.053  1.00  0.00     0.069 C 
BRANCH  23  24
HETATM   24  C18 UNL     1       7.193  -1.476   0.903  1.00  0.00     0.231 C 
HETATM   25  O5  UNL     1       7.163  -1.077   2.054  1.00  0.00    -0.307 OA
ENDBRANCH  23  24
ENDBRANCH  22  23
ENDBRANCH  21  22
ENDBRANCH  20  21
ENDBRANCH  19  20
ENDBRANCH  14  19
BRANCH   9  26
HETATM   26  O3  UNL     1      -2.729   1.963  -0.744  1.00  0.00    -0.384 OA
ATOM     27  H3  UNL     1      -2.099   2.029  -1.452  1.00  0.00     0.210 HD
ENDBRANCH   9  26
BRANCH   8  28
HETATM   28  O2  UNL     1      -3.734   2.818   1.509  1.00  0.00    -0.390 OA
ATOM     29  H2  UNL     1      -3.134   3.513   1.752  1.00  0.00     0.210 HD
ENDBRANCH   8  28
BRANCH   7  30
HETATM   30  O1  UNL     1      -4.854   1.024   0.257  1.00  0.00    -0.392 OA
ATOM     31  H1  UNL     1      -5.339   1.796   0.524  1.00  0.00     0.210 HD
ENDBRANCH   7  30
TORSDOF 10
