REMARK  8 active torsions:
REMARK  status: ('A' for Active; 'I' for Inactive)
REMARK    1  A    between atoms: C1_2  and  C2_4 
REMARK    2  A    between atoms: C2_4  and  C3_5 
REMARK    3  A    between atoms: C2_4  and  N2_17 
REMARK    4  A    between atoms: C3_5  and  C4_6 
REMARK    5  A    between atoms: C4_6  and  C5_7 
REMARK    6  A    between atoms: C9_11  and  C10_12 
REMARK       I    between atoms: N2_17  and  C11_19 
REMARK    7  A    between atoms: C11_19  and  C12_21 
REMARK    8  A    between atoms: C12_21  and  O6_22 
ROOT
HETATM    1  C2  UNL     1       0.285   1.350   0.838  1.00  0.00     0.185 C 
ENDROOT
BRANCH   1   2
HETATM    2  C1  UNL     1       0.514   2.774   1.150  1.00  0.00     0.196 C 
HETATM    3  O1  UNL     1      -0.486   3.566   1.267  1.00  0.00    -0.646 OA
HETATM    4  O2  UNL     1       1.745   3.372   1.337  1.00  0.00    -0.646 OA
ENDBRANCH   1   2
BRANCH   1   5
HETATM    5  C3  UNL     1       0.951   0.391   1.792  1.00  0.00     0.038 C 
BRANCH   5   6
HETATM    6  C4  UNL     1       2.421   0.488   1.878  1.00  0.00     0.027 C 
BRANCH   6   7
HETATM    7  C5  UNL     1       3.156   0.249   0.590  1.00  0.00     0.077 C 
HETATM    8  C6  UNL     1       2.868  -1.117   0.066  1.00  0.00     0.025 C 
HETATM    9  C7  UNL     1       3.679  -1.481  -1.134  1.00  0.00     0.004 C 
HETATM   10  C8  UNL     1       4.963  -0.705  -1.249  1.00  0.00     0.036 C 
HETATM   11  C9  UNL     1       5.472  -0.227   0.088  1.00  0.00     0.179 C 
HETATM   12  N1  UNL     1       4.540   0.521   0.837  1.00  0.00    -0.404 N 
ATOM     13  H1  UNL     1       4.836   1.219   1.519  1.00  0.00     0.154 HD
BRANCH  11  14
HETATM   14  C10 UNL     1       6.047  -1.335   0.891  1.00  0.00     0.196 C 
HETATM   15  O3  UNL     1       5.664  -1.478   2.079  1.00  0.00    -0.646 OA
HETATM   16  O4  UNL     1       6.987  -2.238   0.423  1.00  0.00    -0.646 OA
ENDBRANCH  11  14
ENDBRANCH   6   7
ENDBRANCH   5   6
ENDBRANCH   1   5
BRANCH   1  17
HETATM   17  N2  UNL     1      -1.125   1.052   0.688  1.00  0.00    -0.344 N 
HETATM   18  C11 UNL     1      -1.699   0.618  -0.536  1.00  0.00     0.253 C 
HETATM   19  O5  UNL     1      -0.917   0.498  -1.516  1.00  0.00    -0.270 OA
ATOM     20  H2  UNL     1      -1.734   1.159   1.500  1.00  0.00     0.163 HD
BRANCH  18  21
HETATM   21  C12 UNL     1      -3.150   0.316  -0.671  1.00  0.00     0.138 C 
HETATM   22  C13 UNL     1      -3.333  -1.092  -1.111  1.00  0.00     0.048 C 
HETATM   23  C14 UNL     1      -4.628  -1.723  -0.888  1.00  0.00     0.004 C 
HETATM   24  C15 UNL     1      -5.775  -0.873  -0.492  1.00  0.00     0.000 C 
HETATM   25  C16 UNL     1      -5.919   0.406  -1.243  1.00  0.00     0.000 C 
HETATM   26  C17 UNL     1      -4.919   0.614  -2.330  1.00  0.00     0.004 C 
HETATM   27  C18 UNL     1      -3.689   1.232  -1.738  1.00  0.00     0.048 C 
BRANCH  21  28
HETATM   28  O6  UNL     1      -3.732   0.542   0.568  1.00  0.00    -0.380 OA
ATOM     29  H6  UNL     1      -4.658   0.349   0.482  1.00  0.00     0.211 HD
ENDBRANCH  21  28
ENDBRANCH  18  21
ENDBRANCH   1  17
TORSDOF 8
