REMARK  7 active torsions:
REMARK  status: ('A' for Active; 'I' for Inactive)
REMARK    1  A    between atoms: C3_3  and  N1_4 
REMARK    2  A    between atoms: C10_14  and  O1_15 
REMARK    3  A    between atoms: O1_15  and  C11_16 
REMARK    4  A    between atoms: C14_20  and  C15_21 
REMARK    5  A    between atoms: C18_24  and  N5_25 
REMARK       I    between atoms: N5_25  and  C19_27 
REMARK       I    between atoms: C19_27  and  N6_29 
REMARK    6  A    between atoms: N6_29  and  C20_31 
REMARK    7  A    between atoms: C23_34  and  C24_35 
ROOT
HETATM    1  C1  UNL     1      -6.505  -0.200  -2.489  1.00  0.00     0.014 C 
HETATM    2  C2  UNL     1      -6.648   0.588  -1.583  1.00  0.00    -0.097 C 
HETATM    3  C3  UNL     1      -6.799   1.561  -0.495  1.00  0.00     0.223 C 
ENDROOT
BRANCH   3   4
HETATM    4  N1  UNL     1      -7.756   1.160   0.476  1.00  0.00    -0.323 N 
HETATM    5  C4  UNL     1      -9.081   1.505   0.448  1.00  0.00     0.119 A 
HETATM    6  C5  UNL     1      -9.657   2.336  -0.570  1.00  0.00     0.118 C 
HETATM    7  C6  UNL     1      -9.683   0.929   1.525  1.00  0.00     0.073 A 
HETATM    8  N2  UNL     1     -10.137   3.001  -1.386  1.00  0.00    -0.190 NA
HETATM    9  C7  UNL     1      -8.735   0.215   2.241  1.00  0.00     0.065 A 
HETATM   10  N3  UNL     1      -8.754  -0.528   3.355  1.00  0.00    -0.364 N 
HETATM   11  C31 UNL     1      -7.546   0.387   1.548  1.00  0.00     0.097 A 
HETATM   12  C8  UNL     1      -7.646  -1.109   3.810  1.00  0.00     0.091 A 
ATOM     13  H3  UNL     1      -9.630  -0.651   3.862  1.00  0.00     0.165 HD
HETATM   14  C9  UNL     1      -6.419  -0.986   3.175  1.00  0.00     0.056 A 
HETATM   15  C10 UNL     1      -6.370  -0.226   2.026  1.00  0.00     0.099 A 
BRANCH  15  16
HETATM   16  O1  UNL     1      -5.244  -0.012   1.288  1.00  0.00    -0.343 OA
BRANCH  16  17
HETATM   17  C11 UNL     1      -3.984  -0.504   1.604  1.00  0.00     0.135 C 
HETATM   18  C12 UNL     1      -2.939   0.587   1.492  1.00  0.00     0.077 C 
HETATM   19  C13 UNL     1      -1.630   0.043   0.929  1.00  0.00     0.065 C 
HETATM   20  N4  UNL     1      -1.789  -0.510  -0.337  1.00  0.00    -0.373 N 
HETATM   21  C14 UNL     1      -0.965  -0.323  -1.402  1.00  0.00     0.067 C 
HETATM   22  C29 UNL     1      -3.093  -1.082  -0.594  1.00  0.00     0.129 C 
HETATM   23  C30 UNL     1      -3.544  -1.666   0.718  1.00  0.00     0.053 C 
BRANCH  21  24
HETATM   24  C15 UNL     1       0.407  -0.993  -1.295  1.00  0.00     0.024 C 
HETATM   25  C16 UNL     1       1.236  -0.545  -0.169  1.00  0.00     0.012 C 
HETATM   26  C17 UNL     1       2.634  -1.106  -0.213  1.00  0.00     0.026 C 
HETATM   27  C18 UNL     1       3.269  -0.478  -1.484  1.00  0.00     0.086 C 
HETATM   28  C27 UNL     1       2.558  -1.083  -2.674  1.00  0.00     0.026 C 
HETATM   29  C28 UNL     1       1.089  -0.930  -2.630  1.00  0.00     0.012 C 
BRANCH  27  30
HETATM   30  N5  UNL     1       4.630  -0.930  -1.495  1.00  0.00    -0.338 N 
HETATM   31  C19 UNL     1       5.692  -0.021  -1.044  1.00  0.00     0.321 C 
HETATM   32  O2  UNL     1       5.307   1.119  -0.662  1.00  0.00    -0.247 OA
HETATM   33  N6  UNL     1       6.987  -0.509  -1.090  1.00  0.00    -0.307 N 
ATOM     34  H6  UNL     1       7.118  -1.455  -1.448  1.00  0.00     0.170 HD
ATOM     35  H5  UNL     1       4.858  -1.872  -1.812  1.00  0.00     0.164 HD
BRANCH  33  36
HETATM   36  C20 UNL     1       8.140   0.195  -0.683  1.00  0.00     0.058 A 
HETATM   37  C21 UNL     1       8.134   1.350   0.057  1.00  0.00     0.032 A 
HETATM   38  C22 UNL     1       9.340   1.991   0.452  1.00  0.00     0.018 A 
HETATM   39  C23 UNL     1      10.551   1.456   0.095  1.00  0.00     0.049 A 
HETATM   40  C25 UNL     1      10.569   0.293  -0.649  1.00  0.00     0.042 A 
HETATM   41  C26 UNL     1       9.413  -0.313  -1.021  1.00  0.00     0.061 A 
HETATM   42 CL1  UNL     1       9.479  -1.802  -1.970  1.00  0.00    -0.082 Cl
BRANCH  39  43
HETATM   43  C24 UNL     1      11.831   2.105   0.483  1.00  0.00     0.417 C 
HETATM   44  F1  UNL     1      11.770   3.395  -0.007  1.00  0.00    -0.166 F 
HETATM   45  F2  UNL     1      12.917   1.421  -0.040  1.00  0.00    -0.166 F 
HETATM   46  F3  UNL     1      11.975   2.189   1.837  1.00  0.00    -0.166 F 
ENDBRANCH  39  43
ENDBRANCH  33  36
ENDBRANCH  27  30
ENDBRANCH  21  24
ENDBRANCH  16  17
ENDBRANCH  15  16
ENDBRANCH   3   4
TORSDOF 7
