REMARK  8 active torsions:
REMARK  status: ('A' for Active; 'I' for Inactive)
REMARK    1  A    between atoms: N1_2  and  C2_3 
REMARK    2  A    between atoms: N1_2  and  C8_13 
REMARK    3  A    between atoms: C5_6  and  N2_7 
REMARK    4  A    between atoms: C11_16  and  N3_17 
REMARK    5  A    between atoms: N3_17  and  C20_30 
REMARK    6  A    between atoms: C12_18  and  C13_19 
REMARK    7  A    between atoms: C16_22  and  C17_23 
REMARK    8  A    between atoms: N5_39  and  C27_40 
ROOT
HETATM    1  N3  UNL     1      -0.327   1.379  -0.736  1.00  0.00    -0.338 N 
HETATM    2  C12 UNL     1      -0.071   2.707  -0.574  1.00  0.00     0.107 C 
ENDROOT
BRANCH   1   3
HETATM    3  C11 UNL     1       0.905   0.469  -0.635  1.00  0.00     0.091 C 
HETATM    4  C10 UNL     1       0.716  -0.881  -1.141  1.00  0.00     0.031 C 
HETATM    5  C9  UNL     1       2.145  -1.540  -1.080  1.00  0.00     0.054 C 
HETATM    6  C8  UNL     1       2.414  -1.770   0.362  1.00  0.00    -0.011 C 
HETATM    7  C34 UNL     1       2.063  -0.724   1.329  1.00  0.00     0.054 C 
HETATM    8  C33 UNL     1       1.303   0.454   0.848  1.00  0.00     0.031 C 
BRANCH   6   9
HETATM    9  N1  UNL     1       3.676  -2.406   0.627  1.00  0.00    -0.365 N 
HETATM   10  C1  UNL     1       3.867  -3.772   0.350  1.00  0.00     0.155 C 
BRANCH   9  11
HETATM   11  C2  UNL     1       4.835  -1.607   0.313  1.00  0.00    -0.011 C 
HETATM   12  C3  UNL     1       5.416  -1.937  -1.034  1.00  0.00     0.054 C 
HETATM   13  C4  UNL     1       6.653  -1.105  -1.272  1.00  0.00     0.038 C 
HETATM   14  C5  UNL     1       7.708  -1.311  -0.239  1.00  0.00     0.184 C 
HETATM   15  C6  UNL     1       7.205  -1.955   1.008  1.00  0.00     0.038 C 
HETATM   16  C7  UNL     1       5.819  -1.352   1.357  1.00  0.00     0.054 C 
BRANCH  14  17
HETATM   17  N2  UNL     1       8.414  -0.064   0.058  1.00  0.00    -0.075 N 
ATOM     18  H23 UNL     1       8.796   0.360  -0.787  1.00  0.00     0.274 HD
ATOM     19  H22 UNL     1       7.767   0.677   0.327  1.00  0.00     0.274 HD
ATOM     20  H21 UNL     1       9.136  -0.205   0.765  1.00  0.00     0.274 HD
ENDBRANCH  14  17
ENDBRANCH   9  11
ENDBRANCH   6   9
ENDBRANCH   1   3
BRANCH   1  21
HETATM   21  C20 UNL     1      -1.567   0.705  -0.837  1.00  0.00     0.108 A 
HETATM   22  C21 UNL     1      -1.695  -0.297  -1.760  1.00  0.00     0.051 A 
HETATM   23  C22 UNL     1      -2.698  -1.225  -1.677  1.00  0.00     0.036 A 
HETATM   24  C23 UNL     1      -3.565  -1.104  -0.645  1.00  0.00     0.062 A 
HETATM   25  C24 UNL     1      -3.471  -0.061   0.317  1.00  0.00     0.070 A 
HETATM   26  N5  UNL     1      -4.595  -1.891  -0.211  1.00  0.00    -0.343 N 
HETATM   27  N4  UNL     1      -2.467   0.837   0.200  1.00  0.00    -0.340 N 
HETATM   28  C25 UNL     1      -4.429  -0.283   1.228  1.00  0.00     0.019 A 
ATOM     29  H4  UNL     1      -2.376   1.601   0.869  1.00  0.00     0.167 HD
HETATM   30  C26 UNL     1      -5.109  -1.431   0.887  1.00  0.00     0.024 A 
HETATM   31  C32 UNL     1      -5.050   0.489   2.362  1.00  0.00     0.275 C 
HETATM   32  C30 UNL     1      -6.115  -1.929   1.880  1.00  0.00     0.085 C 
HETATM   33  C31 UNL     1      -7.108  -0.809   2.130  1.00  0.00     0.238 C 
HETATM   34  N6  UNL     1      -6.517   0.486   1.953  1.00  0.00    -0.071 N 
ATOM     35  H62 UNL     1      -6.639   0.825   0.999  1.00  0.00     0.277 HD
ATOM     36  H61 UNL     1      -7.044   1.207   2.446  1.00  0.00     0.277 HD
BRANCH  26  37
HETATM   37  C27 UNL     1      -4.889  -3.144  -0.902  1.00  0.00     0.090 A 
HETATM   38  C28 UNL     1      -6.355  -3.532  -1.093  1.00  0.00     0.028 A 
HETATM   39  C29 UNL     1      -5.483  -3.169  -2.252  1.00  0.00     0.028 A 
ENDBRANCH  26  37
ENDBRANCH   1  21
BRANCH   2  40
HETATM   40  C13 UNL     1      -0.953   3.826  -0.419  1.00  0.00     0.018 A 
HETATM   41  C14 UNL     1      -1.674   4.499  -1.338  1.00  0.00     0.017 A 
HETATM   42  C15 UNL     1      -2.190   5.786  -1.082  1.00  0.00     0.017 A 
HETATM   43  C16 UNL     1      -1.971   6.407   0.125  1.00  0.00     0.050 A 
HETATM   44  C18 UNL     1      -1.242   5.731   1.093  1.00  0.00     0.059 A 
HETATM   45  C19 UNL     1      -0.762   4.518   0.833  1.00  0.00     0.128 A 
HETATM   46  F4  UNL     1      -0.112   3.817   1.815  1.00  0.00    -0.205 F 
BRANCH  43  47
HETATM   47  C17 UNL     1      -2.327   7.830   0.403  1.00  0.00     0.417 C 
HETATM   48  F1  UNL     1      -2.522   8.497  -0.760  1.00  0.00    -0.166 F 
HETATM   49  F2  UNL     1      -3.282   8.011   1.343  1.00  0.00    -0.166 F 
HETATM   50  F3  UNL     1      -1.098   8.372   0.903  1.00  0.00    -0.166 F 
ENDBRANCH  43  47
ENDBRANCH   2  40
TORSDOF 8
