REMARK  8 active torsions:
REMARK  status: ('A' for Active; 'I' for Inactive)
REMARK    1  A    between atoms: N1_2  and  C3_4 
REMARK    2  A    between atoms: C7_10  and  N3_11 
REMARK       I    between atoms: N3_11  and  C8_13 
REMARK       I    between atoms: C8_13  and  N4_15 
REMARK    3  A    between atoms: N4_15  and  C9_17 
REMARK    4  A    between atoms: C12_20  and  C13_21 
REMARK    5  A    between atoms: C13_21  and  C14_22 
REMARK       I    between atoms: C14_22  and  N5_24 
REMARK    6  A    between atoms: C18_30  and  C19_31 
REMARK    7  A    between atoms: C19_31  and  C20_32 
REMARK    8  A    between atoms: N6_42  and  C30_43 
ROOT
HETATM    1  N3  UNL     1      -4.225   0.560  -1.299  1.00  0.00    -0.309 N 
ATOM      2  H3  UNL     1      -4.349   0.954  -2.232  1.00  0.00     0.170 HD
HETATM    3  C8  UNL     1      -2.971   0.719  -0.664  1.00  0.00     0.325 C 
HETATM    4  O1  UNL     1      -2.832   0.242   0.485  1.00  0.00    -0.247 OA
HETATM    5  N4  UNL     1      -1.953   1.401  -1.354  1.00  0.00    -0.309 N 
ATOM      6  H4  UNL     1      -2.187   1.747  -2.284  1.00  0.00     0.170 HD
ENDROOT
BRANCH   5   7
HETATM    7  C9  UNL     1      -0.647   1.657  -0.899  1.00  0.00     0.036 A 
HETATM    8  C10 UNL     1       0.107   2.660  -1.517  1.00  0.00     0.030 A 
HETATM    9  C11 UNL     1       1.394   2.931  -1.124  1.00  0.00     0.010 A 
HETATM   10  C12 UNL     1       2.008   2.244  -0.117  1.00  0.00    -0.049 A 
HETATM   11  C26 UNL     1       1.281   1.255   0.500  1.00  0.00     0.010 A 
HETATM   12  C27 UNL     1      -0.029   0.975   0.105  1.00  0.00     0.030 A 
BRANCH  10  13
HETATM   13  C13 UNL     1       3.413   2.543   0.311  1.00  0.00     0.141 C 
BRANCH  13  14
HETATM   14  C14 UNL     1       4.383   1.788  -0.520  1.00  0.00     0.224 C 
HETATM   15  O2  UNL     1       3.932   1.026  -1.412  1.00  0.00    -0.273 OA
HETATM   16  N5  UNL     1       5.762   1.925  -0.312  1.00  0.00    -0.341 N 
HETATM   17  C15 UNL     1       6.385   2.760   0.681  1.00  0.00     0.132 C 
HETATM   18  C18 UNL     1       6.799   1.236  -1.098  1.00  0.00     0.159 C 
HETATM   19  C16 UNL     1       7.849   2.841   0.321  1.00  0.00     0.101 C 
HETATM   20  C17 UNL     1       8.041   1.999  -0.928  1.00  0.00     0.265 C 
HETATM   21  F1  UNL     1       8.144   2.979  -1.965  1.00  0.00    -0.204 F 
HETATM   22  F2  UNL     1       9.222   1.342  -0.986  1.00  0.00    -0.204 F 
BRANCH  18  23
HETATM   23  C19 UNL     1       6.735  -0.219  -0.989  1.00  0.00     0.036 C 
BRANCH  23  24
HETATM   24  C20 UNL     1       6.854  -0.919   0.300  1.00  0.00    -0.012 C 
HETATM   25  C21 UNL     1       6.666  -2.426   0.002  1.00  0.00     0.005 C 
HETATM   26  C22 UNL     1       7.954  -3.182   0.032  1.00  0.00     0.000 C 
HETATM   27  C23 UNL     1       8.606  -3.213   1.392  1.00  0.00     0.000 C 
HETATM   28  C24 UNL     1       8.264  -1.919   2.097  1.00  0.00     0.000 C 
HETATM   29  C25 UNL     1       8.215  -0.839   0.981  1.00  0.00     0.005 C 
ENDBRANCH  23  24
ENDBRANCH  18  23
ENDBRANCH  13  14
ENDBRANCH  10  13
ENDBRANCH   5   7
BRANCH   1  30
HETATM   30  C7  UNL     1      -5.319  -0.119  -0.705  1.00  0.00     0.038 A 
HETATM   31  C6  UNL     1      -5.206  -1.135   0.211  1.00  0.00     0.032 A 
HETATM   32  C5  UNL     1      -6.360  -1.694   0.739  1.00  0.00     0.034 A 
HETATM   33  C4  UNL     1      -7.625  -1.282   0.388  1.00  0.00     0.061 A 
HETATM   34  N2  UNL     1      -8.708  -1.848   0.920  1.00  0.00    -0.336 N 
HETATM   35  C29 UNL     1      -7.762  -0.249  -0.546  1.00  0.00     0.071 A 
HETATM   36  C3  UNL     1      -9.943  -1.466   0.596  1.00  0.00     0.173 A 
ATOM     37  H2  UNL     1      -8.587  -2.600   1.599  1.00  0.00     0.168 HD
HETATM   38  C31 UNL     1     -10.078  -0.448  -0.324  1.00  0.00     0.296 A 
HETATM   39  N6  UNL     1      -8.996   0.162  -0.896  1.00  0.00    -0.252 N 
HETATM   40  O3  UNL     1     -11.209  -0.048  -0.666  1.00  0.00    -0.264 OA
HETATM   41  C28 UNL     1      -6.623   0.289  -1.052  1.00  0.00     0.061 A 
BRANCH  36  42
HETATM   42  N1  UNL     1     -11.114  -2.058   1.155  1.00  0.00    -0.371 N 
HETATM   43  C1  UNL     1     -12.062  -2.677   0.265  1.00  0.00     0.150 C 
HETATM   44  C2  UNL     1     -11.375  -2.059   2.578  1.00  0.00     0.150 C 
ENDBRANCH  36  42
BRANCH  39  45
HETATM   45  C30 UNL     1      -9.140   1.221  -1.849  1.00  0.00     0.468 C 
HETATM   46  F3  UNL     1      -8.695   2.451  -1.416  1.00  0.00    -0.190 F 
HETATM   47  F4  UNL     1      -8.721   0.899  -3.129  1.00  0.00    -0.190 F 
ENDBRANCH  39  45
ENDBRANCH   1  30
TORSDOF 8
