REMARK  2 active torsions:
REMARK  status: ('A' for Active; 'I' for Inactive)
REMARK    1  A    between atoms: C2_2  and  C3_4 
REMARK    2  A    between atoms: C7_8  and  C8_9 
ROOT
HETATM    1  C3  UNL     1      -0.615   0.334   0.392  1.00  0.00     0.053 C 
HETATM    2  C4  UNL     1      -1.405   0.343   1.676  1.00  0.00     0.027 C 
HETATM    3  C5  UNL     1       0.872   0.601   0.665  1.00  0.00     0.084 C 
HETATM    4  C6  UNL     1       1.476  -0.073  -0.543  1.00  0.00     0.055 C 
HETATM    5  C7  UNL     1       2.762  -0.037  -0.881  1.00  0.00     0.116 C 
HETATM    6  O4  UNL     1       0.472  -0.742  -1.249  1.00  0.00    -0.344 OA
HETATM    7  C9  UNL     1      -0.520  -1.009  -0.244  1.00  0.00     0.074 C 
HETATM    8  C10 UNL     1       0.132  -2.022   0.679  1.00  0.00     0.047 C 
HETATM    9  C11 UNL     1      -1.771  -1.589  -0.782  1.00  0.00     0.047 C 
ENDROOT
BRANCH   1  10
HETATM   10  C2  UNL     1      -1.071   1.349  -0.577  1.00  0.00     0.134 C 
HETATM   11  C1  UNL     1      -2.463   1.376  -1.098  1.00  0.00     0.091 C 
HETATM   12  O1  UNL     1      -0.324   2.216  -0.996  1.00  0.00    -0.297 OA
ENDBRANCH   1  10
BRANCH   5  13
HETATM   13  C8  UNL     1       3.721   0.685  -0.079  1.00  0.00     0.201 C 
HETATM   14  O2  UNL     1       4.916   0.698  -0.426  1.00  0.00    -0.644 OA
HETATM   15  O3  UNL     1       3.383   1.376   1.076  1.00  0.00    -0.644 OA
ENDBRANCH   5  13
TORSDOF 2
