REMARK  1 active torsions:
REMARK  status: ('A' for Active; 'I' for Inactive)
REMARK    1  A    between atoms: N1_2  and  C2_5 
ROOT
HETATM    1  C2  UNL     1      -2.760  -0.541  -1.069  1.00  0.00     0.469 C 
HETATM    2  O1  UNL     1      -2.437   0.761  -0.787  1.00  0.00    -0.331 OA
HETATM    3  C3  UNL     1      -1.202   0.772  -0.139  1.00  0.00     0.155 C 
HETATM    4  C4  UNL     1      -0.132   1.420  -0.933  1.00  0.00     0.035 C 
HETATM    5  C5  UNL     1       0.921   2.205  -0.236  1.00  0.00     0.002 C 
HETATM    6  C6  UNL     1       2.364   1.847  -0.619  1.00  0.00     0.000 C 
HETATM    7  C7  UNL     1       3.021   0.936   0.423  1.00  0.00     0.000 C 
HETATM    8  C8  UNL     1       3.065  -0.510   0.074  1.00  0.00     0.000 C 
HETATM    9  C9  UNL     1       2.578  -1.500   1.061  1.00  0.00     0.000 C 
HETATM   10  C10 UNL     1       1.150  -2.048   0.826  1.00  0.00     0.002 C 
HETATM   11  C11 UNL     1       0.417  -0.890   0.323  1.00  0.00     0.035 C 
HETATM   12  C12 UNL     1      -1.020  -0.738   0.143  1.00  0.00     0.155 C 
HETATM   13  O2  UNL     1      -1.554  -1.259  -1.026  1.00  0.00    -0.331 OA
ENDROOT
BRANCH   1  14
HETATM   14  N1  UNL     1      -3.574  -1.090   0.025  1.00  0.00    -0.029 N 
HETATM   15  C1  UNL     1      -4.789  -0.366   0.218  1.00  0.00     0.273 C 
ATOM     16  H12 UNL     1      -3.037  -1.144   0.891  1.00  0.00     0.282 HD
ATOM     17  H11 UNL     1      -3.757  -2.083  -0.116  1.00  0.00     0.282 HD
ENDBRANCH   1  14
TORSDOF 1
