REMARK  2 active torsions:
REMARK  status: ('A' for Active; 'I' for Inactive)
REMARK    1  A    between atoms: C2_2  and  C3_7 
REMARK    2  A    between atoms: N1_3  and  O1_5 
ROOT
HETATM    1  C3  UNL     1       0.809   0.035  -0.001  1.00  0.00     0.061 C 
HETATM    2  C4  UNL     1       0.670  -1.275   0.761  1.00  0.00     0.024 C 
HETATM    3  C5  UNL     1      -0.453  -2.033   0.092  1.00  0.00     0.011 C 
HETATM    4  C6  UNL     1      -1.242  -0.905  -0.541  1.00  0.00    -0.042 C 
HETATM    5  C7  UNL     1      -2.204  -1.441  -1.589  1.00  0.00     0.015 C 
HETATM    6  C8  UNL     1      -1.979  -0.153   0.489  1.00  0.00     0.021 C 
HETATM    7  C9  UNL     1      -1.252   0.952   1.165  1.00  0.00     0.053 C 
HETATM    8  C10 UNL     1      -1.989   2.266   0.869  1.00  0.00     0.018 C 
HETATM    9  C11 UNL     1       0.161   1.088   0.820  1.00  0.00     0.145 C 
HETATM   10  O2  UNL     1       0.837   2.027   1.174  1.00  0.00    -0.296 OA
HETATM   11  C12 UNL     1      -0.117  -0.118  -1.211  1.00  0.00     0.032 C 
ENDROOT
BRANCH   1  12
HETATM   12  C2  UNL     1       2.181   0.327  -0.378  1.00  0.00     0.022 C 
HETATM   13  C1  UNL     1       3.200   0.468   0.689  1.00  0.00     0.066 C 
HETATM   14  N1  UNL     1       2.507   0.460  -1.603  1.00  0.00    -0.277 N 
ATOM     15  H1  UNL     1       1.783   0.357  -2.314  1.00  0.00     0.193 HD
BRANCH  14  16
HETATM   16  O1  UNL     1       3.790   0.736  -2.007  1.00  0.00    -0.290 OA
ATOM     17  H1  UNL     1       4.033   0.835  -2.920  1.00  0.00     0.244 HD
ENDBRANCH  14  16
ENDBRANCH   1  12
TORSDOF 2
