REMARK  14 active torsions:
REMARK  status: ('A' for Active; 'I' for Inactive)
REMARK       I    between atoms: C2_2  and  N1_4 
REMARK    1  A    between atoms: N1_4  and  C3_6 
REMARK    2  A    between atoms: C3_6  and  C4_7 
REMARK    3  A    between atoms: C3_6  and  C8_11 
REMARK    4  A    between atoms: C4_7  and  C5_8 
REMARK    5  A    between atoms: C8_11  and  N2_12 
REMARK    6  A    between atoms: C8_11  and  C23_34 
REMARK    7  A    between atoms: N2_12  and  C9_14 
REMARK    8  A    between atoms: C9_14  and  C10_15 
REMARK       I    between atoms: N3_19  and  C14_20 
REMARK    9  A    between atoms: C14_20  and  C15_22 
REMARK   10  A    between atoms: C15_22  and  N4_23 
REMARK   11  A    between atoms: N4_23  and  C16_24 
REMARK       I    between atoms: C23_34  and  N6_36 
REMARK   12  A    between atoms: N6_36  and  C24_38 
REMARK   13  A    between atoms: C24_38  and  C25_39 
REMARK   14  A    between atoms: C24_38  and  C26_42 
ROOT
HETATM    1  C8  UNL     1      -2.283   0.449  -0.287  1.00  0.00     0.192 C 
ENDROOT
BRANCH   1   2
HETATM    2  C3  UNL     1      -3.500   1.404  -0.268  1.00  0.00     0.116 C 
BRANCH   2   3
HETATM    3  N1  UNL     1      -3.223   2.546  -1.123  1.00  0.00    -0.354 N 
HETATM    4  C2  UNL     1      -3.947   2.735  -2.333  1.00  0.00     0.214 C 
HETATM    5  C1  UNL     1      -3.725   3.870  -3.258  1.00  0.00     0.117 C 
HETATM    6  O1  UNL     1      -4.823   1.889  -2.632  1.00  0.00    -0.274 OA
ATOM      7  H1  UNL     1      -2.504   3.217  -0.853  1.00  0.00     0.162 HD
ENDBRANCH   2   3
BRANCH   2   8
HETATM    8  C4  UNL     1      -3.758   1.738   1.146  1.00  0.00     0.031 C 
BRANCH   8   9
HETATM    9  C5  UNL     1      -4.906   2.627   1.455  1.00  0.00    -0.021 C 
HETATM   10  C6  UNL     1      -4.877   3.987   0.862  1.00  0.00     0.009 C 
HETATM   11  C7  UNL     1      -6.248   1.982   1.171  1.00  0.00     0.009 C 
ENDBRANCH   8   9
ENDBRANCH   2   8
ENDBRANCH   1   2
BRANCH   1  12
HETATM   12  N2  UNL     1      -1.127   1.072   0.177  1.00  0.00    -0.406 N 
ATOM     13  H2  UNL     1      -1.190   2.031   0.518  1.00  0.00     0.154 HD
BRANCH  12  14
HETATM   14  C9  UNL     1       0.117   0.432   0.193  1.00  0.00     0.140 C 
BRANCH  14  15
HETATM   15  C10 UNL     1       1.214   1.423   0.629  1.00  0.00     0.104 C 
HETATM   16  C11 UNL     1       0.950   1.984   2.002  1.00  0.00     0.028 C 
HETATM   17  C12 UNL     1       1.671   1.067   2.946  1.00  0.00     0.022 C 
HETATM   18  C13 UNL     1       2.441   0.101   2.088  1.00  0.00     0.127 C 
HETATM   19  N3  UNL     1       2.462   0.722   0.795  1.00  0.00    -0.341 N 
HETATM   20  C14 UNL     1       3.537   0.647  -0.186  1.00  0.00     0.267 C 
HETATM   21  O2  UNL     1       3.294   1.231  -1.252  1.00  0.00    -0.267 OA
BRANCH  20  22
HETATM   22  C15 UNL     1       4.750  -0.065   0.135  1.00  0.00     0.278 C 
BRANCH  22  23
HETATM   23  N4  UNL     1       5.827  -0.167  -0.780  1.00  0.00    -0.015 N 
HETATM   24  C19 UNL     1       5.664  -1.394  -1.554  1.00  0.00     0.247 C 
HETATM   25  C20 UNL     1       6.510  -2.537  -1.084  1.00  0.00     0.056 C 
HETATM   26  C21 UNL     1       6.578  -2.720   0.404  1.00  0.00     0.236 C 
HETATM   27  N5  UNL     1       6.846  -1.450   0.993  1.00  0.00    -0.050 N 
HETATM   28  C22 UNL     1       7.057  -0.404   0.011  1.00  0.00     0.474 C 
ATOM     29  H52 UNL     1       6.110  -1.190   1.649  1.00  0.00     0.279 HD
ATOM     30  H51 UNL     1       7.633  -1.507   1.639  1.00  0.00     0.279 HD
BRANCH  23  31
HETATM   31  C16 UNL     1       6.071   0.963  -1.596  1.00  0.00     0.190 C 
HETATM   32  C17 UNL     1       7.538   1.445  -1.566  1.00  0.00     0.040 C 
HETATM   33  C18 UNL     1       5.741   0.848  -3.051  1.00  0.00     0.040 C 
ENDBRANCH  23  31
ENDBRANCH  22  23
ENDBRANCH  20  22
ENDBRANCH  14  15
ENDBRANCH  12  14
ENDBRANCH   1  12
BRANCH   1  34
HETATM   34  C23 UNL     1      -2.644  -0.862   0.252  1.00  0.00     0.242 C 
HETATM   35  O3  UNL     1      -1.728  -1.624   0.729  1.00  0.00    -0.271 OA
HETATM   36  N6  UNL     1      -3.965  -1.386   0.296  1.00  0.00    -0.346 N 
ATOM     37  H6  UNL     1      -4.743  -0.829  -0.056  1.00  0.00     0.163 HD
BRANCH  36  38
HETATM   38  C24 UNL     1      -4.214  -2.718   0.842  1.00  0.00     0.177 C 
BRANCH  38  39
HETATM   39  C25 UNL     1      -4.898  -2.654   2.157  1.00  0.00     0.254 C 
HETATM   40  N7  UNL     1      -5.203  -3.837   2.859  1.00  0.00    -0.060 NA
HETATM   41  O4  UNL     1      -5.236  -1.560   2.709  1.00  0.00    -0.275 OA
ENDBRANCH  38  39
BRANCH  38  42
HETATM   42  C26 UNL     1      -4.994  -3.549  -0.169  1.00  0.00     0.009 C 
HETATM   43  C27 UNL     1      -4.187  -3.670  -1.468  1.00  0.00     0.012 C 
HETATM   44  C28 UNL     1      -5.264  -4.952   0.297  1.00  0.00     0.012 C 
ENDBRANCH  38  42
ENDBRANCH  36  38
ENDBRANCH   1  34
TORSDOF 14
