REMARK  16 active torsions:
REMARK  status: ('A' for Active; 'I' for Inactive)
REMARK    1  A    between atoms: N1_2  and  C2_3 
REMARK    2  A    between atoms: N1_2  and  C14_24 
REMARK    3  A    between atoms: C4_5  and  C5_6 
REMARK       I    between atoms: C5_6  and  N2_8 
REMARK    4  A    between atoms: N2_8  and  C6_10 
REMARK    5  A    between atoms: C6_10  and  C7_11 
REMARK    6  A    between atoms: C7_11  and  N3_12 
REMARK    7  A    between atoms: C11_16  and  C12_17 
REMARK    8  A    between atoms: C12_17  and  O2_18 
REMARK    9  A    between atoms: C17_29  and  C18_30 
REMARK   10  A    between atoms: C18_30  and  C19_31 
REMARK   11  A    between atoms: C19_31  and  C20_32 
REMARK   12  A    between atoms: C20_32  and  C21_33 
REMARK   13  A    between atoms: C21_33  and  C22_34 
REMARK   14  A    between atoms: C22_34  and  C23_35 
REMARK   15  A    between atoms: C23_35  and  C24_36 
REMARK   16  A    between atoms: C24_36  and  C25_37 
ROOT
HETATM    1  C1  UNL     1      -0.720  -2.081   1.426  1.00  0.00     0.144 C 
HETATM    2  N1  UNL     1      -1.114  -1.009   0.583  1.00  0.00    -0.396 N 
ENDROOT
BRANCH   2   3
HETATM    3  C2  UNL     1      -1.974  -0.039   1.155  1.00  0.00     0.172 C 
HETATM    4  C3  UNL     1      -2.978   0.366   0.082  1.00  0.00     0.050 C 
HETATM    5  C4  UNL     1      -4.253   0.782   0.831  1.00  0.00     0.105 C 
HETATM    6  C11 UNL     1      -4.868  -0.563   1.251  1.00  0.00     0.121 C 
HETATM    7  N4  UNL     1      -3.957  -1.118   2.222  1.00  0.00    -0.352 N 
HETATM    8  C13 UNL     1      -2.682  -0.519   2.376  1.00  0.00     0.240 C 
ATOM      9  H4  UNL     1      -4.225  -1.925   2.786  1.00  0.00     0.163 HD
HETATM   10  O3  UNL     1      -2.164  -0.401   3.536  1.00  0.00    -0.271 OA
BRANCH   5  11
HETATM   11  C5  UNL     1      -5.119   1.573  -0.039  1.00  0.00     0.224 C 
HETATM   12  O1  UNL     1      -5.132   2.836   0.201  1.00  0.00    -0.273 OA
HETATM   13  N2  UNL     1      -5.908   1.083  -1.089  1.00  0.00    -0.359 N 
ATOM     14  H2  UNL     1      -5.916   0.083  -1.288  1.00  0.00     0.162 HD
BRANCH  13  15
HETATM   15  C6  UNL     1      -6.708   1.974  -1.891  1.00  0.00     0.150 C 
BRANCH  15  16
HETATM   16  C7  UNL     1      -7.540   1.322  -2.933  1.00  0.00     0.255 C 
BRANCH  16  17
HETATM   17  N3  UNL     1      -8.553   0.426  -2.467  1.00  0.00    -0.077 N 
HETATM   18  C8  UNL     1      -8.134  -0.913  -2.213  1.00  0.00     0.271 C 
HETATM   19  C9  UNL     1      -9.577   0.393  -3.527  1.00  0.00     0.271 C 
HETATM   20  C10 UNL     1      -9.242   0.931  -1.290  1.00  0.00     0.271 C 
ENDBRANCH  16  17
ENDBRANCH  15  16
ENDBRANCH  13  15
ENDBRANCH   5  11
BRANCH   6  21
HETATM   21  C12 UNL     1      -6.264  -0.434   1.753  1.00  0.00     0.190 C 
BRANCH  21  22
HETATM   22  O2  UNL     1      -6.731  -1.720   2.106  1.00  0.00    -0.399 OA
ATOM     23  H2  UNL     1      -7.622  -1.638   2.426  1.00  0.00     0.209 HD
ENDBRANCH  21  22
ENDBRANCH   6  21
ENDBRANCH   2   3
BRANCH   2  24
HETATM   24  C14 UNL     1      -0.059  -0.486  -0.229  1.00  0.00     0.120 A 
HETATM   25  C15 UNL     1       0.542  -1.535  -1.161  1.00  0.00     0.153 A 
HETATM   26  N5  UNL     1       1.806  -1.352  -0.522  1.00  0.00    -0.343 N 
HETATM   27  C16 UNL     1       3.181  -1.590  -0.270  1.00  0.00     0.224 C 
HETATM   28  C28 UNL     1       1.274  -0.248   0.323  1.00  0.00     0.111 A 
HETATM   29  O4  UNL     1       3.606  -2.797  -0.287  1.00  0.00    -0.273 OA
HETATM   30  C17 UNL     1       4.145  -0.514   0.006  1.00  0.00     0.078 C 
HETATM   31  C26 UNL     1       3.506   0.844   0.115  1.00  0.00     0.016 C 
HETATM   32  C27 UNL     1       2.046   0.937  -0.243  1.00  0.00     0.028 C 
BRANCH  30  33
HETATM   33  C18 UNL     1       4.924  -0.749   1.316  1.00  0.00     0.014 C 
BRANCH  33  34
HETATM   34  C19 UNL     1       5.971   0.380   1.395  1.00  0.00     0.001 C 
BRANCH  34  35
HETATM   35  C20 UNL     1       6.780   0.290   2.634  1.00  0.00     0.000 C 
BRANCH  35  36
HETATM   36  C21 UNL     1       7.943   1.212   2.766  1.00  0.00     0.000 C 
BRANCH  36  37
HETATM   37  C22 UNL     1       9.141   0.855   1.982  1.00  0.00     0.000 C 
BRANCH  37  38
HETATM   38  C23 UNL     1       9.049   0.649   0.520  1.00  0.00     0.007 C 
BRANCH  38  39
HETATM   39  C24 UNL     1      10.438   0.324  -0.076  1.00  0.00     0.072 C 
BRANCH  39  40
HETATM   40  C25 UNL     1      10.315   0.111  -1.526  1.00  0.00     0.086 C 
HETATM   41  N6  UNL     1      11.224   0.569  -2.313  1.00  0.00    -0.391 N 
ATOM     42  H62 UNL     1      11.992   1.081  -1.879  1.00  0.00     0.157 HD
ATOM     43  H61 UNL     1      11.139   0.421  -3.319  1.00  0.00     0.157 HD
HETATM   44  N7  UNL     1       9.231  -0.612  -2.139  1.00  0.00    -0.088 NA
ENDBRANCH  39  40
ENDBRANCH  38  39
ENDBRANCH  37  38
ENDBRANCH  36  37
ENDBRANCH  35  36
ENDBRANCH  34  35
ENDBRANCH  33  34
ENDBRANCH  30  33
ENDBRANCH   2  24
TORSDOF 16
