REMARK  17 active torsions:
REMARK  status: ('A' for Active; 'I' for Inactive)
REMARK    1  A    between atoms: C2_2  and  C3_3 
REMARK    2  A    between atoms: C3_3  and  C4_4 
REMARK    3  A    between atoms: C4_4  and  O1_5 
REMARK    4  A    between atoms: C4_4  and  C5_7 
REMARK    5  A    between atoms: C5_7  and  C6_8 
REMARK    6  A    between atoms: C5_7  and  N8_32 
REMARK       I    between atoms: C6_8  and  N1_10 
REMARK    7  A    between atoms: C7_11  and  C8_12 
REMARK    8  A    between atoms: C8_12  and  C9_13 
REMARK    9  A    between atoms: C9_13  and  C10_14 
REMARK   10  A    between atoms: C10_14  and  N2_15 
REMARK   11  A    between atoms: C12_20  and  C13_21 
REMARK   12  A    between atoms: C13_21  and  N5_22 
REMARK       I    between atoms: C14_24  and  N7_26 
REMARK   13  A    between atoms: N8_32  and  C21_34 
REMARK   14  A    between atoms: C21_34  and  O3_35 
REMARK   15  A    between atoms: C21_34  and  C22_37 
REMARK   16  A    between atoms: C22_37  and  C23_38 
REMARK   17  A    between atoms: C23_38  and  C24_39 
REMARK       I    between atoms: C24_39  and  N9_41 
ROOT
HETATM    1  C6  UNL     1       1.059   0.043   0.467  1.00  0.00     0.270 C 
HETATM    2  O2  UNL     1       1.720  -1.043   0.641  1.00  0.00    -0.266 OA
HETATM    3  N1  UNL     1      -0.340  -0.130   0.602  1.00  0.00    -0.333 N 
HETATM    4  C7  UNL     1      -1.574   0.596   0.595  1.00  0.00     0.096 C 
HETATM    5  C12 UNL     1      -2.306  -0.680   0.285  1.00  0.00     0.054 C 
HETATM    6  C17 UNL     1      -1.111  -1.341   0.855  1.00  0.00     0.036 C 
HETATM    7  C18 UNL     1      -0.688  -2.522   0.004  1.00  0.00     0.039 C 
HETATM    8  C19 UNL     1      -1.210  -1.719   2.306  1.00  0.00     0.039 C 
ENDROOT
BRANCH   1   9
HETATM    9  C5  UNL     1       1.795   1.277   0.172  1.00  0.00     0.110 C 
BRANCH   9  10
HETATM   10  C4  UNL     1       1.852   1.657  -1.251  1.00  0.00     0.173 C 
BRANCH  10  11
HETATM   11  C3  UNL     1       2.744   1.098  -2.249  1.00  0.00     0.038 C 
BRANCH  11  12
HETATM   12  C2  UNL     1       2.691  -0.344  -2.590  1.00  0.00    -0.002 C 
HETATM   13  C1  UNL     1       3.751  -0.557  -3.700  1.00  0.00     0.005 C 
ENDBRANCH  11  12
ENDBRANCH  10  11
BRANCH  10  14
HETATM   14  O1  UNL     1       2.153   3.085  -1.228  1.00  0.00    -0.389 OA
ATOM     15  H1  UNL     1       1.569   3.451  -0.574  1.00  0.00     0.210 HD
ENDBRANCH  10  14
ENDBRANCH   9  10
BRANCH   9  16
HETATM   16  N8  UNL     1       2.945   1.536   0.976  1.00  0.00    -0.332 N 
HETATM   17  C20 UNL     1       2.685   2.687   1.951  1.00  0.00     0.158 C 
BRANCH  16  18
HETATM   18  C21 UNL     1       4.219   1.027   1.100  1.00  0.00     0.118 C 
BRANCH  18  19
HETATM   19  O3  UNL     1       4.939   1.617   2.042  1.00  0.00    -0.349 OA
ATOM     20  H3  UNL     1       5.818   1.266   2.128  1.00  0.00     0.219 HD
ENDBRANCH  18  19
BRANCH  18  21
HETATM   21  C22 UNL     1       4.982  -0.019   0.434  1.00  0.00     0.093 C 
BRANCH  21  22
HETATM   22  C23 UNL     1       6.314  -0.307   1.126  1.00  0.00     0.111 C 
BRANCH  22  23
HETATM   23  C24 UNL     1       7.026  -1.383   0.387  1.00  0.00     0.217 C 
HETATM   24  O4  UNL     1       6.498  -1.901  -0.627  1.00  0.00    -0.274 OA
HETATM   25  N9  UNL     1       8.298  -1.851   0.792  1.00  0.00    -0.365 N 
HETATM   26  C25 UNL     1       8.958  -2.899   0.047  1.00  0.00     0.149 C 
ATOM     27  H9  UNL     1       8.751  -1.448   1.612  1.00  0.00     0.161 HD
ENDBRANCH  22  23
ENDBRANCH  21  22
ENDBRANCH  18  21
ENDBRANCH  16  18
ENDBRANCH   9  16
ENDBRANCH   1   9
BRANCH   4  28
HETATM   28  C8  UNL     1      -1.819   1.624  -0.444  1.00  0.00     0.027 C 
BRANCH  28  29
HETATM   29  C9  UNL     1      -3.167   2.264  -0.265  1.00  0.00     0.022 C 
BRANCH  29  30
HETATM   30  C10 UNL     1      -3.266   3.325  -1.373  1.00  0.00     0.122 C 
BRANCH  30  31
HETATM   31  N2  UNL     1      -4.541   4.002  -1.280  1.00  0.00    -0.367 N 
HETATM   32  C11 UNL     1      -4.583   5.281  -1.231  1.00  0.00     0.196 C 
HETATM   33  N3  UNL     1      -3.383   6.045  -1.267  1.00  0.00    -0.067 NA
HETATM   34  N4  UNL     1      -5.802   6.014  -1.138  1.00  0.00    -0.067 NA
ATOM     35  H2  UNL     1      -5.406   3.461  -1.253  1.00  0.00     0.161 HD
ENDBRANCH  30  31
ENDBRANCH  29  30
ENDBRANCH  28  29
ENDBRANCH   4  28
BRANCH   5  36
HETATM   36  C13 UNL     1      -3.601  -0.933   1.021  1.00  0.00     0.131 C 
BRANCH  36  37
HETATM   37  N5  UNL     1      -4.085  -2.232   0.524  1.00  0.00    -0.364 N 
HETATM   38  C14 UNL     1      -5.042  -2.854   1.106  1.00  0.00     0.185 C 
HETATM   39  N6  UNL     1      -5.628  -2.253   2.252  1.00  0.00    -0.064 NA
HETATM   40  N7  UNL     1      -5.555  -4.094   0.685  1.00  0.00    -0.364 N 
HETATM   41  C15 UNL     1      -4.940  -5.310   1.161  1.00  0.00     0.151 C 
HETATM   42  C16 UNL     1      -6.683  -4.190  -0.212  1.00  0.00     0.151 C 
ATOM     43  H5  UNL     1      -3.649  -2.645  -0.301  1.00  0.00     0.162 HD
ENDBRANCH  36  37
ENDBRANCH   5  36
TORSDOF 17
