REMARK  8 active torsions:
REMARK  status: ('A' for Active; 'I' for Inactive)
REMARK    1  A    between atoms: C2_2  and  C3_3 
REMARK    2  A    between atoms: C4_4  and  C5_5 
REMARK    3  A    between atoms: C6_6  and  C7_7 
REMARK       I    between atoms: N1_11  and  C11_12 
REMARK    4  A    between atoms: C11_12  and  C12_14 
REMARK    5  A    between atoms: C12_14  and  C13_15 
REMARK    6  A    between atoms: C13_15  and  N2_16 
REMARK    7  A    between atoms: C13_15  and  C16_21 
REMARK       I    between atoms: N2_16  and  C14_18 
REMARK       I    between atoms: C16_21  and  N3_23 
REMARK    8  A    between atoms: C21_30  and  C22_31 
ROOT
HETATM    1  C7  UNL     1       3.659   0.541   0.004  1.00  0.00     0.079 A 
HETATM    2  C8  UNL     1       2.502   0.431   0.711  1.00  0.00     0.035 A 
HETATM    3  C9  UNL     1       2.531   1.137  -0.634  1.00  0.00     0.027 A 
HETATM    4  C10 UNL     1       1.398   0.308  -1.268  1.00  0.00     0.133 C 
HETATM    5  N1  UNL     1       0.398   0.284  -0.184  1.00  0.00    -0.343 N 
HETATM    6  C11 UNL     1      -0.997   0.028  -0.439  1.00  0.00     0.222 C 
HETATM    7  O1  UNL     1      -1.282  -0.173  -1.644  1.00  0.00    -0.273 OA
HETATM    8  C21 UNL     1       1.039   0.557   1.073  1.00  0.00     0.116 C 
ENDROOT
BRANCH   6   9
HETATM    9  C12 UNL     1      -1.968   0.013   0.639  1.00  0.00     0.138 C 
BRANCH   9  10
HETATM   10  C13 UNL     1      -3.417  -0.164   0.313  1.00  0.00     0.185 C 
BRANCH  10  11
HETATM   11  N2  UNL     1      -4.046  -0.132   1.685  1.00  0.00    -0.348 N 
HETATM   12  C14 UNL     1      -4.793  -1.234   2.152  1.00  0.00     0.214 C 
HETATM   13  C15 UNL     1      -5.395  -1.154   3.513  1.00  0.00     0.117 C 
HETATM   14  O2  UNL     1      -4.966  -2.282   1.455  1.00  0.00    -0.274 OA
ATOM     15  H2  UNL     1      -3.930   0.690   2.277  1.00  0.00     0.163 HD
ENDBRANCH  10  11
BRANCH  10  16
HETATM   16  C16 UNL     1      -3.988   0.997  -0.411  1.00  0.00     0.244 C 
HETATM   17  O3  UNL     1      -3.999   2.086   0.279  1.00  0.00    -0.271 OA
HETATM   18  N3  UNL     1      -4.483   0.947  -1.715  1.00  0.00    -0.324 N 
HETATM   19  C17 UNL     1      -5.004   2.119  -2.448  1.00  0.00     0.224 C 
HETATM   20  C20 UNL     1      -4.630  -0.206  -2.558  1.00  0.00     0.183 A 
HETATM   21  C18 UNL     1      -5.753   1.493  -3.559  1.00  0.00     0.219 C 
HETATM   22  O4  UNL     1      -6.110   2.023  -4.635  1.00  0.00    -0.278 OA
HETATM   23  N4  UNL     1      -6.002   0.155  -3.179  1.00  0.00    -0.226 NA
HETATM   24  C19 UNL     1      -5.708  -1.159  -2.579  1.00  0.00     0.142 A 
ENDBRANCH  10  16
ENDBRANCH   9  10
ENDBRANCH   6   9
BRANCH   8  25
HETATM   25  C22 UNL     1       0.777  -0.483   2.110  1.00  0.00     0.006 C 
HETATM   26  C23 UNL     1       1.212  -1.718   2.010  1.00  0.00     0.054 C 
HETATM   27 BR1  UNL     1       0.832  -2.983   3.380  1.00  0.00    -0.064 Br
ENDBRANCH   8  25
BRANCH   1  28
HETATM   28  C6  UNL     1       5.083   0.242  -0.046  1.00  0.00    -0.087 C 
HETATM   29  C5  UNL     1       6.264   0.013  -0.098  1.00  0.00    -0.015 C 
BRANCH  29  30
HETATM   30  C4  UNL     1       7.650  -0.259  -0.183  1.00  0.00    -0.015 C 
HETATM   31  C3  UNL     1       8.840  -0.487  -0.275  1.00  0.00    -0.093 C 
BRANCH  31  32
HETATM   32  C2  UNL     1      10.265  -0.770  -0.408  1.00  0.00     0.090 C 
HETATM   33  C1  UNL     1      11.000  -0.153   0.755  1.00  0.00     0.018 C 
ENDBRANCH  31  32
ENDBRANCH  29  30
ENDBRANCH   1  28
TORSDOF 8
