REMARK  11 active torsions:
REMARK  status: ('A' for Active; 'I' for Inactive)
REMARK    1  A    between atoms: C2_2  and  C3_3 
REMARK    2  A    between atoms: C3_3  and  C4_4 
REMARK    3  A    between atoms: C4_4  and  C5_5 
REMARK    4  A    between atoms: C5_5  and  C6_6 
REMARK    5  A    between atoms: C6_6  and  C7_7 
REMARK    6  A    between atoms: C7_7  and  O1_8 
REMARK    7  A    between atoms: C7_7  and  C8_10 
REMARK    8  A    between atoms: C9_11  and  C10_12 
REMARK    9  A    between atoms: C15_18  and  C16_20 
REMARK   10  A    between atoms: C16_20  and  O2_21 
REMARK   11  A    between atoms: N1_23  and  O3_25 
ROOT
HETATM    1  C10 UNL     1      -1.458   0.326   0.818  1.00  0.00     0.003 C 
HETATM    2  C11 UNL     1      -2.632   0.309   0.223  1.00  0.00    -0.076 C 
HETATM    3  C12 UNL     1      -2.892   1.265  -0.870  1.00  0.00     0.035 C 
HETATM    4  C13 UNL     1      -4.410   1.294  -1.085  1.00  0.00     0.024 C 
HETATM    5  C14 UNL     1      -4.836  -0.089  -1.480  1.00  0.00     0.106 C 
HETATM    6 BR1  UNL     1      -3.909  -0.543  -3.121  1.00  0.00    -0.087 Br
HETATM    7  C15 UNL     1      -4.565  -1.119  -0.425  1.00  0.00     0.185 C 
HETATM    8  F1  UNL     1      -4.032  -2.246  -1.021  1.00  0.00    -0.232 F 
HETATM    9  C17 UNL     1      -3.644  -0.651   0.657  1.00  0.00     0.087 C 
ENDROOT
BRANCH   1  10
HETATM   10  C9  UNL     1      -0.428   1.273   0.407  1.00  0.00    -0.001 C 
HETATM   11  C8  UNL     1       0.729   1.253   1.031  1.00  0.00     0.004 C 
BRANCH  11  12
HETATM   12  C7  UNL     1       1.791   2.207   0.628  1.00  0.00     0.141 C 
BRANCH  12  13
HETATM   13  C6  UNL     1       2.791   1.447  -0.218  1.00  0.00     0.036 C 
BRANCH  13  14
HETATM   14  C5  UNL     1       3.264   0.264   0.585  1.00  0.00     0.003 C 
BRANCH  14  15
HETATM   15  C4  UNL     1       4.272  -0.571  -0.169  1.00  0.00     0.000 C 
BRANCH  15  16
HETATM   16  C3  UNL     1       5.503   0.223  -0.537  1.00  0.00    -0.000 C 
BRANCH  16  17
HETATM   17  C2  UNL     1       6.435  -0.722  -1.286  1.00  0.00    -0.005 C 
HETATM   18  C1  UNL     1       6.765  -1.860  -0.355  1.00  0.00     0.005 C 
ENDBRANCH  16  17
ENDBRANCH  15  16
ENDBRANCH  14  15
ENDBRANCH  13  14
ENDBRANCH  12  13
BRANCH  12  19
HETATM   19  O1  UNL     1       2.424   2.633   1.814  1.00  0.00    -0.392 OA
ATOM     20  H1  UNL     1       1.797   3.110   2.345  1.00  0.00     0.210 HD
ENDBRANCH  12  19
ENDBRANCH  11  12
ENDBRANCH   1  10
BRANCH   7  21
HETATM   21  C16 UNL     1      -5.844  -1.554   0.237  1.00  0.00     0.177 C 
HETATM   22  N1  UNL     1      -6.972  -1.073  -0.101  1.00  0.00    -0.248 N 
ATOM     23  H1  UNL     1      -7.033  -0.372  -0.839  1.00  0.00     0.196 HD
BRANCH  21  24
HETATM   24  O2  UNL     1      -5.730  -2.502   1.229  1.00  0.00    -0.346 OA
ATOM     25  H2  UNL     1      -6.538  -2.777   1.647  1.00  0.00     0.219 HD
ENDBRANCH  21  24
BRANCH  22  26
HETATM   26  O3  UNL     1      -8.106  -1.507   0.538  1.00  0.00    -0.288 OA
ATOM     27  H3  UNL     1      -8.948  -1.148   0.286  1.00  0.00     0.244 HD
ENDBRANCH  22  26
ENDBRANCH   7  21
TORSDOF 11
