REMARK  10 active torsions:
REMARK  status: ('A' for Active; 'I' for Inactive)
REMARK    1  A    between atoms: C2_2  and  C3_3 
REMARK    2  A    between atoms: C3_3  and  O1_4 
REMARK    3  A    between atoms: C4_6  and  O2_7 
REMARK    4  A    between atoms: C9_13  and  C10_14 
REMARK    5  A    between atoms: C10_14  and  O3_15 
REMARK    6  A    between atoms: C10_14  and  C11_17 
REMARK    7  A    between atoms: C11_17  and  C12_18 
REMARK    8  A    between atoms: C12_18  and  C13_19 
REMARK    9  A    between atoms: C13_19  and  C14_20 
REMARK   10  A    between atoms: C14_20  and  C15_21 
ROOT
HETATM    1  C1  UNL     1      -4.777  -0.641  -0.976  1.00  0.00     0.020 C 
HETATM    2  C2  UNL     1      -3.531   0.243  -0.682  1.00  0.00     0.007 C 
HETATM    3  C4  UNL     1      -3.941   1.031   0.527  1.00  0.00     0.128 C 
HETATM    4  C5  UNL     1      -2.810   1.590   1.304  1.00  0.00     0.033 C 
HETATM    5  C6  UNL     1      -1.758   0.594   1.616  1.00  0.00     0.012 C 
HETATM    6  C7  UNL     1      -1.241  -0.127   0.347  1.00  0.00    -0.034 C 
HETATM    7  C8  UNL     1      -0.486   0.913  -0.421  1.00  0.00     0.016 C 
HETATM    8  C9  UNL     1      -0.337  -1.208   0.827  1.00  0.00     0.023 C 
HETATM    9  C18 UNL     1      -0.721  -2.586   0.257  1.00  0.00     0.008 C 
HETATM   10  C19 UNL     1      -2.048  -2.912   0.872  1.00  0.00     0.001 C 
HETATM   11  C20 UNL     1      -3.006  -1.828   0.481  1.00  0.00     0.006 C 
HETATM   12  C21 UNL     1      -2.406  -0.730  -0.382  1.00  0.00     0.007 C 
ENDROOT
BRANCH   8  13
HETATM   13  C10 UNL     1       1.138  -1.041   0.689  1.00  0.00     0.123 C 
BRANCH  13  14
HETATM   14  O3  UNL     1       1.656  -2.244   1.334  1.00  0.00    -0.395 OA
ATOM     15  H3  UNL     1       2.596  -2.138   1.246  1.00  0.00     0.210 HD
ENDBRANCH  13  14
BRANCH  13  16
HETATM   16  C11 UNL     1       1.687  -1.244  -0.707  1.00  0.00     0.032 C 
BRANCH  16  17
HETATM   17  C12 UNL     1       3.199  -1.052  -0.723  1.00  0.00     0.002 C 
BRANCH  17  18
HETATM   18  C13 UNL     1       3.638   0.307  -0.291  1.00  0.00     0.001 C 
BRANCH  18  19
HETATM   19  C14 UNL     1       5.168   0.335  -0.365  1.00  0.00     0.011 C 
BRANCH  19  20
HETATM   20  C15 UNL     1       5.703   1.679   0.058  1.00  0.00     0.064 A 
HETATM   21  C16 UNL     1       7.189   1.806   0.019  1.00  0.00     0.090 A 
HETATM   22  C17 UNL     1       6.367   2.577  -0.945  1.00  0.00     0.248 A 
HETATM   23  F1  UNL     1       6.317   3.949  -0.747  1.00  0.00    -0.206 F 
HETATM   24  F2  UNL     1       6.434   2.216  -2.262  1.00  0.00    -0.206 F 
ENDBRANCH  19  20
ENDBRANCH  18  19
ENDBRANCH  17  18
ENDBRANCH  16  17
ENDBRANCH  13  16
ENDBRANCH   8  13
BRANCH   2  25
HETATM   25  C3  UNL     1      -3.347   1.061  -1.912  1.00  0.00     0.176 C 
BRANCH  25  26
HETATM   26  O1  UNL     1      -4.500   1.848  -2.184  1.00  0.00    -0.400 OA
ATOM     27  H1  UNL     1      -4.383   2.370  -2.969  1.00  0.00     0.209 HD
ENDBRANCH  25  26
ENDBRANCH   2  25
BRANCH   3  28
HETATM   28  O2  UNL     1      -4.785   2.081   0.140  1.00  0.00    -0.395 OA
ATOM     29  H2  UNL     1      -5.045   2.580   0.906  1.00  0.00     0.210 HD
ENDBRANCH   3  28
TORSDOF 10
