REMARK  5 active torsions:
REMARK  status: ('A' for Active; 'I' for Inactive)
REMARK    1  A    between atoms: C1_4  and  C2_6 
REMARK    2  A    between atoms: C3_7  and  C4_8 
REMARK    3  A    between atoms: N3_9  and  N4_11 
REMARK    4  A    between atoms: C6_13  and  C7_14 
REMARK    5  A    between atoms: N10_31  and  N11_32 
ROOT
HETATM    1  C2  UNL     1      -2.340   1.158  -0.367  1.00  0.00     0.114 A 
HETATM    2  C3  UNL     1      -1.673   0.003   0.002  1.00  0.00     0.042 A 
HETATM    3  C9  UNL     1      -2.405  -1.206  -0.038  1.00  0.00     0.078 A 
HETATM    4  N8  UNL     1      -1.784  -2.334   0.324  1.00  0.00    -0.296 N 
ATOM      5  H8  UNL     1      -0.807  -2.291   0.615  1.00  0.00     0.187 HD
HETATM    6  N9  UNL     1      -2.391  -3.486   0.315  1.00  0.00    -0.266 N 
ATOM      7  H9  UNL     1      -1.888  -4.327   0.597  1.00  0.00     0.190 HD
HETATM    8  C10 UNL     1      -3.673  -3.572  -0.063  1.00  0.00     0.260 A 
HETATM    9  O2  UNL     1      -4.229  -4.694  -0.061  1.00  0.00    -0.267 OA
HETATM   10  C11 UNL     1      -4.383  -2.462  -0.449  1.00  0.00     0.095 A 
HETATM   11  C12 UNL     1      -3.718  -1.243  -0.433  1.00  0.00     0.068 A 
HETATM   12  C13 UNL     1      -4.339  -0.099  -0.796  1.00  0.00     0.279 A 
HETATM   13  O3  UNL     1      -5.547  -0.101  -1.168  1.00  0.00    -0.265 OA
HETATM   14  N10 UNL     1      -3.661   1.060  -0.759  1.00  0.00    -0.222 N 
ENDROOT
BRANCH   2  15
HETATM   15  C4  UNL     1      -0.242  -0.095   0.193  1.00  0.00     0.124 C 
HETATM   16  N3  UNL     1       0.687   0.729   0.057  1.00  0.00    -0.296 N 
ATOM     17  H3  UNL     1       0.429   1.668  -0.247  1.00  0.00     0.187 HD
BRANCH  16  18
HETATM   18  N4  UNL     1       2.042   0.490   0.281  1.00  0.00    -0.221 N 
HETATM   19  C5  UNL     1       2.466  -0.897   0.290  1.00  0.00     0.181 C 
HETATM   20  C6  UNL     1       3.912  -1.000  -0.087  1.00  0.00     0.112 C 
HETATM   21  C8  UNL     1       4.287   0.239  -0.872  1.00  0.00     0.147 C 
HETATM   22  N6  UNL     1       4.131   1.441  -0.085  1.00  0.00    -0.124 NA
HETATM   23  N7  UNL     1       2.872   1.574   0.474  1.00  0.00    -0.013 NA
BRANCH  20  24
HETATM   24  C7  UNL     1       4.808  -1.151   1.067  1.00  0.00     0.238 C 
HETATM   25  N5  UNL     1       4.901  -0.192   2.100  1.00  0.00    -0.062 NA
HETATM   26  O1  UNL     1       5.535  -2.174   1.159  1.00  0.00    -0.276 OA
ENDBRANCH  20  24
ENDBRANCH  16  18
ENDBRANCH   2  15
BRANCH   1  27
HETATM   27  C1  UNL     1      -1.837   2.487  -0.117  1.00  0.00     0.140 C 
HETATM   28  N1  UNL     1      -2.214   3.541  -0.634  1.00  0.00    -0.386 N 
ATOM     29  H12 UNL     1      -1.858   4.481  -0.457  1.00  0.00     0.157 HD
ATOM     30  H11 UNL     1      -2.835   3.400  -1.431  1.00  0.00     0.157 HD
HETATM   31  N2  UNL     1      -0.948   2.689   1.023  1.00  0.00    -0.081 NA
ENDBRANCH   1  27
BRANCH  14  32
HETATM   32  N11 UNL     1      -4.345   2.222  -1.118  1.00  0.00    -0.335 N 
ATOM     33 2H11 UNL     1      -3.830   3.102  -1.090  1.00  0.00     0.177 HD
ATOM     34 1H11 UNL     1      -5.320   2.150  -1.407  1.00  0.00     0.177 HD
ENDBRANCH  14  32
TORSDOF 5
