REMARK  7 active torsions:
REMARK  status: ('A' for Active; 'I' for Inactive)
REMARK    1  A    between atoms: C4_9  and  N3_10 
REMARK    2  A    between atoms: N4_12  and  N5_13 
REMARK    3  A    between atoms: N5_13  and  C6_14 
REMARK    4  A    between atoms: C8_16  and  O1_18 
REMARK    5  A    between atoms: C10_23  and  N7_24 
REMARK    6  A    between atoms: C11_29  and  O2_30 
REMARK    7  A    between atoms: C12_32  and  N9_33 
ROOT
HETATM    1  N3  UNL     1      -1.175  -0.670   0.190  1.00  0.00    -0.319 N 
HETATM    2  C5  UNL     1       0.076  -0.111  -0.362  1.00  0.00     0.258 C 
HETATM    3  N4  UNL     1       1.068  -0.957   0.236  1.00  0.00    -0.126 NA
HETATM    4  N8  UNL     1       0.464  -2.142   0.601  1.00  0.00    -0.094 NA
HETATM    5  C11 UNL     1      -0.932  -2.079   0.150  1.00  0.00     0.337 C 
ENDROOT
BRANCH   1   6
HETATM    6  C4  UNL     1      -2.225   0.158   0.590  1.00  0.00     0.123 A 
HETATM    7  C3  UNL     1      -2.295   0.624   1.875  1.00  0.00     0.131 A 
HETATM    8  N1  UNL     1      -3.314   1.441   2.278  1.00  0.00    -0.331 N 
HETATM    9  N2  UNL     1      -1.449   0.342   2.757  1.00  0.00    -0.383 N 
HETATM   10  C2  UNL     1      -4.276   1.820   1.456  1.00  0.00     0.080 A 
ATOM     11  H1  UNL     1      -3.332   1.768   3.244  1.00  0.00     0.168 HD
HETATM   12  C1  UNL     1      -5.375   2.721   1.957  1.00  0.00     0.089 C 
HETATM   13  N10 UNL     1      -4.254   1.392   0.191  1.00  0.00    -0.331 N 
HETATM   14  C12 UNL     1      -3.246   0.570  -0.251  1.00  0.00     0.135 A 
ATOM     15  H10 UNL     1      -4.992   1.678  -0.452  1.00  0.00     0.168 HD
ATOM     16  H22 UNL     1      -1.501   0.689   3.715  1.00  0.00     0.157 HD
ATOM     17  H21 UNL     1      -0.689  -0.268   2.456  1.00  0.00     0.157 HD
BRANCH  14  18
HETATM   18  N9  UNL     1      -3.280   0.140  -1.603  1.00  0.00    -0.374 N 
HETATM   19  C13 UNL     1      -4.039  -1.022  -1.985  1.00  0.00     0.150 C 
HETATM   20  C14 UNL     1      -2.565   0.876  -2.611  1.00  0.00     0.150 C 
ENDBRANCH  14  18
ENDBRANCH   1   6
BRANCH   5  21
HETATM   21  O2  UNL     1      -0.943  -2.620  -1.149  1.00  0.00    -0.362 OA
ATOM     22  H2  UNL     1      -0.782  -3.556  -1.176  1.00  0.00     0.213 HD
ENDBRANCH   5  21
BRANCH   3  23
HETATM   23  N5  UNL     1       2.147  -1.168  -0.651  1.00  0.00    -0.138 NA
BRANCH  23  24
HETATM   24  C6  UNL     1       3.348  -1.133   0.156  1.00  0.00     0.158 C 
HETATM   25  C7  UNL     1       3.426   0.228   0.811  1.00  0.00     0.094 C 
HETATM   26  C8  UNL     1       4.505   0.941   0.009  1.00  0.00     0.224 C 
HETATM   27  C9  UNL     1       4.169   2.378  -0.262  1.00  0.00     0.078 C 
HETATM   28  N6  UNL     1       4.617   0.172  -1.240  1.00  0.00    -0.013 N 
HETATM   29  C10 UNL     1       4.571  -1.177  -0.725  1.00  0.00     0.404 C 
ATOM     30  H62 UNL     1       3.927   0.394  -1.958  1.00  0.00     0.283 HD
ATOM     31  H61 UNL     1       5.423   0.394  -1.824  1.00  0.00     0.283 HD
BRANCH  26  32
HETATM   32  O1  UNL     1       5.698   0.789   0.674  1.00  0.00    -0.365 OA
ATOM     33  H1  UNL     1       6.372   1.234   0.173  1.00  0.00     0.212 HD
ENDBRANCH  26  32
BRANCH  29  34
HETATM   34  N7  UNL     1       4.403  -2.164  -1.750  1.00  0.00    -0.048 N 
ATOM     35  H73 UNL     1       4.177  -3.081  -1.364  1.00  0.00     0.276 HD
ATOM     36  H72 UNL     1       3.550  -2.014  -2.288  1.00  0.00     0.276 HD
ATOM     37  H71 UNL     1       5.230  -2.194  -2.346  1.00  0.00     0.276 HD
ENDBRANCH  29  34
ENDBRANCH  23  24
ENDBRANCH   3  23
TORSDOF 7
