REMARK  10 active torsions:
REMARK  status: ('A' for Active; 'I' for Inactive)
REMARK    1  A    between atoms: N1_1  and  C1_4 
REMARK    2  A    between atoms: C2_9  and  S1_10 
REMARK    3  A    between atoms: S1_10  and  C3_11 
REMARK    4  A    between atoms: C3_11  and  C4_12 
REMARK       I    between atoms: C4_12  and  N4_14 
REMARK    5  A    between atoms: C6_16  and  O2_17 
REMARK    6  A    between atoms: C7_19  and  O3_20 
REMARK    7  A    between atoms: O3_20  and  C8_21 
REMARK    8  A    between atoms: C8_21  and  N5_23 
REMARK    9  A    between atoms: N5_23  and  N6_25 
REMARK   10  A    between atoms: N6_25  and  N7_26 
ROOT
HETATM    1  C4  UNL     1       1.435   0.100  -1.342  1.00  0.00     0.245 C 
HETATM    2  O1  UNL     1       2.017  -1.002  -1.294  1.00  0.00    -0.271 OA
HETATM    3  N4  UNL     1       0.056   0.238  -0.982  1.00  0.00    -0.259 N 
HETATM    4  C5  UNL     1      -0.701   1.473  -1.007  1.00  0.00     0.183 C 
HETATM    5  C6  UNL     1      -2.085   0.952  -1.334  1.00  0.00     0.184 C 
HETATM    6  C7  UNL     1      -2.103  -0.354  -0.571  1.00  0.00     0.274 C 
HETATM    7  N8  UNL     1      -0.742  -0.817  -0.557  1.00  0.00    -0.101 NA
ENDROOT
BRANCH   1   8
HETATM    8  C3  UNL     1       2.211   1.286  -1.788  1.00  0.00     0.185 C 
BRANCH   8   9
HETATM    9  S1  UNL     1       3.912   0.789  -2.159  1.00  0.00    -0.094 SA
BRANCH   9  10
HETATM   10  C2  UNL     1       4.708   0.277  -0.631  1.00  0.00     0.130 A 
HETATM   11  N3  UNL     1       4.766  -0.916  -0.065  1.00  0.00    -0.286 N 
HETATM   12  N2  UNL     1       5.382  -1.088   1.029  1.00  0.00    -0.279 N 
ATOM     13  H3  UNL     1       4.309  -1.709  -0.515  1.00  0.00     0.188 HD
HETATM   14  C1  UNL     1       5.975  -0.039   1.604  1.00  0.00     0.159 A 
ATOM     15  H2  UNL     1       5.424  -2.011   1.462  1.00  0.00     0.189 HD
HETATM   16  S3  UNL     1       5.609   1.216   0.499  1.00  0.00    -0.027 SA
BRANCH  14  17
HETATM   17  N1  UNL     1       6.654  -0.017   2.727  1.00  0.00    -0.379 N 
ATOM     18  H12 UNL     1       6.872  -0.765   3.385  1.00  0.00     0.158 HD
ATOM     19  H11 UNL     1       7.107   0.784   3.166  1.00  0.00     0.158 HD
ENDBRANCH  14  17
ENDBRANCH   9  10
ENDBRANCH   8   9
ENDBRANCH   1   8
BRANCH   5  20
HETATM   20  O2  UNL     1      -3.082   1.804  -0.868  1.00  0.00    -0.390 OA
ATOM     21  H2  UNL     1      -3.950   1.477  -1.073  1.00  0.00     0.210 HD
ENDBRANCH   5  20
BRANCH   6  22
HETATM   22  O3  UNL     1      -2.594  -0.104   0.746  1.00  0.00    -0.299 OA
BRANCH  22  23
HETATM   23  C8  UNL     1      -2.706  -1.146   1.655  1.00  0.00     0.229 C 
HETATM   24  S2  UNL     1      -1.398  -1.469   2.591  1.00  0.00    -0.032 SA
BRANCH  23  25
HETATM   25  N5  UNL     1      -3.880  -1.924   1.802  1.00  0.00    -0.255 N 
ATOM     26  H5  UNL     1      -3.874  -2.672   2.496  1.00  0.00     0.187 HD
BRANCH  25  27
HETATM   27  N6  UNL     1      -5.036  -1.734   1.064  1.00  0.00    -0.027 NA
BRANCH  27  28
HETATM   28  N7  UNL     1      -5.602  -0.501   1.303  1.00  0.00    -0.329 N 
ATOM     29  H72 UNL     1      -5.204   0.180   1.950  1.00  0.00     0.174 HD
ATOM     30  H71 UNL     1      -6.454  -0.361   0.759  1.00  0.00     0.174 HD
ENDBRANCH  27  28
ENDBRANCH  25  27
ENDBRANCH  23  25
ENDBRANCH  22  23
ENDBRANCH   6  22
TORSDOF 10
