REMARK  7 active torsions:
REMARK  status: ('A' for Active; 'I' for Inactive)
REMARK    1  A    between atoms: N1_1  and  N2_4 
REMARK    2  A    between atoms: N2_4  and  C1_6 
REMARK    3  A    between atoms: C4_16  and  N6_17 
REMARK    4  A    between atoms: N6_17  and  C5_19 
REMARK    5  A    between atoms: N10_26  and  N11_27 
REMARK    6  A    between atoms: N11_27  and  C6_29 
REMARK    7  A    between atoms: C6_29  and  C7_30 
ROOT
HETATM    1  N6  UNL     1      -0.960  -1.476   0.469  1.00  0.00    -0.168 N 
ATOM      2  H6  UNL     1      -1.607  -1.779   1.197  1.00  0.00     0.186 HD
ENDROOT
BRANCH   1   3
HETATM    3  C4  UNL     1      -1.400  -0.647  -0.412  1.00  0.00     0.165 A 
HETATM    4  N5  UNL     1      -0.730  -0.105  -1.469  1.00  0.00    -0.282 N 
HETATM    5  N4  UNL     1      -1.580   0.696  -2.105  1.00  0.00    -0.292 N 
ATOM      6  H5  UNL     1       0.242  -0.281  -1.724  1.00  0.00     0.188 HD
HETATM    7  C3  UNL     1      -2.774   0.681  -1.487  1.00  0.00     0.148 A 
ATOM      8  H4  UNL     1      -1.359   1.241  -2.938  1.00  0.00     0.187 HD
HETATM    9  C2  UNL     1      -3.980   1.305  -1.711  1.00  0.00     0.290 A 
HETATM   10  C11 UNL     1      -2.695  -0.167  -0.400  1.00  0.00     0.128 A 
HETATM   11  N3  UNL     1      -5.026   1.083  -0.891  1.00  0.00    -0.153 N 
HETATM   12  O1  UNL     1      -4.050   2.079  -2.704  1.00  0.00    -0.265 OA
HETATM   13  C1  UNL     1      -4.948   0.254   0.171  1.00  0.00     0.700 A 
ATOM     14  H3  UNL     1      -5.908   1.559  -1.080  1.00  0.00     0.187 HD
HETATM   15  N14 UNL     1      -3.770  -0.353   0.387  1.00  0.00    -0.184 N 
ATOM     16  H14 UNL     1      -3.686  -0.984   1.184  1.00  0.00     0.184 HD
BRANCH  13  17
HETATM   17  N2  UNL     1      -5.978   0.065   0.939  1.00  0.00    -0.138 N 
ATOM     18  H2  UNL     1      -6.865   0.536   0.758  1.00  0.00     0.205 HD
BRANCH  17  19
HETATM   19  N1  UNL     1      -5.829  -0.808   2.024  1.00  0.00    -0.331 N 
ATOM     20  H12 UNL     1      -4.936  -1.271   2.191  1.00  0.00     0.177 HD
ATOM     21  H11 UNL     1      -6.638  -0.956   2.627  1.00  0.00     0.177 HD
ENDBRANCH  17  19
ENDBRANCH  13  17
ENDBRANCH   1   3
BRANCH   1  22
HETATM   22  C5  UNL     1       0.349  -1.995   0.501  1.00  0.00     0.737 A 
HETATM   23  N7  UNL     1       0.750  -3.223   0.204  1.00  0.00    -0.113 N 
HETATM   24  N8  UNL     1       2.056  -3.274   0.371  1.00  0.00    -0.212 N 
ATOM     25  H7  UNL     1       0.153  -3.992  -0.100  1.00  0.00     0.207 HD
HETATM   26  N9  UNL     1       2.467  -2.090   0.769  1.00  0.00    -0.192 N 
ATOM     27  H8  UNL     1       2.647  -4.091   0.218  1.00  0.00     0.210 HD
HETATM   28  N10 UNL     1       1.428  -1.285   0.856  1.00  0.00    -0.007 N 
ATOM     29  H9  UNL     1       3.433  -1.836   0.977  1.00  0.00     0.212 HD
BRANCH  28  30
HETATM   30  N11 UNL     1       1.441   0.058   1.244  1.00  0.00    -0.293 N 
ATOM     31  H11 UNL     1       0.569   0.587   1.274  1.00  0.00     0.183 HD
BRANCH  30  32
HETATM   32  C6  UNL     1       2.667   0.691   1.597  1.00  0.00     0.200 C 
BRANCH  32  33
HETATM   33  C7  UNL     1       3.695   0.735   0.558  1.00  0.00     0.047 A 
HETATM   34  C8  UNL     1       3.531   1.552  -0.558  1.00  0.00     0.114 A 
HETATM   35  N12 UNL     1       4.462   1.617  -1.527  1.00  0.00    -0.369 N 
HETATM   36  C9  UNL     1       5.587   0.896  -1.457  1.00  0.00     0.162 A 
ATOM     37  H12 UNL     1       4.307   2.227  -2.330  1.00  0.00     0.164 HD
HETATM   38  C10 UNL     1       5.774   0.080  -0.364  1.00  0.00     0.261 A 
HETATM   39  O2  UNL     1       6.839  -0.605  -0.295  1.00  0.00    -0.267 OA
HETATM   40  N13 UNL     1       4.829   0.015   0.617  1.00  0.00    -0.323 N 
ATOM     41  H13 UNL     1       4.987  -0.597   1.418  1.00  0.00     0.169 HD
ENDBRANCH  32  33
ENDBRANCH  30  32
ENDBRANCH  28  30
ENDBRANCH   1  22
TORSDOF 7
