REMARK  6 active torsions:
REMARK  status: ('A' for Active; 'I' for Inactive)
REMARK    1  A    between atoms: C5_11  and  C6_12 
REMARK    2  A    between atoms: C6_12  and  N4_13 
REMARK       I    between atoms: N4_13  and  C7_15 
REMARK       I    between atoms: C7_15  and  N5_17 
REMARK    3  A    between atoms: C8_20  and  C9_21 
REMARK    4  A    between atoms: C10_31  and  N12_32 
REMARK    5  A    between atoms: N12_32  and  N13_34 
REMARK    6  A    between atoms: N13_34  and  O2_36 
ROOT
HETATM    1  N4  UNL     1      -0.123   1.191   0.390  1.00  0.00    -0.315 N 
ATOM      2  H4  UNL     1       0.507   1.144   1.191  1.00  0.00     0.170 HD
HETATM    3  C7  UNL     1       0.392   0.778  -0.870  1.00  0.00     0.360 C 
HETATM    4  O1  UNL     1      -0.360   0.835  -1.887  1.00  0.00    -0.244 OA
HETATM    5  N5  UNL     1       1.712   0.312  -1.000  1.00  0.00    -0.028 N 
HETATM    6  N6  UNL     1       2.634   0.181  -0.066  1.00  0.00    -0.256 N 
ATOM      7  H6  UNL     1       2.487   0.417   0.915  1.00  0.00     0.190 HD
HETATM    8  C8  UNL     1       3.782  -0.296  -0.553  1.00  0.00     0.183 A 
HETATM    9  N11 UNL     1       3.580  -0.478  -1.865  1.00  0.00    -0.168 N 
ATOM     10  H11 UNL     1       4.262  -0.833  -2.535  1.00  0.00     0.186 HD
HETATM   11  C10 UNL     1       2.316  -0.108  -2.141  1.00  0.00     0.725 A 
ENDROOT
BRANCH  11  12
HETATM   12  N12 UNL     1       1.787  -0.154  -3.310  1.00  0.00    -0.110 N 
ATOM     13  H12 UNL     1       0.820   0.147  -3.429  1.00  0.00     0.207 HD
BRANCH  12  14
HETATM   14  N13 UNL     1       2.496  -0.603  -4.416  1.00  0.00    -0.196 N 
ATOM     15  H13 UNL     1       2.609  -1.600  -4.600  1.00  0.00     0.216 HD
BRANCH  14  16
HETATM   16  O2  UNL     1       2.994   0.259  -5.184  1.00  0.00    -0.274 OA
ATOM     17  H2  UNL     1       3.479  -0.048  -5.941  1.00  0.00     0.246 HD
ENDBRANCH  14  16
ENDBRANCH  12  14
ENDBRANCH  11  12
BRANCH   1  18
HETATM   18  C6  UNL     1      -1.428   1.658   0.623  1.00  0.00     0.125 C 
BRANCH  18  19
HETATM   19  C5  UNL     1      -2.552   0.732   0.590  1.00  0.00     0.089 A 
HETATM   20  C2  UNL     1      -3.864   1.226   0.730  1.00  0.00     0.051 A 
HETATM   21  C1  UNL     1      -4.308   2.637   0.874  1.00  0.00     0.071 C 
HETATM   22  N1  UNL     1      -4.690   0.178   0.712  1.00  0.00    -0.194 N 
HETATM   23  C3  UNL     1      -3.943  -0.924   0.569  1.00  0.00     0.678 A 
ATOM     24  H1  UNL     1      -5.706   0.211   0.793  1.00  0.00     0.184 HD
HETATM   25  N2  UNL     1      -4.423  -2.120   0.512  1.00  0.00    -0.234 N 
HETATM   26  N3  UNL     1      -2.630  -0.584   0.495  1.00  0.00    -0.185 N 
ATOM     27  H22 UNL     1      -5.409  -2.375   0.568  1.00  0.00     0.174 HD
ATOM     28  H21 UNL     1      -3.854  -2.959   0.403  1.00  0.00     0.174 HD
HETATM   29  C4  UNL     1      -1.591  -1.613   0.379  1.00  0.00     0.175 C 
ENDBRANCH  18  19
ENDBRANCH   1  18
BRANCH   8  30
HETATM   30  C9  UNL     1       4.990  -0.559   0.198  1.00  0.00     0.181 A 
HETATM   31  N7  UNL     1       6.138  -1.048  -0.354  1.00  0.00    -0.268 N 
HETATM   32  N8  UNL     1       7.029  -1.166   0.603  1.00  0.00    -0.225 N 
ATOM     33  H7  UNL     1       6.279  -1.281  -1.337  1.00  0.00     0.190 HD
HETATM   34  N9  UNL     1       6.468  -0.763   1.748  1.00  0.00    -0.005 NA
ATOM     35  H8  UNL     1       7.984  -1.506   0.492  1.00  0.00     0.205 HD
HETATM   36  N10 UNL     1       5.221  -0.389   1.509  1.00  0.00    -0.264 N 
ATOM     37  H10 UNL     1       4.556  -0.036   2.197  1.00  0.00     0.186 HD
ENDBRANCH   8  30
TORSDOF 6
