REMARK  8 active torsions:
REMARK  status: ('A' for Active; 'I' for Inactive)
REMARK    1  A    between atoms: C2_2  and  N3_8 
REMARK    2  A    between atoms: N1_3  and  N2_5 
REMARK    3  A    between atoms: N3_8  and  N4_10 
REMARK    4  A    between atoms: C3_12  and  C4_13 
REMARK    5  A    between atoms: C3_12  and  C7_25 
REMARK    6  A    between atoms: C5_16  and  N6_17 
REMARK    7  A    between atoms: C8_30  and  C9_31 
REMARK    8  A    between atoms: C12_34  and  O1_35 
ROOT
HETATM    1  N4  UNL     1      -2.633  -0.217  -0.943  1.00  0.00    -0.294 N 
ATOM      2  H4  UNL     1      -3.506  -0.741  -0.883  1.00  0.00     0.187 HD
HETATM    3  C3  UNL     1      -1.561  -0.798  -0.529  1.00  0.00     0.123 C 
ENDROOT
BRANCH   3   4
HETATM    4  C4  UNL     1      -1.727  -2.145  -0.021  1.00  0.00     0.104 A 
HETATM    5  N5  UNL     1      -2.932  -2.739   0.011  1.00  0.00    -0.342 N 
HETATM    6  C5  UNL     1      -2.863  -4.044   0.543  1.00  0.00     0.388 A 
ATOM      7  H5  UNL     1      -3.794  -2.299  -0.311  1.00  0.00     0.163 HD
HETATM    8  N7  UNL     1      -1.491  -4.242   0.855  1.00  0.00    -0.333 N 
HETATM    9  C6  UNL     1      -0.847  -3.141   0.525  1.00  0.00     0.144 A 
ATOM     10  H7  UNL     1      -1.080  -5.083   1.260  1.00  0.00     0.164 HD
HETATM   11  N8  UNL     1       0.555  -3.053   0.728  1.00  0.00    -0.080 NA
BRANCH   6  12
HETATM   12  N6  UNL     1      -3.617  -4.096   1.805  1.00  0.00    -0.041 N 
ATOM     13  H63 UNL     1      -3.304  -3.390   2.471  1.00  0.00     0.279 HD
ATOM     14  H62 UNL     1      -4.579  -3.774   1.694  1.00  0.00     0.279 HD
ATOM     15  H61 UNL     1      -3.567  -5.039   2.190  1.00  0.00     0.279 HD
ENDBRANCH   6  12
ENDBRANCH   3   4
BRANCH   3  16
HETATM   16  C7  UNL     1      -0.310  -0.100  -0.596  1.00  0.00     0.152 A 
HETATM   17  N9  UNL     1      -0.202   1.184  -1.089  1.00  0.00    -0.282 N 
HETATM   18  N10 UNL     1       1.047   1.572  -1.032  1.00  0.00    -0.282 N 
ATOM     19  H9  UNL     1      -0.977   1.745  -1.444  1.00  0.00     0.188 HD
HETATM   20  C8  UNL     1       1.813   0.596  -0.513  1.00  0.00     0.148 A 
ATOM     21  H10 UNL     1       1.390   2.483  -1.337  1.00  0.00     0.188 HD
HETATM   22  N12 UNL     1       0.945  -0.387  -0.269  1.00  0.00    -0.323 N 
ATOM     23  H12 UNL     1       1.221  -1.282   0.134  1.00  0.00     0.169 HD
BRANCH  20  24
HETATM   24  C9  UNL     1       3.253   0.632  -0.283  1.00  0.00     0.078 A 
HETATM   25  C10 UNL     1       4.024   1.733  -0.591  1.00  0.00     0.036 A 
HETATM   26  C11 UNL     1       5.387   1.770  -0.375  1.00  0.00     0.040 A 
HETATM   27  C12 UNL     1       6.032   0.673   0.171  1.00  0.00     0.081 A 
HETATM   28  C13 UNL     1       5.235  -0.415   0.470  1.00  0.00     0.124 A 
HETATM   29  N11 UNL     1       3.901  -0.422   0.246  1.00  0.00    -0.360 N 
ATOM     30  H11 UNL     1       3.367  -1.257   0.487  1.00  0.00     0.165 HD
BRANCH  27  31
HETATM   31  O1  UNL     1       7.402   0.666   0.406  1.00  0.00    -0.359 OA
ATOM     32  H1  UNL     1       7.844  -0.087   0.781  1.00  0.00     0.217 HD
ENDBRANCH  27  31
ENDBRANCH  20  24
ENDBRANCH   3  16
BRANCH   1  33
HETATM   33  N3  UNL     1      -2.690   1.049  -1.457  1.00  0.00    -0.288 N 
ATOM     34  H3  UNL     1      -2.346   1.229  -2.400  1.00  0.00     0.188 HD
BRANCH  33  35
HETATM   35  C2  UNL     1      -3.230   2.125  -0.680  1.00  0.00     0.105 C 
HETATM   36  C1  UNL     1      -3.362   2.095   0.794  1.00  0.00     0.092 C 
HETATM   37  N1  UNL     1      -3.623   3.174  -1.306  1.00  0.00    -0.295 N 
ATOM     38  H1  UNL     1      -3.531   3.192  -2.322  1.00  0.00     0.187 HD
BRANCH  37  39
HETATM   39  N2  UNL     1      -4.166   4.285  -0.677  1.00  0.00    -0.344 N 
ATOM     40  H22 UNL     1      -4.250   4.250   0.339  1.00  0.00     0.176 HD
ATOM     41  H21 UNL     1      -4.478   5.119  -1.175  1.00  0.00     0.176 HD
ENDBRANCH  37  39
ENDBRANCH  33  35
ENDBRANCH   1  33
TORSDOF 8
