REMARK  7 active torsions:
REMARK  status: ('A' for Active; 'I' for Inactive)
REMARK    1  A    between atoms: C2_2  and  C3_3 
REMARK    2  A    between atoms: C3_3  and  N1_5 
REMARK    3  A    between atoms: C7_10  and  N3_11 
REMARK    4  A    between atoms: N3_11  and  C8_13 
REMARK    5  A    between atoms: C14_21  and  N5_22 
REMARK    6  A    between atoms: N6_25  and  C17_26 
REMARK    7  A    between atoms: C20_29  and  N7_30 
ROOT
HETATM    1  N1  UNL     1      -3.439  -2.520  -1.076  1.00  0.00    -0.322 N 
HETATM    2  C5  UNL     1      -4.693  -2.219  -1.470  1.00  0.00     0.185 A 
HETATM    3  N2  UNL     1      -4.867  -0.900  -1.291  1.00  0.00    -0.346 N 
ATOM      4  H2  UNL     1      -5.727  -0.396  -1.508  1.00  0.00     0.167 HD
HETATM    5  C6  UNL     1      -3.765  -0.336  -0.791  1.00  0.00     0.123 A 
HETATM    6  C7  UNL     1      -3.392   0.961  -0.402  1.00  0.00     0.152 A 
HETATM    7  N4  UNL     1      -2.156   1.077   0.074  1.00  0.00    -0.174 N 
ATOM      8  H4  UNL     1      -1.871   2.014   0.360  1.00  0.00     0.186 HD
HETATM    9  C14 UNL     1      -1.256   0.126   0.220  1.00  0.00     0.683 A 
HETATM   10  N8  UNL     1      -1.645  -1.126  -0.166  1.00  0.00    -0.174 N 
ATOM     11  H8  UNL     1      -0.988  -1.901  -0.076  1.00  0.00     0.186 HD
HETATM   12  C25 UNL     1      -2.868  -1.359  -0.659  1.00  0.00     0.155 A 
ENDROOT
BRANCH   9  13
HETATM   13  N5  UNL     1       0.052   0.212   0.717  1.00  0.00    -0.214 N 
HETATM   14  C15 UNL     1       0.608   1.444   1.201  1.00  0.00     0.160 C 
HETATM   15  C16 UNL     1       2.042   1.210   1.667  1.00  0.00     0.137 C 
HETATM   16  N6  UNL     1       2.777   0.611   0.609  1.00  0.00    -0.405 N 
HETATM   17  C23 UNL     1       2.210  -0.507  -0.029  1.00  0.00     0.137 C 
HETATM   18  C24 UNL     1       0.942  -0.960   0.739  1.00  0.00     0.160 C 
BRANCH  16  19
HETATM   19  C17 UNL     1       4.193   0.699   0.664  1.00  0.00     0.079 C 
HETATM   20  C18 UNL     1       4.671   1.225  -0.655  1.00  0.00     0.027 C 
HETATM   21  C19 UNL     1       6.028   0.647  -1.037  1.00  0.00     0.035 C 
HETATM   22  C20 UNL     1       6.838   0.618   0.239  1.00  0.00     0.183 C 
HETATM   23  C21 UNL     1       6.336  -0.535   1.073  1.00  0.00     0.035 C 
HETATM   24  C22 UNL     1       4.849  -0.533   1.163  1.00  0.00     0.027 C 
BRANCH  22  25
HETATM   25  N7  UNL     1       8.261   0.536  -0.008  1.00  0.00    -0.075 N 
ATOM     26  H73 UNL     1       8.485  -0.262  -0.602  1.00  0.00     0.274 HD
ATOM     27  H72 UNL     1       8.571   1.290  -0.622  1.00  0.00     0.274 HD
ATOM     28  H71 UNL     1       8.808   0.516   0.853  1.00  0.00     0.274 HD
ENDBRANCH  22  25
ENDBRANCH  16  19
ENDBRANCH   9  13
BRANCH   6  29
HETATM   29  N3  UNL     1      -4.352   1.958  -0.567  1.00  0.00    -0.340 N 
ATOM     30  H3  UNL     1      -5.236   1.660  -0.981  1.00  0.00     0.167 HD
BRANCH  29  31
HETATM   31  C8  UNL     1      -4.259   3.313  -0.238  1.00  0.00     0.033 A 
HETATM   32  C9  UNL     1      -3.182   3.896   0.415  1.00  0.00     0.029 A 
HETATM   33  C10 UNL     1      -3.219   5.249   0.698  1.00  0.00     0.002 A 
HETATM   34  C11 UNL     1      -4.294   6.034   0.348  1.00  0.00     0.000 A 
HETATM   35  C12 UNL     1      -5.358   5.462  -0.297  1.00  0.00     0.002 A 
HETATM   36  C13 UNL     1      -5.357   4.139  -0.589  1.00  0.00     0.029 A 
ENDBRANCH  29  31
ENDBRANCH   6  29
BRANCH   1  37
HETATM   37  C3  UNL     1      -2.744  -3.784  -1.040  1.00  0.00     0.088 C 
HETATM   38  C4  UNL     1      -2.009  -3.886   0.283  1.00  0.00     0.033 C 
BRANCH  37  39
HETATM   39  C2  UNL     1      -3.730  -4.936  -1.183  1.00  0.00     0.021 C 
HETATM   40  C1  UNL     1      -4.756  -4.895  -0.068  1.00  0.00     0.007 C 
ENDBRANCH  37  39
ENDBRANCH   1  37
TORSDOF 7
