REMARK  9 active torsions:
REMARK  status: ('A' for Active; 'I' for Inactive)
REMARK    1  A    between atoms: O1_2  and  C2_3 
REMARK    2  A    between atoms: C2_3  and  C3_5 
REMARK    3  A    between atoms: C6_8  and  N1_9 
REMARK    4  A    between atoms: C7_10  and  O3_11 
REMARK    5  A    between atoms: C10_15  and  O4_16 
REMARK    6  A    between atoms: C13_21  and  C14_22 
REMARK    7  A    between atoms: C14_22  and  C15_23 
REMARK    8  A    between atoms: C16_24  and  C17_25 
REMARK    9  A    between atoms: C17_25  and  C18_26 
ROOT
HETATM    1  N1  UNL     1       3.160  -0.608   0.704  1.00  0.00    -0.269 N 
HETATM    2  C7  UNL     1       2.208  -0.847  -0.208  1.00  0.00     0.184 A 
HETATM    3  C8  UNL     1       1.068  -1.211   0.478  1.00  0.00     0.139 A 
HETATM    4  C9  UNL     1       1.325  -1.196   1.835  1.00  0.00     0.099 A 
HETATM    5  C10 UNL     1       2.655  -0.810   1.937  1.00  0.00     0.166 A 
HETATM    6  C11 UNL     1       0.285  -1.543   2.793  1.00  0.00     0.169 C 
HETATM    7  O5  UNL     1       0.498  -1.356   4.016  1.00  0.00    -0.292 OA
HETATM    8  C12 UNL     1      -0.992  -2.104   2.309  1.00  0.00     0.117 C 
HETATM    9  C13 UNL     1      -1.304  -1.485   0.948  1.00  0.00     0.140 C 
HETATM   10  O6  UNL     1      -0.214  -1.570   0.081  1.00  0.00    -0.340 OA
ENDROOT
BRANCH   9  11
HETATM   11  C14 UNL     1      -1.662  -0.022   1.236  1.00  0.00     0.059 C 
BRANCH  11  12
HETATM   12  C15 UNL     1      -1.966   0.596  -0.056  1.00  0.00    -0.028 C 
HETATM   13  C16 UNL     1      -3.106   1.155  -0.420  1.00  0.00    -0.030 C 
BRANCH  13  14
HETATM   14  C17 UNL     1      -4.284   1.245   0.450  1.00  0.00     0.031 C 
BRANCH  14  15
HETATM   15  C18 UNL     1      -5.450   0.515  -0.206  1.00  0.00    -0.011 C 
HETATM   16  C19 UNL     1      -6.686   0.582   0.657  1.00  0.00     0.007 C 
HETATM   17  C20 UNL     1      -7.697  -0.374   0.059  1.00  0.00     0.037 C 
HETATM   18  C21 UNL     1      -7.932  -0.142  -1.396  1.00  0.00     0.170 C 
HETATM   19  F1  UNL     1      -7.751  -1.314  -2.079  1.00  0.00    -0.249 F 
HETATM   20  C22 UNL     1      -7.158   1.004  -1.973  1.00  0.00     0.037 C 
HETATM   21  C23 UNL     1      -5.703   0.999  -1.609  1.00  0.00     0.007 C 
ENDBRANCH  14  15
ENDBRANCH  13  14
ENDBRANCH  11  12
ENDBRANCH   9  11
BRANCH   2  22
HETATM   22  O3  UNL     1       2.368  -0.740  -1.582  1.00  0.00    -0.344 OA
ATOM     23  H3  UNL     1       1.693  -0.909  -2.229  1.00  0.00     0.219 HD
ENDBRANCH   2  22
BRANCH   5  24
HETATM   24  O4  UNL     1       3.283  -0.681   3.174  1.00  0.00    -0.345 OA
ATOM     25  H4  UNL     1       2.927  -0.823   4.043  1.00  0.00     0.219 HD
ENDBRANCH   5  24
BRANCH   1  26
HETATM   26  C6  UNL     1       4.493  -0.206   0.437  1.00  0.00     0.043 A 
HETATM   27  C5  UNL     1       5.443  -1.090  -0.031  1.00  0.00     0.031 A 
HETATM   28  C4  UNL     1       6.745  -0.670  -0.286  1.00  0.00     0.020 A 
HETATM   29  C3  UNL     1       7.103   0.634  -0.075  1.00  0.00     0.039 A 
HETATM   30  C25 UNL     1       6.156   1.517   0.392  1.00  0.00     0.020 A 
HETATM   31  C24 UNL     1       4.852   1.124   0.653  1.00  0.00     0.031 A 
BRANCH  29  32
HETATM   32  C2  UNL     1       8.470   1.113  -0.334  1.00  0.00     0.292 C 
HETATM   33  O2  UNL     1       8.770   2.296  -0.135  1.00  0.00    -0.259 OA
BRANCH  32  34
HETATM   34  O1  UNL     1       9.443   0.254  -0.802  1.00  0.00    -0.323 OA
HETATM   35  C1  UNL     1      10.766   0.711  -1.054  1.00  0.00     0.213 C 
ENDBRANCH  32  34
ENDBRANCH  29  32
ENDBRANCH   1  26
TORSDOF 9
