REMARK  8 active torsions:
REMARK  status: ('A' for Active; 'I' for Inactive)
REMARK    1  A    between atoms: C2_2  and  N1_5 
REMARK       I    between atoms: N1_5  and  C5_7 
REMARK    2  A    between atoms: C5_7  and  C6_9 
REMARK    3  A    between atoms: C6_9  and  S1_10 
REMARK    4  A    between atoms: S1_10  and  C7_11 
REMARK    5  A    between atoms: C9_16  and  S2_17 
REMARK    6  A    between atoms: S2_17  and  C10_18 
REMARK    7  A    between atoms: C16_24  and  O3_25 
REMARK    8  A    between atoms: N3_27  and  C17_28 
ROOT
HETATM    1  C7  UNL     1      -0.205  -0.462   0.656  1.00  0.00     0.152 A 
HETATM    2  N2  UNL     1      -0.472   0.822   0.998  1.00  0.00    -0.302 N 
ATOM      3  H2  UNL     1      -1.215   1.008   1.671  1.00  0.00     0.171 HD
HETATM    4  C8  UNL     1       0.211   1.862   0.479  1.00  0.00     0.268 A 
HETATM    5  O2  UNL     1      -0.010   3.061   0.774  1.00  0.00    -0.267 OA
HETATM    6  C9  UNL     1       1.200   1.538  -0.424  1.00  0.00     0.124 A 
HETATM    7  C16 UNL     1       1.444   0.226  -0.747  1.00  0.00     0.167 A 
HETATM    8  N3  UNL     1       0.745  -0.827  -0.213  1.00  0.00    -0.302 N 
ENDROOT
BRANCH   1   9
HETATM    9  S1  UNL     1      -1.150  -1.708   1.459  1.00  0.00    -0.084 SA
BRANCH   9  10
HETATM   10  C6  UNL     1      -2.723  -1.947   0.611  1.00  0.00     0.185 C 
BRANCH  10  11
HETATM   11  C5  UNL     1      -3.618  -0.764   0.738  1.00  0.00     0.228 C 
HETATM   12  N1  UNL     1      -3.519   0.328  -0.160  1.00  0.00    -0.352 N 
ATOM     13  H1  UNL     1      -2.822   0.305  -0.904  1.00  0.00     0.163 HD
HETATM   14  O1  UNL     1      -4.478  -0.745   1.668  1.00  0.00    -0.273 OA
BRANCH  12  15
HETATM   15  C2  UNL     1      -4.399   1.485  -0.037  1.00  0.00     0.022 C 
HETATM   16  C1  UNL     1      -4.034   2.480  -1.114  1.00  0.00     0.037 C 
HETATM   17  C3  UNL     1      -5.841   1.039  -0.309  1.00  0.00     0.037 C 
HETATM   18  C4  UNL     1      -4.350   2.130   1.317  1.00  0.00     0.037 C 
ENDBRANCH  12  15
ENDBRANCH  10  11
ENDBRANCH   9  10
ENDBRANCH   1   9
BRANCH   8  19
HETATM   19  C17 UNL     1       1.118  -2.131  -0.595  1.00  0.00     0.094 C 
HETATM   20  C18 UNL     1       0.133  -3.081  -1.126  1.00  0.00     0.026 C 
HETATM   21  C19 UNL     1       0.895  -4.124  -1.959  1.00  0.00     0.002 C 
HETATM   22  C20 UNL     1       1.690  -4.920  -0.965  1.00  0.00     0.000 C 
HETATM   23  C21 UNL     1       1.709  -4.355   0.407  1.00  0.00     0.002 C 
HETATM   24  C22 UNL     1       1.868  -2.878   0.526  1.00  0.00     0.026 C 
ENDBRANCH   8  19
BRANCH   7  25
HETATM   25  O3  UNL     1       2.471   0.014  -1.674  1.00  0.00    -0.345 OA
ATOM     26  H3  UNL     1       2.640  -0.894  -1.897  1.00  0.00     0.219 HD
ENDBRANCH   7  25
BRANCH   6  27
HETATM   27  S2  UNL     1       2.138   2.889  -1.132  1.00  0.00    -0.081 SA
BRANCH  27  28
HETATM   28  C10 UNL     1       3.553   3.276  -0.125  1.00  0.00     0.005 A 
HETATM   29  C11 UNL     1       3.475   4.231   0.895  1.00  0.00     0.019 A 
HETATM   30  C12 UNL     1       4.579   4.508   1.669  1.00  0.00     0.001 A 
HETATM   31  C13 UNL     1       5.761   3.868   1.464  1.00  0.00     0.000 A 
HETATM   32  C14 UNL     1       5.883   2.918   0.466  1.00  0.00     0.001 A 
HETATM   33  C15 UNL     1       4.767   2.659  -0.293  1.00  0.00     0.019 A 
ENDBRANCH  27  28
ENDBRANCH   6  27
TORSDOF 8
