REMARK  10 active torsions:
REMARK  status: ('A' for Active; 'I' for Inactive)
REMARK    1  A    between atoms: C2_2  and  C3_3 
REMARK    2  A    between atoms: C3_3  and  C4_4 
REMARK    3  A    between atoms: C4_4  and  C5_5 
REMARK    4  A    between atoms: C5_5  and  C6_6 
REMARK    5  A    between atoms: C13_14  and  O2_15 
REMARK    6  A    between atoms: C14_17  and  C15_18 
REMARK    7  A    between atoms: N1_20  and  C17_22 
REMARK    8  A    between atoms: N2_24  and  O3_26 
REMARK    9  A    between atoms: C19_28  and  C20_29 
REMARK   10  A    between atoms: C20_29  and  O5_31 
ROOT
HETATM    1  C6  UNL     1       2.866  -1.733   0.367  1.00  0.00     0.015 C 
HETATM    2  C7  UNL     1       2.160  -0.637   0.368  1.00  0.00     0.123 A 
HETATM    3  O1  UNL     1       0.755  -0.587   0.234  1.00  0.00    -0.305 OA
HETATM    4  C8  UNL     1       0.345   0.747   0.292  1.00  0.00     0.100 A 
HETATM    5  C9  UNL     1       1.387   1.602   0.451  1.00  0.00     0.052 A 
HETATM    6  C10 UNL     1       1.210   2.960   0.558  1.00  0.00     0.028 A 
HETATM    7  C11 UNL     1      -0.054   3.466   0.501  1.00  0.00    -0.027 A 
HETATM    8  C12 UNL     1      -0.318   4.935   0.603  1.00  0.00     0.051 C 
HETATM    9  C13 UNL     1      -1.196   2.625   0.340  1.00  0.00     0.081 A 
HETATM   10  C14 UNL     1      -0.964   1.288   0.238  1.00  0.00     0.021 A 
HETATM   11  C23 UNL     1       2.606   0.735   0.510  1.00  0.00     0.218 A 
HETATM   12  O6  UNL     1       3.745   1.191   0.654  1.00  0.00    -0.284 OA
ENDROOT
BRANCH  10  13
HETATM   13  C15 UNL     1      -2.000   0.257   0.037  1.00  0.00     0.090 C 
HETATM   14  C16 UNL     1      -3.402   0.597  -0.262  1.00  0.00     0.013 C 
HETATM   15  N1  UNL     1      -4.201   1.230  -1.016  1.00  0.00    -0.350 N 
HETATM   16  C19 UNL     1      -3.785  -0.407   0.835  1.00  0.00     0.151 C 
ATOM     17  H1  UNL     1      -3.791   1.764  -1.782  1.00  0.00     0.166 HD
HETATM   18  C22 UNL     1      -2.476  -0.122   1.470  1.00  0.00     0.115 C 
HETATM   19 CL1  UNL     1      -1.695  -1.617   2.065  1.00  0.00    -0.123 Cl
BRANCH  15  20
HETATM   20  C17 UNL     1      -5.597   1.262  -0.891  1.00  0.00     0.097 C 
HETATM   21  C18 UNL     1      -6.462   1.491  -2.113  1.00  0.00     0.091 C 
HETATM   22  N2  UNL     1      -6.184   1.102   0.211  1.00  0.00    -0.257 N 
ATOM     23  H2  UNL     1      -5.592   0.944   1.026  1.00  0.00     0.195 HD
BRANCH  22  24
HETATM   24  O3  UNL     1      -7.500   1.118   0.421  1.00  0.00    -0.288 OA
ATOM     25  H3  UNL     1      -7.943   0.997   1.253  1.00  0.00     0.244 HD
ENDBRANCH  22  24
ENDBRANCH  15  20
BRANCH  16  26
HETATM   26  C20 UNL     1      -3.923  -1.745   0.256  1.00  0.00     0.269 C 
HETATM   27  O4  UNL     1      -3.861  -1.867  -1.028  1.00  0.00    -0.264 OA
BRANCH  26  28
HETATM   28  O5  UNL     1      -4.121  -2.871   0.978  1.00  0.00    -0.326 OA
HETATM   29  C21 UNL     1      -4.268  -4.129   0.270  1.00  0.00     0.213 C 
ENDBRANCH  26  28
ENDBRANCH  16  26
ENDBRANCH  10  13
BRANCH   9  30
HETATM   30  O2  UNL     1      -2.400   3.198   0.301  1.00  0.00    -0.359 OA
ATOM     31  H2  UNL     1      -3.160   2.638   0.194  1.00  0.00     0.217 HD
ENDBRANCH   9  30
BRANCH   1  32
HETATM   32  C5  UNL     1       4.295  -1.870   0.519  1.00  0.00     0.030 C 
BRANCH  32  33
HETATM   33  C4  UNL     1       5.046  -2.486  -0.649  1.00  0.00     0.004 C 
BRANCH  33  34
HETATM   34  C3  UNL     1       6.467  -2.639  -0.254  1.00  0.00    -0.000 C 
BRANCH  34  35
HETATM   35  C2  UNL     1       7.170  -1.386   0.163  1.00  0.00    -0.005 C 
HETATM   36  C1  UNL     1       7.194  -0.340  -0.882  1.00  0.00     0.005 C 
ENDBRANCH  34  35
ENDBRANCH  33  34
ENDBRANCH  32  33
ENDBRANCH   1  32
TORSDOF 10
