REMARK  3 active torsions:
REMARK  status: ('A' for Active; 'I' for Inactive)
REMARK    1  A    between atoms: C2_5  and  C3_6 
REMARK    2  A    between atoms: N6_19  and  O3_20 
REMARK    3  A    between atoms: C10_22  and  N7_23 
ROOT
HETATM    1  C3  UNL     1       0.220  -0.548  -0.715  1.00  0.00     0.099 A 
HETATM    2  N3  UNL     1      -0.306  -1.453  -1.583  1.00  0.00    -0.294 N 
ATOM      3  H3  UNL     1       0.240  -1.939  -2.295  1.00  0.00     0.187 HD
HETATM    4  N4  UNL     1      -1.583  -1.631  -1.405  1.00  0.00    -0.278 N 
HETATM    5  C4  UNL     1      -2.433  -2.527  -2.167  1.00  0.00     0.179 C 
HETATM    6  C5  UNL     1      -1.990  -0.848  -0.399  1.00  0.00     0.172 A 
HETATM    7  C6  UNL     1      -0.861  -0.163   0.041  1.00  0.00     0.111 A 
HETATM    8  C7  UNL     1      -1.042   0.707   1.079  1.00  0.00     0.267 A 
HETATM    9  O1  UNL     1      -0.085   1.355   1.529  1.00  0.00    -0.267 OA
HETATM   10  N5  UNL     1      -2.263   0.896   1.655  1.00  0.00    -0.268 N 
HETATM   11  C8  UNL     1      -2.343   1.836   2.742  1.00  0.00     0.164 C 
HETATM   12  C9  UNL     1      -3.325   0.217   1.201  1.00  0.00     0.357 A 
HETATM   13  O2  UNL     1      -4.448   0.407   1.749  1.00  0.00    -0.244 OA
HETATM   14  N6  UNL     1      -3.163  -0.633   0.192  1.00  0.00    -0.153 N 
ENDROOT
BRANCH   1  15
HETATM   15  C2  UNL     1       1.606  -0.127  -0.650  1.00  0.00     0.121 A 
HETATM   16  N2  UNL     1       2.111   0.760   0.204  1.00  0.00    -0.291 N 
HETATM   17  N1  UNL     1       3.369   1.147   0.269  1.00  0.00    -0.271 N 
ATOM     18  H2  UNL     1       1.463   1.180   0.871  1.00  0.00     0.187 HD
HETATM   19  C1  UNL     1       3.779   2.130   1.259  1.00  0.00     0.180 C 
HETATM   20  C11 UNL     1       4.273   0.622  -0.593  1.00  0.00     0.194 A 
HETATM   21  N8  UNL     1       3.862  -0.264  -1.474  1.00  0.00    -0.316 N 
HETATM   22  S1  UNL     1       5.825   1.129  -0.481  1.00  0.00    -0.039 SA
HETATM   23  C10 UNL     1       2.557  -0.657  -1.532  1.00  0.00     0.132 A 
ATOM     24  H8  UNL     1       4.534  -0.666  -2.128  1.00  0.00     0.170 HD
BRANCH  23  25
HETATM   25  N7  UNL     1       2.303  -1.503  -2.413  1.00  0.00    -0.383 N 
ATOM     26  H72 UNL     1       1.327  -1.797  -2.456  1.00  0.00     0.157 HD
ATOM     27  H71 UNL     1       2.995  -1.889  -3.055  1.00  0.00     0.157 HD
ENDBRANCH  23  25
ENDBRANCH   1  15
BRANCH  14  28
HETATM   28  O3  UNL     1      -4.268  -1.313  -0.251  1.00  0.00    -0.277 OA
ATOM     29  H3  UNL     1      -5.105  -1.160   0.171  1.00  0.00     0.245 HD
ENDBRANCH  14  28
TORSDOF 3
