REMARK  3 active torsions:
REMARK  status: ('A' for Active; 'I' for Inactive)
REMARK    1  A    between atoms: N3_4  and  N4_6 
REMARK       I    between atoms: C2_8  and  N6_10 
REMARK    2  A    between atoms: N6_10  and  C3_12 
REMARK    3  A    between atoms: C6_15  and  C7_16 
ROOT
HETATM    1  C3  UNL     1       0.591  -0.478  -0.631  1.00  0.00     0.122 A 
HETATM    2  C4  UNL     1      -0.014  -1.047   0.452  1.00  0.00     0.052 A 
HETATM    3  C5  UNL     1      -1.376  -0.821   0.642  1.00  0.00     0.035 A 
HETATM    4  C6  UNL     1      -2.130  -0.057  -0.207  1.00  0.00     0.058 A 
HETATM    5  N7  UNL     1      -1.455   0.481  -1.271  1.00  0.00    -0.298 N 
ATOM      6  H7  UNL     1      -1.960   1.061  -1.941  1.00  0.00     0.187 HD
HETATM    7  N8  UNL     1      -0.169   0.265  -1.446  1.00  0.00    -0.285 N 
ATOM      8  H8  UNL     1       0.279   0.692  -2.257  1.00  0.00     0.188 HD
ENDROOT
BRANCH   1   9
HETATM    9  N6  UNL     1       1.831  -0.606  -0.919  1.00  0.00    -0.314 N 
HETATM   10  C2  UNL     1       2.766  -1.347  -0.175  1.00  0.00     0.208 C 
HETATM   11  N4  UNL     1       3.797  -0.736   0.305  1.00  0.00    -0.271 N 
HETATM   12  N5  UNL     1       2.662  -2.738   0.093  1.00  0.00    -0.062 NA
ATOM     13  H4  UNL     1       4.476  -1.273   0.844  1.00  0.00     0.189 HD
ATOM     14  H6  UNL     1       2.169  -0.132  -1.757  1.00  0.00     0.170 HD
BRANCH  11  15
HETATM   15  N3  UNL     1       4.021   0.627   0.117  1.00  0.00    -0.274 N 
HETATM   16  C1  UNL     1       5.232   1.118   0.065  1.00  0.00     0.215 C 
HETATM   17  N1  UNL     1       5.430   2.509  -0.128  1.00  0.00    -0.065 NA
HETATM   18  N2  UNL     1       6.336   0.229   0.205  1.00  0.00    -0.065 NA
ATOM     19  H3  UNL     1       3.223   1.255   0.018  1.00  0.00     0.189 HD
ENDBRANCH  11  15
ENDBRANCH   1   9
BRANCH   4  20
HETATM   20  C7  UNL     1      -3.552   0.200  -0.040  1.00  0.00    -0.008 A 
HETATM   21  C8  UNL     1      -4.225  -0.336   1.021  1.00  0.00     0.014 A 
HETATM   22  C9  UNL     1      -5.589  -0.071   1.152  1.00  0.00     0.001 A 
HETATM   23  C10 UNL     1      -6.246   0.702   0.254  1.00  0.00     0.000 A 
HETATM   24  C11 UNL     1      -5.559   1.238  -0.812  1.00  0.00     0.001 A 
HETATM   25  C12 UNL     1      -4.228   0.999  -0.971  1.00  0.00     0.014 A 
ENDBRANCH   4  20
TORSDOF 3
