REMARK  4 active torsions:
REMARK  status: ('A' for Active; 'I' for Inactive)
REMARK    1  A    between atoms: N2_5  and  C3_6 
REMARK    2  A    between atoms: C6_14  and  N5_15 
REMARK    3  A    between atoms: C7_18  and  C8_19 
REMARK    4  A    between atoms: C8_19  and  C9_20 
ROOT
HETATM    1  C1  UNL     1       0.739   0.366   1.963  1.00  0.00     0.045 C 
HETATM    2  C2  UNL     1      -0.158   0.180   1.026  1.00  0.00     0.053 A 
HETATM    3  N1  UNL     1      -1.492   0.043   1.289  1.00  0.00    -0.291 N 
ATOM      4  H1  UNL     1      -1.910   0.072   2.219  1.00  0.00     0.187 HD
HETATM    5  N2  UNL     1      -2.151  -0.129   0.182  1.00  0.00    -0.221 N 
HETATM    6  C6  UNL     1      -1.303  -0.114  -0.840  1.00  0.00     0.135 A 
HETATM    7  C7  UNL     1      -0.006   0.083  -0.338  1.00  0.00     0.039 A 
ENDROOT
BRANCH   5   8
HETATM    8  C3  UNL     1      -3.568  -0.306   0.089  1.00  0.00     0.149 A 
HETATM    9  C4  UNL     1      -4.227  -1.071  -0.852  1.00  0.00     0.127 A 
HETATM   10  C5  UNL     1      -5.564  -0.943  -0.552  1.00  0.00     0.263 A 
HETATM   11  O1  UNL     1      -6.511  -1.494  -1.183  1.00  0.00    -0.267 OA
HETATM   12  N3  UNL     1      -5.708  -0.134   0.524  1.00  0.00    -0.265 N 
HETATM   13  N4  UNL     1      -4.496   0.240   0.897  1.00  0.00    -0.281 N 
ATOM     14  H3  UNL     1      -6.587   0.136   0.965  1.00  0.00     0.190 HD
ATOM     15  H4  UNL     1      -4.293   0.855   1.685  1.00  0.00     0.188 HD
ENDBRANCH   5   8
BRANCH   6  16
HETATM   16  N5  UNL     1      -1.577  -0.252  -2.086  1.00  0.00    -0.383 N 
ATOM     17  H52 UNL     1      -2.519  -0.395  -2.451  1.00  0.00     0.157 HD
ATOM     18  H51 UNL     1      -0.926  -0.240  -2.871  1.00  0.00     0.157 HD
ENDBRANCH   6  16
BRANCH   7  19
HETATM   19  C8  UNL     1       1.071   0.148  -1.080  1.00  0.00     0.054 C 
BRANCH  19  20
HETATM   20  C9  UNL     1       2.443   0.342  -0.727  1.00  0.00     0.076 A 
HETATM   21  C10 UNL     1       3.132   1.563  -0.736  1.00  0.00     0.040 A 
HETATM   22  C11 UNL     1       4.409   1.250  -0.329  1.00  0.00     0.035 A 
HETATM   23  C12 UNL     1       4.445  -0.109  -0.096  1.00  0.00     0.050 A 
HETATM   24  C13 UNL     1       5.691  -0.798   0.364  1.00  0.00     0.076 C 
HETATM   25  O2  UNL     1       3.273  -0.605  -0.340  1.00  0.00    -0.316 OA
ENDBRANCH  19  20
ENDBRANCH   7  19
TORSDOF 4
