REMARK  5 active torsions:
REMARK  status: ('A' for Active; 'I' for Inactive)
REMARK    1  A    between atoms: C3_3  and  N1_4 
REMARK    2  A    between atoms: N1_4  and  C4_6 
REMARK    3  A    between atoms: C5_9  and  N3_10 
REMARK    4  A    between atoms: C6_15  and  N5_16 
REMARK    5  A    between atoms: N5_16  and  C7_18 
ROOT
HETATM    1  C1  UNL     1       6.791   1.611   0.481  1.00  0.00     0.014 C 
HETATM    2  C2  UNL     1       5.901   0.811   0.350  1.00  0.00    -0.097 C 
HETATM    3  C3  UNL     1       4.818  -0.187   0.188  1.00  0.00     0.231 C 
ENDROOT
BRANCH   3   4
HETATM    4  N1  UNL     1       3.611   0.428   0.640  1.00  0.00    -0.215 N 
ATOM      5  H1  UNL     1       3.681   1.272   1.208  1.00  0.00     0.178 HD
BRANCH   4   6
HETATM    6  C4  UNL     1       2.434  -0.030   0.366  1.00  0.00     0.708 A 
HETATM    7  N2  UNL     1       2.236  -1.131  -0.371  1.00  0.00    -0.022 N 
HETATM    8  C5  UNL     1       1.014  -1.566  -0.628  1.00  0.00     0.705 A 
ATOM      9  H2  UNL     1       3.039  -1.641  -0.739  1.00  0.00     0.203 HD
HETATM   10  N4  UNL     1      -0.069  -0.893  -0.141  1.00  0.00    -0.021 N 
HETATM   11  C6  UNL     1       0.096   0.215   0.602  1.00  0.00     0.711 A 
ATOM     12  H4  UNL     1      -1.009  -1.233  -0.342  1.00  0.00     0.203 HD
HETATM   13  N7  UNL     1       1.353   0.622   0.839  1.00  0.00    -0.021 N 
ATOM     14  H7  UNL     1       1.496   1.461   1.401  1.00  0.00     0.203 HD
BRANCH   8  15
HETATM   15  N3  UNL     1       0.885  -2.633  -1.344  1.00  0.00    -0.234 N 
ATOM     16  H32 UNL     1       1.694  -3.136  -1.708  1.00  0.00     0.174 HD
ATOM     17  H31 UNL     1      -0.058  -2.969  -1.542  1.00  0.00     0.174 HD
ENDBRANCH   8  15
BRANCH  11  18
HETATM   18  N5  UNL     1      -0.925   0.826   1.045  1.00  0.00    -0.191 N 
ATOM     19  H5  UNL     1      -0.756   1.662   1.604  1.00  0.00     0.184 HD
BRANCH  18  20
HETATM   20  C7  UNL     1      -2.262   0.460   0.839  1.00  0.00     0.053 A 
HETATM   21  C8  UNL     1      -2.816  -0.632   1.479  1.00  0.00     0.047 A 
HETATM   22  C9  UNL     1      -4.123  -1.018   1.299  1.00  0.00     0.091 A 
HETATM   23  N6  UNL     1      -4.893  -0.304   0.467  1.00  0.00    -0.359 N 
HETATM   24  C10 UNL     1      -4.427   0.775  -0.195  1.00  0.00     0.087 A 
ATOM     25  H6  UNL     1      -5.864  -0.586   0.330  1.00  0.00     0.166 HD
HETATM   26  C11 UNL     1      -5.307   1.496  -1.073  1.00  0.00    -0.060 C 
HETATM   27  C13 UNL     1      -3.096   1.164  -0.009  1.00  0.00     0.069 A 
HETATM   28  C12 UNL     1      -6.043   2.104  -1.811  1.00  0.00     0.019 C 
ENDBRANCH  18  20
ENDBRANCH  11  18
ENDBRANCH   4   6
ENDBRANCH   3   4
TORSDOF 5
