REMARK  3 active torsions:
REMARK  status: ('A' for Active; 'I' for Inactive)
REMARK    1  A    between atoms: N2_5  and  C3_6 
REMARK    2  A    between atoms: C6_19  and  C7_20 
REMARK    3  A    between atoms: C7_20  and  C8_21 
ROOT
HETATM    1  C1  UNL     1       0.187  -3.737   0.330  1.00  0.00     0.045 C 
HETATM    2  C2  UNL     1      -0.252  -2.483   0.119  1.00  0.00     0.055 A 
HETATM    3  N1  UNL     1      -1.527  -2.086  -0.044  1.00  0.00    -0.277 N 
ATOM      4  H1  UNL     1      -2.329  -2.716  -0.024  1.00  0.00     0.188 HD
HETATM    5  N2  UNL     1      -1.614  -0.782  -0.233  1.00  0.00    -0.045 N 
HETATM    6  C5  UNL     1      -0.352  -0.313  -0.192  1.00  0.00     0.295 A 
HETATM    7  O1  UNL     1      -0.020   0.890  -0.332  1.00  0.00    -0.265 OA
HETATM    8  C6  UNL     1       0.531  -1.345   0.026  1.00  0.00     0.062 A 
ENDROOT
BRANCH   5   9
HETATM    9  C3  UNL     1      -2.820  -0.025  -0.440  1.00  0.00     0.736 A 
HETATM   10  N3  UNL     1      -3.679  -0.066  -1.448  1.00  0.00    -0.115 N 
HETATM   11  N4  UNL     1      -4.652   0.820  -1.207  1.00  0.00    -0.117 N 
ATOM     12  H3  UNL     1      -3.610  -0.670  -2.267  1.00  0.00     0.206 HD
HETATM   13  C4  UNL     1      -4.410   1.428  -0.038  1.00  0.00     0.705 A 
ATOM     14  H4  UNL     1      -5.450   1.003  -1.815  1.00  0.00     0.206 HD
HETATM   15  N5  UNL     1      -5.151   2.355   0.519  1.00  0.00    -0.233 N 
HETATM   16  N6  UNL     1      -3.273   0.902   0.435  1.00  0.00    -0.018 N 
ATOM     17  H52 UNL     1      -6.017   2.756   0.159  1.00  0.00     0.174 HD
ATOM     18  H51 UNL     1      -4.967   2.818   1.409  1.00  0.00     0.174 HD
ATOM     19  H6  UNL     1      -2.822   1.159   1.313  1.00  0.00     0.203 HD
ENDBRANCH   5   9
BRANCH   8  20
HETATM   20  C7  UNL     1       1.848  -1.304   0.131  1.00  0.00     0.030 C 
BRANCH  20  21
HETATM   21  C8  UNL     1       2.600  -0.065   0.021  1.00  0.00    -0.035 A 
HETATM   22  C9  UNL     1       2.916   0.419  -1.230  1.00  0.00     0.011 A 
HETATM   23  C10 UNL     1       3.641   1.616  -1.299  1.00  0.00     0.001 A 
HETATM   24  C11 UNL     1       4.016   2.270  -0.147  1.00  0.00     0.000 A 
HETATM   25  C12 UNL     1       3.697   1.781   1.093  1.00  0.00     0.001 A 
HETATM   26  C13 UNL     1       2.972   0.586   1.178  1.00  0.00     0.011 A 
ENDBRANCH  20  21
ENDBRANCH   8  20
TORSDOF 3
