REMARK  4 active torsions:
REMARK  status: ('A' for Active; 'I' for Inactive)
REMARK    1  A    between atoms: N1_2  and  N2_3 
REMARK       I    between atoms: N2_3  and  C2_5 
REMARK       I    between atoms: C2_5  and  N5_10 
REMARK    2  A    between atoms: N5_10  and  C4_12 
REMARK    3  A    between atoms: C7_19  and  N8_20 
REMARK    4  A    between atoms: N8_20  and  C8_22 
ROOT
HETATM    1  N2  UNL     1       3.252  -1.261   0.017  1.00  0.00    -0.136 N 
ATOM      2  H2  UNL     1       2.948  -2.020   0.627  1.00  0.00     0.201 HD
HETATM    3  C2  UNL     1       2.583  -0.021   0.125  1.00  0.00     0.704 C 
HETATM    4  N3  UNL     1       3.179   1.076   0.463  1.00  0.00    -0.125 N 
ATOM      5  H3  UNL     1       2.637   1.938   0.523  1.00  0.00     0.197 HD
HETATM    6  C3  UNL     1       4.559   1.109   0.750  1.00  0.00     0.196 C 
HETATM    7  N4  UNL     1       5.689   1.134   1.000  1.00  0.00    -0.171 NA
HETATM    8  N5  UNL     1       1.189   0.057  -0.143  1.00  0.00    -0.171 N 
ATOM      9  H5  UNL     1       0.871   0.095  -1.111  1.00  0.00     0.186 HD
ENDROOT
BRANCH   1  10
HETATM   10  N1  UNL     1       4.296  -1.516  -0.864  1.00  0.00    -0.131 NA
HETATM   11  C1  UNL     1       4.203  -0.769  -2.090  1.00  0.00     0.159 C 
ENDBRANCH   1  10
BRANCH   8  12
HETATM   12  C4  UNL     1       0.315   0.081   0.806  1.00  0.00     0.165 A 
HETATM   13  N6  UNL     1       0.710   0.032   2.086  1.00  0.00    -0.347 N 
HETATM   14  C5  UNL     1      -0.197   0.057   3.096  1.00  0.00     0.107 A 
ATOM     15  H6  UNL     1       1.705  -0.025   2.304  1.00  0.00     0.167 HD
HETATM   16  C6  UNL     1      -1.534   0.134   2.747  1.00  0.00     0.107 A 
HETATM   17  N7  UNL     1      -1.936   0.184   1.467  1.00  0.00    -0.348 N 
HETATM   18  C7  UNL     1      -1.024   0.158   0.485  1.00  0.00     0.151 A 
ATOM     19  H7  UNL     1      -2.929   0.241   1.243  1.00  0.00     0.167 HD
BRANCH  18  20
HETATM   20  N8  UNL     1      -1.391   0.205  -0.750  1.00  0.00    -0.339 N 
ATOM     21  H8  UNL     1      -0.700   0.186  -1.500  1.00  0.00     0.167 HD
BRANCH  20  22
HETATM   22  C8  UNL     1      -2.771   0.283  -1.042  1.00  0.00     0.036 A 
HETATM   23  C9  UNL     1      -3.328   1.529  -1.254  1.00  0.00     0.046 A 
HETATM   24  C10 UNL     1      -4.682   1.651  -1.544  1.00  0.00     0.090 A 
HETATM   25  N9  UNL     1      -5.466   0.586  -1.622  1.00  0.00    -0.375 N 
HETATM   26  C11 UNL     1      -4.950  -0.639  -1.420  1.00  0.00     0.090 A 
ATOM     27  H9  UNL     1      -6.458   0.695  -1.835  1.00  0.00     0.164 HD
HETATM   28  C12 UNL     1      -3.612  -0.799  -1.131  1.00  0.00     0.046 A 
ENDBRANCH  20  22
ENDBRANCH  18  20
ENDBRANCH   8  12
TORSDOF 4
