REMARK  2 active torsions:
REMARK  status: ('A' for Active; 'I' for Inactive)
REMARK    1  A    between atoms: C2_2  and  N1_3 
REMARK    2  A    between atoms: C13_22  and  C14_23 
ROOT
HETATM    1  N1  UNL     1      -2.419  -0.481  -0.394  1.00  0.00     0.099 N 
HETATM    2  C3  UNL     1      -1.738  -1.673   0.064  1.00  0.00     0.300 C 
HETATM    3  C4  UNL     1      -0.319  -1.790  -0.350  1.00  0.00     0.262 C 
HETATM    4  N2  UNL     1       0.474  -2.511   0.654  1.00  0.00    -0.072 N 
ATOM      5  H21 UNL     1      -0.088  -3.204   1.149  1.00  0.00     0.277 HD
ATOM      6  H22 UNL     1       0.714  -1.911   1.443  1.00  0.00     0.277 HD
HETATM    7  C5  UNL     1       1.648  -3.105   0.065  1.00  0.00     0.259 C 
HETATM    8  C6  UNL     1       2.892  -2.239   0.297  1.00  0.00     0.259 C 
HETATM    9  N3  UNL     1       3.024  -1.236  -0.713  1.00  0.00    -0.072 N 
ATOM     10  H31 UNL     1       2.111  -0.999  -1.102  1.00  0.00     0.277 HD
ATOM     11  H32 UNL     1       3.472  -1.623  -1.544  1.00  0.00     0.277 HD
HETATM   12  C7  UNL     1       3.710  -0.047  -0.279  1.00  0.00     0.251 C 
HETATM   13  C8  UNL     1       2.868   0.801   0.663  1.00  0.00     0.146 C 
HETATM   14  N4  UNL     1       3.080   2.188   0.512  1.00  0.00    -0.401 N 
ATOM     15  H4  UNL     1       3.751   2.673   1.107  1.00  0.00     0.158 HD
HETATM   16  C9  UNL     1       2.361   2.894  -0.462  1.00  0.00     0.055 C 
HETATM   17  C10 UNL     1       1.185   2.238  -1.086  1.00  0.00     0.044 C 
HETATM   18  C11 UNL     1      -0.097   2.429  -0.270  1.00  0.00     0.007 C 
HETATM   19  C12 UNL     1      -1.155   1.566  -0.928  1.00  0.00     0.041 C 
HETATM   20  C13 UNL     1      -1.877   0.725   0.137  1.00  0.00     0.260 C 
ENDROOT
BRANCH  20  21
HETATM   21  C14 UNL     1      -2.941   1.621   0.669  1.00  0.00     0.088 C 
HETATM   22  N5  UNL     1      -3.156   1.816   1.896  1.00  0.00    -0.409 N 
ATOM     23  H52 UNL     1      -2.553   1.321   2.553  1.00  0.00     0.155 HD
ATOM     24  H51 UNL     1      -3.885   2.430   2.260  1.00  0.00     0.155 HD
ENDBRANCH  20  21
BRANCH   1  25
HETATM   25  C2  UNL     1      -3.807  -0.627   0.002  1.00  0.00     0.269 C 
HETATM   26  C1  UNL     1      -4.468  -1.766  -0.794  1.00  0.00     0.037 C 
ENDBRANCH   1  25
TORSDOF 2
