REMARK  5 active torsions:
REMARK  status: ('A' for Active; 'I' for Inactive)
REMARK    1  A    between atoms: C3_3  and  N1_4 
REMARK    2  A    between atoms: N1_4  and  C4_6 
REMARK    3  A    between atoms: C4_6  and  C5_7 
REMARK    4  A    between atoms: C12_16  and  N3_17 
REMARK    5  A    between atoms: N4_20  and  N5_21 
ROOT
HETATM    1  C1  UNL     1      -1.982   1.686  -1.317  1.00  0.00     0.030 C 
HETATM    2  C2  UNL     1      -2.003   0.587  -0.624  1.00  0.00     0.029 A 
HETATM    3  C3  UNL     1      -0.937  -0.299  -0.872  1.00  0.00     0.129 A 
HETATM    4  N2  UNL     1      -0.897  -1.454  -0.190  1.00  0.00    -0.175 N 
ATOM      5  H2  UNL     1      -0.132  -2.108  -0.356  1.00  0.00     0.186 HD
HETATM    6  C12 UNL     1      -1.846  -1.764   0.707  1.00  0.00     0.698 A 
HETATM    7  N4  UNL     1      -2.839  -0.911   0.921  1.00  0.00    -0.092 N 
HETATM    8  C13 UNL     1      -2.974   0.306   0.271  1.00  0.00     0.097 A 
HETATM    9  C14 UNL     1      -3.993   1.009   0.597  1.00  0.00     0.126 C 
HETATM   10  C15 UNL     1      -4.480   2.261   0.188  1.00  0.00     0.090 C 
HETATM   11  N6  UNL     1      -4.923   3.299  -0.121  1.00  0.00    -0.192 NA
ENDROOT
BRANCH   7  12
HETATM   12  N5  UNL     1      -3.804  -1.290   1.872  1.00  0.00    -0.324 N 
ATOM     13  H52 UNL     1      -3.705  -2.185   2.350  1.00  0.00     0.178 HD
ATOM     14  H51 UNL     1      -4.568  -0.634   2.037  1.00  0.00     0.178 HD
ENDBRANCH   7  12
BRANCH   3  15
HETATM   15  N1  UNL     1      -0.046  -0.004  -1.717  1.00  0.00    -0.371 N 
ATOM     16  H1  UNL     1      -0.151   0.893  -2.191  1.00  0.00     0.161 HD
BRANCH  15  17
HETATM   17  C4  UNL     1       1.086  -0.782  -2.081  1.00  0.00     0.160 C 
BRANCH  17  18
HETATM   18  C5  UNL     1       2.234  -0.402  -1.212  1.00  0.00    -0.040 A 
HETATM   19  C6  UNL     1       3.436  -1.064  -1.424  1.00  0.00     0.009 A 
HETATM   20  C7  UNL     1       4.561  -0.786  -0.673  1.00  0.00     0.001 A 
HETATM   21  C8  UNL     1       4.468   0.185   0.317  1.00  0.00     0.007 A 
HETATM   22  C9  UNL     1       3.258   0.833   0.511  1.00  0.00    -0.061 A 
HETATM   23  C10 UNL     1       3.187   1.877   1.586  1.00  0.00     0.048 C 
HETATM   24  C11 UNL     1       2.145   0.552  -0.239  1.00  0.00     0.015 A 
ENDBRANCH  17  18
ENDBRANCH  15  17
ENDBRANCH   3  15
BRANCH   6  25
HETATM   25  N3  UNL     1      -1.754  -2.899   1.338  1.00  0.00    -0.233 N 
ATOM     26  H32 UNL     1      -0.990  -3.555   1.173  1.00  0.00     0.174 HD
ATOM     27  H31 UNL     1      -2.475  -3.135   2.020  1.00  0.00     0.174 HD
ENDBRANCH   6  25
TORSDOF 5
