REMARK  3 active torsions:
REMARK  status: ('A' for Active; 'I' for Inactive)
REMARK    1  A    between atoms: C2_2  and  N1_4 
REMARK    2  A    between atoms: C4_5  and  N2_6 
REMARK    3  A    between atoms: C6_12  and  N4_13 
ROOT
HETATM    1  N1  UNL     1       2.231   0.328  -0.251  1.00  0.00    -0.162 N 
HETATM    2  C4  UNL     1       1.745   1.498  -0.682  1.00  0.00     0.680 A 
HETATM    3  N3  UNL     1       0.401   1.399  -0.574  1.00  0.00    -0.184 N 
ATOM      4  H3  UNL     1      -0.255   2.137  -0.827  1.00  0.00     0.184 HD
HETATM    5  C5  UNL     1       0.045   0.195  -0.087  1.00  0.00     0.139 A 
HETATM    6  C6  UNL     1      -1.131  -0.442   0.219  1.00  0.00     0.150 A 
HETATM    7  N5  UNL     1      -1.164  -1.717   0.715  1.00  0.00    -0.175 N 
ATOM      8  H5  UNL     1      -2.047  -2.177   0.937  1.00  0.00     0.186 HD
HETATM    9  C11 UNL     1       0.010  -2.338   0.897  1.00  0.00     0.679 A 
HETATM   10  N6  UNL     1       0.031  -3.557   1.369  1.00  0.00    -0.234 N 
ATOM     11  H61 UNL     1       0.924  -4.030   1.507  1.00  0.00     0.174 HD
ATOM     12  H62 UNL     1      -0.857  -4.009   1.588  1.00  0.00     0.174 HD
HETATM   13  N7  UNL     1       1.176  -1.745   0.609  1.00  0.00    -0.174 N 
ATOM     14  H7  UNL     1       2.048  -2.251   0.762  1.00  0.00     0.186 HD
HETATM   15  C12 UNL     1       1.214  -0.497   0.123  1.00  0.00     0.170 A 
ENDROOT
BRANCH   6  16
HETATM   16  N4  UNL     1      -2.358   0.222   0.027  1.00  0.00    -0.365 N 
HETATM   17  C7  UNL     1      -3.093   0.290  -1.221  1.00  0.00     0.124 C 
HETATM   18  C8  UNL     1      -4.562   0.184  -0.779  1.00  0.00     0.021 C 
HETATM   19  C9  UNL     1      -4.520   0.228   0.739  1.00  0.00     0.021 C 
HETATM   20  C10 UNL     1      -3.194   0.967   0.968  1.00  0.00     0.124 C 
ENDBRANCH   6  16
BRANCH   2  21
HETATM   21  N2  UNL     1       2.428   2.521  -1.114  1.00  0.00    -0.234 N 
ATOM     22  H22 UNL     1       3.442   2.596  -1.195  1.00  0.00     0.174 HD
ATOM     23  H21 UNL     1       2.058   3.413  -1.443  1.00  0.00     0.174 HD
ENDBRANCH   2  21
BRANCH   1  24
HETATM   24  C2  UNL     1       3.604  -0.087  -0.165  1.00  0.00     0.101 C 
HETATM   25  C1  UNL     1       4.590   1.037  -0.087  1.00  0.00     0.033 C 
HETATM   26  C3  UNL     1       3.867  -1.035  -1.316  1.00  0.00     0.033 C 
ENDBRANCH   1  24
TORSDOF 3
