REMARK  2 active torsions:
REMARK  status: ('A' for Active; 'I' for Inactive)
REMARK    1  A    between atoms: O1_2  and  C2_3 
REMARK    2  A    between atoms: C5_12  and  N4_13 
ROOT
HETATM    1  C2  UNL     1       3.292   0.849   0.218  1.00  0.00     0.226 A 
HETATM    2  N1  UNL     1       4.048  -0.249   0.311  1.00  0.00    -0.307 N 
ATOM      3  H1  UNL     1       5.065  -0.177   0.272  1.00  0.00     0.171 HD
HETATM    4  C3  UNL     1       3.455  -1.459   0.457  1.00  0.00     0.130 A 
HETATM    5  N2  UNL     1       4.181  -2.516   0.543  1.00  0.00    -0.384 N 
ATOM      6  H21 UNL     1       3.735  -3.427   0.653  1.00  0.00     0.157 HD
ATOM      7  H22 UNL     1       5.199  -2.463   0.507  1.00  0.00     0.157 HD
HETATM    8  C4  UNL     1       2.083  -1.530   0.505  1.00  0.00     0.133 A 
HETATM    9  N3  UNL     1       1.457  -2.791   0.659  1.00  0.00    -0.094 NA
HETATM   10  C5  UNL     1       1.306  -0.395   0.408  1.00  0.00     0.135 A 
HETATM   11  N5  UNL     1       1.939   0.781   0.265  1.00  0.00    -0.306 N 
ATOM     12  H5  UNL     1       1.392   1.638   0.190  1.00  0.00     0.171 HD
ENDROOT
BRANCH  10  13
HETATM   13  N4  UNL     1      -0.130  -0.441   0.449  1.00  0.00    -0.365 N 
HETATM   14  C6  UNL     1      -0.837  -0.264   1.682  1.00  0.00     0.125 C 
HETATM   15  C7  UNL     1      -2.269  -0.699   1.511  1.00  0.00     0.025 C 
HETATM   16  C8  UNL     1      -2.982  -0.068   0.359  1.00  0.00    -0.008 C 
HETATM   17  C9  UNL     1      -3.721   1.213   0.763  1.00  0.00     0.011 C 
HETATM   18  C10 UNL     1      -2.147   0.120  -0.863  1.00  0.00    -0.028 C 
HETATM   19  C11 UNL     1      -1.775   1.561  -1.134  1.00  0.00     0.016 C 
HETATM   20  C12 UNL     1      -2.885  -0.363  -2.116  1.00  0.00     0.016 C 
HETATM   21  C13 UNL     1      -0.868  -0.674  -0.778  1.00  0.00     0.133 C 
ENDBRANCH  10  13
BRANCH   1  22
HETATM   22  O1  UNL     1       3.852   2.102   0.069  1.00  0.00    -0.327 OA
HETATM   23  C1  UNL     1       5.226   2.372  -0.002  1.00  0.00     0.213 C 
ENDBRANCH   1  22
TORSDOF 2
