REMARK  3 active torsions:
REMARK  status: ('A' for Active; 'I' for Inactive)
REMARK    1  A    between atoms: N1_1  and  C1_4 
REMARK    2  A    between atoms: N5_16  and  C6_17 
REMARK    3  A    between atoms: C6_17  and  C7_18 
ROOT
HETATM    1  C1  UNL     1       3.900  -0.594   0.557  1.00  0.00     0.131 A 
HETATM    2  N2  UNL     1       3.909   0.611   1.121  1.00  0.00    -0.337 N 
ATOM      3  H2  UNL     1       4.723   0.882   1.673  1.00  0.00     0.168 HD
HETATM    4  C2  UNL     1       2.900   1.489   1.000  1.00  0.00     0.183 A 
HETATM    5  N3  UNL     1       1.832   1.120   0.270  1.00  0.00    -0.336 N 
ATOM      6  H3  UNL     1       1.057   1.775   0.169  1.00  0.00     0.168 HD
HETATM    7  C3  UNL     1       1.746  -0.083  -0.334  1.00  0.00     0.145 A 
HETATM    8  C4  UNL     1       2.799  -0.962  -0.190  1.00  0.00     0.123 A 
HETATM    9  N4  UNL     1       2.461  -2.070  -0.882  1.00  0.00    -0.327 N 
ATOM     10  H4  UNL     1       3.039  -2.906  -0.967  1.00  0.00     0.168 HD
HETATM   11  C5  UNL     1       1.252  -1.910  -1.441  1.00  0.00     0.184 A 
HETATM   12  S1  UNL     1       0.418  -2.940  -2.356  1.00  0.00    -0.040 SA
HETATM   13  N5  UNL     1       0.803  -0.686  -1.108  1.00  0.00    -0.284 N 
ENDROOT
BRANCH  13  14
HETATM   14  C6  UNL     1      -0.408  -0.058  -1.451  1.00  0.00     0.106 C 
BRANCH  14  15
HETATM   15  C7  UNL     1      -1.565  -0.255  -0.531  1.00  0.00     0.160 C 
HETATM   16  C8  UNL     1      -2.739   0.512  -1.110  1.00  0.00     0.037 C 
HETATM   17  C9  UNL     1      -3.375   1.421  -0.089  1.00  0.00     0.005 C 
HETATM   18  C10 UNL     1      -3.502   0.682   1.227  1.00  0.00     0.026 C 
HETATM   19  C11 UNL     1      -2.189   0.131   1.662  1.00  0.00     0.168 C 
HETATM   20  O1  UNL     1      -1.250   0.319   0.678  1.00  0.00    -0.381 OA
ENDBRANCH  14  15
ENDBRANCH  13  14
BRANCH   1  21
HETATM   21  N1  UNL     1       4.864  -1.447   0.667  1.00  0.00    -0.383 N 
ATOM     22  H12 UNL     1       5.678  -1.175   1.219  1.00  0.00     0.157 HD
ATOM     23  H11 UNL     1       4.857  -2.371   0.235  1.00  0.00     0.157 HD
ENDBRANCH   1  21
TORSDOF 3
