REMARK  6 active torsions:
REMARK  status: ('A' for Active; 'I' for Inactive)
REMARK    1  A    between atoms: C2_3  and  C3_4 
REMARK    2  A    between atoms: C8_9  and  N2_10 
REMARK    3  A    between atoms: C11_21  and  N6_22 
REMARK    4  A    between atoms: N6_22  and  C12_24 
REMARK    5  A    between atoms: C12_24  and  C13_25 
REMARK    6  A    between atoms: C13_25  and  N7_26 
ROOT
HETATM    1  C1  UNL     1       0.499   2.120   0.988  1.00  0.00     0.175 C 
HETATM    2  N1  UNL     1       0.314   0.795   0.537  1.00  0.00    -0.190 N 
HETATM    3  C2  UNL     1      -0.958   0.328   0.197  1.00  0.00     0.054 A 
HETATM    4  C7  UNL     1      -1.074  -1.047  -0.046  1.00  0.00     0.076 A 
HETATM    5  C8  UNL     1      -2.234  -1.695  -0.317  1.00  0.00     0.115 A 
HETATM    6  N3  UNL     1      -2.286  -3.061  -0.507  1.00  0.00    -0.338 N 
ATOM      7  H3  UNL     1      -3.174  -3.519  -0.713  1.00  0.00     0.168 HD
HETATM    8  C9  UNL     1      -1.173  -3.771  -0.419  1.00  0.00     0.183 A 
HETATM    9  N4  UNL     1      -0.018  -3.166  -0.144  1.00  0.00    -0.337 N 
ATOM     10  H4  UNL     1       0.823  -3.740  -0.079  1.00  0.00     0.168 HD
HETATM   11  C10 UNL     1       0.100  -1.840   0.053  1.00  0.00     0.138 A 
HETATM   12  N5  UNL     1       1.303  -1.342   0.370  1.00  0.00    -0.175 N 
ATOM     13  H5  UNL     1       2.129  -1.937   0.429  1.00  0.00     0.186 HD
HETATM   14  C11 UNL     1       1.367  -0.045   0.602  1.00  0.00     0.681 A 
ENDROOT
BRANCH  14  15
HETATM   15  N6  UNL     1       2.518   0.489   0.908  1.00  0.00    -0.224 N 
ATOM     16  H6  UNL     1       2.555   1.494   1.077  1.00  0.00     0.177 HD
BRANCH  15  17
HETATM   17  C12 UNL     1       3.728  -0.261   1.018  1.00  0.00     0.165 C 
BRANCH  17  18
HETATM   18  C13 UNL     1       4.403  -0.514  -0.317  1.00  0.00     0.249 C 
BRANCH  18  19
HETATM   19  N7  UNL     1       5.610  -1.285  -0.031  1.00  0.00    -0.078 N 
ATOM     20  H73 UNL     1       6.222  -0.839   0.653  1.00  0.00     0.274 HD
ATOM     21  H72 UNL     1       5.429  -2.138   0.498  1.00  0.00     0.274 HD
ATOM     22  H71 UNL     1       6.064  -1.455  -0.929  1.00  0.00     0.274 HD
ENDBRANCH  18  19
ENDBRANCH  17  18
ENDBRANCH  15  17
ENDBRANCH  14  15
BRANCH   3  23
HETATM   23  C3  UNL     1      -2.008   1.237  -0.053  1.00  0.00    -0.007 C 
HETATM   24  C4  UNL     1      -2.313   1.085  -1.529  1.00  0.00     0.021 C 
HETATM   25  C5  UNL     1      -1.617   2.740  -0.242  1.00  0.00     0.021 C 
HETATM   26  C6  UNL     1      -3.330   1.335   0.605  1.00  0.00     0.021 C 
ENDBRANCH   3  23
BRANCH   5  27
HETATM   27  N2  UNL     1      -3.352  -1.120  -0.301  1.00  0.00    -0.385 N 
ATOM     28  H22 UNL     1      -3.314  -0.110  -0.161  1.00  0.00     0.157 HD
ATOM     29  H21 UNL     1      -4.225  -1.607  -0.505  1.00  0.00     0.157 HD
ENDBRANCH   5  27
TORSDOF 6
