REMARK  9 active torsions:
REMARK  status: ('A' for Active; 'I' for Inactive)
REMARK    1  A    between atoms: C2_2  and  C3_4 
REMARK    2  A    between atoms: C3_4  and  C14_15 
REMARK    3  A    between atoms: C4_5  and  C5_6 
REMARK    4  A    between atoms: C6_7  and  C8_9 
REMARK    5  A    between atoms: C8_9  and  C9_10 
REMARK    6  A    between atoms: C9_10  and  C10_11 
REMARK    7  A    between atoms: C15_16  and  O2_17 
REMARK    8  A    between atoms: C16_19  and  O3_20 
REMARK    9  A    between atoms: N1_22  and  C17_23 
ROOT
HETATM    1  C14 UNL     1      -0.572   1.188  -0.117  1.00  0.00     0.038 A 
HETATM    2  C15 UNL     1      -1.076   1.738   1.042  1.00  0.00     0.130 A 
HETATM    3  C16 UNL     1      -2.377   1.282   1.163  1.00  0.00     0.180 A 
HETATM    4  N1  UNL     1      -2.661   0.466   0.094  1.00  0.00    -0.295 N 
HETATM    5  C26 UNL     1      -1.545   0.412  -0.684  1.00  0.00     0.027 A 
HETATM    6  C27 UNL     1      -1.464  -0.454  -1.854  1.00  0.00     0.069 C 
ENDROOT
BRANCH   1   7
HETATM    7  C3  UNL     1       0.842   1.295  -0.587  1.00  0.00     0.024 C 
HETATM    8  C4  UNL     1       1.801   1.130   0.266  1.00  0.00     0.016 C 
BRANCH   7   9
HETATM    9  C2  UNL     1       1.106   1.693  -1.948  1.00  0.00     0.156 C 
HETATM   10  C1  UNL     1       2.364   1.893  -2.648  1.00  0.00     0.097 C 
HETATM   11  O1  UNL     1       0.061   1.913  -2.688  1.00  0.00    -0.293 OA
ENDBRANCH   7   9
BRANCH   8  12
HETATM   12  C5  UNL     1       3.216   1.253   0.220  1.00  0.00     0.003 C 
HETATM   13  C6  UNL     1       3.963   0.996   1.338  1.00  0.00    -0.084 C 
HETATM   14  C7  UNL     1       3.250   0.591   2.576  1.00  0.00     0.043 C 
BRANCH  13  15
HETATM   15  C8  UNL     1       5.415   1.114   1.319  1.00  0.00     0.037 C 
BRANCH  15  16
HETATM   16  C9  UNL     1       6.128  -0.175   1.654  1.00  0.00     0.031 C 
BRANCH  16  17
HETATM   17  C10 UNL     1       5.715  -1.199   0.624  1.00  0.00    -0.024 C 
HETATM   18  C11 UNL     1       6.613  -1.771  -0.151  1.00  0.00    -0.091 C 
HETATM   19  C12 UNL     1       8.039  -1.404  -0.006  1.00  0.00     0.042 C 
HETATM   20  C13 UNL     1       6.211  -2.769  -1.155  1.00  0.00     0.042 C 
ENDBRANCH  16  17
ENDBRANCH  15  16
ENDBRANCH  13  15
ENDBRANCH   8  12
ENDBRANCH   1   7
BRANCH   2  21
HETATM   21  O2  UNL     1      -0.396   2.579   1.893  1.00  0.00    -0.356 OA
ATOM     22  H2  UNL     1      -0.743   2.958   2.692  1.00  0.00     0.218 HD
ENDBRANCH   2  21
BRANCH   3  23
HETATM   23  O3  UNL     1      -3.184   1.642   2.223  1.00  0.00    -0.344 OA
ATOM     24  H3  UNL     1      -4.077   1.329   2.306  1.00  0.00     0.219 HD
ENDBRANCH   3  23
BRANCH   4  25
HETATM   25  C17 UNL     1      -3.958  -0.096  -0.020  1.00  0.00     0.143 C 
HETATM   26  C18 UNL     1      -4.850   1.066  -0.523  1.00  0.00     0.066 C 
HETATM   27  C19 UNL     1      -6.298   0.738  -0.508  1.00  0.00    -0.007 C 
HETATM   28  C20 UNL     1      -6.522  -0.458  -1.432  1.00  0.00     0.009 C 
HETATM   29  C24 UNL     1      -6.699   0.389   0.903  1.00  0.00     0.037 C 
HETATM   30  C21 UNL     1      -5.702  -1.573  -0.863  1.00  0.00    -0.007 C 
HETATM   31  C22 UNL     1      -6.027  -1.920   0.554  1.00  0.00     0.037 C 
HETATM   32  C25 UNL     1      -4.197  -1.223  -0.917  1.00  0.00     0.066 C 
HETATM   33  C23 UNL     1      -5.741  -0.673   1.376  1.00  0.00     0.125 C 
HETATM   34  O4  UNL     1      -4.425  -0.340   1.288  1.00  0.00    -0.355 OA
ENDBRANCH   4  25
TORSDOF 9
