REMARK  3 active torsions:
REMARK  status: ('A' for Active; 'I' for Inactive)
REMARK    1  A    between atoms: C5_10  and  N2_11 
REMARK       I    between atoms: N2_11  and  C6_13 
REMARK    2  A    between atoms: C6_13  and  C7_15 
REMARK    3  A    between atoms: C12_21  and  N3_22 
ROOT
HETATM    1  C1  UNL     1      -5.205  -0.383   1.730  1.00  0.00     0.145 C 
HETATM    2  N1  UNL     1      -3.915  -0.867   1.348  1.00  0.00    -0.398 N 
ATOM      3  H1  UNL     1      -3.567  -1.719   1.788  1.00  0.00     0.158 HD
HETATM    4  C2  UNL     1      -3.165  -0.275   0.469  1.00  0.00     0.027 C 
HETATM    5  C3  UNL     1      -3.723   0.957  -0.136  1.00  0.00     0.194 C 
HETATM    6  S1  UNL     1      -2.397   2.065  -0.613  1.00  0.00     0.151 S 
HETATM    7  O1  UNL     1      -2.111   1.940  -2.086  1.00  0.00    -0.227 OA
HETATM    8  O2  UNL     1      -2.651   3.459  -0.191  1.00  0.00    -0.227 OA
HETATM    9  C4  UNL     1      -0.963   1.462   0.292  1.00  0.00     0.168 C 
HETATM   10  C5  UNL     1      -0.768   0.029  -0.226  1.00  0.00     0.133 C 
HETATM   11  C12 UNL     1      -1.870  -0.884   0.171  1.00  0.00     0.225 C 
ENDROOT
BRANCH  10  12
HETATM   12  N2  UNL     1       0.527  -0.380   0.279  1.00  0.00    -0.353 N 
HETATM   13  C6  UNL     1       1.661  -0.599  -0.521  1.00  0.00     0.222 C 
HETATM   14  O3  UNL     1       1.596  -0.443  -1.756  1.00  0.00    -0.273 OA
ATOM     15  H2  UNL     1       0.622  -0.519   1.285  1.00  0.00     0.163 HD
BRANCH  13  16
HETATM   16  C7  UNL     1       2.933  -1.015   0.096  1.00  0.00     0.079 C 
HETATM   17  C8  UNL     1       3.391   0.043   1.090  1.00  0.00     0.015 C 
HETATM   18  C9  UNL     1       4.245   1.003   0.309  1.00  0.00     0.021 C 
HETATM   19  C10 UNL     1       4.925   0.118  -0.700  1.00  0.00     0.083 C 
HETATM   20 CL1  UNL     1       6.548  -0.285  -0.090  1.00  0.00    -0.125 Cl
HETATM   21  C11 UNL     1       4.065  -1.095  -0.878  1.00  0.00     0.034 C 
ENDBRANCH  13  16
ENDBRANCH  10  12
BRANCH  11  22
HETATM   22  N3  UNL     1      -1.998  -1.981  -0.801  1.00  0.00    -0.143 N 
HETATM   23  O4  UNL     1      -1.427  -1.979  -1.904  1.00  0.00    -0.536 OA
HETATM   24  O5  UNL     1      -2.783  -3.084  -0.511  1.00  0.00    -0.536 OA
ENDBRANCH  11  22
TORSDOF 3
