REMARK  4 active torsions:
REMARK  status: ('A' for Active; 'I' for Inactive)
REMARK    1  A    between atoms: C2_2  and  C3_3 
REMARK    2  A    between atoms: C4_5  and  C5_6 
REMARK    3  A    between atoms: C5_6  and  O2_7 
REMARK    4  A    between atoms: C12_18  and  C13_19 
ROOT
HETATM    1  C3  UNL     1      -1.997  -1.018   0.279  1.00  0.00     0.173 C 
HETATM    2  O1  UNL     1      -2.240   0.349  -0.003  1.00  0.00    -0.369 OA
HETATM    3  C4  UNL     1      -1.118   1.186   0.151  1.00  0.00     0.181 C 
HETATM    4  C6  UNL     1      -0.409   1.083   1.433  1.00  0.00     0.213 C 
HETATM    5  O3  UNL     1      -0.915  -0.127   1.985  1.00  0.00    -0.368 OA
HETATM    6  C7  UNL     1      -0.689  -1.022   0.910  1.00  0.00     0.158 C 
HETATM    7  C8  UNL     1       0.080  -2.100   1.483  1.00  0.00     0.075 C 
HETATM    8  C9  UNL     1       1.482  -1.449   1.680  1.00  0.00     0.201 C 
HETATM    9  O4  UNL     1       1.442  -0.243   2.299  1.00  0.00    -0.336 OA
HETATM   10  C10 UNL     1       1.049   0.879   1.542  1.00  0.00     0.125 C 
HETATM   11  C11 UNL     1       1.888   1.107   0.353  1.00  0.00     0.193 C 
HETATM   12  O5  UNL     1       1.788   2.144  -0.237  1.00  0.00    -0.290 OA
HETATM   13  C12 UNL     1       2.809  -0.004  -0.017  1.00  0.00     0.144 C 
HETATM   14  C14 UNL     1       2.133  -1.271   0.353  1.00  0.00     0.168 C 
HETATM   15  O6  UNL     1       2.119  -2.173  -0.457  1.00  0.00    -0.294 OA
ENDROOT
BRANCH   3  16
HETATM   16  C5  UNL     1      -1.717   2.604   0.051  1.00  0.00     0.199 C 
BRANCH  16  17
HETATM   17  O2  UNL     1      -2.313   2.710  -1.188  1.00  0.00    -0.398 OA
ATOM     18  H2  UNL     1      -2.682   3.583  -1.250  1.00  0.00     0.209 HD
ENDBRANCH  16  17
ENDBRANCH   3  16
BRANCH   1  19
HETATM   19  C2  UNL     1      -2.135  -1.749  -0.985  1.00  0.00    -0.003 C 
HETATM   20  C1  UNL     1      -3.128  -1.411  -1.804  1.00  0.00     0.009 C 
ENDBRANCH   1  19
BRANCH  13  21
HETATM   21  C13 UNL     1       3.194   0.014  -1.463  1.00  0.00     0.105 C 
HETATM   22 BR1  UNL     1       4.086   1.651  -1.918  1.00  0.00    -0.095 Br
ENDBRANCH  13  21
TORSDOF 4
