REMARK  6 active torsions:
REMARK  status: ('A' for Active; 'I' for Inactive)
REMARK    1  A    between atoms: N1_2  and  S1_4 
REMARK    2  A    between atoms: S1_4  and  N2_7 
REMARK    3  A    between atoms: C8_14  and  C9_15 
REMARK    4  A    between atoms: C9_15  and  O4_16 
REMARK    5  A    between atoms: C10_18  and  O5_19 
REMARK    6  A    between atoms: O5_19  and  C11_20 
ROOT
HETATM    1  N2  UNL     1      -0.725   0.248  -0.007  1.00  0.00    -0.262 N 
HETATM    2  C3  UNL     1      -0.080  -0.733  -0.777  1.00  0.00     0.106 C 
HETATM    3  C4  UNL     1       0.025  -2.076  -0.097  1.00  0.00     0.053 C 
HETATM    4  C5  UNL     1      -0.306  -2.073   1.335  1.00  0.00    -0.024 C 
HETATM    5  C6  UNL     1      -0.485  -0.955   2.004  1.00  0.00     0.023 C 
HETATM    6  C7  UNL     1      -0.363   0.397   1.349  1.00  0.00     0.259 C 
HETATM    7  O3  UNL     1       0.853   0.990   1.550  1.00  0.00    -0.353 OA
HETATM    8  C8  UNL     1       1.928   0.393   0.944  1.00  0.00     0.177 C 
HETATM    9  C10 UNL     1       2.058   0.606  -0.513  1.00  0.00     0.166 C 
HETATM   10  C12 UNL     1       1.238  -0.303  -1.371  1.00  0.00     0.061 C 
ENDROOT
BRANCH   1  11
HETATM   11  S1  UNL     1      -2.082   1.027  -0.583  1.00  0.00     0.302 S 
HETATM   12  O1  UNL     1      -1.719   1.714  -1.909  1.00  0.00    -0.188 OA
HETATM   13  O2  UNL     1      -2.399   2.216   0.333  1.00  0.00    -0.188 OA
BRANCH  11  14
HETATM   14  N1  UNL     1      -3.466   0.128  -0.916  1.00  0.00    -0.202 NA
HETATM   15  C1  UNL     1      -4.297   0.022   0.255  1.00  0.00     0.130 C 
HETATM   16  C2  UNL     1      -3.362  -1.082  -1.612  1.00  0.00     0.130 C 
ENDBRANCH  11  14
ENDBRANCH   1  11
BRANCH   9  17
HETATM   17  O5  UNL     1       3.416   0.508  -0.895  1.00  0.00    -0.300 OA
BRANCH  17  18
HETATM   18  C11 UNL     1       4.078   1.564  -1.497  1.00  0.00     0.358 C 
HETATM   19  O6  UNL     1       3.517   2.649  -1.738  1.00  0.00    -0.245 OA
HETATM   20 CL1  UNL     1       5.778   1.286  -1.910  1.00  0.00    -0.012 Cl
ENDBRANCH  17  18
ENDBRANCH   9  17
BRANCH   8  21
HETATM   21  C9  UNL     1       3.163   0.928   1.642  1.00  0.00     0.198 C 
BRANCH  21  22
HETATM   22  O4  UNL     1       3.304   2.289   1.586  1.00  0.00    -0.398 OA
ATOM     23  H4  UNL     1       4.078   2.624   2.023  1.00  0.00     0.209 HD
ENDBRANCH  21  22
ENDBRANCH   8  21
TORSDOF 6
