REMARK  2 active torsions:
REMARK  status: ('A' for Active; 'I' for Inactive)
REMARK    1  A    between atoms: C6_6  and  C8_8 
REMARK       I    between atoms: C8_8  and  N1_10 
REMARK    2  A    between atoms: N1_10  and  C9_12 
ROOT
HETATM    1  C8  UNL     1       1.012   1.321   0.053  1.00  0.00     0.231 C 
HETATM    2  O1  UNL     1       1.040   2.340   0.736  1.00  0.00    -0.272 OA
HETATM    3  N1  UNL     1      -0.139   0.642  -0.335  1.00  0.00    -0.324 N 
ATOM      4  H1  UNL     1      -0.016  -0.195  -0.905  1.00  0.00     0.169 HD
ENDROOT
BRANCH   3   5
HETATM    5  C9  UNL     1      -1.499   1.022   0.001  1.00  0.00     0.069 A 
HETATM    6  C10 UNL     1      -1.719   2.126   0.774  1.00  0.00     0.082 A 
HETATM    7  S1  UNL     1      -3.441   2.171   0.904  1.00  0.00    -0.102 SA
HETATM    8  C11 UNL     1      -3.803   0.799  -0.019  1.00  0.00     0.011 A 
HETATM    9  C12 UNL     1      -2.583   0.335  -0.409  1.00  0.00     0.069 A 
HETATM   10  C16 UNL     1      -5.211   0.352  -0.247  1.00  0.00     0.048 C 
HETATM   11  N2  UNL     1      -2.488  -0.860  -1.237  1.00  0.00    -0.387 N 
HETATM   12  C13 UNL     1      -3.326  -2.035  -1.312  1.00  0.00     0.120 C 
ATOM     13  H2  UNL     1      -1.692  -0.869  -1.874  1.00  0.00     0.159 HD
HETATM   14  C14 UNL     1      -4.792  -1.756  -1.353  1.00  0.00     0.020 C 
HETATM   15  C15 UNL     1      -5.236  -1.148  -0.040  1.00  0.00     0.007 C 
ENDBRANCH   3   5
BRANCH   1  16
HETATM   16  C6  UNL     1       2.322   0.777  -0.391  1.00  0.00     0.042 C 
HETATM   17  C5  UNL     1       3.479   1.564   0.111  1.00  0.00     0.019 C 
HETATM   18  C4  UNL     1       4.537   0.898   0.884  1.00  0.00     0.002 C 
HETATM   19  C3  UNL     1       4.385  -0.562   1.213  1.00  0.00     0.010 C 
HETATM   20  C2  UNL     1       2.931  -0.839   1.243  1.00  0.00    -0.039 A 
HETATM   21  C1  UNL     1       2.274  -0.052   2.335  1.00  0.00     0.015 C 
HETATM   22  C17 UNL     1       2.569  -0.637  -0.250  1.00  0.00     0.012 A 
HETATM   23  C18 UNL     1       2.080  -1.711   0.519  1.00  0.00     0.016 A 
HETATM   24  C7  UNL     1       2.243   1.064  -1.918  1.00  0.00     0.026 C 
ENDBRANCH   1  16
TORSDOF 2
