REMARK  5 active torsions:
REMARK  status: ('A' for Active; 'I' for Inactive)
REMARK    1  A    between atoms: C2_2  and  C3_3 
REMARK    2  A    between atoms: C3_3  and  O1_4 
REMARK    3  A    between atoms: O1_4  and  C4_5 
REMARK    4  A    between atoms: C14_15  and  O2_16 
REMARK    5  A    between atoms: C19_22  and  O3_24 
ROOT
HETATM    1  C4  UNL     1       2.480  -0.588   0.366  1.00  0.00     0.156 C 
HETATM    2  C5  UNL     1       1.727  -0.408   1.698  1.00  0.00     0.036 C 
HETATM    3  C6  UNL     1       0.582   0.531   1.389  1.00  0.00     0.013 C 
HETATM    4  C7  UNL     1      -0.358  -0.168   0.450  1.00  0.00    -0.030 C 
HETATM    5  C8  UNL     1      -1.092  -1.225   1.232  1.00  0.00     0.016 C 
HETATM    6  C9  UNL     1      -1.429   0.802  -0.072  1.00  0.00     0.026 C 
HETATM    7  C10 UNL     1      -1.988   1.560   1.101  1.00  0.00     0.014 C 
HETATM    8  C11 UNL     1      -3.252   2.294   0.782  1.00  0.00     0.037 C 
HETATM    9  C12 UNL     1      -4.025   1.719  -0.327  1.00  0.00    -0.057 C 
HETATM   10  C13 UNL     1      -4.888   2.500  -0.966  1.00  0.00     0.017 C 
HETATM   11  C14 UNL     1      -3.892   0.307  -0.767  1.00  0.00     0.175 C 
HETATM   12  C15 UNL     1      -2.440  -0.029  -0.763  1.00  0.00    -0.046 C 
HETATM   13  C16 UNL     1      -2.054  -1.117  -1.407  1.00  0.00    -0.020 C 
HETATM   14  C17 UNL     1      -0.650  -1.591  -1.499  1.00  0.00     0.036 C 
HETATM   15  C18 UNL     1       0.321  -0.713  -0.786  1.00  0.00     0.034 C 
HETATM   16  C19 UNL     1       1.597  -1.452  -0.457  1.00  0.00     0.085 C 
HETATM   17  C20 UNL     1       2.267  -1.861  -1.740  1.00  0.00     0.049 C 
ENDROOT
BRANCH   1  18
HETATM   18  O1  UNL     1       3.752  -1.039   0.576  1.00  0.00    -0.379 OA
BRANCH  18  19
HETATM   19  C3  UNL     1       4.739  -0.128   0.319  1.00  0.00     0.195 C 
BRANCH  19  20
HETATM   20  C2  UNL     1       4.810   0.402  -1.047  1.00  0.00    -0.011 C 
HETATM   21  C1  UNL     1       4.679   1.692  -1.273  1.00  0.00     0.009 C 
ENDBRANCH  19  20
ENDBRANCH  18  19
ENDBRANCH   1  18
BRANCH  16  22
HETATM   22  O3  UNL     1       1.311  -2.660   0.219  1.00  0.00    -0.387 OA
ATOM     23  H3  UNL     1       0.746  -3.213  -0.308  1.00  0.00     0.210 HD
ENDBRANCH  16  22
BRANCH  11  24
HETATM   24  O2  UNL     1      -4.414   0.166  -2.032  1.00  0.00    -0.387 OA
ATOM     25  H2  UNL     1      -4.329  -0.737  -2.313  1.00  0.00     0.210 HD
ENDBRANCH  11  24
TORSDOF 5
