REMARK  2 active torsions:
REMARK  status: ('A' for Active; 'I' for Inactive)
REMARK    1  A    between atoms: C2_2  and  C3_3 
REMARK    2  A    between atoms: C3_3  and  O1_4 
ROOT
HETATM    1  C3  UNL     1       3.046   0.331  -1.569  1.00  0.00     0.114 C 
HETATM    2  C4  UNL     1       1.623   0.660  -0.959  1.00  0.00     0.020 C 
HETATM    3  C5  UNL     1       1.221   0.257   0.236  1.00  0.00    -0.075 C 
HETATM    4  C6  UNL     1       2.091  -0.544   1.240  1.00  0.00     0.037 C 
HETATM    5  C7  UNL     1       1.850  -2.022   1.040  1.00  0.00     0.037 C 
HETATM    6  C8  UNL     1       1.007  -2.066  -0.228  1.00  0.00     0.130 C 
HETATM    7  O2  UNL     1       1.569  -1.532  -1.295  1.00  0.00    -0.382 OA
HETATM    8  C9  UNL     1       2.918  -1.256  -1.436  1.00  0.00     0.214 C 
HETATM    9  C10 UNL     1      -0.325  -1.500   0.200  1.00  0.00     0.051 C 
HETATM   10  C11 UNL     1      -1.439  -1.698  -0.717  1.00  0.00    -0.082 C 
HETATM   11  C12 UNL     1      -1.267  -2.229  -1.917  1.00  0.00     0.015 C 
HETATM   12  C13 UNL     1      -2.881  -1.371  -0.461  1.00  0.00     0.034 C 
HETATM   13  C14 UNL     1      -3.046  -0.964   0.958  1.00  0.00     0.009 C 
HETATM   14  C15 UNL     1      -2.541   0.360   1.353  1.00  0.00    -0.005 C 
HETATM   15  C16 UNL     1      -3.514   1.489   1.112  1.00  0.00     0.005 C 
HETATM   16  C17 UNL     1      -3.110   2.037  -0.236  1.00  0.00     0.001 C 
HETATM   17  C18 UNL     1      -1.709   1.531  -0.511  1.00  0.00     0.010 C 
HETATM   18  C19 UNL     1      -1.269   0.840   0.710  1.00  0.00    -0.032 C 
HETATM   19  C20 UNL     1      -0.860   2.027   1.649  1.00  0.00     0.016 C 
HETATM   20  C21 UNL     1      -0.192  -0.068   0.765  1.00  0.00     0.033 C 
ENDROOT
BRANCH   1  21
HETATM   21  C2  UNL     1       4.074   0.868  -0.724  1.00  0.00     0.007 C 
HETATM   22  C1  UNL     1       4.181   2.140  -0.345  1.00  0.00     0.010 C 
ENDBRANCH   1  21
BRANCH   1  23
HETATM   23  O1  UNL     1       2.999   0.707  -2.870  1.00  0.00    -0.380 OA
ATOM     24  H1  UNL     1       2.318   0.351  -3.429  1.00  0.00     0.211 HD
ENDBRANCH   1  23
TORSDOF 2
