REMARK  16 active torsions:
REMARK  status: ('A' for Active; 'I' for Inactive)
REMARK    1  A    between atoms: C3_3  and  C4_4 
REMARK    2  A    between atoms: C3_3  and  C12_22 
REMARK    3  A    between atoms: C4_4  and  C5_5 
REMARK    4  A    between atoms: N2_7  and  C6_9 
REMARK    5  A    between atoms: C6_9  and  C7_10 
REMARK    6  A    between atoms: C7_10  and  N3_11 
REMARK    7  A    between atoms: N3_11  and  C8_14 
REMARK    8  A    between atoms: C8_14  and  C9_15 
REMARK    9  A    between atoms: C9_15  and  C10_16 
REMARK   10  A    between atoms: C10_16  and  N4_17 
REMARK   11  A    between atoms: C12_22  and  C13_23 
REMARK   12  A    between atoms: N7_27  and  C17_28 
REMARK   13  A    between atoms: C17_28  and  C18_29 
REMARK   14  A    between atoms: C18_29  and  C19_30 
REMARK   15  A    between atoms: C19_30  and  C20_31 
REMARK   16  A    between atoms: C20_31  and  O1_32 
ROOT
HETATM    1  C1  UNL     1      -1.453   2.714  -1.689  1.00  0.00     0.097 C 
HETATM    2  C2  UNL     1      -1.450   1.563  -1.266  1.00  0.00    -0.182 C 
HETATM    3  C3  UNL     1      -1.478   0.196  -0.756  1.00  0.00     0.060 C 
ENDROOT
BRANCH   3   4
HETATM    4  C4  UNL     1      -0.234  -0.181  -0.020  1.00  0.00     0.089 C 
BRANCH   4   5
HETATM    5  C5  UNL     1       0.926  -0.074  -0.942  1.00  0.00     0.090 C 
HETATM    6  N1  UNL     1       1.313   1.153  -1.548  1.00  0.00    -0.088 NA
HETATM    7  N2  UNL     1       1.645  -1.114  -1.236  1.00  0.00    -0.380 N 
ATOM      8  H2  UNL     1       1.409  -2.018  -0.827  1.00  0.00     0.160 HD
BRANCH   7   9
HETATM    9  C6  UNL     1       2.772  -1.015  -2.131  1.00  0.00     0.148 C 
BRANCH   9  10
HETATM   10  C7  UNL     1       3.958  -0.349  -1.518  1.00  0.00     0.251 C 
BRANCH  10  11
HETATM   11  N3  UNL     1       4.410  -1.078  -0.354  1.00  0.00    -0.074 N 
ATOM     12  H32 UNL     1       3.654  -1.205   0.319  1.00  0.00     0.277 HD
ATOM     13  H31 UNL     1       4.593  -2.056  -0.579  1.00  0.00     0.277 HD
BRANCH  11  14
HETATM   14  C8  UNL     1       5.563  -0.457   0.264  1.00  0.00     0.234 C 
BRANCH  14  15
HETATM   15  C9  UNL     1       6.792  -0.536  -0.577  1.00  0.00     0.047 C 
BRANCH  15  16
HETATM   16  C10 UNL     1       7.921   0.144   0.166  1.00  0.00     0.123 C 
BRANCH  16  17
HETATM   17  N4  UNL     1       8.153  -0.511   1.424  1.00  0.00    -0.367 N 
HETATM   18  C11 UNL     1       9.322  -0.433   1.975  1.00  0.00     0.196 C 
HETATM   19  N5  UNL     1       9.602  -1.063   3.219  1.00  0.00    -0.067 NA
HETATM   20  N6  UNL     1      10.366   0.283   1.354  1.00  0.00    -0.067 NA
ATOM     21  H4  UNL     1       7.404  -1.033   1.879  1.00  0.00     0.161 HD
ENDBRANCH  16  17
ENDBRANCH  15  16
ENDBRANCH  14  15
ENDBRANCH  11  14
ENDBRANCH  10  11
ENDBRANCH   9  10
ENDBRANCH   7   9
ENDBRANCH   4   5
ENDBRANCH   3   4
BRANCH   3  22
HETATM   22  C12 UNL     1      -2.731  -0.029   0.096  1.00  0.00     0.052 C 
BRANCH  22  23
HETATM   23  C13 UNL     1      -3.900   0.223  -0.777  1.00  0.00     0.224 C 
HETATM   24  C14 UNL     1      -3.861  -0.740  -1.945  1.00  0.00     0.037 C 
HETATM   25  C15 UNL     1      -5.313  -0.888  -2.342  1.00  0.00     0.032 C 
HETATM   26  C16 UNL     1      -6.088  -0.252  -1.220  1.00  0.00     0.273 C 
HETATM   27  N7  UNL     1      -5.192   0.092  -0.177  1.00  0.00     0.093 N 
BRANCH  27  28
HETATM   28  C17 UNL     1      -5.571   1.169   0.664  1.00  0.00     0.273 C 
BRANCH  28  29
HETATM   29  C18 UNL     1      -6.927   0.992   1.260  1.00  0.00     0.032 C 
BRANCH  29  30
HETATM   30  C19 UNL     1      -6.967  -0.284   2.099  1.00  0.00     0.028 C 
BRANCH  30  31
HETATM   31  C20 UNL     1      -8.333  -0.484   2.716  1.00  0.00     0.164 C 
BRANCH  31  32
HETATM   32  O1  UNL     1      -8.652   0.606   3.551  1.00  0.00    -0.401 OA
ATOM     33  H1  UNL     1      -9.510   0.480   3.939  1.00  0.00     0.209 HD
ENDBRANCH  31  32
ENDBRANCH  30  31
ENDBRANCH  29  30
ENDBRANCH  28  29
ENDBRANCH  27  28
ENDBRANCH  22  23
ENDBRANCH   3  22
TORSDOF 16
