REMARK  7 active torsions:
REMARK  status: ('A' for Active; 'I' for Inactive)
REMARK    1  A    between atoms: C4_4  and  C5_5 
REMARK    2  A    between atoms: C7_9  and  O1_10 
REMARK    3  A    between atoms: O1_10  and  C8_11 
REMARK    4  A    between atoms: C11_14  and  C12_15 
REMARK    5  A    between atoms: C12_15  and  N2_16 
REMARK    6  A    between atoms: N3_19  and  C15_20 
REMARK    7  A    between atoms: C15_20  and  C16_21 
REMARK       I    between atoms: N5_34  and  C27_36 
ROOT
HETATM    1  O1  UNL     1       1.912  -0.081   2.233  1.00  0.00    -0.294 OA
ENDROOT
BRANCH   1   2
HETATM    2  C7  UNL     1       3.093  -0.364   1.615  1.00  0.00     0.150 A 
HETATM    3  N1  UNL     1       3.265  -1.541   1.005  1.00  0.00    -0.346 N 
HETATM    4  C6  UNL     1       4.444  -1.776   0.411  1.00  0.00     0.104 A 
ATOM      5  H1  UNL     1       2.522  -2.239   0.992  1.00  0.00     0.167 HD
HETATM    6  C5  UNL     1       5.502  -0.903   0.375  1.00  0.00     0.018 A 
HETATM    7  C26 UNL     1       5.323   0.336   1.016  1.00  0.00     0.051 A 
HETATM    8  C25 UNL     1       4.118   0.590   1.630  1.00  0.00     0.086 A 
HETATM    9  N5  UNL     1       6.323   1.118   0.994  1.00  0.00    -0.330 N 
HETATM   10  C27 UNL     1       6.396   2.395   1.549  1.00  0.00     0.186 C 
ATOM     11  H5  UNL     1       7.160   0.777   0.521  1.00  0.00     0.168 HD
HETATM   12  N6  UNL     1       5.488   3.272   1.304  1.00  0.00    -0.373 N 
HETATM   13  N7  UNL     1       7.535   2.685   2.389  1.00  0.00    -0.064 NA
ATOM     14  H62 UNL     1       4.684   3.067   0.711  1.00  0.00     0.158 HD
ATOM     15  H61 UNL     1       5.541   4.206   1.710  1.00  0.00     0.158 HD
BRANCH   6  16
HETATM   16  C4  UNL     1       6.761  -1.212  -0.292  1.00  0.00    -0.005 A 
HETATM   17  C3  UNL     1       6.861  -1.776  -1.535  1.00  0.00     0.038 A 
HETATM   18  C2  UNL     1       8.199  -1.944  -1.883  1.00  0.00     0.005 A 
HETATM   19  C1  UNL     1       8.698  -2.527  -3.158  1.00  0.00     0.068 C 
HETATM   20  N8  UNL     1       8.904  -1.476  -0.839  1.00  0.00    -0.369 N 
HETATM   21  C28 UNL     1       8.060  -1.028   0.136  1.00  0.00     0.100 A 
ATOM     22  H8  UNL     1       9.922  -1.458  -0.783  1.00  0.00     0.165 HD
ENDBRANCH   6  16
ENDBRANCH   1   2
BRANCH   1  23
HETATM   23  C8  UNL     1       0.827   0.521   1.599  1.00  0.00     0.077 A 
HETATM   24  C9  UNL     1      -0.297   0.822   2.336  1.00  0.00     0.038 A 
HETATM   25  C10 UNL     1      -1.400   1.427   1.721  1.00  0.00     0.015 A 
HETATM   26  C11 UNL     1      -1.408   1.740   0.382  1.00  0.00    -0.021 A 
HETATM   27  C23 UNL     1      -0.261   1.424  -0.340  1.00  0.00     0.015 A 
HETATM   28  C24 UNL     1       0.828   0.827   0.264  1.00  0.00     0.038 A 
BRANCH  26  29
HETATM   29  C12 UNL     1      -2.554   2.385  -0.273  1.00  0.00     0.102 C 
BRANCH  29  30
HETATM   30  N2  UNL     1      -3.619   1.536  -0.612  1.00  0.00    -0.360 N 
HETATM   31  C13 UNL     1      -3.426   0.461  -1.476  1.00  0.00     0.108 C 
HETATM   32  C14 UNL     1      -4.144  -0.751  -0.989  1.00  0.00     0.107 C 
HETATM   33  N3  UNL     1      -5.426  -0.540  -0.487  1.00  0.00    -0.363 N 
HETATM   34  C21 UNL     1      -5.849   0.692   0.004  1.00  0.00     0.084 C 
HETATM   35  C22 UNL     1      -4.918   1.850  -0.162  1.00  0.00     0.172 C 
BRANCH  33  36
HETATM   36  C15 UNL     1      -6.361  -1.577  -0.700  1.00  0.00     0.166 C 
BRANCH  36  37
HETATM   37  C16 UNL     1      -7.704  -1.372  -0.169  1.00  0.00    -0.037 A 
HETATM   38  C17 UNL     1      -8.038  -1.667   1.134  1.00  0.00     0.026 A 
HETATM   39  C18 UNL     1      -9.327  -1.459   1.584  1.00  0.00     0.088 A 
HETATM   40  N4  UNL     1     -10.301  -0.965   0.775  1.00  0.00    -0.375 N 
HETATM   41  C19 UNL     1      -9.986  -0.679  -0.479  1.00  0.00     0.088 A 
ATOM     42  H4  UNL     1     -11.248  -0.819   1.124  1.00  0.00     0.164 HD
HETATM   43  C20 UNL     1      -8.694  -0.871  -0.983  1.00  0.00     0.026 A 
ENDBRANCH  36  37
ENDBRANCH  33  36
ENDBRANCH  29  30
ENDBRANCH  26  29
ENDBRANCH   1  23
TORSDOF 7
