REMARK  3 active torsions:
REMARK  status: ('A' for Active; 'I' for Inactive)
REMARK    1  A    between atoms: C3_3  and  O1_4 
REMARK    2  A    between atoms: O1_4  and  C4_5 
REMARK    3  A    between atoms: C4_5  and  C5_6 
ROOT
HETATM    1  C1  UNL     1      -0.741   4.909   1.282  1.00  0.00     0.014 C 
HETATM    2  C2  UNL     1      -0.771   4.319   0.230  1.00  0.00    -0.091 C 
HETATM    3  C3  UNL     1      -0.809   3.616  -1.059  1.00  0.00     0.260 C 
ENDROOT
BRANCH   3   4
HETATM    4  O1  UNL     1      -0.181   2.389  -0.938  1.00  0.00    -0.378 OA
BRANCH   4   5
HETATM    5  C4  UNL     1      -0.799   1.607   0.003  1.00  0.00     0.186 C 
BRANCH   5   6
HETATM    6  C5  UNL     1      -0.091   0.233   0.134  1.00  0.00     0.042 C 
HETATM    7  C6  UNL     1       1.329   0.498   0.550  1.00  0.00    -0.054 C 
HETATM    8  C7  UNL     1       1.815   1.069   1.647  1.00  0.00    -0.014 C 
HETATM    9  C10 UNL     1       2.511   0.116  -0.290  1.00  0.00     0.041 C 
HETATM   10  C8  UNL     1       3.337   1.110   1.578  1.00  0.00     0.107 C 
HETATM   11  C9  UNL     1       3.440   1.224   0.054  1.00  0.00     0.142 C 
HETATM   12  O2  UNL     1       4.080   1.984  -0.581  1.00  0.00    -0.296 OA
HETATM   13  C11 UNL     1       3.237  -1.121   0.217  1.00  0.00     0.028 C 
HETATM   14  C12 UNL     1       2.174  -0.095  -1.699  1.00  0.00     0.022 C 
HETATM   15  C13 UNL     1       1.023  -1.089  -1.747  1.00  0.00     0.010 C 
HETATM   16  C14 UNL     1      -0.194  -0.577  -1.107  1.00  0.00     0.038 C 
HETATM   17  C15 UNL     1      -1.325  -1.547  -0.942  1.00  0.00     0.076 C 
HETATM   18  C16 UNL     1      -1.714  -2.119  -2.309  1.00  0.00     0.047 C 
HETATM   19  O3  UNL     1      -2.419  -0.729  -0.549  1.00  0.00    -0.366 OA
HETATM   20  C20 UNL     1      -1.234  -2.645   0.020  1.00  0.00     0.123 C 
HETATM   21  C17 UNL     1      -2.244  -0.797   0.866  1.00  0.00     0.087 C 
HETATM   22  C18 UNL     1      -3.312  -0.030   1.563  1.00  0.00     0.049 C 
HETATM   23  C19 UNL     1      -2.421  -2.300   0.971  1.00  0.00     0.058 C 
HETATM   24  C22 UNL     1      -0.845  -0.410   1.279  1.00  0.00     0.181 C 
HETATM   25  O5  UNL     1      -0.059  -1.486   1.751  1.00  0.00    -0.311 OA
HETATM   26  C21 UNL     1      -0.117  -2.630   0.982  1.00  0.00     0.266 C 
HETATM   27  O4  UNL     1       0.686  -3.555   1.087  1.00  0.00    -0.265 OA
ENDBRANCH   5   6
ENDBRANCH   4   5
ENDBRANCH   3   4
TORSDOF 3
