REMARK  2 active torsions:
REMARK  status: ('A' for Active; 'I' for Inactive)
REMARK    1  A    between atoms: O1_2  and  C2_3 
REMARK    2  A    between atoms: C2_3  and  C3_4 
ROOT
HETATM    1  C3  UNL     1       3.272  -0.220  -0.434  1.00  0.00     0.146 C 
HETATM    2  C4  UNL     1       2.030   0.120  -1.176  1.00  0.00     0.047 C 
HETATM    3  C5  UNL     1       0.723  -0.337  -0.602  1.00  0.00     0.006 C 
HETATM    4  C6  UNL     1      -0.327   0.074  -1.620  1.00  0.00     0.013 C 
HETATM    5  C7  UNL     1      -1.198   1.179  -1.173  1.00  0.00     0.010 C 
HETATM    6  C8  UNL     1      -2.485   0.911  -0.528  1.00  0.00     0.042 C 
HETATM    7  C9  UNL     1      -2.496   1.685   0.783  1.00  0.00     0.011 C 
HETATM    8  C10 UNL     1      -1.653   0.956   1.726  1.00  0.00     0.029 C 
HETATM    9  C11 UNL     1      -0.875  -0.232   1.329  1.00  0.00     0.128 C 
HETATM   10  N1  UNL     1      -1.512  -1.137   0.316  1.00  0.00    -0.312 N 
HETATM   11  C12 UNL     1      -0.676  -2.242   0.021  1.00  0.00     0.223 C 
HETATM   12  O2  UNL     1      -0.763  -3.494   0.110  1.00  0.00    -0.273 OA
HETATM   13  C13 UNL     1       0.704  -1.873  -0.557  1.00  0.00     0.115 C 
HETATM   14  C14 UNL     1      -2.768  -0.518  -0.087  1.00  0.00     0.142 C 
HETATM   15  C15 UNL     1      -3.622  -1.103  -1.107  1.00  0.00     0.064 C 
HETATM   16  C16 UNL     1      -5.041  -0.736  -0.712  1.00  0.00     0.031 C 
HETATM   17  C17 UNL     1      -4.868  -0.494   0.761  1.00  0.00     0.171 C 
HETATM   18  O3  UNL     1      -3.551  -0.529   1.061  1.00  0.00    -0.360 OA
HETATM   19  C18 UNL     1       0.518   0.119   0.787  1.00  0.00     0.118 A 
HETATM   20  O4  UNL     1       1.575  -0.612   1.585  1.00  0.00    -0.364 OA
HETATM   21  C19 UNL     1       1.416   0.779   1.552  1.00  0.00     0.184 A 
HETATM   22  C20 UNL     1       2.610   1.491   1.007  1.00  0.00     0.203 C 
HETATM   23  O5  UNL     1       3.601   0.617   0.577  1.00  0.00    -0.381 OA
ENDROOT
BRANCH   1  24
HETATM   24  C2  UNL     1       4.390  -0.232  -1.448  1.00  0.00     0.199 C 
BRANCH  24  25
HETATM   25  O1  UNL     1       5.592  -0.696  -1.083  1.00  0.00    -0.393 OA
HETATM   26  C1  UNL     1       6.195  -0.035  -0.058  1.00  0.00     0.201 C 
ENDBRANCH  24  25
ENDBRANCH   1  24
TORSDOF 2
