REMARK  3 active torsions:
REMARK  status: ('A' for Active; 'I' for Inactive)
REMARK    1  A    between atoms: N1_1  and  N2_4 
REMARK    2  A    between atoms: N2_4  and  N3_6 
REMARK    3  A    between atoms: C1_8  and  C2_9 
REMARK       I    between atoms: C2_9  and  N4_11 
ROOT
HETATM    1  C2  UNL     1       3.613   0.522  -0.911  1.00  0.00     0.263 C 
HETATM    2  O1  UNL     1       3.243   1.377  -1.771  1.00  0.00    -0.267 OA
HETATM    3  N4  UNL     1       2.762  -0.507  -0.493  1.00  0.00    -0.319 N 
ATOM      4  H4  UNL     1       3.208  -1.347  -0.124  1.00  0.00     0.169 HD
HETATM    5  C3  UNL     1       1.484  -0.505  -0.525  1.00  0.00     0.065 C 
HETATM    6  S1  UNL     1       0.753   0.983  -1.179  1.00  0.00    -0.110 SA
HETATM    7  C4  UNL     1      -0.708   1.113  -0.073  1.00  0.00     0.058 C 
HETATM    8  C5  UNL     1      -1.525   2.307  -0.358  1.00  0.00     0.016 C 
HETATM    9  C6  UNL     1      -2.648   2.276   0.688  1.00  0.00     0.001 C 
HETATM   10  C7  UNL     1      -3.511   1.115   0.354  1.00  0.00     0.000 C 
HETATM   11  C8  UNL     1      -2.840  -0.191   0.219  1.00  0.00     0.006 C 
HETATM   12  C9  UNL     1      -1.430  -0.179  -0.265  1.00  0.00     0.006 C 
HETATM   13  C10 UNL     1      -0.715  -1.361   0.324  1.00  0.00     0.022 C 
HETATM   14  C11 UNL     1      -1.635  -2.556   0.101  1.00  0.00     0.093 C 
HETATM   15  S2  UNL     1      -0.787  -4.103  -0.167  1.00  0.00    -0.086 SA
HETATM   16  S3  UNL     1       0.629  -4.330   1.444  1.00  0.00    -0.024 SA
HETATM   17  S4  UNL     1       1.565  -2.392   1.329  1.00  0.00    -0.074 SA
HETATM   18  C12 UNL     1       0.667  -1.600  -0.078  1.00  0.00     0.121 C 
ENDROOT
BRANCH   1  19
HETATM   19  C1  UNL     1       4.944   0.616  -0.353  1.00  0.00     0.182 C 
HETATM   20  N3  UNL     1       5.743   1.545  -0.715  1.00  0.00    -0.293 N 
ATOM     21  H3  UNL     1       5.450   2.235  -1.406  1.00  0.00     0.187 HD
BRANCH  20  22
HETATM   22  N2  UNL     1       7.018   1.607  -0.158  1.00  0.00    -0.250 N 
ATOM     23  H2  UNL     1       7.331   2.461   0.303  1.00  0.00     0.207 HD
BRANCH  22  24
HETATM   24  N1  UNL     1       7.802   0.589  -0.224  1.00  0.00    -0.331 N 
ATOM     25  H12 UNL     1       7.474  -0.258  -0.689  1.00  0.00     0.178 HD
ATOM     26  H11 UNL     1       8.736   0.634   0.184  1.00  0.00     0.178 HD
ENDBRANCH  22  24
ENDBRANCH  20  22
ENDBRANCH   1  19
TORSDOF 3
