REMARK  3 active torsions:
REMARK  status: ('A' for Active; 'I' for Inactive)
REMARK    1  A    between atoms: C1_2  and  N1_4 
REMARK    2  A    between atoms: N1_4  and  C2_6 
REMARK    3  A    between atoms: C2_6  and  C3_7 
ROOT
HETATM    1  C2  UNL     1      -0.342   0.316   0.019  1.00  0.00     0.059 C 
HETATM    2  C7  UNL     1      -0.862  -0.650  -1.030  1.00  0.00     0.046 C 
HETATM    3  C8  UNL     1      -0.087  -1.907  -1.175  1.00  0.00     0.076 C 
HETATM    4  S2  UNL     1       0.272  -2.550   0.475  1.00  0.00    -0.169 SA
HETATM    5  C9  UNL     1      -0.510  -1.556   1.710  1.00  0.00     0.076 C 
HETATM    6  C10 UNL     1      -0.685  -0.095   1.405  1.00  0.00     0.046 C 
ENDROOT
BRANCH   1   7
HETATM    7  N1  UNL     1      -0.759   1.611  -0.353  1.00  0.00    -0.355 N 
ATOM      8  H1  UNL     1      -0.034   2.294  -0.573  1.00  0.00     0.159 HD
BRANCH   7   9
HETATM    9  C1  UNL     1      -2.066   2.024  -0.442  1.00  0.00     0.455 C 
HETATM   10  F1  UNL     1      -2.687   2.127   0.800  1.00  0.00    -0.191 F 
HETATM   11  F2  UNL     1      -2.893   1.302  -1.288  1.00  0.00    -0.191 F 
ENDBRANCH   7   9
ENDBRANCH   1   7
BRANCH   1  12
HETATM   12  C3  UNL     1       1.179   0.355  -0.139  1.00  0.00    -0.023 A 
HETATM   13  C4  UNL     1       2.073   0.196   0.837  1.00  0.00     0.017 A 
HETATM   14  C5  UNL     1       3.400   0.252   0.527  1.00  0.00     0.050 A 
HETATM   15  S1  UNL     1       3.390   0.533  -1.154  1.00  0.00    -0.113 SA
HETATM   16  C6  UNL     1       1.697   0.570  -1.407  1.00  0.00     0.059 A 
ENDBRANCH   1  12
TORSDOF 3
