REMARK  10 active torsions:
REMARK  status: ('A' for Active; 'I' for Inactive)
REMARK    1  A    between atoms: N1_4  and  C4_5 
REMARK    2  A    between atoms: C4_5  and  C5_6 
REMARK    3  A    between atoms: C7_8  and  N2_9 
REMARK    4  A    between atoms: N2_9  and  C8_11 
REMARK    5  A    between atoms: C12_15  and  O1_16 
REMARK    6  A    between atoms: O1_16  and  C13_17 
REMARK    7  A    between atoms: N3_24  and  C19_25 
REMARK    8  A    between atoms: C19_25  and  C20_26 
REMARK    9  A    between atoms: C20_26  and  N4_27 
REMARK   10  A    between atoms: N8_37  and  O3_38 
ROOT
HETATM    1  C1  UNL     1      -5.141  -2.649  -3.793  1.00  0.00     0.021 C 
HETATM    2  C2  UNL     1      -4.169  -2.195  -3.234  1.00  0.00    -0.036 C 
HETATM    3  C3  UNL     1      -3.012  -1.660  -2.548  1.00  0.00     0.223 A 
HETATM    4  N1  UNL     1      -2.976  -0.962  -1.419  1.00  0.00    -0.155 N 
HETATM    5  C7  UNL     1      -1.674  -0.650  -1.115  1.00  0.00     0.700 A 
HETATM    6  N7  UNL     1      -0.952  -1.186  -2.098  1.00  0.00    -0.103 N 
ATOM      7  H7  UNL     1       0.064  -1.133  -2.170  1.00  0.00     0.208 HD
HETATM    8  N8  UNL     1      -1.748  -1.802  -2.976  1.00  0.00    -0.122 N 
ENDROOT
BRANCH   4   9
HETATM    9  C4  UNL     1      -4.143  -0.597  -0.649  1.00  0.00     0.150 C 
BRANCH   9  10
HETATM   10  C5  UNL     1      -4.389  -1.711   0.341  1.00  0.00     0.016 C 
HETATM   11  C6  UNL     1      -5.594  -1.382   1.169  1.00  0.00     0.006 C 
ENDBRANCH   9  10
ENDBRANCH   4   9
BRANCH   8  12
HETATM   12  O3  UNL     1      -1.372  -2.473  -4.123  1.00  0.00    -0.265 OA
ATOM     13  H3  UNL     1      -0.477  -2.574  -4.426  1.00  0.00     0.247 HD
ENDBRANCH   8  12
BRANCH   5  14
HETATM   14  N2  UNL     1      -1.360  -0.003  -0.120  1.00  0.00    -0.208 N 
ATOM     15  H2  UNL     1      -2.198   0.245   0.405  1.00  0.00     0.179 HD
BRANCH  14  16
HETATM   16  C8  UNL     1      -0.241   0.501   0.524  1.00  0.00     0.112 C 
HETATM   17  C9  UNL     1      -0.621   1.402   1.692  1.00  0.00     0.045 C 
HETATM   18  C10 UNL     1      -1.282   2.660   1.323  1.00  0.00    -0.006 C 
HETATM   19  C11 UNL     1      -1.129   3.127  -0.089  1.00  0.00     0.043 C 
HETATM   20  C15 UNL     1      -0.305   3.792   1.695  1.00  0.00     0.043 C 
HETATM   21  C12 UNL     1       0.249   3.581   0.277  1.00  0.00     0.072 C 
HETATM   22  C16 UNL     1       1.270   2.510   0.276  1.00  0.00     0.048 C 
HETATM   23  C17 UNL     1       0.812   1.177  -0.286  1.00  0.00     0.043 C 
HETATM   24  C18 UNL     1       2.057   0.290  -0.250  1.00  0.00     0.132 C 
HETATM   25  N3  UNL     1       1.617  -0.937   0.392  1.00  0.00    -0.366 N 
HETATM   26  C23 UNL     1       0.500  -0.649   1.192  1.00  0.00     0.118 C 
HETATM   27  N5  UNL     1       0.099  -1.188   2.280  1.00  0.00    -0.281 N 
HETATM   28  C24 UNL     1       0.711  -2.228   2.947  1.00  0.00     0.183 C 
ATOM     29  H5  UNL     1      -0.755  -0.813   2.694  1.00  0.00     0.179 HD
HETATM   30  N6  UNL     1       1.218  -3.102   3.534  1.00  0.00    -0.172 NA
BRANCH  21  31
HETATM   31  O1  UNL     1       0.567   4.781  -0.386  1.00  0.00    -0.310 OA
BRANCH  31  32
HETATM   32  C13 UNL     1       1.732   5.485  -0.283  1.00  0.00     0.255 C 
HETATM   33  C14 UNL     1       1.889   6.738  -1.066  1.00  0.00     0.126 C 
HETATM   34  O2  UNL     1       2.631   5.042   0.477  1.00  0.00    -0.266 OA
ENDBRANCH  31  32
ENDBRANCH  21  31
BRANCH  25  35
HETATM   35  C19 UNL     1       2.267  -2.187   0.180  1.00  0.00     0.143 C 
BRANCH  35  36
HETATM   36  C20 UNL     1       3.664  -2.229   0.760  1.00  0.00     0.135 C 
BRANCH  36  37
HETATM   37  N4  UNL     1       4.345  -3.465   0.550  1.00  0.00    -0.419 N 
HETATM   38  C21 UNL     1       4.699  -3.767  -0.798  1.00  0.00     0.142 C 
HETATM   39  C22 UNL     1       3.886  -4.581   1.306  1.00  0.00     0.142 C 
ENDBRANCH  36  37
ENDBRANCH  35  36
ENDBRANCH  25  35
ENDBRANCH  14  16
ENDBRANCH   5  14
TORSDOF 10
