REMARK  10 active torsions:
REMARK  status: ('A' for Active; 'I' for Inactive)
REMARK    1  A    between atoms: O1_2  and  C2_3 
REMARK    2  A    between atoms: C2_3  and  C3_4 
REMARK    3  A    between atoms: C3_4  and  N1_5 
REMARK       I    between atoms: N1_5  and  C4_7 
REMARK    4  A    between atoms: C4_7  and  C5_9 
REMARK    5  A    between atoms: C6_10  and  C7_11 
REMARK    6  A    between atoms: C7_11  and  O4_13 
REMARK    7  A    between atoms: C17_25  and  C18_26 
REMARK    8  A    between atoms: C18_26  and  O6_28 
REMARK    9  A    between atoms: C20_30  and  C21_31 
REMARK   10  A    between atoms: C21_31  and  O8_33 
ROOT
HETATM    1  C5  UNL     1       1.842  -0.076  -0.075  1.00  0.00     0.037 C 
HETATM    2  C6  UNL     1       0.955  -0.313  -1.014  1.00  0.00     0.036 C 
HETATM    3  C9  UNL     1      -0.314  -0.865  -0.451  1.00  0.00     0.056 C 
HETATM    4  C10 UNL     1      -0.033  -0.928   1.002  1.00  0.00     0.076 C 
HETATM    5  S1  UNL     1      -1.532  -0.209   1.735  1.00  0.00    -0.149 SA
HETATM    6  C11 UNL     1      -2.576  -0.668   0.280  1.00  0.00     0.047 C 
HETATM    7  C12 UNL     1      -2.831  -2.127   0.207  1.00  0.00     0.051 C 
HETATM    8  C13 UNL     1      -4.180  -2.185  -0.506  1.00  0.00     0.238 C 
HETATM    9  N2  UNL     1      -4.872  -1.054   0.038  1.00  0.00    -0.073 N 
HETATM   10  C14 UNL     1      -5.529  -1.431   1.250  1.00  0.00     0.272 C 
HETATM   11  C15 UNL     1      -5.866  -0.631  -0.938  1.00  0.00     0.272 C 
HETATM   12  C16 UNL     1      -3.865  -0.011   0.248  1.00  0.00     0.257 C 
HETATM   13  C17 UNL     1      -1.565  -0.193  -0.783  1.00  0.00     0.115 C 
HETATM   14  C20 UNL     1       1.243  -0.304   1.291  1.00  0.00     0.139 C 
ENDROOT
BRANCH   1  15
HETATM   15  C4  UNL     1       3.238   0.397  -0.176  1.00  0.00     0.249 C 
HETATM   16  N1  UNL     1       4.056   0.563   0.985  1.00  0.00    -0.355 N 
ATOM     17  H1  UNL     1       3.679   0.344   1.907  1.00  0.00     0.162 HD
HETATM   18  O2  UNL     1       3.810   0.690  -1.246  1.00  0.00    -0.268 OA
BRANCH  16  19
HETATM   19  C3  UNL     1       5.398   1.034   0.858  1.00  0.00     0.149 C 
BRANCH  19  20
HETATM   20  C2  UNL     1       6.328   0.185   0.066  1.00  0.00     0.186 C 
BRANCH  20  21
HETATM   21  O1  UNL     1       6.469  -1.101   0.596  1.00  0.00    -0.394 OA
HETATM   22  C1  UNL     1       7.369  -1.769  -0.254  1.00  0.00     0.201 C 
ENDBRANCH  20  21
ENDBRANCH  19  20
ENDBRANCH  16  19
ENDBRANCH   1  15
BRANCH   2  23
HETATM   23  C7  UNL     1       1.110  -0.165  -2.453  1.00  0.00     0.290 C 
HETATM   24  O3  UNL     1       2.114   0.238  -3.077  1.00  0.00    -0.260 OA
BRANCH  23  25
HETATM   25  O4  UNL     1       0.042  -0.498  -3.321  1.00  0.00    -0.323 OA
HETATM   26  C8  UNL     1       0.151  -0.372  -4.732  1.00  0.00     0.213 C 
ENDBRANCH  23  25
ENDBRANCH   2  23
BRANCH  14  27
HETATM   27  C21 UNL     1       1.197   0.957   2.049  1.00  0.00     0.268 C 
HETATM   28  O7  UNL     1       1.504   2.026   1.463  1.00  0.00    -0.264 OA
BRANCH  27  29
HETATM   29  O8  UNL     1       0.836   1.045   3.368  1.00  0.00    -0.326 OA
HETATM   30  C22 UNL     1       0.807   2.284   4.054  1.00  0.00     0.213 C 
ENDBRANCH  27  29
ENDBRANCH  14  27
BRANCH  13  31
HETATM   31  C18 UNL     1      -1.610   1.262  -0.798  1.00  0.00     0.265 C 
HETATM   32  O5  UNL     1      -1.615   1.959  -1.878  1.00  0.00    -0.265 OA
BRANCH  31  33
HETATM   33  O6  UNL     1      -1.655   2.084   0.341  1.00  0.00    -0.326 OA
HETATM   34  C19 UNL     1      -1.699   3.480   0.303  1.00  0.00     0.213 C 
ENDBRANCH  31  33
ENDBRANCH  13  31
TORSDOF 10
