REMARK  12 active torsions:
REMARK  status: ('A' for Active; 'I' for Inactive)
REMARK    1  A    between atoms: C2_2  and  C3_3 
REMARK    2  A    between atoms: C3_3  and  S1_4 
REMARK    3  A    between atoms: S1_4  and  N1_7 
REMARK    4  A    between atoms: C6_11  and  C7_12 
REMARK    5  A    between atoms: C7_12  and  N2_13 
REMARK    6  A    between atoms: N2_13  and  C8_14 
REMARK    7  A    between atoms: N2_13  and  C17_30 
REMARK    8  A    between atoms: C8_14  and  O4_15 
REMARK    9  A    between atoms: C8_14  and  C9_17 
REMARK   10  A    between atoms: C11_20  and  N3_21 
REMARK   11  A    between atoms: N3_21  and  C12_23 
REMARK   12  A    between atoms: C12_23  and  C13_24 
ROOT
HETATM    1  N2  UNL     1      -0.306  -1.870   0.110  1.00  0.00    -0.349 N 
ENDROOT
BRANCH   1   2
HETATM    2  C7  UNL     1      -1.460  -2.683   0.558  1.00  0.00     0.159 C 
BRANCH   2   3
HETATM    3  C6  UNL     1      -2.767  -2.029   0.548  1.00  0.00     0.153 C 
HETATM    4  O3  UNL     1      -3.720  -2.985   0.960  1.00  0.00    -0.382 OA
HETATM    5  C5  UNL     1      -5.000  -2.657   0.592  1.00  0.00     0.183 C 
HETATM    6  C4  UNL     1      -5.295  -1.175   0.658  1.00  0.00     0.133 C 
HETATM    7  N1  UNL     1      -4.471  -0.498  -0.283  1.00  0.00    -0.206 NA
HETATM    8  C20 UNL     1      -3.275  -1.292  -0.623  1.00  0.00     0.141 C 
BRANCH   7   9
HETATM    9  S1  UNL     1      -4.034   1.094   0.132  1.00  0.00     0.211 S 
HETATM   10  O1  UNL     1      -3.098   1.619  -0.909  1.00  0.00    -0.211 OA
HETATM   11  O2  UNL     1      -3.271   1.087   1.439  1.00  0.00    -0.211 OA
BRANCH   9  12
HETATM   12  C3  UNL     1      -5.383   2.188   0.302  1.00  0.00     0.157 C 
BRANCH  12  13
HETATM   13  C2  UNL     1      -6.205   2.336  -0.951  1.00  0.00     0.012 C 
HETATM   14  C1  UNL     1      -5.407   2.862  -2.114  1.00  0.00     0.006 C 
ENDBRANCH  12  13
ENDBRANCH   9  12
ENDBRANCH   7   9
ENDBRANCH   2   3
ENDBRANCH   1   2
BRANCH   1  15
HETATM   15  C8  UNL     1       0.220  -1.005   1.076  1.00  0.00     0.166 C 
BRANCH  15  16
HETATM   16  O4  UNL     1      -0.480  -0.986   2.189  1.00  0.00    -0.344 OA
ATOM     17  H4  UNL     1      -0.123  -0.399   2.845  1.00  0.00     0.219 HD
ENDBRANCH  15  16
BRANCH  15  18
HETATM   18  C9  UNL     1       1.385  -0.123   1.097  1.00  0.00     0.092 A 
HETATM   19  C10 UNL     1       1.490   0.824   2.128  1.00  0.00     0.087 A 
HETATM   20  S2  UNL     1       2.899   1.685   1.717  1.00  0.00    -0.064 SA
HETATM   21  C11 UNL     1       3.303   0.855   0.306  1.00  0.00     0.144 A 
HETATM   22  N4  UNL     1       2.340  -0.060   0.196  1.00  0.00    -0.333 N 
ATOM     23  H4  UNL     1       2.344  -0.712  -0.588  1.00  0.00     0.168 HD
BRANCH  21  24
HETATM   24  N3  UNL     1       4.329   1.070  -0.490  1.00  0.00    -0.370 N 
ATOM     25  H3  UNL     1       4.468   0.496  -1.322  1.00  0.00     0.161 HD
BRANCH  24  26
HETATM   26  C12 UNL     1       5.247   2.122  -0.170  1.00  0.00     0.130 C 
BRANCH  26  27
HETATM   27  C13 UNL     1       6.611   1.600   0.234  1.00  0.00    -0.035 C 
HETATM   28  C14 UNL     1       7.202   0.799  -0.900  1.00  0.00     0.016 C 
HETATM   29  C15 UNL     1       7.524   2.780   0.506  1.00  0.00     0.016 C 
HETATM   30  C16 UNL     1       6.563   0.762   1.467  1.00  0.00     0.016 C 
ENDBRANCH  26  27
ENDBRANCH  24  26
ENDBRANCH  21  24
ENDBRANCH  15  18
ENDBRANCH   1  15
BRANCH   1  31
HETATM   31  C17 UNL     1       0.149  -1.943  -1.240  1.00  0.00     0.134 C 
HETATM   32  C18 UNL     1      -0.719  -2.608  -2.230  1.00  0.00     0.195 C 
HETATM   33  O5  UNL     1       0.439  -3.194  -2.784  1.00  0.00    -0.387 OA
HETATM   34  C19 UNL     1       0.886  -3.342  -1.453  1.00  0.00     0.195 C 
ENDBRANCH   1  31
TORSDOF 12
