REMARK  7 active torsions:
REMARK  status: ('A' for Active; 'I' for Inactive)
REMARK    1  A    between atoms: C2_2  and  C3_3 
REMARK       I    between atoms: C3_3  and  N1_5 
REMARK       I    between atoms: N1_5  and  C4_6 
REMARK    2  A    between atoms: N1_5  and  C18_27 
REMARK    3  A    between atoms: C4_6  and  C5_8 
REMARK    4  A    between atoms: C5_8  and  C6_9 
REMARK    5  A    between atoms: C5_8  and  N3_18 
REMARK       I    between atoms: C6_9  and  N2_11 
REMARK    6  A    between atoms: N2_11  and  C7_13 
REMARK       I    between atoms: N3_18  and  C13_20 
REMARK    7  A    between atoms: C13_20  and  C14_22 
ROOT
HETATM    1  C5  UNL     1      -0.008   0.511   1.471  1.00  0.00     0.272 C 
ENDROOT
BRANCH   1   2
HETATM    2  C4  UNL     1       0.921   0.571   0.335  1.00  0.00     0.259 C 
HETATM    3  N1  UNL     1       1.799  -0.434  -0.150  1.00  0.00    -0.277 N 
HETATM    4  C3  UNL     1       1.979  -1.652   0.511  1.00  0.00     0.249 C 
HETATM    5  O1  UNL     1       1.301  -1.867   1.583  1.00  0.00    -0.268 OA
HETATM    6  O2  UNL     1       0.989   1.669  -0.351  1.00  0.00    -0.270 OA
BRANCH   3   7
HETATM    7  C18 UNL     1       2.581  -0.151  -1.378  1.00  0.00     0.111 C 
HETATM    8  C19 UNL     1       2.244  -1.074  -2.457  1.00  0.00     0.041 C 
HETATM    9  C20 UNL     1       3.379  -1.196  -3.429  1.00  0.00     0.142 C 
HETATM   10  S2  UNL     1       4.762  -0.461  -2.632  1.00  0.00     0.146 S 
HETATM   11  O5  UNL     1       5.910  -1.404  -2.471  1.00  0.00    -0.228 OA
HETATM   12  O6  UNL     1       5.157   0.792  -3.350  1.00  0.00    -0.228 OA
HETATM   13  C21 UNL     1       4.016  -0.037  -1.083  1.00  0.00     0.166 C 
ENDBRANCH   3   7
BRANCH   4  14
HETATM   14  C2  UNL     1       2.872  -2.745   0.121  1.00  0.00     0.064 C 
HETATM   15  C1  UNL     1       2.911  -3.837   0.873  1.00  0.00     0.017 C 
ENDBRANCH   4  14
ENDBRANCH   1   2
BRANCH   1  16
HETATM   16  C6  UNL     1      -1.312  -0.092   1.247  1.00  0.00     0.250 C 
HETATM   17  O3  UNL     1      -2.243   0.317   2.048  1.00  0.00    -0.271 OA
HETATM   18  N2  UNL     1      -1.672  -1.045   0.275  1.00  0.00    -0.354 N 
ATOM     19  H2  UNL     1      -0.968  -1.391  -0.377  1.00  0.00     0.162 HD
BRANCH  18  20
HETATM   20  C7  UNL     1      -3.047  -1.544   0.191  1.00  0.00     0.084 C 
HETATM   21  C8  UNL     1      -3.652  -1.181  -1.153  1.00  0.00     0.025 C 
HETATM   22  C9  UNL     1      -4.426  -2.405  -1.594  1.00  0.00     0.002 C 
HETATM   23  C10 UNL     1      -3.673  -3.575  -0.979  1.00  0.00     0.002 C 
HETATM   24  C11 UNL     1      -3.078  -3.036   0.300  1.00  0.00     0.025 C 
ENDBRANCH  18  20
ENDBRANCH   1  16
BRANCH   1  25
HETATM   25  N3  UNL     1      -0.231   1.935   1.922  1.00  0.00    -0.330 N 
HETATM   26  C12 UNL     1       0.433   2.306   3.127  1.00  0.00     0.154 C 
HETATM   27  C13 UNL     1      -1.049   2.769   1.151  1.00  0.00     0.261 C 
HETATM   28  O4  UNL     1      -1.613   2.286   0.090  1.00  0.00    -0.267 OA
BRANCH  27  29
HETATM   29  C14 UNL     1      -1.374   4.167   1.376  1.00  0.00     0.072 A 
HETATM   30  C15 UNL     1      -1.029   5.073   2.321  1.00  0.00     0.025 A 
HETATM   31  C16 UNL     1      -1.526   6.320   2.229  1.00  0.00     0.009 A 
HETATM   32  C17 UNL     1      -2.354   6.601   1.183  1.00  0.00     0.050 A 
HETATM   33  S1  UNL     1      -2.417   5.115   0.354  1.00  0.00    -0.097 SA
ENDBRANCH  27  29
ENDBRANCH   1  25
TORSDOF 7
