REMARK  18 active torsions:
REMARK  status: ('A' for Active; 'I' for Inactive)
REMARK    1  A    between atoms: O1_2  and  C2_3 
REMARK    2  A    between atoms: C5_6  and  N1_7 
REMARK    3  A    between atoms: N1_7  and  C6_9 
REMARK    4  A    between atoms: C7_12  and  N3_13 
REMARK       I    between atoms: N3_13  and  C8_15 
REMARK    5  A    between atoms: C8_15  and  C9_17 
REMARK    6  A    between atoms: C9_17  and  C10_18 
REMARK    7  A    between atoms: C9_17  and  N9_34 
REMARK    8  A    between atoms: C10_18  and  C11_19 
REMARK    9  A    between atoms: C12_22  and  N5_23 
REMARK   10  A    between atoms: C13_28  and  N7_29 
REMARK       I    between atoms: N9_34  and  C14_36 
REMARK   11  A    between atoms: C14_36  and  C15_38 
REMARK   12  A    between atoms: C15_38  and  C16_39 
REMARK   13  A    between atoms: C16_39  and  N10_40 
REMARK       I    between atoms: N10_40  and  C17_42 
REMARK   14  A    between atoms: C17_42  and  C18_44 
REMARK   15  A    between atoms: C18_44  and  O5_47 
REMARK   16  A    between atoms: C21_51  and  N12_52 
REMARK   17  A    between atoms: N12_52  and  C22_54 
REMARK   18  A    between atoms: C24_58  and  N14_59 
ROOT
HETATM    1  N3  UNL     1       1.690  -0.916   0.654  1.00  0.00    -0.157 N 
ATOM      2  H3  UNL     1       2.141  -1.764   0.312  1.00  0.00     0.187 HD
HETATM    3  C8  UNL     1       0.289  -0.940   0.859  1.00  0.00     0.259 C 
HETATM    4  O2  UNL     1      -0.214  -0.892   2.011  1.00  0.00    -0.270 OA
ENDROOT
BRANCH   1   5
HETATM    5  C7  UNL     1       2.413   0.100   0.872  1.00  0.00     0.714 A 
HETATM    6  N2  UNL     1       3.761   0.075   0.656  1.00  0.00    -0.021 N 
HETATM    7  C6  UNL     1       4.531   1.143   0.883  1.00  0.00     0.711 A 
ATOM      8  H2  UNL     1       4.192  -0.783   0.312  1.00  0.00     0.203 HD
HETATM    9  N16 UNL     1       4.029   2.295   1.332  1.00  0.00    -0.021 N 
HETATM   10  C21 UNL     1       2.682   2.338   1.553  1.00  0.00     0.712 A 
ATOM     11  H16 UNL     1       4.624   3.106   1.502  1.00  0.00     0.203 HD
HETATM   12  N11 UNL     1       1.910   1.262   1.324  1.00  0.00    -0.021 N 
ATOM     13  H11 UNL     1       0.907   1.329   1.499  1.00  0.00     0.203 HD
BRANCH   7  14
HETATM   14  N1  UNL     1       5.800   1.073   0.645  1.00  0.00    -0.191 N 
ATOM     15  H1  UNL     1       6.390   1.887   0.818  1.00  0.00     0.184 HD
BRANCH  14  16
HETATM   16  C5  UNL     1       6.386  -0.126   0.144  1.00  0.00     0.049 A 
HETATM   17  C4  UNL     1       6.904  -1.095   0.967  1.00  0.00     0.033 A 
HETATM   18  C3  UNL     1       7.468  -2.269   0.435  1.00  0.00     0.039 A 
HETATM   19  C2  UNL     1       7.503  -2.451  -0.920  1.00  0.00     0.068 A 
HETATM   20  C27 UNL     1       6.978  -1.466  -1.743  1.00  0.00     0.039 A 
HETATM   21  C26 UNL     1       6.422  -0.311  -1.236  1.00  0.00     0.033 A 
BRANCH  19  22
HETATM   22  O1  UNL     1       8.049  -3.592  -1.499  1.00  0.00    -0.356 OA
HETATM   23  C1  UNL     1       8.063  -3.743  -2.916  1.00  0.00     0.210 C 
ENDBRANCH  19  22
ENDBRANCH  14  16
ENDBRANCH   7  14
BRANCH  10  24
HETATM   24  N12 UNL     1       2.159   3.447   1.987  1.00  0.00    -0.188 N 
ATOM     25  H12 UNL     1       1.154   3.493   2.153  1.00  0.00     0.184 HD
BRANCH  24  26
HETATM   26  C22 UNL     1       2.960   4.598   2.235  1.00  0.00     0.081 A 
HETATM   27  C23 UNL     1       3.256   5.402   1.145  1.00  0.00     0.137 A 
HETATM   28  N13 UNL     1       4.001   6.484   1.321  1.00  0.00    -0.200 N 
HETATM   29  C24 UNL     1       4.502   6.862   2.523  1.00  0.00     0.675 A 
ATOM     30  H13 UNL     1       4.209   7.064   0.508  1.00  0.00     0.183 HD
HETATM   31  N15 UNL     1       4.200   6.065   3.561  1.00  0.00    -0.200 N 
HETATM   32  C25 UNL     1       3.451   4.952   3.458  1.00  0.00     0.137 A 
ATOM     33  H15 UNL     1       4.560   6.318   4.481  1.00  0.00     0.183 HD
BRANCH  29  34
HETATM   34  N14 UNL     1       5.228   7.937   2.640  1.00  0.00    -0.234 N 
ATOM     35 2H14 UNL     1       5.457   8.542   1.852  1.00  0.00     0.174 HD
ATOM     36 1H14 UNL     1       5.605   8.221   3.544  1.00  0.00     0.174 HD
ENDBRANCH  29  34
ENDBRANCH  24  26
ENDBRANCH  10  24
ENDBRANCH   1   5
BRANCH   3  37
HETATM   37  C9  UNL     1      -0.643  -1.027  -0.304  1.00  0.00     0.184 C 
BRANCH  37  38
HETATM   38  C10 UNL     1      -0.171  -2.211  -1.120  1.00  0.00     0.112 C 
BRANCH  38  39
HETATM   39  C11 UNL     1      -0.952  -2.479  -2.318  1.00  0.00     0.116 A 
HETATM   40  N4  UNL     1      -0.669  -1.908  -3.498  1.00  0.00    -0.180 N 
HETATM   41  C12 UNL     1      -1.400  -2.170  -4.612  1.00  0.00     0.691 A 
ATOM     42  H4  UNL     1       0.116  -1.260  -3.560  1.00  0.00     0.185 HD
HETATM   43  N6  UNL     1      -2.445  -3.033  -4.525  1.00  0.00    -0.023 N 
HETATM   44  C13 UNL     1      -2.739  -3.608  -3.360  1.00  0.00     0.691 A 
ATOM     45  H6  UNL     1      -3.005  -3.241  -5.352  1.00  0.00     0.203 HD
HETATM   46  N8  UNL     1      -1.992  -3.326  -2.274  1.00  0.00    -0.180 N 
ATOM     47  H8  UNL     1      -2.226  -3.772  -1.387  1.00  0.00     0.185 HD
BRANCH  41  48
HETATM   48  N5  UNL     1      -1.146  -1.635  -5.741  1.00  0.00    -0.234 N 
ATOM     49  H52 UNL     1      -0.361  -0.987  -5.806  1.00  0.00     0.174 HD
ATOM     50  H51 UNL     1      -1.695  -1.832  -6.578  1.00  0.00     0.174 HD
ENDBRANCH  41  48
BRANCH  44  51
HETATM   51  N7  UNL     1      -3.732  -4.436  -3.256  1.00  0.00    -0.234 N 
ATOM     52  H72 UNL     1      -4.297  -4.649  -4.078  1.00  0.00     0.174 HD
ATOM     53  H71 UNL     1      -3.957  -4.876  -2.364  1.00  0.00     0.174 HD
ENDBRANCH  44  51
ENDBRANCH  38  39
ENDBRANCH  37  38
BRANCH  37  54
HETATM   54  N9  UNL     1      -1.989  -1.111   0.149  1.00  0.00    -0.347 N 
HETATM   55  C14 UNL     1      -3.022  -0.225  -0.219  1.00  0.00     0.219 C 
HETATM   56  O3  UNL     1      -2.772   0.722  -0.993  1.00  0.00    -0.274 OA
ATOM     57  H9  UNL     1      -2.225  -1.870   0.789  1.00  0.00     0.163 HD
BRANCH  55  58
HETATM   58  C15 UNL     1      -4.388  -0.418   0.304  1.00  0.00     0.122 C 
BRANCH  58  59
HETATM   59  C16 UNL     1      -5.352   0.608  -0.231  1.00  0.00     0.132 C 
BRANCH  59  60
HETATM   60  N10 UNL     1      -6.663   0.333   0.298  1.00  0.00    -0.358 N 
HETATM   61  C17 UNL     1      -6.998   0.346   1.669  1.00  0.00     0.251 C 
HETATM   62  O4  UNL     1      -6.191   0.607   2.585  1.00  0.00    -0.270 OA
ATOM     63  H10 UNL     1      -7.404   0.113  -0.367  1.00  0.00     0.162 HD
BRANCH  61  64
HETATM   64  C18 UNL     1      -8.413   0.024   2.038  1.00  0.00     0.131 C 
HETATM   65  C19 UNL     1      -8.622  -1.438   1.657  1.00  0.00     0.056 C 
HETATM   66  C20 UNL     1      -9.328   0.900   1.233  1.00  0.00     0.056 C 
BRANCH  64  67
HETATM   67  O5  UNL     1      -8.604   0.117   3.406  1.00  0.00    -0.381 OA
ATOM     68  H5  UNL     1      -9.502  -0.087   3.640  1.00  0.00     0.211 HD
ENDBRANCH  64  67
ENDBRANCH  61  64
ENDBRANCH  59  60
ENDBRANCH  58  59
ENDBRANCH  55  58
ENDBRANCH  37  54
ENDBRANCH   3  37
TORSDOF 18
