REMARK  20 active torsions:
REMARK  status: ('A' for Active; 'I' for Inactive)
REMARK    1  A    between atoms: N1_2  and  C2_4 
REMARK    2  A    between atoms: C3_7  and  N3_8 
REMARK    3  A    between atoms: N3_8  and  C4_10 
REMARK       I    between atoms: N4_13  and  C7_15 
REMARK    4  A    between atoms: C7_15  and  C8_17 
REMARK    5  A    between atoms: C8_17  and  O2_18 
REMARK    6  A    between atoms: C9_22  and  N6_23 
REMARK    7  A    between atoms: N6_23  and  C10_25 
REMARK    8  A    between atoms: C14_31  and  N8_32 
REMARK    9  A    between atoms: C15_41  and  N12_42 
REMARK   10  A    between atoms: N12_42  and  C16_44 
REMARK   11  A    between atoms: C16_44  and  C17_45 
REMARK   12  A    between atoms: C16_44  and  C21_55 
REMARK   13  A    between atoms: C17_45  and  C18_46 
REMARK   14  A    between atoms: C20_49  and  N13_50 
REMARK       I    between atoms: C21_55  and  N15_57 
REMARK   15  A    between atoms: N15_57  and  C22_58 
REMARK   16  A    between atoms: C22_58  and  C23_59 
REMARK   17  A    between atoms: C23_59  and  C24_60 
REMARK   18  A    between atoms: C24_60  and  C25_61 
REMARK   19  A    between atoms: C25_61  and  C26_62 
REMARK   20  A    between atoms: C26_62  and  N16_63 
ROOT
HETATM    1  C2  UNL     1      -0.845  -0.200  -0.938  1.00  0.00     0.706 A 
HETATM    2  N2  UNL     1      -1.766  -0.445   0.008  1.00  0.00    -0.021 N 
ATOM      3  H2  UNL     1      -2.706  -0.061  -0.088  1.00  0.00     0.203 HD
HETATM    4  C3  UNL     1      -1.455  -1.193   1.080  1.00  0.00     0.713 A 
HETATM    5  N11 UNL     1      -0.211  -1.689   1.191  1.00  0.00    -0.021 N 
ATOM      6  H11 UNL     1       0.021  -2.256   2.007  1.00  0.00     0.203 HD
HETATM    7  C15 UNL     1       0.742  -1.465   0.264  1.00  0.00     0.708 A 
HETATM    8  N17 UNL     1       0.411  -0.716  -0.799  1.00  0.00    -0.022 N 
ATOM      9  H17 UNL     1       1.111  -0.529  -1.517  1.00  0.00     0.203 HD
ENDROOT
BRANCH   4  10
HETATM   10  N3  UNL     1      -2.292  -1.427   2.023  1.00  0.00    -0.175 N 
ATOM     11  H3  UNL     1      -1.984  -2.005   2.805  1.00  0.00     0.186 HD
BRANCH  10  12
HETATM   12  C4  UNL     1      -3.615  -0.932   2.044  1.00  0.00     0.140 A 
HETATM   13  C5  UNL     1      -4.667  -1.814   2.004  1.00  0.00     0.098 A 
HETATM   14  C6  UNL     1      -5.959  -1.343   2.025  1.00  0.00     0.127 A 
HETATM   15  N4  UNL     1      -6.994  -2.087   1.987  1.00  0.00    -0.311 N 
HETATM   16  N5  UNL     1      -6.163   0.007   2.088  1.00  0.00    -0.176 N 
HETATM   17  C7  UNL     1      -6.876  -3.494   1.917  1.00  0.00     0.246 C 
ATOM     18  H4  UNL     1      -7.920  -1.661   2.007  1.00  0.00     0.170 HD
HETATM   19  O1  UNL     1      -6.952  -4.187   2.963  1.00  0.00    -0.271 OA
HETATM   20  C9  UNL     1      -5.143   0.868   2.127  1.00  0.00     0.687 A 
ATOM     21  H5  UNL     1      -7.118   0.366   2.106  1.00  0.00     0.186 HD
HETATM   22  N10 UNL     1      -3.896   0.388   2.105  1.00  0.00    -0.176 N 
ATOM     23  H10 UNL     1      -3.120   1.049   2.136  1.00  0.00     0.186 HD
BRANCH  17  24
HETATM   24  C8  UNL     1      -6.662  -4.210   0.628  1.00  0.00     0.267 C 
BRANCH  24  25
HETATM   25  O2  UNL     1      -6.642  -5.581   0.843  1.00  0.00    -0.392 OA
ATOM     26  H2  UNL     1      -6.506  -6.038   0.021  1.00  0.00     0.210 HD
ENDBRANCH  24  25
ENDBRANCH  17  24
BRANCH  20  27
HETATM   27  N6  UNL     1      -5.375   2.242   2.185  1.00  0.00    -0.176 N 
ATOM     28  H6  UNL     1      -5.138   2.718   3.055  1.00  0.00     0.186 HD
BRANCH  27  29
HETATM   29  C10 UNL     1      -5.862   2.961   1.237  1.00  0.00     0.138 A 
HETATM   30  C11 UNL     1      -6.234   2.467   0.002  1.00  0.00     0.074 A 
HETATM   31  C12 UNL     1      -6.737   3.317  -0.941  1.00  0.00     0.026 A 
HETATM   32  C13 UNL     1      -7.153   2.833  -2.283  1.00  0.00     0.069 C 
HETATM   33  N7  UNL     1      -6.856   4.636  -0.630  1.00  0.00    -0.196 N 
HETATM   34  C14 UNL     1      -6.505   5.147   0.554  1.00  0.00     0.677 A 
ATOM     35  H7  UNL     1      -7.233   5.268  -1.337  1.00  0.00     0.184 HD
HETATM   36  N9  UNL     1      -6.007   4.272   1.472  1.00  0.00    -0.176 N 
ATOM     37  H9  UNL     1      -5.730   4.634   2.385  1.00  0.00     0.186 HD
BRANCH  34  38
HETATM   38  N8  UNL     1      -6.622   6.419   0.837  1.00  0.00    -0.234 N 
ATOM     39  H82 UNL     1      -6.995   7.074   0.150  1.00  0.00     0.174 HD
ATOM     40  H81 UNL     1      -6.354   6.809   1.741  1.00  0.00     0.174 HD
ENDBRANCH  34  38
ENDBRANCH  27  29
ENDBRANCH  20  27
ENDBRANCH  10  12
ENDBRANCH   4  10
BRANCH   1  41
HETATM   41  N1  UNL     1      -1.117   0.512  -1.973  1.00  0.00    -0.229 N 
HETATM   42  C1  UNL     1      -2.452   1.051  -2.100  1.00  0.00     0.165 C 
ATOM     43  H1  UNL     1      -0.410   0.692  -2.686  1.00  0.00     0.177 HD
ENDBRANCH   1  41
BRANCH   7  44
HETATM   44  N12 UNL     1       1.935  -1.931   0.374  1.00  0.00    -0.210 N 
ATOM     45  H12 UNL     1       2.156  -2.492   1.197  1.00  0.00     0.178 HD
BRANCH  44  46
HETATM   46  C16 UNL     1       2.994  -1.706  -0.609  1.00  0.00     0.212 C 
BRANCH  46  47
HETATM   47  C17 UNL     1       3.140  -2.875  -1.497  1.00  0.00     0.094 C 
BRANCH  47  48
HETATM   48  C18 UNL     1       4.219  -2.661  -2.554  1.00  0.00     0.020 A 
HETATM   49  C19 UNL     1       4.751  -1.435  -2.849  1.00  0.00     0.078 A 
HETATM   50  S1  UNL     1       5.933  -1.820  -4.018  1.00  0.00    -0.064 SA
HETATM   51  C20 UNL     1       5.688  -3.498  -4.068  1.00  0.00     0.142 A 
HETATM   52  N14 UNL     1       4.721  -3.703  -3.197  1.00  0.00    -0.340 N 
ATOM     53  H14 UNL     1       4.367  -4.644  -3.022  1.00  0.00     0.167 HD
BRANCH  51  54
HETATM   54  N13 UNL     1       6.331  -4.373  -4.808  1.00  0.00    -0.380 N 
ATOM     55 2H13 UNL     1       7.080  -4.214  -5.482  1.00  0.00     0.158 HD
ATOM     56 1H13 UNL     1       6.184  -5.382  -4.838  1.00  0.00     0.158 HD
ENDBRANCH  51  54
ENDBRANCH  47  48
ENDBRANCH  46  47
BRANCH  46  57
HETATM   57  C21 UNL     1       4.262  -1.778   0.311  1.00  0.00     0.314 C 
HETATM   58  O3  UNL     1       4.291  -2.928   0.864  1.00  0.00    -0.255 OA
HETATM   59  N15 UNL     1       5.091  -0.735   0.409  1.00  0.00    -0.386 NA
BRANCH  59  60
HETATM   60  C22 UNL     1       5.963   0.360   0.514  1.00  0.00     0.159 C 
BRANCH  60  61
HETATM   61  C23 UNL     1       6.110   0.882   1.897  1.00  0.00     0.060 C 
BRANCH  61  62
HETATM   62  C24 UNL     1       6.978   2.038   2.100  1.00  0.00     0.008 C 
BRANCH  62  63
HETATM   63  C25 UNL     1       8.426   2.019   1.853  1.00  0.00     0.027 C 
BRANCH  63  64
HETATM   64  C26 UNL     1       8.964   1.770   0.499  1.00  0.00     0.229 C 
BRANCH  64  65
HETATM   65  N16 UNL     1       8.456   2.739  -0.445  1.00  0.00    -0.079 N 
ATOM     66 3H16 UNL     1       7.436   2.767  -0.444  1.00  0.00     0.274 HD
ATOM     67 2H16 UNL     1       8.637   3.695  -0.138  1.00  0.00     0.274 HD
ATOM     68 1H16 UNL     1       8.827   2.567  -1.379  1.00  0.00     0.274 HD
ENDBRANCH  64  65
ENDBRANCH  63  64
ENDBRANCH  62  63
ENDBRANCH  61  62
ENDBRANCH  60  61
ENDBRANCH  59  60
ENDBRANCH  46  57
ENDBRANCH  44  46
ENDBRANCH   7  44
TORSDOF 20
