REMARK  15 active torsions:
REMARK  status: ('A' for Active; 'I' for Inactive)
REMARK    1  A    between atoms: C2_3  and  C3_4 
REMARK    2  A    between atoms: C2_3  and  N13_48 
REMARK    3  A    between atoms: C3_4  and  N2_5 
REMARK    4  A    between atoms: N2_5  and  C4_7 
REMARK    5  A    between atoms: C5_10  and  C6_11 
REMARK    6  A    between atoms: C9_14  and  C10_15 
REMARK       I    between atoms: C10_15  and  N4_17 
REMARK    7  A    between atoms: N4_17  and  C11_19 
REMARK    8  A    between atoms: C11_19  and  C12_20 
REMARK    9  A    between atoms: C12_20  and  C13_21 
REMARK       I    between atoms: C13_21  and  N5_23 
REMARK   10  A    between atoms: N5_23  and  N6_25 
REMARK       I    between atoms: N6_25  and  C14_27 
REMARK       I    between atoms: N13_48  and  C21_50 
REMARK   11  A    between atoms: C21_50  and  C22_52 
REMARK   12  A    between atoms: C22_52  and  N14_53 
REMARK   13  A    between atoms: C22_52  and  C23_57 
REMARK   14  A    between atoms: C23_57  and  C24_58 
REMARK   15  A    between atoms: C27_61  and  O5_62 
ROOT
HETATM    1  N1  UNL     1      -3.098   3.414   2.733  1.00  0.00    -0.195 NA
HETATM    2  C1  UNL     1      -3.494   2.580   2.036  1.00  0.00     0.086 C 
HETATM    3  C2  UNL     1      -3.989   1.506   1.126  1.00  0.00     0.209 C 
ENDROOT
BRANCH   3   4
HETATM    4  C3  UNL     1      -2.777   0.862   0.563  1.00  0.00     0.161 C 
BRANCH   4   5
HETATM    5  N2  UNL     1      -2.987  -0.225  -0.337  1.00  0.00    -0.372 N 
ATOM      6  H2  UNL     1      -3.930  -0.572  -0.510  1.00  0.00     0.161 HD
BRANCH   5   7
HETATM    7  C4  UNL     1      -1.988  -0.762  -0.925  1.00  0.00     0.120 A 
HETATM    8  N3  UNL     1      -0.722  -0.295  -0.694  1.00  0.00    -0.327 N 
HETATM    9  C5  UNL     1       0.376  -0.797  -1.251  1.00  0.00     0.118 A 
ATOM     10  H3  UNL     1      -0.614   0.490  -0.052  1.00  0.00     0.169 HD
HETATM   11  N9  UNL     1       0.200  -1.834  -2.092  1.00  0.00    -0.327 N 
HETATM   12  C17 UNL     1      -1.034  -2.333  -2.355  1.00  0.00     0.128 A 
ATOM     13  H9  UNL     1       1.013  -2.254  -2.542  1.00  0.00     0.169 HD
HETATM   14  N10 UNL     1      -1.168  -3.374  -3.210  1.00  0.00    -0.293 N 
HETATM   15  C20 UNL     1      -2.180  -1.821  -1.785  1.00  0.00     0.096 A 
HETATM   16  C18 UNL     1      -2.387  -3.879  -3.483  1.00  0.00     0.327 A 
ATOM     17  H10 UNL     1      -0.341  -3.778  -3.650  1.00  0.00     0.172 HD
HETATM   18  O3  UNL     1      -2.469  -4.864  -4.297  1.00  0.00    -0.247 OA
HETATM   19  N11 UNL     1      -3.486  -3.380  -2.929  1.00  0.00    -0.294 N 
HETATM   20  C19 UNL     1      -3.450  -2.329  -2.053  1.00  0.00     0.120 A 
ATOM     21  H11 UNL     1      -4.388  -3.794  -3.164  1.00  0.00     0.172 HD
HETATM   22  N12 UNL     1      -4.508  -1.894  -1.553  1.00  0.00    -0.384 N 
ATOM     23 2H12 UNL     1      -5.437  -2.266  -1.749  1.00  0.00     0.157 HD
ATOM     24 1H12 UNL     1      -4.481  -1.111  -0.900  1.00  0.00     0.157 HD
BRANCH   9  25
HETATM   25  C6  UNL     1       1.710  -0.248  -1.012  1.00  0.00     0.008 A 
HETATM   26  C7  UNL     1       2.843  -0.839  -1.534  1.00  0.00     0.016 A 
HETATM   27  C8  UNL     1       4.122  -0.352  -1.375  1.00  0.00     0.018 A 
HETATM   28  C9  UNL     1       4.282   0.810  -0.639  1.00  0.00     0.032 A 
HETATM   29  C15 UNL     1       3.180   1.422  -0.106  1.00  0.00     0.018 A 
HETATM   30  C16 UNL     1       1.899   0.899  -0.287  1.00  0.00     0.016 A 
BRANCH  28  31
HETATM   31  C10 UNL     1       5.629   1.327  -0.475  1.00  0.00     0.251 C 
HETATM   32  O1  UNL     1       5.903   2.474  -0.894  1.00  0.00    -0.268 OA
HETATM   33  N4  UNL     1       6.623   0.553   0.151  1.00  0.00    -0.356 N 
ATOM     34  H4  UNL     1       6.405  -0.382   0.496  1.00  0.00     0.162 HD
BRANCH  33  35
HETATM   35  C11 UNL     1       7.954   1.092   0.302  1.00  0.00     0.132 C 
BRANCH  35  36
HETATM   36  C12 UNL     1       8.910   0.174   1.001  1.00  0.00     0.124 C 
BRANCH  36  37
HETATM   37  C13 UNL     1      10.233   0.897   1.069  1.00  0.00     0.237 C 
HETATM   38  O2  UNL     1      10.383   2.042   0.548  1.00  0.00    -0.272 OA
HETATM   39  N5  UNL     1      11.315   0.280   1.726  1.00  0.00    -0.268 N 
ATOM     40  H5  UNL     1      11.194  -0.642   2.144  1.00  0.00     0.190 HD
BRANCH  39  41
HETATM   41  N6  UNL     1      12.558   0.925   1.809  1.00  0.00    -0.271 N 
HETATM   42  C14 UNL     1      13.241   1.377   0.647  1.00  0.00     0.200 C 
HETATM   43  N7  UNL     1      13.027   0.818  -0.493  1.00  0.00    -0.372 N 
HETATM   44  N8  UNL     1      14.154   2.436   0.737  1.00  0.00    -0.062 NA
ATOM     45  H72 UNL     1      12.362   0.047  -0.559  1.00  0.00     0.158 HD
ATOM     46  H71 UNL     1      13.517   1.142  -1.327  1.00  0.00     0.158 HD
ATOM     47  H6  UNL     1      12.982   1.073   2.725  1.00  0.00     0.189 HD
ENDBRANCH  39  41
ENDBRANCH  36  37
ENDBRANCH  35  36
ENDBRANCH  33  35
ENDBRANCH  28  31
ENDBRANCH   9  25
ENDBRANCH   5   7
ENDBRANCH   4   5
ENDBRANCH   3   4
BRANCH   3  48
HETATM   48  N13 UNL     1      -4.890   0.666   1.843  1.00  0.00    -0.341 N 
HETATM   49  C21 UNL     1      -6.303   0.720   1.719  1.00  0.00     0.249 C 
HETATM   50  O4  UNL     1      -6.760   1.571   0.928  1.00  0.00    -0.271 OA
ATOM     51  H13 UNL     1      -4.494  -0.018   2.487  1.00  0.00     0.164 HD
BRANCH  49  52
HETATM   52  C22 UNL     1      -7.193  -0.161   2.468  1.00  0.00     0.278 C 
BRANCH  52  53
HETATM   53  N14 UNL     1      -6.334  -0.960   3.369  1.00  0.00    -0.066 N 
ATOM     54 3H14 UNL     1      -5.590  -1.458   2.880  1.00  0.00     0.275 HD
ATOM     55 2H14 UNL     1      -5.734  -0.390   3.966  1.00  0.00     0.275 HD
ATOM     56 1H14 UNL     1      -6.956  -1.576   3.893  1.00  0.00     0.275 HD
ENDBRANCH  52  53
BRANCH  52  57
HETATM   57  C23 UNL     1      -7.864  -1.161   1.576  1.00  0.00     0.081 C 
BRANCH  57  58
HETATM   58  C24 UNL     1      -8.675  -0.518   0.548  1.00  0.00    -0.056 A 
HETATM   59  C25 UNL     1      -9.948  -0.098   0.924  1.00  0.00     0.010 A 
HETATM   60  C26 UNL     1     -10.771   0.472   0.000  1.00  0.00     0.037 A 
HETATM   61  C27 UNL     1     -10.372   0.646  -1.309  1.00  0.00     0.065 A 
HETATM   62  C28 UNL     1      -9.111   0.223  -1.657  1.00  0.00     0.037 A 
HETATM   63  C29 UNL     1      -8.236  -0.361  -0.762  1.00  0.00     0.010 A 
BRANCH  61  64
HETATM   64  O5  UNL     1     -11.254   1.233  -2.205  1.00  0.00    -0.361 OA
ATOM     65  H5  UNL     1     -10.979   1.353  -3.106  1.00  0.00     0.217 HD
ENDBRANCH  61  64
ENDBRANCH  57  58
ENDBRANCH  52  57
ENDBRANCH  49  52
ENDBRANCH   3  48
TORSDOF 15
