REMARK  15 active torsions:
REMARK  status: ('A' for Active; 'I' for Inactive)
REMARK    1  A    between atoms: C3_4  and  O1_5 
REMARK    2  A    between atoms: O1_5  and  C4_6 
REMARK    3  A    between atoms: C4_6  and  C5_7 
REMARK    4  A    between atoms: N2_8  and  C6_10 
REMARK    5  A    between atoms: C7_13  and  N4_14 
REMARK    6  A    between atoms: C10_28  and  N9_29 
REMARK    7  A    between atoms: C13_32  and  N10_33 
REMARK       I    between atoms: N10_33  and  C14_35 
REMARK       I    between atoms: C14_35  and  N11_37 
REMARK    8  A    between atoms: N11_37  and  C15_39 
REMARK    9  A    between atoms: C15_39  and  C16_40 
REMARK   10  A    between atoms: C16_40  and  N12_41 
REMARK   11  A    between atoms: N12_41  and  C17_43 
REMARK   12  A    between atoms: C20_48  and  N14_49 
REMARK   13  A    between atoms: N14_49  and  N15_51 
REMARK   14  A    between atoms: N15_51  and  C21_53 
REMARK   15  A    between atoms: C21_53  and  C22_54 
ROOT
HETATM    1  N1  UNL     1      -7.932   0.002  -2.445  1.00  0.00    -0.191 NA
HETATM    2  C1  UNL     1      -6.960   0.030  -1.847  1.00  0.00     0.106 C 
HETATM    3  C2  UNL     1      -5.734   0.082  -1.122  1.00  0.00     0.124 A 
HETATM    4  C3  UNL     1      -5.578   0.365   0.202  1.00  0.00     0.166 A 
HETATM    5  N8  UNL     1      -4.216   0.327   0.473  1.00  0.00    -0.332 N 
ATOM      6  H8  UNL     1      -3.802   0.500   1.389  1.00  0.00     0.168 HD
HETATM    7  C9  UNL     1      -3.525   0.034  -0.627  1.00  0.00     0.089 A 
HETATM    8  C10 UNL     1      -2.157  -0.109  -0.854  1.00  0.00     0.061 A 
HETATM    9  C25 UNL     1      -1.802  -0.418  -2.146  1.00  0.00     0.049 A 
HETATM   10  C26 UNL     1      -2.760  -0.575  -3.151  1.00  0.00     0.090 A 
HETATM   11  N18 UNL     1      -4.067  -0.422  -2.862  1.00  0.00    -0.363 N 
ATOM     12  H18 UNL     1      -4.767  -0.536  -3.595  1.00  0.00     0.165 HD
HETATM   13  C27 UNL     1      -4.448  -0.122  -1.621  1.00  0.00     0.086 A 
ENDROOT
BRANCH   4  14
HETATM   14  O1  UNL     1      -6.462   0.652   1.212  1.00  0.00    -0.329 OA
BRANCH  14  15
HETATM   15  C4  UNL     1      -6.972  -0.211   2.164  1.00  0.00     0.222 C 
BRANCH  15  16
HETATM   16  C5  UNL     1      -7.835  -1.310   1.677  1.00  0.00     0.105 C 
HETATM   17  N2  UNL     1      -8.988  -0.994   1.024  1.00  0.00    -0.202 N 
ATOM     18  H2  UNL     1      -9.285  -1.831   0.522  1.00  0.00     0.183 HD
BRANCH  17  19
HETATM   19  C6  UNL     1      -9.823  -0.116   0.787  1.00  0.00     0.711 A 
HETATM   20  N3  UNL     1     -10.880  -0.447  -0.038  1.00  0.00    -0.021 N 
HETATM   21  C7  UNL     1     -11.842   0.372  -0.387  1.00  0.00     0.705 A 
ATOM     22  H3  UNL     1     -10.915  -1.399  -0.403  1.00  0.00     0.203 HD
HETATM   23  N5  UNL     1     -11.813   1.642   0.088  1.00  0.00    -0.022 N 
HETATM   24  C8  UNL     1     -10.829   2.045   0.890  1.00  0.00     0.705 A 
ATOM     25  H5  UNL     1     -12.552   2.295  -0.172  1.00  0.00     0.203 HD
HETATM   26  N6  UNL     1     -10.736   3.249   1.384  1.00  0.00    -0.234 N 
HETATM   27  N7  UNL     1      -9.844   1.151   1.227  1.00  0.00    -0.021 N 
ATOM     28  H62 UNL     1     -11.468   3.914   1.134  1.00  0.00     0.174 HD
ATOM     29  H61 UNL     1      -9.982   3.558   1.998  1.00  0.00     0.174 HD
ATOM     30  H7  UNL     1      -9.092   1.465   1.841  1.00  0.00     0.203 HD
BRANCH  21  31
HETATM   31  N4  UNL     1     -12.837   0.043  -1.169  1.00  0.00    -0.234 N 
ATOM     32  H42 UNL     1     -12.859  -0.912  -1.526  1.00  0.00     0.174 HD
ATOM     33  H41 UNL     1     -13.586   0.680  -1.441  1.00  0.00     0.174 HD
ENDBRANCH  21  31
ENDBRANCH  17  19
ENDBRANCH  15  16
ENDBRANCH  14  15
ENDBRANCH   4  14
BRANCH   8  34
HETATM   34  N9  UNL     1      -1.213   0.057   0.186  1.00  0.00    -0.379 N 
HETATM   35  C11 UNL     1      -1.204   1.274   0.965  1.00  0.00     0.125 C 
HETATM   36  C12 UNL     1       0.105   1.987   0.798  1.00  0.00     0.045 C 
HETATM   37  C13 UNL     1       1.273   1.040   0.722  1.00  0.00     0.089 C 
HETATM   38  C23 UNL     1       0.860  -0.274   1.337  1.00  0.00     0.045 C 
HETATM   39  C24 UNL     1      -0.225  -0.956   0.519  1.00  0.00     0.125 C 
BRANCH  37  40
HETATM   40  N10 UNL     1       1.733   0.855  -0.625  1.00  0.00    -0.338 N 
HETATM   41  C14 UNL     1       3.082   1.137  -1.047  1.00  0.00     0.316 C 
HETATM   42  O2  UNL     1       3.904   1.556  -0.209  1.00  0.00    -0.247 OA
HETATM   43  N11 UNL     1       3.456   0.946  -2.382  1.00  0.00    -0.342 N 
ATOM     44  H11 UNL     1       2.744   0.610  -3.031  1.00  0.00     0.164 HD
ATOM     45  H10 UNL     1       1.072   0.506  -1.319  1.00  0.00     0.164 HD
BRANCH  43  46
HETATM   46  C15 UNL     1       4.755   1.187  -2.896  1.00  0.00     0.144 C 
BRANCH  46  47
HETATM   47  C16 UNL     1       5.771   0.296  -2.226  1.00  0.00     0.157 C 
BRANCH  47  48
HETATM   48  N12 UNL     1       7.073   0.551  -2.822  1.00  0.00    -0.224 N 
ATOM     49  H12 UNL     1       7.151   1.124  -3.662  1.00  0.00     0.177 HD
BRANCH  48  50
HETATM   50  C17 UNL     1       8.118   0.050  -2.283  1.00  0.00     0.679 A 
HETATM   51  N13 UNL     1       9.323   0.288  -2.841  1.00  0.00    -0.202 N 
HETATM   52  C18 UNL     1      10.469  -0.192  -2.350  1.00  0.00     0.110 A 
ATOM     53  H13 UNL     1       9.361   0.864  -3.682  1.00  0.00     0.183 HD
HETATM   54  C19 UNL     1      10.408  -0.972  -1.211  1.00  0.00     0.068 A 
HETATM   55  C20 UNL     1       9.177  -1.206  -0.653  1.00  0.00     0.136 A 
HETATM   56  N17 UNL     1       8.045  -0.697  -1.188  1.00  0.00    -0.175 N 
ATOM     57  H17 UNL     1       7.141  -0.885  -0.754  1.00  0.00     0.186 HD
BRANCH  55  58
HETATM   58  N14 UNL     1       9.116  -1.944   0.429  1.00  0.00    -0.289 N 
ATOM     59  H14 UNL     1       8.210  -2.128   0.860  1.00  0.00     0.188 HD
BRANCH  58  60
HETATM   60  N15 UNL     1      10.266  -2.481   1.000  1.00  0.00    -0.326 N 
ATOM     61  H15 UNL     1      10.561  -3.419   0.729  1.00  0.00     0.180 HD
BRANCH  60  62
HETATM   62  C21 UNL     1      11.056  -1.749   1.966  1.00  0.00     0.238 C 
BRANCH  62  63
HETATM   63  C22 UNL     1      10.251  -1.436   3.158  1.00  0.00     0.250 C 
HETATM   64  N16 UNL     1       8.895  -1.796   3.343  1.00  0.00    -0.061 NA
HETATM   65  O3  UNL     1      10.802  -0.790   4.111  1.00  0.00    -0.275 OA
ENDBRANCH  62  63
ENDBRANCH  60  62
ENDBRANCH  58  60
ENDBRANCH  55  58
ENDBRANCH  48  50
ENDBRANCH  47  48
ENDBRANCH  46  47
ENDBRANCH  43  46
ENDBRANCH  37  40
ENDBRANCH   8  34
TORSDOF 15
