REMARK  16 active torsions:
REMARK  status: ('A' for Active; 'I' for Inactive)
REMARK    1  A    between atoms: O1_2  and  C2_3 
REMARK    2  A    between atoms: C2_3  and  C3_5 
REMARK    3  A    between atoms: C3_5  and  C22_39 
REMARK    4  A    between atoms: C4_6  and  C5_7 
REMARK    5  A    between atoms: C7_9  and  O3_10 
REMARK    6  A    between atoms: C8_12  and  O4_13 
REMARK    7  A    between atoms: O4_13  and  C9_14 
REMARK    8  A    between atoms: C9_14  and  C10_16 
REMARK    9  A    between atoms: C11_17  and  C12_18 
REMARK   10  A    between atoms: C14_20  and  O6_21 
REMARK   11  A    between atoms: C15_23  and  O7_24 
REMARK   12  A    between atoms: C16_26  and  C17_27 
REMARK   13  A    between atoms: C17_27  and  O8_28 
REMARK   14  A    between atoms: C17_27  and  O9_30 
REMARK   15  A    between atoms: C18_32  and  O10_33 
REMARK   16  A    between atoms: C19_35  and  O11_36 
ROOT
HETATM    1  C9  UNL     1      -0.897  -0.287  -0.251  1.00  0.00     0.288 C 
HETATM    2  O5  UNL     1      -0.471   0.812  -0.674  1.00  0.00    -0.260 OA
ENDROOT
BRANCH   1   3
HETATM    3  O4  UNL     1       0.028  -1.273   0.044  1.00  0.00    -0.270 OA
BRANCH   3   4
HETATM    4  C8  UNL     1       1.402  -1.024  -0.135  1.00  0.00     0.145 A 
HETATM    5  C7  UNL     1       2.011  -1.268  -1.354  1.00  0.00     0.103 A 
HETATM    6  C6  UNL     1       3.353  -1.015  -1.497  1.00  0.00     0.051 A 
HETATM    7  C5  UNL     1       4.117  -0.515  -0.431  1.00  0.00    -0.029 A 
HETATM    8  C21 UNL     1       3.462  -0.289   0.769  1.00  0.00     0.051 A 
HETATM    9  C19 UNL     1       2.116  -0.535   0.935  1.00  0.00     0.105 A 
BRANCH   5  10
HETATM   10  O3  UNL     1       1.263  -1.759  -2.403  1.00  0.00    -0.358 OA
ATOM     11  H3  UNL     1       0.335  -1.934  -2.304  1.00  0.00     0.217 HD
ENDBRANCH   5  10
BRANCH   7  12
HETATM   12  C4  UNL     1       5.521  -0.329  -0.603  1.00  0.00     0.036 C 
HETATM   13  C3  UNL     1       6.235   0.737  -0.460  1.00  0.00     0.116 C 
BRANCH  13  14
HETATM   14  C2  UNL     1       7.703   0.617  -0.706  1.00  0.00     0.299 C 
HETATM   15  O2  UNL     1       8.383   1.653  -0.564  1.00  0.00    -0.259 OA
BRANCH  14  16
HETATM   16  O1  UNL     1       8.287  -0.566  -1.069  1.00  0.00    -0.322 OA
HETATM   17  C1  UNL     1       9.675  -0.710  -1.308  1.00  0.00     0.213 C 
ENDBRANCH  14  16
ENDBRANCH  13  14
BRANCH  13  18
HETATM   18  C22 UNL     1       5.688   2.038  -0.153  1.00  0.00     0.215 C 
HETATM   19  O12 UNL     1       4.492   2.346  -0.001  1.00  0.00    -0.644 OA
HETATM   20  O13 UNL     1       6.576   3.136   0.005  1.00  0.00    -0.644 OA
ENDBRANCH  13  18
ENDBRANCH   7  12
BRANCH   9  21
HETATM   21  O11 UNL     1       1.450  -0.313   2.125  1.00  0.00    -0.353 OA
HETATM   22  C20 UNL     1       2.171   0.188   3.234  1.00  0.00     0.210 C 
ENDBRANCH   9  21
ENDBRANCH   3   4
ENDBRANCH   1   3
BRANCH   1  23
HETATM   23  C10 UNL     1      -2.359  -0.518  -0.073  1.00  0.00     0.083 C 
HETATM   24  C11 UNL     1      -3.153   0.461  -0.376  1.00  0.00     0.020 C 
BRANCH  24  25
HETATM   25  C12 UNL     1      -4.586   0.541  -0.312  1.00  0.00     0.001 A 
HETATM   26  C13 UNL     1      -5.243   1.705  -0.702  1.00  0.00     0.053 A 
HETATM   27  C14 UNL     1      -6.601   1.880  -0.678  1.00  0.00     0.100 A 
HETATM   28  C15 UNL     1      -7.355   0.825  -0.237  1.00  0.00     0.112 A 
HETATM   29  C16 UNL     1      -6.764  -0.358   0.163  1.00  0.00     0.066 A 
HETATM   30  C18 UNL     1      -5.373  -0.509   0.130  1.00  0.00     0.090 A 
BRANCH  27  31
HETATM   31  O6  UNL     1      -7.196   3.083  -1.085  1.00  0.00    -0.358 OA
ATOM     32  H6  UNL     1      -8.138   3.204  -1.068  1.00  0.00     0.217 HD
ENDBRANCH  27  31
BRANCH  28  33
HETATM   33  O7  UNL     1      -8.733   0.940  -0.189  1.00  0.00    -0.357 OA
ATOM     34  H7  UNL     1      -9.256   0.208   0.117  1.00  0.00     0.217 HD
ENDBRANCH  28  33
BRANCH  29  35
HETATM   35  C17 UNL     1      -7.640  -1.452   0.635  1.00  0.00     0.294 C 
BRANCH  35  36
HETATM   36  O8  UNL     1      -7.341  -2.659   0.046  1.00  0.00    -0.367 OA
ATOM     37  H8  UNL     1      -7.904  -3.362   0.349  1.00  0.00     0.213 HD
ENDBRANCH  35  36
BRANCH  35  38
HETATM   38  O9  UNL     1      -8.983  -1.100   0.469  1.00  0.00    -0.367 OA
ATOM     39  H9  UNL     1      -9.546  -1.803   0.772  1.00  0.00     0.213 HD
ENDBRANCH  35  38
ENDBRANCH  29  35
BRANCH  30  40
HETATM   40  O10 UNL     1      -4.809  -1.693   0.539  1.00  0.00    -0.359 OA
ATOM     41  H10 UNL     1      -5.349  -2.413   0.842  1.00  0.00     0.217 HD
ENDBRANCH  30  40
ENDBRANCH  24  25
ENDBRANCH   1  23
TORSDOF 16
