REMARK  7 active torsions:
REMARK  status: ('A' for Active; 'I' for Inactive)
REMARK    1  A    between atoms: O1_2  and  C2_3 
REMARK    2  A    between atoms: C2_3  and  O2_4 
REMARK    3  A    between atoms: C2_3  and  C3_6 
REMARK    4  A    between atoms: C6_9  and  N1_10 
REMARK    5  A    between atoms: N1_10  and  C7_12 
REMARK    6  A    between atoms: C9_19  and  N4_20 
REMARK    7  A    between atoms: C10_25  and  N6_26 
ROOT
HETATM    1  C3  UNL     1      -0.166  -0.517   0.146  1.00  0.00     0.142 A 
HETATM    2  C4  UNL     1       1.041  -0.850  -0.504  1.00  0.00     0.016 A 
HETATM    3  C5  UNL     1       1.327  -2.265  -0.814  1.00  0.00     0.055 C 
HETATM    4  C6  UNL     1       1.906   0.102  -0.949  1.00  0.00     0.131 A 
HETATM    5  N2  UNL     1       1.649   1.409  -0.796  1.00  0.00    -0.174 N 
ATOM      6  H2  UNL     1       2.300   2.118  -1.133  1.00  0.00     0.186 HD
HETATM    7  C8  UNL     1       0.507   1.751  -0.185  1.00  0.00     0.720 A 
HETATM    8  N3  UNL     1       0.236   3.066  -0.017  1.00  0.00    -0.021 N 
ATOM      9  H3  UNL     1       0.909   3.748  -0.367  1.00  0.00     0.203 HD
HETATM   10  C9  UNL     1      -0.869   3.517   0.585  1.00  0.00     0.705 A 
HETATM   11  N5  UNL     1      -1.726   2.615   1.031  1.00  0.00    -0.021 N 
ATOM     12  H5  UNL     1      -2.581   2.918   1.497  1.00  0.00     0.203 HD
HETATM   13  C10 UNL     1      -1.477   1.278   0.874  1.00  0.00     0.712 A 
HETATM   14  N7  UNL     1      -0.380   0.835   0.276  1.00  0.00     0.029 N 
ENDROOT
BRANCH   1  15
HETATM   15  C2  UNL     1      -0.966  -1.561   0.690  1.00  0.00     0.207 C 
BRANCH  15  16
HETATM   16  O1  UNL     1      -2.206  -1.739   1.210  1.00  0.00    -0.334 OA
HETATM   17  C1  UNL     1      -2.695  -3.023   1.673  1.00  0.00     0.212 C 
ENDBRANCH  15  16
BRANCH  15  18
HETATM   18  O2  UNL     1      -0.366  -2.732   0.710  1.00  0.00    -0.339 OA
ATOM     19  H2  UNL     1       0.503  -2.607   0.346  1.00  0.00     0.220 HD
ENDBRANCH  15  18
ENDBRANCH   1  15
BRANCH   4  20
HETATM   20  N1  UNL     1       3.165  -0.244  -1.547  1.00  0.00    -0.320 N 
ATOM     21  H1  UNL     1       3.442  -1.222  -1.628  1.00  0.00     0.169 HD
BRANCH  20  22
HETATM   22  C7  UNL     1       4.030   0.789  -2.029  1.00  0.00     0.354 C 
HETATM   23  O3  UNL     1       5.130   0.443  -2.521  1.00  0.00    -0.283 OA
ENDBRANCH  20  22
ENDBRANCH   4  20
BRANCH  13  24
HETATM   24  N6  UNL     1      -2.370   0.523   1.350  1.00  0.00    -0.233 N 
ATOM     25  H62 UNL     1      -3.214   0.864   1.810  1.00  0.00     0.174 HD
ATOM     26  H61 UNL     1      -2.184  -0.473   1.233  1.00  0.00     0.174 HD
ENDBRANCH  13  24
BRANCH  10  27
HETATM   27  N4  UNL     1      -1.070   4.778   0.715  1.00  0.00    -0.234 N 
ATOM     28  H42 UNL     1      -0.409   5.474   0.371  1.00  0.00     0.174 HD
ATOM     29  H41 UNL     1      -1.913   5.122   1.174  1.00  0.00     0.174 HD
ENDBRANCH  10  27
TORSDOF 7
