REMARK  4 active torsions:
REMARK  status: ('A' for Active; 'I' for Inactive)
REMARK    1  A    between atoms: C2_5  and  C3_6 
REMARK    2  A    between atoms: N3_8  and  N4_9 
REMARK    3  A    between atoms: C5_12  and  N5_13 
REMARK    4  A    between atoms: C7_23  and  N9_24 
ROOT
HETATM    1  C1  UNL     1      -3.218  -1.882  -0.196  1.00  0.00     0.179 C 
HETATM    2  N1  UNL     1      -2.035  -1.049  -0.147  1.00  0.00    -0.276 N 
HETATM    3  N2  UNL     1      -0.809  -1.459  -0.054  1.00  0.00    -0.279 N 
ATOM      4  H2  UNL     1      -0.513  -2.434  -0.003  1.00  0.00     0.189 HD
HETATM    5  C2  UNL     1       0.014  -0.388  -0.035  1.00  0.00     0.173 A 
HETATM    6  N7  UNL     1      -0.786   0.695  -0.122  1.00  0.00    -0.213 N 
HETATM    7  N8  UNL     1      -0.767   2.006  -0.164  1.00  0.00    -0.254 N 
ATOM      8  H8  UNL     1       0.073   2.584  -0.129  1.00  0.00     0.191 HD
HETATM    9  C6  UNL     1      -2.016   2.468  -0.260  1.00  0.00     0.297 A 
HETATM   10  O1  UNL     1      -2.391   3.684  -0.324  1.00  0.00    -0.264 OA
HETATM   11  C7  UNL     1      -2.877   1.379  -0.281  1.00  0.00     0.219 A 
HETATM   12  C8  UNL     1      -2.055   0.277  -0.191  1.00  0.00     0.184 A 
ENDROOT
BRANCH   5  13
HETATM   13  C3  UNL     1       1.477  -0.464   0.062  1.00  0.00     0.114 A 
HETATM   14  C4  UNL     1       2.417   0.535   0.090  1.00  0.00     0.168 A 
HETATM   15  N3  UNL     1       3.667   0.001   0.188  1.00  0.00    -0.102 N 
HETATM   16  C5  UNL     1       3.503  -1.331   0.220  1.00  0.00     0.697 A 
HETATM   17  N6  UNL     1       2.194  -1.615   0.145  1.00  0.00    -0.185 N 
ATOM     18  H6  UNL     1       1.797  -2.554   0.150  1.00  0.00     0.184 HD
BRANCH  15  19
HETATM   19  N4  UNL     1       4.817   0.763   0.237  1.00  0.00    -0.325 N 
ATOM     20  H42 UNL     1       4.942   1.775   0.213  1.00  0.00     0.178 HD
ATOM     21  H41 UNL     1       5.753   0.363   0.310  1.00  0.00     0.178 HD
ENDBRANCH  15  19
BRANCH  16  22
HETATM   22  N5  UNL     1       4.514  -2.138   0.310  1.00  0.00    -0.233 N 
ATOM     23  H52 UNL     1       5.509  -1.922   0.367  1.00  0.00     0.174 HD
ATOM     24  H51 UNL     1       4.389  -3.150   0.334  1.00  0.00     0.174 HD
ENDBRANCH  16  22
ENDBRANCH   5  13
BRANCH  11  25
HETATM   25  N9  UNL     1      -4.291   1.420  -0.374  1.00  0.00    -0.106 N 
HETATM   26  O2  UNL     1      -4.844   1.707  -1.436  1.00  0.00    -0.531 OA
HETATM   27  O3  UNL     1      -5.032   1.137   0.730  1.00  0.00    -0.531 OA
ENDBRANCH  11  25
TORSDOF 4
