REMARK  8 active torsions:
REMARK  status: ('A' for Active; 'I' for Inactive)
REMARK    1  A    between atoms: N1_2  and  N2_3 
REMARK    2  A    between atoms: N1_2  and  C2_8 
REMARK    3  A    between atoms: N2_3  and  N3_5 
REMARK    4  A    between atoms: C2_8  and  O1_10 
REMARK    5  A    between atoms: O1_10  and  C3_11 
REMARK    6  A    between atoms: C3_11  and  N4_12 
REMARK    7  A    between atoms: N4_12  and  N5_13 
REMARK    8  A    between atoms: N4_12  and  O2_16 
ROOT
HETATM    1  C3  UNL     1      -0.356  -0.602  -0.491  1.00  0.00     0.216 C 
HETATM    2  C4  UNL     1      -0.869  -1.063   0.867  1.00  0.00     0.189 C 
HETATM    3  N6  UNL     1      -1.765  -0.106   1.449  1.00  0.00    -0.360 N 
ATOM      4  H6  UNL     1      -1.854  -0.110   2.465  1.00  0.00     0.162 HD
HETATM    5  C5  UNL     1      -2.456   0.745   0.812  1.00  0.00     0.184 C 
HETATM    6  N7  UNL     1      -3.332   1.670   1.460  1.00  0.00    -0.064 NA
HETATM    7  N8  UNL     1      -2.362   0.788  -0.603  1.00  0.00    -0.360 N 
ATOM      8  H8  UNL     1      -2.743   1.572  -1.133  1.00  0.00     0.162 HD
HETATM    9  C6  UNL     1      -1.708  -0.317  -1.270  1.00  0.00     0.189 C 
ENDROOT
BRANCH   1  10
HETATM   10  O1  UNL     1       0.335   0.539  -0.539  1.00  0.00    -0.286 OA
BRANCH  10  11
HETATM   11  C2  UNL     1       1.426   1.231  -0.355  1.00  0.00     0.234 C 
HETATM   12  S1  UNL     1       1.505   2.723  -1.122  1.00  0.00    -0.031 SA
BRANCH  11  13
HETATM   13  N1  UNL     1       2.557   0.892   0.408  1.00  0.00    -0.252 N 
HETATM   14  C1  UNL     1       2.744  -0.325   1.164  1.00  0.00     0.182 C 
BRANCH  13  15
HETATM   15  N2  UNL     1       3.624   1.818   0.451  1.00  0.00    -0.245 N 
ATOM     16  H2  UNL     1       4.386   1.784  -0.226  1.00  0.00     0.208 HD
BRANCH  15  17
HETATM   17  N3  UNL     1       3.592   2.708   1.384  1.00  0.00    -0.331 N 
ATOM     18  H32 UNL     1       2.823   2.729   2.054  1.00  0.00     0.178 HD
ATOM     19  H31 UNL     1       4.362   3.376   1.415  1.00  0.00     0.178 HD
ENDBRANCH  15  17
ENDBRANCH  13  15
ENDBRANCH  11  13
ENDBRANCH  10  11
ENDBRANCH   1  10
BRANCH   1  20
HETATM   20  N4  UNL     1       0.183  -1.703  -1.268  1.00  0.00    -0.167 N 
BRANCH  20  21
HETATM   21  N5  UNL     1      -0.396  -2.954  -1.267  1.00  0.00    -0.321 N 
ATOM     22  H52 UNL     1      -1.226  -3.123  -0.699  1.00  0.00     0.179 HD
ATOM     23  H51 UNL     1      -0.017  -3.728  -1.813  1.00  0.00     0.179 HD
ENDBRANCH  20  21
BRANCH  20  24
HETATM   24  O2  UNL     1       1.186  -1.499  -1.955  1.00  0.00    -0.270 OA
ATOM     25  H2  UNL     1       1.539  -2.220  -2.464  1.00  0.00     0.246 HD
ENDBRANCH  20  24
ENDBRANCH   1  20
TORSDOF 8
