REMARK  2 active torsions:
REMARK  status: ('A' for Active; 'I' for Inactive)
REMARK    1  A    between atoms: N3_6  and  N4_7 
REMARK       I    between atoms: N4_7  and  C4_9 
REMARK    2  A    between atoms: C6_18  and  N10_21 
ROOT
HETATM    1  N1  UNL     1      -1.646   3.067  -0.494  1.00  0.00    -0.193 NA
HETATM    2  C1  UNL     1      -1.305   2.065  -0.050  1.00  0.00     0.115 C 
HETATM    3  C2  UNL     1      -0.862   0.788   0.534  1.00  0.00     0.294 C 
HETATM    4  C3  UNL     1      -0.439   1.036   1.890  1.00  0.00     0.115 C 
HETATM    5  N2  UNL     1      -0.110   1.237   2.988  1.00  0.00    -0.193 NA
HETATM    6  N3  UNL     1       0.136   0.135  -0.274  1.00  0.00    -0.218 N 
HETATM    7  C5  UNL     1      -0.185  -1.239  -0.290  1.00  0.00     0.211 C 
HETATM    8  N7  UNL     1       0.679  -2.323  -0.704  1.00  0.00    -0.062 NA
HETATM    9  N8  UNL     1      -1.382  -1.399   0.126  1.00  0.00    -0.316 N 
ATOM     10  H8  UNL     1      -1.831  -2.312   0.201  1.00  0.00     0.166 HD
HETATM   11  C6  UNL     1      -2.028  -0.179   0.475  1.00  0.00     0.313 C 
HETATM   12  C7  UNL     1      -3.010   0.252  -0.528  1.00  0.00     0.125 C 
HETATM   13  N9  UNL     1      -3.776   0.601  -1.295  1.00  0.00    -0.192 NA
ENDROOT
BRANCH   6  14
HETATM   14  N4  UNL     1       1.206   0.770  -0.909  1.00  0.00    -0.266 N 
HETATM   15  C4  UNL     1       2.502   0.179  -1.006  1.00  0.00     0.201 C 
HETATM   16  N5  UNL     1       3.047   0.060  -2.165  1.00  0.00    -0.372 N 
HETATM   17  N6  UNL     1       3.213  -0.285   0.131  1.00  0.00    -0.062 NA
ATOM     18  H52 UNL     1       2.536   0.394  -2.982  1.00  0.00     0.158 HD
ATOM     19  H51 UNL     1       3.973  -0.362  -2.234  1.00  0.00     0.158 HD
ATOM     20  H4  UNL     1       1.056   1.692  -1.319  1.00  0.00     0.190 HD
ENDBRANCH   6  14
BRANCH  11  21
HETATM   21  N10 UNL     1      -2.657  -0.197   1.767  1.00  0.00    -0.103 N 
HETATM   22  O1  UNL     1      -2.708  -1.278   2.384  1.00  0.00    -0.533 OA
HETATM   23  O2  UNL     1      -3.170   0.950   2.268  1.00  0.00    -0.533 OA
ENDBRANCH  11  21
TORSDOF 2
