REMARK  11 active torsions:
REMARK  status: ('A' for Active; 'I' for Inactive)
REMARK    1  A    between atoms: C2_2  and  N1_3 
REMARK    2  A    between atoms: C2_2  and  C12_36 
REMARK    3  A    between atoms: N1_3  and  N2_5 
REMARK    4  A    between atoms: N2_5  and  C3_7 
REMARK    5  A    between atoms: C3_7  and  O1_8 
REMARK    6  A    between atoms: C3_7  and  C4_10 
REMARK    7  A    between atoms: C5_11  and  C6_12 
REMARK    8  A    between atoms: C7_15  and  O4_16 
REMARK    9  A    between atoms: C8_20  and  N4_21 
REMARK   10  A    between atoms: C9_24  and  N5_25 
REMARK       I    between atoms: N5_25  and  C10_27 
REMARK   11  A    between atoms: C10_27  and  C11_29 
ROOT
HETATM    1  C4  UNL     1       0.245  -1.287   0.527  1.00  0.00     0.068 A 
HETATM    2  C5  UNL     1      -0.030  -2.572   0.916  1.00  0.00     0.108 A 
HETATM    3  C7  UNL     1       0.840  -3.613   0.511  1.00  0.00     0.160 A 
HETATM    4  N3  UNL     1       1.905  -3.379  -0.237  1.00  0.00    -0.321 N 
ATOM      5  H3  UNL     1       2.501  -4.163  -0.504  1.00  0.00     0.169 HD
HETATM    6  C8  UNL     1       2.226  -2.160  -0.653  1.00  0.00     0.129 A 
HETATM    7  C9  UNL     1       1.411  -1.129  -0.278  1.00  0.00     0.095 A 
ENDROOT
BRANCH   1   8
HETATM    8  C3  UNL     1      -0.520  -0.112   0.773  1.00  0.00     0.169 C 
BRANCH   8   9
HETATM    9  N2  UNL     1      -1.489   0.287   1.674  1.00  0.00    -0.279 N 
ATOM     10  H2  UNL     1      -1.832  -0.324   2.415  1.00  0.00     0.189 HD
BRANCH   9  11
HETATM   11  N1  UNL     1      -1.986   1.644   1.489  1.00  0.00    -0.298 N 
ATOM     12  H1  UNL     1      -1.638   2.412   2.063  1.00  0.00     0.186 HD
BRANCH  11  13
HETATM   13  C2  UNL     1      -2.878   1.848   0.580  1.00  0.00     0.086 C 
HETATM   14  C1  UNL     1      -3.417   0.773  -0.279  1.00  0.00     0.075 C 
BRANCH  13  15
HETATM   15  C12 UNL     1      -3.360   3.208   0.413  1.00  0.00     0.278 C 
HETATM   16  N10 UNL     1      -4.337   3.467  -0.574  1.00  0.00    -0.056 NA
HETATM   17  O6  UNL     1      -2.929   4.165   1.126  1.00  0.00    -0.270 OA
ENDBRANCH  13  15
ENDBRANCH  11  13
ENDBRANCH   9  11
ENDBRANCH   8   9
BRANCH   8  18
HETATM   18  O1  UNL     1      -0.208   0.868  -0.085  1.00  0.00    -0.344 OA
ATOM     19  H1  UNL     1       0.458   0.594  -0.704  1.00  0.00     0.219 HD
ENDBRANCH   8  18
ENDBRANCH   1   8
BRANCH   2  20
HETATM   20  C6  UNL     1      -1.206  -2.943   1.616  1.00  0.00     0.214 C 
HETATM   21  O2  UNL     1      -2.159  -2.370   2.104  1.00  0.00    -0.644 OA
HETATM   22  O3  UNL     1      -1.375  -4.369   1.837  1.00  0.00    -0.644 OA
ENDBRANCH   2  20
BRANCH   7  23
HETATM   23  N5  UNL     1       1.847   0.164  -0.733  1.00  0.00    -0.316 N 
HETATM   24  C10 UNL     1       2.766   0.890   0.076  1.00  0.00     0.292 C 
HETATM   25  O5  UNL     1       3.169   0.406   1.140  1.00  0.00    -0.264 OA
ATOM     26  H5  UNL     1       1.506   0.551  -1.613  1.00  0.00     0.169 HD
BRANCH  24  27
HETATM   27  C11 UNL     1       3.242   2.200  -0.329  1.00  0.00     0.200 A 
HETATM   28  N6  UNL     1       4.099   2.999   0.317  1.00  0.00    -0.266 N 
HETATM   29  N7  UNL     1       4.266   4.106  -0.397  1.00  0.00    -0.007 NA
ATOM     30  H6  UNL     1       4.549   2.792   1.209  1.00  0.00     0.185 HD
HETATM   31  N8  UNL     1       3.533   4.037  -1.494  1.00  0.00    -0.007 NA
HETATM   32  N9  UNL     1       2.906   2.874  -1.457  1.00  0.00    -0.266 N 
ATOM     33  H9  UNL     1       2.263   2.533  -2.172  1.00  0.00     0.185 HD
ENDBRANCH  24  27
ENDBRANCH   7  23
BRANCH   3  34
HETATM   34  O4  UNL     1       0.519  -4.901   0.941  1.00  0.00    -0.345 OA
ATOM     35  H4  UNL     1       1.103  -5.599   0.669  1.00  0.00     0.219 HD
ENDBRANCH   3  34
BRANCH   6  36
HETATM   36  N4  UNL     1       3.281  -1.956  -1.393  1.00  0.00    -0.384 N 
ATOM     37  H42 UNL     1       3.889  -2.725  -1.673  1.00  0.00     0.157 HD
ATOM     38  H41 UNL     1       3.528  -1.019  -1.713  1.00  0.00     0.157 HD
ENDBRANCH   6  36
TORSDOF 11
