REMARK  12 active torsions:
REMARK  status: ('A' for Active; 'I' for Inactive)
REMARK    1  A    between atoms: N1_1  and  C1_5 
REMARK    2  A    between atoms: C3_7  and  O1_8 
REMARK    3  A    between atoms: O1_8  and  C4_9 
REMARK    4  A    between atoms: C5_11  and  O3_12 
REMARK    5  A    between atoms: O3_12  and  C6_13 
REMARK    6  A    between atoms: C7_14  and  O4_15 
REMARK    7  A    between atoms: C8_17  and  O5_18 
REMARK    8  A    between atoms: O5_18  and  C9_19 
REMARK    9  A    between atoms: C11_22  and  N2_23 
REMARK   10  A    between atoms: C12_27  and  N3_28 
REMARK   11  A    between atoms: C14_33  and  N4_34 
REMARK   12  A    between atoms: C16_39  and  O7_40 
ROOT
HETATM    1  C4  UNL     1      -1.559  -1.038   0.313  1.00  0.00     0.293 C 
HETATM    2  O2  UNL     1      -0.734  -1.248  -0.759  1.00  0.00    -0.327 OA
HETATM    3  C5  UNL     1       0.368  -2.022  -0.515  1.00  0.00     0.294 C 
HETATM    4  C12 UNL     1      -0.138  -3.416  -0.132  1.00  0.00     0.240 C 
HETATM    5  C13 UNL     1      -0.792  -3.255   1.219  1.00  0.00     0.075 C 
HETATM    6  C14 UNL     1      -1.882  -2.254   1.115  1.00  0.00     0.240 C 
ENDROOT
BRANCH   3   7
HETATM    7  O3  UNL     1       1.234  -1.517   0.426  1.00  0.00    -0.348 OA
BRANCH   7   8
HETATM    8  C6  UNL     1       2.498  -1.323  -0.095  1.00  0.00     0.187 A 
HETATM    9  C7  UNL     1       3.673  -1.564   0.845  1.00  0.00     0.181 A 
HETATM   10  C8  UNL     1       3.337  -0.163   0.368  1.00  0.00     0.187 A 
BRANCH   9  11
HETATM   11  O4  UNL     1       4.802  -2.194   0.334  1.00  0.00    -0.390 OA
ATOM     12  H4  UNL     1       5.534  -2.344   0.920  1.00  0.00     0.210 HD
ENDBRANCH   9  11
BRANCH  10  13
HETATM   13  O5  UNL     1       4.290   0.393  -0.454  1.00  0.00    -0.348 OA
BRANCH  13  14
HETATM   14  C9  UNL     1       4.551   1.715  -0.103  1.00  0.00     0.292 A 
HETATM   15  O6  UNL     1       5.917   2.024  -0.032  1.00  0.00    -0.357 OA
HETATM   16  C10 UNL     1       5.919   2.838  -1.172  1.00  0.00     0.209 A 
HETATM   17  C11 UNL     1       4.436   2.657  -1.259  1.00  0.00     0.262 A 
BRANCH  17  18
HETATM   18  N2  UNL     1       3.941   2.096  -2.488  1.00  0.00    -0.068 N 
ATOM     19  H23 UNL     1       4.509   1.291  -2.754  1.00  0.00     0.275 HD
ATOM     20  H22 UNL     1       3.043   1.641  -2.323  1.00  0.00     0.275 HD
ATOM     21  H21 UNL     1       3.863   2.738  -3.276  1.00  0.00     0.275 HD
ENDBRANCH  17  18
ENDBRANCH  13  14
ENDBRANCH  10  13
ENDBRANCH   7   8
ENDBRANCH   3   7
BRANCH   4  22
HETATM   22  N3  UNL     1       0.904  -4.391  -0.140  1.00  0.00    -0.070 N 
ATOM     23  H33 UNL     1       1.386  -4.408  -1.039  1.00  0.00     0.274 HD
ATOM     24  H32 UNL     1       1.681  -4.105   0.455  1.00  0.00     0.274 HD
ATOM     25  H31 UNL     1       0.567  -5.319   0.115  1.00  0.00     0.274 HD
ENDBRANCH   4  22
BRANCH   1  26
HETATM   26  O1  UNL     1      -2.775  -0.550  -0.171  1.00  0.00    -0.354 OA
BRANCH  26  27
HETATM   27  C3  UNL     1      -3.089   0.704   0.283  1.00  0.00     0.129 C 
HETATM   28  C2  UNL     1      -4.411   0.791   0.995  1.00  0.00     0.067 C 
HETATM   29  C1  UNL     1      -4.756   2.267   0.872  1.00  0.00     0.214 C 
HETATM   30  C16 UNL     1      -4.030   2.771  -0.339  1.00  0.00     0.151 C 
HETATM   31  C15 UNL     1      -3.314   1.593  -0.924  1.00  0.00     0.066 C 
BRANCH  29  32
HETATM   32  N1  UNL     1      -4.364   3.020   2.028  1.00  0.00    -0.072 N 
ATOM     33  H13 UNL     1      -4.760   2.620   2.879  1.00  0.00     0.274 HD
ATOM     34  H12 UNL     1      -3.373   2.890   2.232  1.00  0.00     0.274 HD
ATOM     35  H11 UNL     1      -4.595   4.010   1.946  1.00  0.00     0.274 HD
ENDBRANCH  29  32
BRANCH  30  36
HETATM   36  O7  UNL     1      -4.955   3.273  -1.284  1.00  0.00    -0.393 OA
ATOM     37  H7  UNL     1      -4.495   3.592  -2.051  1.00  0.00     0.210 HD
ENDBRANCH  30  36
ENDBRANCH  26  27
ENDBRANCH   1  26
BRANCH   6  38
HETATM   38  N4  UNL     1      -2.218  -1.818   2.478  1.00  0.00    -0.070 N 
ATOM     39  H43 UNL     1      -1.487  -1.247   2.902  1.00  0.00     0.274 HD
ATOM     40  H42 UNL     1      -2.963  -1.121   2.498  1.00  0.00     0.274 HD
ATOM     41  H41 UNL     1      -2.439  -2.649   3.026  1.00  0.00     0.274 HD
ENDBRANCH   6  38
TORSDOF 12
