REMARK  1 active torsions:
REMARK  status: ('A' for Active; 'I' for Inactive)
REMARK    1  A    between atoms: N4_8  and  O1_9 
ROOT
HETATM    1  N1  UNL     1       3.114   1.000  -0.228  1.00  0.00    -0.170 NA
HETATM    2  C1  UNL     1       1.974   0.733  -0.164  1.00  0.00     0.208 C 
HETATM    3  N2  UNL     1       0.613   0.396  -0.094  1.00  0.00    -0.158 N 
HETATM    4  C2  UNL     1      -0.391   1.311  -0.012  1.00  0.00     0.151 A 
HETATM    5  C3  UNL     1      -1.571   0.590   0.037  1.00  0.00     0.131 A 
HETATM    6  N3  UNL     1      -1.203  -0.702  -0.019  1.00  0.00    -0.268 N 
ATOM      7  H3  UNL     1      -1.852  -1.489  -0.003  1.00  0.00     0.190 HD
HETATM    8  N4  UNL     1       0.111  -0.818  -0.098  1.00  0.00    -0.080 N 
ENDROOT
BRANCH   8   9
HETATM    9  O1  UNL     1       0.853  -1.991  -0.172  1.00  0.00    -0.252 OA
ATOM     10  H1  UNL     1       0.490  -2.869  -0.175  1.00  0.00     0.248 HD
ENDBRANCH   8   9
TORSDOF 1
