REMARK  3 active torsions:
REMARK  status: ('A' for Active; 'I' for Inactive)
REMARK    1  A    between atoms: C3_5  and  C4_7 
REMARK    2  A    between atoms: C5_8  and  C6_9 
REMARK    3  A    between atoms: C6_9  and  N3_10 
ROOT
HETATM    1  C1  UNL     1       2.257   2.438   0.050  1.00  0.00     0.123 C 
HETATM    2  C2  UNL     1       2.435   1.233  -0.069  1.00  0.00    -0.074 C 
HETATM    3  N1  UNL     1       2.615  -0.138  -0.204  1.00  0.00    -0.307 N 
ATOM      4  H1  UNL     1       3.547  -0.490  -0.423  1.00  0.00     0.177 HD
HETATM    5  C3  UNL     1       1.654  -0.981  -0.064  1.00  0.00     0.177 C 
HETATM    6  N2  UNL     1       1.946  -2.359  -0.223  1.00  0.00    -0.072 NA
ENDROOT
BRANCH   5   7
HETATM    7  C4  UNL     1       0.339  -0.505   0.242  1.00  0.00    -0.031 C 
HETATM    8  C5  UNL     1      -0.780  -0.106   0.489  1.00  0.00    -0.071 C 
BRANCH   8   9
HETATM    9  C6  UNL     1      -2.142   0.356   0.802  1.00  0.00     0.323 C 
BRANCH   9  10
HETATM   10  N3  UNL     1      -2.974   0.095  -0.351  1.00  0.00    -0.069 N 
ATOM     11  H33 UNL     1      -2.604   0.507  -1.207  1.00  0.00     0.275 HD
ATOM     12  H32 UNL     1      -2.945  -0.881  -0.647  1.00  0.00     0.275 HD
ATOM     13  H31 UNL     1      -3.918   0.415  -0.134  1.00  0.00     0.275 HD
ENDBRANCH   9  10
ENDBRANCH   8   9
ENDBRANCH   5   7
TORSDOF 3
