REMARK  1 active torsions:
REMARK  status: ('A' for Active; 'I' for Inactive)
REMARK    1  A    between atoms: N2_3  and  C2_5 
ROOT
HETATM    1  N1  UNL     1       2.411   1.232   0.082  1.00  0.00    -0.172 NA
HETATM    2  C1  UNL     1       1.661   0.336   0.129  1.00  0.00     0.183 C 
HETATM    3  N2  UNL     1       0.772  -0.740   0.176  1.00  0.00    -0.272 N 
ATOM      4  H2  UNL     1       1.138  -1.680   0.329  1.00  0.00     0.180 HD
ENDROOT
BRANCH   3   5
HETATM    5  C2  UNL     1      -0.626  -0.562   0.017  1.00  0.00     0.194 C 
HETATM    6  N3  UNL     1      -1.109   0.780  -0.197  1.00  0.00    -0.069 NA
HETATM    7  S1  UNL     1      -1.687  -1.785   0.064  1.00  0.00    -0.043 SA
ENDBRANCH   3   5
TORSDOF 1
