REMARK  1 active torsions:
REMARK  status: ('A' for Active; 'I' for Inactive)
REMARK    1  A    between atoms: C5_9  and  O1_10 
ROOT
HETATM    1  C1  UNL     1      -1.995  -0.200  -0.601  1.00  0.00     0.312 C 
HETATM    2  N1  UNL     1      -0.621   0.217  -0.699  1.00  0.00     0.120 N 
HETATM    3  C2  UNL     1      -0.319   1.207   0.359  1.00  0.00     0.310 C 
HETATM    4  C3  UNL     1       0.740   0.447   1.091  1.00  0.00     0.249 C 
HETATM    5  N2  UNL     1       0.233  -0.928   1.116  1.00  0.00    -0.032 N 
ATOM      6  H21 UNL     1      -0.625  -1.193   1.600  1.00  0.00     0.280 HD
ATOM      7  H22 UNL     1       0.688  -1.676   1.640  1.00  0.00     0.280 HD
HETATM    8  C4  UNL     1       0.319  -0.813  -0.340  1.00  0.00     0.450 C 
HETATM    9  C5  UNL     1       1.614  -0.033  -0.065  1.00  0.00     0.211 C 
ENDROOT
BRANCH   9  10
HETATM   10  O1  UNL     1       2.633  -0.836   0.405  1.00  0.00    -0.389 OA
ATOM     11  H1  UNL     1       3.177  -1.135  -0.314  1.00  0.00     0.210 HD
ENDBRANCH   9  10
TORSDOF 1
