REMARK  14 active torsions:
REMARK  status: ('A' for Active; 'I' for Inactive)
REMARK    1  A    between atoms: C4_4  and  C5_5 
REMARK    2  A    between atoms: C6_6  and  C7_7 
REMARK    3  A    between atoms: C7_7  and  C8_8 
REMARK    4  A    between atoms: C8_8  and  C9_9 
REMARK    5  A    between atoms: C9_9  and  C10_10 
REMARK    6  A    between atoms: C10_10  and  C11_11 
REMARK    7  A    between atoms: C11_11  and  C12_12 
REMARK    8  A    between atoms: C12_12  and  C13_13 
REMARK    9  A    between atoms: C13_13  and  C14_14 
REMARK   10  A    between atoms: C14_14  and  N1_15 
REMARK       I    between atoms: N1_15  and  C15_17 
REMARK   11  A    between atoms: C15_17  and  C16_19 
REMARK   12  A    between atoms: C16_19  and  C17_20 
REMARK   13  A    between atoms: C17_20  and  C18_21 
REMARK   14  A    between atoms: C18_21  and  N2_22 
ROOT
HETATM    1  C1  UNL     1      11.707   6.435   1.240  1.00  0.00     0.027 C 
HETATM    2  C2  UNL     1      11.837   5.258   1.041  1.00  0.00    -0.025 C 
HETATM    3  C3  UNL     1      12.007   3.859   0.827  1.00  0.00    -0.002 C 
HETATM    4  C4  UNL     1      12.155   2.674   0.668  1.00  0.00    -0.001 C 
ENDROOT
BRANCH   4   5
HETATM    5  C5  UNL     1      12.353   1.264   0.500  1.00  0.00    -0.014 C 
HETATM    6  C6  UNL     1      12.540   0.080   0.379  1.00  0.00    -0.092 C 
BRANCH   6   7
HETATM    7  C7  UNL     1      12.796  -1.342   0.255  1.00  0.00     0.095 C 
BRANCH   7   8
HETATM    8  C8  UNL     1      12.034  -1.956  -0.867  1.00  0.00     0.012 C 
BRANCH   8   9
HETATM    9  C9  UNL     1      10.538  -1.760  -0.602  1.00  0.00     0.001 C 
BRANCH   9  10
HETATM   10  C10 UNL     1       9.735  -2.408  -1.706  1.00  0.00     0.000 C 
BRANCH  10  11
HETATM   11  C11 UNL     1       8.254  -2.263  -1.477  1.00  0.00     0.000 C 
BRANCH  11  12
HETATM   12  C12 UNL     1       7.776  -0.845  -1.442  1.00  0.00     0.002 C 
BRANCH  12  13
HETATM   13  C13 UNL     1       6.270  -0.766  -1.168  1.00  0.00     0.020 C 
BRANCH  13  14
HETATM   14  C14 UNL     1       5.547  -1.499  -2.252  1.00  0.00     0.122 C 
BRANCH  14  15
HETATM   15  N1  UNL     1       4.122  -1.434  -2.040  1.00  0.00    -0.361 N 
HETATM   16  C15 UNL     1       3.519  -1.965  -0.900  1.00  0.00     0.217 C 
HETATM   17  O1  UNL     1       4.100  -2.524   0.036  1.00  0.00    -0.274 OA
ATOM     18  H1  UNL     1       3.537  -0.986  -2.745  1.00  0.00     0.162 HD
BRANCH  16  19
HETATM   19  C16 UNL     1       2.000  -1.849  -0.798  1.00  0.00     0.108 C 
BRANCH  19  20
HETATM   20  C17 UNL     1       1.570  -2.444   0.476  1.00  0.00     0.056 C 
BRANCH  20  21
HETATM   21  C18 UNL     1       0.140  -2.525   0.740  1.00  0.00     0.095 C 
BRANCH  21  22
HETATM   22  N2  UNL     1      -0.708  -1.349   0.797  1.00  0.00    -0.218 N 
HETATM   23  N3  UNL     1      -0.797  -0.648   2.047  1.00  0.00    -0.259 N 
HETATM   24  C19 UNL     1      -0.888   0.687   2.337  1.00  0.00     0.254 C 
ATOM     25  H3  UNL     1      -0.791  -1.254   2.867  1.00  0.00     0.190 HD
HETATM   26  O2  UNL     1      -0.093   1.221   3.215  1.00  0.00    -0.270 OA
HETATM   27  C20 UNL     1      -1.839   1.700   1.752  1.00  0.00     0.227 C 
HETATM   28  N4  UNL     1      -3.162   1.543   2.317  1.00  0.00    -0.351 N 
HETATM   29  C21 UNL     1      -4.175   2.487   2.168  1.00  0.00     0.235 C 
ATOM     30  H4  UNL     1      -3.363   0.698   2.852  1.00  0.00     0.163 HD
HETATM   31  O3  UNL     1      -5.112   2.497   3.039  1.00  0.00    -0.272 OA
HETATM   32  C22 UNL     1      -4.270   3.489   1.086  1.00  0.00     0.225 C 
HETATM   33  N5  UNL     1      -5.032   2.940  -0.023  1.00  0.00    -0.352 N 
HETATM   34  C23 UNL     1      -6.000   3.647  -0.748  1.00  0.00     0.217 C 
ATOM     35  H5  UNL     1      -4.849   1.973  -0.292  1.00  0.00     0.162 HD
HETATM   36  O4  UNL     1      -6.003   3.541  -2.025  1.00  0.00    -0.274 OA
HETATM   37  C24 UNL     1      -7.052   4.529  -0.184  1.00  0.00     0.103 C 
HETATM   38  C25 UNL     1      -8.393   3.847  -0.039  1.00  0.00     0.009 C 
HETATM   39  C26 UNL     1      -8.511   2.585  -0.849  1.00  0.00     0.000 C 
HETATM   40  C27 UNL     1      -9.869   2.002  -0.618  1.00  0.00     0.000 C 
HETATM   41  C28 UNL     1      -9.814   0.710   0.171  1.00  0.00     0.000 C 
HETATM   42  C29 UNL     1      -9.037  -0.355  -0.567  1.00  0.00     0.002 C 
HETATM   43  C30 UNL     1      -9.214  -1.724   0.037  1.00  0.00     0.020 C 
HETATM   44  C31 UNL     1      -7.981  -2.583  -0.207  1.00  0.00     0.122 C 
HETATM   45  N6  UNL     1      -7.175  -2.548   0.983  1.00  0.00    -0.361 N 
HETATM   46  C32 UNL     1      -5.797  -2.271   1.026  1.00  0.00     0.219 C 
ATOM     47  H6  UNL     1      -7.641  -2.740   1.870  1.00  0.00     0.162 HD
HETATM   48  O5  UNL     1      -5.040  -2.919   1.810  1.00  0.00    -0.274 OA
HETATM   49  C33 UNL     1      -5.111  -1.240   0.197  1.00  0.00     0.122 C 
HETATM   50  C34 UNL     1      -3.817  -1.780  -0.342  1.00  0.00     0.134 C 
HETATM   51  N7  UNL     1      -2.825  -0.760  -0.511  1.00  0.00    -0.341 N 
HETATM   52  C35 UNL     1      -1.404  -0.934  -0.358  1.00  0.00     0.341 C 
ATOM     53  H7  UNL     1      -3.155   0.172  -0.762  1.00  0.00     0.164 HD
HETATM   54  O6  UNL     1      -0.750  -0.676  -1.401  1.00  0.00    -0.245 OA
ENDBRANCH  21  22
ENDBRANCH  20  21
ENDBRANCH  19  20
ENDBRANCH  16  19
ENDBRANCH  14  15
ENDBRANCH  13  14
ENDBRANCH  12  13
ENDBRANCH  11  12
ENDBRANCH  10  11
ENDBRANCH   9  10
ENDBRANCH   8   9
ENDBRANCH   7   8
ENDBRANCH   6   7
ENDBRANCH   4   5
TORSDOF 14
