REMARK  13 active torsions:
REMARK  status: ('A' for Active; 'I' for Inactive)
REMARK    1  A    between atoms: C4_6  and  C5_7 
REMARK    2  A    between atoms: C5_7  and  C6_8 
REMARK    3  A    between atoms: C10_15  and  C11_16 
REMARK    4  A    between atoms: C11_16  and  C12_17 
REMARK    5  A    between atoms: C12_17  and  C13_18 
REMARK    6  A    between atoms: C13_18  and  N3_19 
REMARK    7  A    between atoms: C16_28  and  C17_29 
REMARK    8  A    between atoms: C17_29  and  C18_30 
REMARK    9  A    between atoms: C18_30  and  C19_31 
REMARK   10  A    between atoms: C21_35  and  O4_36 
REMARK   11  A    between atoms: C22_38  and  C23_39 
REMARK   12  A    between atoms: C23_39  and  C24_40 
REMARK   13  A    between atoms: C29_47  and  O5_48 
ROOT
HETATM    1  C1  UNL     1      -2.508  -5.864  -1.300  1.00  0.00     0.029 C 
HETATM    2  C2  UNL     1      -1.855  -4.813  -0.849  1.00  0.00     0.053 C 
HETATM    3  C3  UNL     1      -0.889  -4.581   0.217  1.00  0.00     0.256 C 
HETATM    4  O1  UNL     1      -0.644  -5.086   1.368  1.00  0.00    -0.268 OA
HETATM    5  N1  UNL     1      -0.345  -3.545  -0.593  1.00  0.00    -0.292 N 
HETATM    6  C4  UNL     1       0.754  -2.741  -1.005  1.00  0.00     0.193 C 
HETATM    7  N2  UNL     1       1.342  -2.105   0.192  1.00  0.00    -0.335 N 
ATOM      8  H2  UNL     1       0.833  -2.249   1.064  1.00  0.00     0.164 HD
HETATM    9  C9  UNL     1       2.490  -1.341   0.288  1.00  0.00     0.265 C 
HETATM   10  O2  UNL     1       3.351  -1.732   1.168  1.00  0.00    -0.266 OA
HETATM   11  C10 UNL     1       2.922  -0.134  -0.447  1.00  0.00     0.080 C 
HETATM   12  N6  UNL     1       1.917   0.765  -0.897  1.00  0.00    -0.324 N 
ATOM     13  H6  UNL     1       2.239   1.382  -1.643  1.00  0.00     0.169 HD
HETATM   14  C15 UNL     1       0.594   0.987  -0.543  1.00  0.00     0.244 C 
HETATM   15  O3  UNL     1      -0.238   1.169  -1.476  1.00  0.00    -0.271 OA
HETATM   16  C16 UNL     1      -0.029   1.049   0.778  1.00  0.00     0.175 C 
HETATM   17  N7  UNL     1      -1.424   0.761   0.858  1.00  0.00    -0.359 N 
ATOM     18  H7  UNL     1      -1.985   1.588   1.063  1.00  0.00     0.162 HD
HETATM   19  C21 UNL     1      -2.199  -0.397   0.719  1.00  0.00     0.146 C 
HETATM   20  C22 UNL     1      -2.562  -1.211  -0.442  1.00  0.00     0.303 C 
HETATM   21  N9  UNL     1      -2.418  -2.619  -0.082  1.00  0.00     0.124 N 
HETATM   22  C33 UNL     1      -3.695  -3.244   0.216  1.00  0.00     0.314 C 
HETATM   23  C34 UNL     1      -1.702  -3.367  -1.112  1.00  0.00     0.367 C 
ENDROOT
BRANCH  20  24
HETATM   24  C23 UNL     1      -3.942  -1.004  -0.979  1.00  0.00     0.085 C 
BRANCH  24  25
HETATM   25  C24 UNL     1      -4.271   0.346  -1.446  1.00  0.00    -0.028 A 
HETATM   26  C25 UNL     1      -4.121   0.829  -2.760  1.00  0.00     0.096 A 
HETATM   27  N8  UNL     1      -4.483   2.107  -2.758  1.00  0.00    -0.365 N 
HETATM   28  C26 UNL     1      -4.863   2.500  -1.533  1.00  0.00     0.043 A 
ATOM     29  H8  UNL     1      -4.473   2.711  -3.580  1.00  0.00     0.165 HD
HETATM   30  C27 UNL     1      -5.327   3.682  -1.016  1.00  0.00     0.033 A 
HETATM   31  C32 UNL     1      -4.734   1.392  -0.695  1.00  0.00     0.001 A 
HETATM   32  C28 UNL     1      -5.684   3.849   0.311  1.00  0.00     0.039 A 
HETATM   33  C29 UNL     1      -5.564   2.766   1.151  1.00  0.00     0.069 A 
HETATM   34  C31 UNL     1      -5.098   1.576   0.636  1.00  0.00     0.051 A 
BRANCH  33  35
HETATM   35  O5  UNL     1      -5.896   2.830   2.496  1.00  0.00    -0.356 OA
HETATM   36  C30 UNL     1      -5.771   1.713   3.354  1.00  0.00     0.210 C 
ENDBRANCH  33  35
ENDBRANCH  24  25
ENDBRANCH  20  24
BRANCH  19  37
HETATM   37  O4  UNL     1      -2.738  -0.908   1.789  1.00  0.00    -0.348 OA
ATOM     38  H4  UNL     1      -3.264  -1.694   1.695  1.00  0.00     0.219 HD
ENDBRANCH  19  37
BRANCH  16  39
HETATM   39  C17 UNL     1       0.163   2.535   1.191  1.00  0.00     0.035 C 
BRANCH  39  40
HETATM   40  C18 UNL     1      -0.497   3.472   0.229  1.00  0.00     0.002 C 
BRANCH  40  41
HETATM   41  C19 UNL     1      -0.260   4.905   0.722  1.00  0.00    -0.004 C 
HETATM   42  C20 UNL     1       1.256   5.087   0.742  1.00  0.00     0.005 C 
ENDBRANCH  40  41
ENDBRANCH  39  40
ENDBRANCH  16  39
BRANCH   6  43
HETATM   43  C5  UNL     1       1.736  -3.388  -1.868  1.00  0.00     0.051 C 
BRANCH  43  44
HETATM   44  C6  UNL     1       2.533  -4.554  -1.473  1.00  0.00    -0.019 C 
HETATM   45  C7  UNL     1       3.468  -4.824  -2.710  1.00  0.00     0.009 C 
HETATM   46  C8  UNL     1       1.821  -5.874  -1.323  1.00  0.00     0.009 C 
ENDBRANCH  43  44
ENDBRANCH   6  43
BRANCH  11  47
HETATM   47  C11 UNL     1       4.161   0.505   0.087  1.00  0.00     0.064 C 
BRANCH  47  48
HETATM   48  C12 UNL     1       4.155   0.999   1.480  1.00  0.00     0.026 C 
BRANCH  48  49
HETATM   49  C13 UNL     1       5.471   1.606   1.911  1.00  0.00     0.122 C 
BRANCH  49  50
HETATM   50  N3  UNL     1       5.887   2.730   1.136  1.00  0.00    -0.367 N 
HETATM   51  C14 UNL     1       6.894   3.405   1.581  1.00  0.00     0.196 C 
HETATM   52  N4  UNL     1       7.344   4.528   0.847  1.00  0.00    -0.067 NA
HETATM   53  N5  UNL     1       7.586   3.078   2.786  1.00  0.00    -0.067 NA
ATOM     54  H3  UNL     1       5.411   2.988   0.271  1.00  0.00     0.161 HD
ENDBRANCH  49  50
ENDBRANCH  48  49
ENDBRANCH  47  48
ENDBRANCH  11  47
TORSDOF 13
