REMARK  15 active torsions:
REMARK  status: ('A' for Active; 'I' for Inactive)
REMARK    1  A    between atoms: C2_2  and  C4_4 
REMARK    2  A    between atoms: C4_4  and  C5_5 
REMARK    3  A    between atoms: C5_5  and  S1_6 
REMARK    4  A    between atoms: S1_6  and  C6_7 
REMARK    5  A    between atoms: C6_7  and  C7_8 
REMARK    6  A    between atoms: C7_8  and  C8_9 
REMARK    7  A    between atoms: C8_9  and  C9_10 
REMARK    8  A    between atoms: C9_10  and  C10_11 
REMARK    9  A    between atoms: C9_10  and  C21_33 
REMARK   10  A    between atoms: C10_11  and  O1_12 
REMARK   11  A    between atoms: C10_11  and  N1_14 
REMARK   12  A    between atoms: C14_21  and  C15_22 
REMARK       I    between atoms: C15_22  and  N3_24 
REMARK   13  A    between atoms: N3_24  and  C16_26 
REMARK   14  A    between atoms: C16_26  and  C17_27 
REMARK   15  A    between atoms: C22_36  and  C23_37 
ROOT
HETATM    1  C10 UNL     1      -1.430   0.554  -0.407  1.00  0.00     0.127 C 
ENDROOT
BRANCH   1   2
HETATM    2  C9  UNL     1      -0.013   0.770  -0.205  1.00  0.00     0.137 C 
BRANCH   2   3
HETATM    3  C8  UNL     1       0.903  -0.262  -0.828  1.00  0.00     0.022 C 
BRANCH   3   4
HETATM    4  C7  UNL     1       2.368   0.084  -0.534  1.00  0.00     0.011 C 
BRANCH   4   5
HETATM    5  C6  UNL     1       3.192  -1.000  -1.197  1.00  0.00     0.074 C 
BRANCH   5   6
HETATM    6  S1  UNL     1       2.794  -2.637  -0.541  1.00  0.00    -0.165 SA
BRANCH   6   7
HETATM    7  C5  UNL     1       3.304  -2.713   1.185  1.00  0.00     0.101 C 
BRANCH   7   8
HETATM    8  C4  UNL     1       4.778  -2.628   1.333  1.00  0.00    -0.015 C 
BRANCH   8   9
HETATM    9  C2  UNL     1       5.507  -3.567   1.889  1.00  0.00    -0.091 C 
HETATM   10  C1  UNL     1       6.976  -3.405   1.998  1.00  0.00     0.042 C 
HETATM   11  C3  UNL     1       4.874  -4.800   2.412  1.00  0.00     0.042 C 
ENDBRANCH   8   9
ENDBRANCH   7   8
ENDBRANCH   6   7
ENDBRANCH   5   6
ENDBRANCH   4   5
ENDBRANCH   3   4
ENDBRANCH   2   3
BRANCH   2  12
HETATM   12  C21 UNL     1       0.499   2.133  -0.417  1.00  0.00     0.160 A 
HETATM   13  N4  UNL     1       0.894   3.036   0.533  1.00  0.00    -0.326 N 
HETATM   14  C22 UNL     1       1.291   4.154  -0.092  1.00  0.00     0.111 A 
ATOM     15  H4  UNL     1       0.887   2.885   1.542  1.00  0.00     0.169 HD
HETATM   16  N5  UNL     1       1.137   3.927  -1.400  1.00  0.00    -0.246 N 
HETATM   17  O6  UNL     1       0.674   2.738  -1.538  1.00  0.00    -0.222 OA
ATOM     18  H5  UNL     1       1.349   4.581  -2.153  1.00  0.00     0.196 HD
BRANCH  14  19
HETATM   19  C23 UNL     1       1.808   5.421   0.499  1.00  0.00     0.009 C 
HETATM   20  C24 UNL     1       0.870   6.567   0.185  1.00  0.00     0.023 C 
HETATM   21  C25 UNL     1       3.165   5.787  -0.081  1.00  0.00     0.023 C 
HETATM   22  C26 UNL     1       1.958   5.298   1.985  1.00  0.00     0.023 C 
ENDBRANCH  14  19
ENDBRANCH   2  12
ENDBRANCH   1   2
BRANCH   1  23
HETATM   23  O1  UNL     1      -2.084   0.260   0.679  1.00  0.00    -0.349 OA
ATOM     24  H1  UNL     1      -3.014   0.118   0.546  1.00  0.00     0.219 HD
ENDBRANCH   1  23
BRANCH   1  25
HETATM   25  N1  UNL     1      -2.235   0.602  -1.547  1.00  0.00    -0.335 N 
HETATM   26  C11 UNL     1      -1.776   0.949  -2.906  1.00  0.00     0.252 C 
HETATM   27  N2  UNL     1      -2.496   2.215  -3.153  1.00  0.00    -0.345 N 
HETATM   28  C12 UNL     1      -3.513   2.664  -2.268  1.00  0.00     0.221 C 
ATOM     29  H2  UNL     1      -2.259   2.776  -3.972  1.00  0.00     0.164 HD
HETATM   30  O2  UNL     1      -3.812   3.880  -2.230  1.00  0.00    -0.273 OA
HETATM   31  C13 UNL     1      -4.276   1.752  -1.346  1.00  0.00     0.138 C 
HETATM   32  C14 UNL     1      -3.687   0.371  -1.543  1.00  0.00     0.188 C 
BRANCH  32  33
HETATM   33  C15 UNL     1      -4.229  -0.721  -0.818  1.00  0.00     0.242 C 
HETATM   34  O3  UNL     1      -5.445  -0.636  -0.390  1.00  0.00    -0.271 OA
HETATM   35  N3  UNL     1      -3.580  -1.920  -0.509  1.00  0.00    -0.340 N 
ATOM     36  H3  UNL     1      -2.617  -2.025  -0.829  1.00  0.00     0.163 HD
BRANCH  35  37
HETATM   37  C16 UNL     1      -4.160  -3.028   0.228  1.00  0.00     0.125 A 
HETATM   38  C18 UNL     1      -3.423  -4.353   0.097  1.00  0.00     0.050 A 
HETATM   39  C19 UNL     1      -4.765  -4.159  -0.528  1.00  0.00     0.023 A 
HETATM   40  C20 UNL     1      -5.891  -4.944   0.089  1.00  0.00     0.013 C 
BRANCH  37  41
HETATM   41  C17 UNL     1      -4.610  -2.724   1.605  1.00  0.00     0.203 C 
HETATM   42  O4  UNL     1      -5.107  -3.705   2.264  1.00  0.00    -0.646 OA
HETATM   43  O5  UNL     1      -4.522  -1.472   2.191  1.00  0.00    -0.646 OA
ENDBRANCH  37  41
ENDBRANCH  35  37
ENDBRANCH  32  33
ENDBRANCH   1  25
TORSDOF 15
