REMARK  13 active torsions:
REMARK  status: ('A' for Active; 'I' for Inactive)
REMARK    1  A    between atoms: O1_2  and  C2_3 
REMARK    2  A    between atoms: C5_6  and  C6_7 
REMARK    3  A    between atoms: C6_7  and  C7_8 
REMARK    4  A    between atoms: C7_8  and  N1_9 
REMARK    5  A    between atoms: N1_9  and  C8_11 
REMARK    6  A    between atoms: N3_15  and  C10_17 
REMARK    7  A    between atoms: C10_17  and  C11_18 
REMARK    8  A    between atoms: C11_18  and  C12_19 
REMARK    9  A    between atoms: C12_19  and  N4_20 
REMARK   10  A    between atoms: N7_32  and  C20_33 
REMARK   11  A    between atoms: C20_33  and  C21_34 
REMARK   12  A    between atoms: C21_34  and  C22_35 
REMARK   13  A    between atoms: C29_45  and  O2_46 
ROOT
HETATM    1  C8  UNL     1       0.451  -0.750  -0.584  1.00  0.00     0.151 A 
HETATM    2  N2  UNL     1       0.168   0.158   0.401  1.00  0.00    -0.174 N 
ATOM      3  H2  UNL     1       0.918   0.747   0.762  1.00  0.00     0.186 HD
HETATM    4  C9  UNL     1      -1.056   0.293   0.900  1.00  0.00     0.681 A 
HETATM    5  N3  UNL     1      -1.334   1.139   1.821  1.00  0.00    -0.226 N 
ATOM      6  H3  UNL     1      -2.295   1.191   2.160  1.00  0.00     0.177 HD
HETATM    7  N5  UNL     1      -2.018  -0.509   0.392  1.00  0.00    -0.174 N 
ATOM      8  H5  UNL     1      -2.960  -0.412   0.770  1.00  0.00     0.186 HD
HETATM    9  C17 UNL     1      -1.828  -1.422  -0.570  1.00  0.00     0.155 A 
HETATM   10  C18 UNL     1      -0.541  -1.549  -1.081  1.00  0.00     0.123 A 
HETATM   11  N6  UNL     1      -0.644  -2.511  -2.006  1.00  0.00    -0.346 N 
ATOM     12  H6  UNL     1       0.130  -2.852  -2.577  1.00  0.00     0.167 HD
HETATM   13  C19 UNL     1      -1.905  -2.966  -2.080  1.00  0.00     0.185 A 
HETATM   14  N7  UNL     1      -2.662  -2.304  -1.196  1.00  0.00    -0.327 N 
ENDROOT
BRANCH   1  15
HETATM   15  N1  UNL     1       1.645  -0.801  -0.977  1.00  0.00    -0.353 N 
ATOM     16  H1  UNL     1       2.241  -0.136  -0.485  1.00  0.00     0.166 HD
BRANCH  15  17
HETATM   17  C7  UNL     1       2.350  -1.543  -1.918  1.00  0.00     0.067 C 
BRANCH  17  18
HETATM   18  C6  UNL     1       3.760  -1.827  -1.531  1.00  0.00     0.083 C 
BRANCH  18  19
HETATM   19  C5  UNL     1       4.638  -0.688  -1.284  1.00  0.00    -0.045 A 
HETATM   20  C4  UNL     1       5.417  -0.163  -2.342  1.00  0.00     0.011 A 
HETATM   21  C3  UNL     1       6.214   0.931  -2.140  1.00  0.00     0.040 A 
HETATM   22  C2  UNL     1       6.295   1.559  -0.924  1.00  0.00     0.102 A 
HETATM   23  C29 UNL     1       5.540   1.046   0.097  1.00  0.00     0.107 A 
HETATM   24  C27 UNL     1       4.715  -0.070  -0.073  1.00  0.00    -0.019 A 
HETATM   25  C28 UNL     1       3.994  -0.548   1.145  1.00  0.00     0.052 C 
BRANCH  22  26
HETATM   26  O1  UNL     1       7.105   2.682  -0.689  1.00  0.00    -0.353 OA
HETATM   27  C1  UNL     1       7.898   3.246  -1.697  1.00  0.00     0.210 C 
ENDBRANCH  22  26
BRANCH  23  28
HETATM   28  O2  UNL     1       5.590   1.648   1.346  1.00  0.00    -0.353 OA
HETATM   29  C30 UNL     1       4.670   2.701   1.650  1.00  0.00     0.210 C 
ENDBRANCH  23  28
ENDBRANCH  18  19
ENDBRANCH  17  18
ENDBRANCH  15  17
ENDBRANCH   1  15
BRANCH   5  30
HETATM   30  C10 UNL     1      -0.355   2.019   2.399  1.00  0.00     0.140 C 
BRANCH  30  31
HETATM   31  C11 UNL     1      -0.299   3.262   1.514  1.00  0.00     0.050 C 
BRANCH  31  32
HETATM   32  C12 UNL     1      -1.712   3.838   1.561  1.00  0.00     0.274 C 
BRANCH  32  33
HETATM   33  N4  UNL     1      -1.824   5.041   0.758  1.00  0.00     0.088 N 
HETATM   34  C13 UNL     1      -3.195   5.494   0.882  1.00  0.00     0.272 C 
HETATM   35  C14 UNL     1      -3.143   7.006   0.849  1.00  0.00     0.032 C 
HETATM   36  C15 UNL     1      -1.758   7.344   1.354  1.00  0.00     0.032 C 
HETATM   37  C16 UNL     1      -1.003   6.047   1.397  1.00  0.00     0.272 C 
ENDBRANCH  32  33
ENDBRANCH  31  32
ENDBRANCH  30  31
ENDBRANCH   5  30
BRANCH  14  38
HETATM   38  C20 UNL     1      -4.065  -2.403  -0.871  1.00  0.00     0.132 C 
BRANCH  38  39
HETATM   39  C21 UNL     1      -4.364  -3.371   0.223  1.00  0.00     0.025 C 
BRANCH  39  40
HETATM   40  C22 UNL     1      -3.929  -4.743  -0.171  1.00  0.00    -0.010 C 
HETATM   41  C23 UNL     1      -4.225  -5.732   0.958  1.00  0.00     0.032 C 
HETATM   42  C24 UNL     1      -3.325  -6.937   0.670  1.00  0.00     0.232 C 
HETATM   43  N8  UNL     1      -3.274  -7.168  -0.768  1.00  0.00    -0.075 N 
HETATM   44  C25 UNL     1      -4.499  -6.757  -1.404  1.00  0.00     0.232 C 
ATOM     45  H82 UNL     1      -2.462  -6.719  -1.192  1.00  0.00     0.277 HD
ATOM     46  H81 UNL     1      -3.046  -8.138  -0.984  1.00  0.00     0.277 HD
HETATM   47  C26 UNL     1      -4.703  -5.255  -1.366  1.00  0.00     0.032 C 
ENDBRANCH  39  40
ENDBRANCH  38  39
ENDBRANCH  14  38
TORSDOF 13
