REMARK  11 active torsions:
REMARK  status: ('A' for Active; 'I' for Inactive)
REMARK    1  A    between atoms: C2_2  and  N1_3 
REMARK       I    between atoms: N1_3  and  C3_5 
REMARK    2  A    between atoms: C3_5  and  C4_7 
REMARK    3  A    between atoms: C4_7  and  S1_8 
REMARK    4  A    between atoms: S1_8  and  C5_9 
REMARK       I    between atoms: N4_15  and  C7_17 
REMARK    5  A    between atoms: C7_17  and  C8_19 
REMARK    6  A    between atoms: C8_19  and  C9_20 
REMARK    7  A    between atoms: C9_20  and  C10_21 
REMARK    8  A    between atoms: C10_21  and  C11_22 
REMARK    9  A    between atoms: C11_22  and  C12_23 
REMARK   10  A    between atoms: C12_23  and  N5_24 
REMARK   11  A    between atoms: C19_33  and  N6_34 
REMARK       I    between atoms: N6_34  and  C20_36 
ROOT
HETATM    1  C9  UNL     1      -0.108   0.208   0.917  1.00  0.00     0.009 C 
ENDROOT
BRANCH   1   2
HETATM    2  C8  UNL     1       1.269   0.244   1.479  1.00  0.00     0.103 C 
BRANCH   2   3
HETATM    3  C7  UNL     1       2.196   1.184   0.819  1.00  0.00     0.223 C 
HETATM    4  N4  UNL     1       3.536   1.211   1.282  1.00  0.00    -0.306 N 
HETATM    5  C6  UNL     1       4.332   0.278   0.850  1.00  0.00     0.168 A 
ATOM      6  H4  UNL     1       3.862   1.932   1.926  1.00  0.00     0.171 HD
HETATM    7  N3  UNL     1       4.060  -0.723   0.012  1.00  0.00    -0.278 N 
HETATM    8  S2  UNL     1       5.990  -0.008   1.194  1.00  0.00    -0.026 SA
HETATM    9  N2  UNL     1       4.980  -1.543  -0.288  1.00  0.00    -0.286 N 
ATOM     10  H3  UNL     1       3.125  -0.828  -0.382  1.00  0.00     0.189 HD
HETATM   11  C5  UNL     1       6.193  -1.403   0.224  1.00  0.00     0.130 A 
ATOM     12  H2  UNL     1       4.784  -2.314  -0.927  1.00  0.00     0.188 HD
HETATM   13  O2  UNL     1       1.880   1.954  -0.113  1.00  0.00    -0.273 OA
BRANCH  11  14
HETATM   14  S1  UNL     1       7.657  -2.424  -0.040  1.00  0.00    -0.094 SA
BRANCH  14  15
HETATM   15  C4  UNL     1       9.025  -1.767   0.916  1.00  0.00     0.184 C 
BRANCH  15  16
HETATM   16  C3  UNL     1       9.400  -0.434   0.367  1.00  0.00     0.227 C 
HETATM   17  N1  UNL     1      10.455   0.286   0.947  1.00  0.00    -0.361 N 
ATOM     18  H1  UNL     1      10.966  -0.099   1.742  1.00  0.00     0.162 HD
HETATM   19  O1  UNL     1       8.765   0.047  -0.625  1.00  0.00    -0.273 OA
BRANCH  17  20
HETATM   20  C2  UNL     1      10.812   1.581   0.406  1.00  0.00     0.118 C 
HETATM   21  C1  UNL     1      11.227   1.452  -1.063  1.00  0.00     0.026 C 
ENDBRANCH  17  20
ENDBRANCH  15  16
ENDBRANCH  14  15
ENDBRANCH  11  14
ENDBRANCH   2   3
ENDBRANCH   1   2
BRANCH   1  22
HETATM   22  C10 UNL     1      -0.199  -0.196  -0.518  1.00  0.00     0.002 C 
BRANCH  22  23
HETATM   23  C11 UNL     1      -1.612  -0.225  -1.030  1.00  0.00     0.020 C 
BRANCH  23  24
HETATM   24  C12 UNL     1      -2.329   1.089  -0.950  1.00  0.00     0.132 C 
BRANCH  24  25
HETATM   25  N5  UNL     1      -3.659   0.914  -1.464  1.00  0.00    -0.316 N 
HETATM   26  C13 UNL     1      -3.936   1.112  -2.838  1.00  0.00     0.235 C 
HETATM   27  O3  UNL     1      -3.203   1.876  -3.539  1.00  0.00    -0.272 OA
HETATM   28  C14 UNL     1      -5.097   0.411  -3.436  1.00  0.00     0.149 C 
HETATM   29  C15 UNL     1      -4.736  -1.057  -3.551  1.00  0.00     0.028 C 
HETATM   30  C16 UNL     1      -6.244   0.566  -2.483  1.00  0.00     0.174 C 
HETATM   31  O4  UNL     1      -7.397   0.875  -2.879  1.00  0.00    -0.291 OA
HETATM   32  C17 UNL     1      -6.010   0.352  -1.071  1.00  0.00     0.040 A 
HETATM   33  C18 UNL     1      -7.035  -0.024  -0.200  1.00  0.00     0.047 A 
HETATM   34  C24 UNL     1      -4.725   0.532  -0.603  1.00  0.00     0.051 A 
HETATM   35  C19 UNL     1      -6.837  -0.232   1.131  1.00  0.00     0.035 A 
HETATM   36  C22 UNL     1      -5.526  -0.046   1.595  1.00  0.00     0.032 A 
HETATM   37  C23 UNL     1      -4.516   0.324   0.742  1.00  0.00     0.033 A 
BRANCH  35  38
HETATM   38  N6  UNL     1      -7.806  -0.605   2.060  1.00  0.00    -0.327 N 
HETATM   39  C20 UNL     1      -9.163  -0.787   1.786  1.00  0.00     0.218 C 
HETATM   40  C21 UNL     1     -10.084  -1.199   2.928  1.00  0.00     0.117 C 
HETATM   41  O5  UNL     1      -9.749  -0.651   0.686  1.00  0.00    -0.274 OA
ATOM     42  H6  UNL     1      -7.498  -0.758   3.020  1.00  0.00     0.169 HD
ENDBRANCH  35  38
ENDBRANCH  24  25
ENDBRANCH  23  24
ENDBRANCH  22  23
ENDBRANCH   1  22
TORSDOF 11
