REMARK  12 active torsions:
REMARK  status: ('A' for Active; 'I' for Inactive)
REMARK    1  A    between atoms: C2_2  and  C3_3 
REMARK    2  A    between atoms: C3_3  and  C4_4 
REMARK    3  A    between atoms: C4_4  and  C5_5 
REMARK    4  A    between atoms: C5_5  and  O1_6 
REMARK    5  A    between atoms: C5_5  and  C6_8 
REMARK    6  A    between atoms: C6_8  and  N1_9 
REMARK       I    between atoms: N2_17  and  C14_18 
REMARK    7  A    between atoms: C14_18  and  C15_20 
REMARK    8  A    between atoms: N5_29  and  C21_30 
REMARK    9  A    between atoms: C21_30  and  C22_31 
REMARK   10  A    between atoms: C22_31  and  C23_32 
REMARK   11  A    between atoms: C23_32  and  N6_33 
REMARK   12  A    between atoms: C28_38  and  N7_39 
ROOT
HETATM    1  C15 UNL     1      -0.543  -0.916  -0.682  1.00  0.00     0.079 A 
HETATM    2  C16 UNL     1      -0.852  -2.098  -1.289  1.00  0.00     0.054 A 
HETATM    3  C17 UNL     1      -2.061  -2.697  -0.996  1.00  0.00     0.081 A 
HETATM    4  C18 UNL     1      -2.893  -2.063  -0.100  1.00  0.00     0.137 A 
HETATM    5  N3  UNL     1      -3.989  -2.853   0.003  1.00  0.00    -0.336 N 
ATOM      6  H3  UNL     1      -4.797  -2.658   0.594  1.00  0.00     0.168 HD
HETATM    7  C19 UNL     1      -3.854  -3.938  -0.793  1.00  0.00     0.184 A 
HETATM    8  N4  UNL     1      -2.666  -3.838  -1.406  1.00  0.00    -0.344 N 
HETATM    9  C20 UNL     1      -2.121  -4.787  -2.344  1.00  0.00     0.157 C 
HETATM   10  N5  UNL     1      -2.607  -0.910   0.502  1.00  0.00    -0.317 N 
HETATM   11  C28 UNL     1      -1.415  -0.326   0.208  1.00  0.00     0.118 A 
ENDROOT
BRANCH   1  12
HETATM   12  C14 UNL     1       0.731  -0.210  -0.942  1.00  0.00     0.272 C 
HETATM   13  N2  UNL     1       1.853  -0.454  -0.164  1.00  0.00    -0.275 N 
HETATM   14  N1  UNL     1       3.150   0.061  -0.186  1.00  0.00    -0.223 NA
HETATM   15  C13 UNL     1       1.856  -1.457   0.959  1.00  0.00     0.157 C 
HETATM   16  C7  UNL     1       3.975  -1.110  -0.011  1.00  0.00     0.125 C 
HETATM   17  C8  UNL     1       3.135  -2.177   0.601  1.00  0.00    -0.009 C 
HETATM   18  C9  UNL     1       2.869  -3.333  -0.338  1.00  0.00     0.012 C 
HETATM   19  C12 UNL     1       3.769  -2.828   1.811  1.00  0.00     0.012 C 
HETATM   20  C10 UNL     1       3.863  -4.416  -0.019  1.00  0.00     0.001 C 
HETATM   21  C11 UNL     1       4.062  -4.256   1.458  1.00  0.00     0.001 C 
HETATM   22  O2  UNL     1       0.705   0.590  -1.885  1.00  0.00    -0.266 OA
BRANCH  14  23
HETATM   23  C6  UNL     1       3.396   0.840  -1.318  1.00  0.00     0.145 C 
BRANCH  23  24
HETATM   24  C5  UNL     1       4.731   1.540  -1.361  1.00  0.00     0.133 C 
BRANCH  24  25
HETATM   25  C4  UNL     1       4.935   2.606  -0.345  1.00  0.00     0.033 C 
BRANCH  25  26
HETATM   26  C3  UNL     1       3.858   3.659  -0.315  1.00  0.00     0.002 C 
BRANCH  26  27
HETATM   27  C2  UNL     1       4.163   4.723   0.724  1.00  0.00    -0.004 C 
HETATM   28  C1  UNL     1       4.267   4.205   2.118  1.00  0.00     0.005 C 
ENDBRANCH  26  27
ENDBRANCH  25  26
ENDBRANCH  24  25
BRANCH  24  29
HETATM   29  O1  UNL     1       5.790   0.593  -1.326  1.00  0.00    -0.394 OA
ATOM     30  H1  UNL     1       5.660  -0.088  -1.975  1.00  0.00     0.210 HD
ENDBRANCH  24  29
ENDBRANCH  23  24
ENDBRANCH  14  23
ENDBRANCH   1  12
BRANCH  11  31
HETATM   31  N7  UNL     1      -1.098   0.803   0.777  1.00  0.00    -0.384 N 
ATOM     32  H72 UNL     1      -0.204   1.241   0.556  1.00  0.00     0.157 HD
ATOM     33  H71 UNL     1      -1.743   1.240   1.435  1.00  0.00     0.157 HD
ENDBRANCH  11  31
BRANCH  10  34
HETATM   34  C21 UNL     1      -3.450  -0.222   1.442  1.00  0.00     0.134 C 
BRANCH  34  35
HETATM   35  C22 UNL     1      -4.349   0.739   0.694  1.00  0.00     0.050 C 
BRANCH  35  36
HETATM   36  C23 UNL     1      -5.232   1.461   1.690  1.00  0.00     0.274 C 
BRANCH  36  37
HETATM   37  N6  UNL     1      -6.125   2.407   1.108  1.00  0.00     0.088 N 
HETATM   38  C24 UNL     1      -7.166   1.858   0.307  1.00  0.00     0.272 C 
HETATM   39  C25 UNL     1      -7.034   2.422  -1.078  1.00  0.00     0.032 C 
HETATM   40  C26 UNL     1      -6.035   3.541  -0.977  1.00  0.00     0.032 C 
HETATM   41  C27 UNL     1      -5.518   3.500   0.428  1.00  0.00     0.272 C 
ENDBRANCH  36  37
ENDBRANCH  35  36
ENDBRANCH  34  35
ENDBRANCH  10  34
TORSDOF 12
