REMARK  13 active torsions:
REMARK  status: ('A' for Active; 'I' for Inactive)
REMARK    1  A    between atoms: C2_2  and  C3_3 
REMARK    2  A    between atoms: C3_3  and  C4_4 
REMARK    3  A    between atoms: C4_4  and  N1_5 
REMARK       I    between atoms: N1_5  and  C5_6 
REMARK    4  A    between atoms: N1_5  and  C13_20 
REMARK    5  A    between atoms: C5_6  and  C6_8 
REMARK    6  A    between atoms: C6_8  and  C7_9 
REMARK    7  A    between atoms: C7_9  and  C8_10 
REMARK       I    between atoms: C8_10  and  N2_12 
REMARK    8  A    between atoms: C14_21  and  N4_22 
REMARK    9  A    between atoms: N4_22  and  C15_24 
REMARK   10  A    between atoms: C15_24  and  C17_26 
REMARK   11  A    between atoms: N5_30  and  C21_31 
REMARK   12  A    between atoms: C21_31  and  C22_32 
REMARK   13  A    between atoms: C22_32  and  C23_33 
ROOT
HETATM    1  C13 UNL     1      -0.888   1.883  -0.804  1.00  0.00     0.150 A 
HETATM    2  C14 UNL     1      -1.984   1.082  -0.842  1.00  0.00     0.141 A 
HETATM    3  N5  UNL     1      -3.073   1.565  -1.571  1.00  0.00    -0.283 N 
HETATM    4  C25 UNL     1      -3.016   2.750  -2.190  1.00  0.00     0.331 A 
HETATM    5  O3  UNL     1      -4.044   3.161  -2.853  1.00  0.00    -0.246 OA
HETATM    6  N6  UNL     1      -1.939   3.543  -2.160  1.00  0.00    -0.273 N 
ATOM      7  H6  UNL     1      -1.937   4.439  -2.647  1.00  0.00     0.173 HD
HETATM    8  C26 UNL     1      -0.874   3.136  -1.482  1.00  0.00     0.280 A 
HETATM    9  O4  UNL     1       0.123   3.892  -1.471  1.00  0.00    -0.265 OA
ENDROOT
BRANCH   1  10
HETATM   10  N1  UNL     1       0.319   1.669  -0.091  1.00  0.00    -0.310 N 
HETATM   11  C5  UNL     1       1.381   0.823  -0.452  1.00  0.00     0.225 C 
HETATM   12  O1  UNL     1       1.331   0.265  -1.580  1.00  0.00    -0.273 OA
BRANCH  10  13
HETATM   13  C4  UNL     1       0.557   2.553   1.045  1.00  0.00     0.132 C 
BRANCH  13  14
HETATM   14  C3  UNL     1       0.230   2.095   2.394  1.00  0.00     0.020 C 
BRANCH  14  15
HETATM   15  C2  UNL     1       0.538   3.128   3.469  1.00  0.00    -0.003 C 
HETATM   16  C1  UNL     1      -0.248   4.399   3.239  1.00  0.00     0.005 C 
ENDBRANCH  14  15
ENDBRANCH  13  14
ENDBRANCH  10  13
BRANCH  11  17
HETATM   17  C6  UNL     1       2.552   0.541   0.400  1.00  0.00     0.112 C 
BRANCH  17  18
HETATM   18  C7  UNL     1       3.530  -0.370  -0.310  1.00  0.00     0.112 C 
BRANCH  18  19
HETATM   19  C8  UNL     1       4.696  -0.645   0.546  1.00  0.00     0.220 C 
HETATM   20  O2  UNL     1       4.747  -0.104   1.679  1.00  0.00    -0.273 OA
HETATM   21  N2  UNL     1       5.766  -1.487   0.163  1.00  0.00    -0.349 N 
HETATM   22  C9  UNL     1       6.887  -1.726   1.030  1.00  0.00     0.153 C 
HETATM   23  C12 UNL     1       5.728  -2.123  -1.129  1.00  0.00     0.153 C 
HETATM   24  C10 UNL     1       8.066  -2.142   0.178  1.00  0.00     0.252 C 
HETATM   25  N3  UNL     1       7.989  -1.333  -1.043  1.00  0.00    -0.072 N 
HETATM   26  C11 UNL     1       7.015  -2.009  -1.890  1.00  0.00     0.252 C 
ATOM     27  H32 UNL     1       7.775  -0.350  -0.873  1.00  0.00     0.277 HD
ATOM     28  H31 UNL     1       8.891  -1.181  -1.494  1.00  0.00     0.277 HD
ENDBRANCH  18  19
ENDBRANCH  17  18
ENDBRANCH  11  17
ENDBRANCH   1  10
BRANCH   2  29
HETATM   29  N4  UNL     1      -2.141  -0.216  -0.337  1.00  0.00    -0.369 N 
ATOM     30  H4  UNL     1      -3.123  -0.488  -0.385  1.00  0.00     0.161 HD
BRANCH  29  31
HETATM   31  C15 UNL     1      -1.384  -1.264   0.214  1.00  0.00     0.086 C 
HETATM   32  C16 UNL     1      -1.056  -1.215   1.674  1.00  0.00     0.033 C 
BRANCH  31  33
HETATM   33  C17 UNL     1      -2.152  -2.621   0.081  1.00  0.00    -0.031 C 
HETATM   34  C18 UNL     1      -1.243  -3.658   0.684  1.00  0.00     0.016 C 
HETATM   35  C19 UNL     1      -3.427  -2.597   0.851  1.00  0.00     0.016 C 
HETATM   36  C20 UNL     1      -2.313  -2.963  -1.378  1.00  0.00     0.016 C 
ENDBRANCH  31  33
ENDBRANCH  29  31
ENDBRANCH   2  29
BRANCH   3  37
HETATM   37  C21 UNL     1      -4.310   0.840  -1.728  1.00  0.00     0.135 C 
BRANCH  37  38
HETATM   38  C22 UNL     1      -5.341   1.095  -0.693  1.00  0.00     0.020 C 
BRANCH  38  39
HETATM   39  C23 UNL     1      -6.597   0.277  -0.943  1.00  0.00    -0.003 C 
HETATM   40  C24 UNL     1      -7.229   0.581  -2.265  1.00  0.00     0.005 C 
ENDBRANCH  38  39
ENDBRANCH  37  38
ENDBRANCH   3  37
TORSDOF 13
