REMARK  13 active torsions:
REMARK  status: ('A' for Active; 'I' for Inactive)
REMARK    1  A    between atoms: O1_2  and  C2_3 
REMARK    2  A    between atoms: C4_5  and  C5_6 
REMARK    3  A    between atoms: C5_6  and  N1_7 
REMARK    4  A    between atoms: C5_6  and  C14_22 
REMARK    5  A    between atoms: N1_7  and  C6_9 
REMARK    6  A    between atoms: C6_9  and  N2_11 
REMARK    7  A    between atoms: N2_11  and  C7_13 
REMARK    8  A    between atoms: C7_13  and  C8_14 
REMARK    9  A    between atoms: C8_14  and  C9_15 
REMARK   10  A    between atoms: C9_15  and  N3_16 
REMARK   11  A    between atoms: C19_30  and  N5_31 
REMARK   12  A    between atoms: C24_36  and  O4_37 
REMARK   13  A    between atoms: C26_39  and  O5_40 
ROOT
HETATM    1  C5  UNL     1      -1.666  -0.764   0.136  1.00  0.00     0.153 C 
ENDROOT
BRANCH   1   2
HETATM    2  C4  UNL     1      -2.084   0.652  -0.070  1.00  0.00    -0.025 A 
HETATM    3  C3  UNL     1      -2.461   1.456   1.009  1.00  0.00     0.049 A 
HETATM    4  C2  UNL     1      -2.876   2.760   0.880  1.00  0.00     0.104 A 
HETATM    5  C26 UNL     1      -2.933   3.330  -0.385  1.00  0.00     0.135 A 
HETATM    6  C24 UNL     1      -2.570   2.576  -1.481  1.00  0.00     0.104 A 
HETATM    7  C23 UNL     1      -2.153   1.258  -1.301  1.00  0.00     0.049 A 
BRANCH   4   8
HETATM    8  O1  UNL     1      -3.243   3.530   1.975  1.00  0.00    -0.353 OA
HETATM    9  C1  UNL     1      -3.208   3.016   3.297  1.00  0.00     0.210 C 
ENDBRANCH   4   8
BRANCH   5  10
HETATM   10  O5  UNL     1      -3.347   4.633  -0.539  1.00  0.00    -0.351 OA
HETATM   11  C27 UNL     1      -2.510   5.759  -0.530  1.00  0.00     0.210 C 
ENDBRANCH   5  10
BRANCH   6  12
HETATM   12  O4  UNL     1      -2.601   3.079  -2.791  1.00  0.00    -0.353 OA
HETATM   13  C25 UNL     1      -2.204   2.296  -3.886  1.00  0.00     0.210 C 
ENDBRANCH   6  12
ENDBRANCH   1   2
BRANCH   1  14
HETATM   14  N1  UNL     1      -0.451  -0.989  -0.638  1.00  0.00    -0.354 N 
ATOM     15  H1  UNL     1      -0.466  -1.670  -1.397  1.00  0.00     0.163 HD
BRANCH  14  16
HETATM   16  C6  UNL     1       0.755  -0.284  -0.364  1.00  0.00     0.168 C 
HETATM   17  S1  UNL     1       0.814   0.806   0.821  1.00  0.00    -0.041 SA
BRANCH  16  18
HETATM   18  N2  UNL     1       1.915  -0.536  -1.144  1.00  0.00    -0.367 N 
ATOM     19  H2  UNL     1       1.839  -1.226  -1.891  1.00  0.00     0.161 HD
BRANCH  18  20
HETATM   20  C7  UNL     1       3.179   0.102  -0.963  1.00  0.00     0.123 C 
BRANCH  20  21
HETATM   21  C8  UNL     1       3.907  -0.273   0.291  1.00  0.00     0.050 C 
BRANCH  21  22
HETATM   22  C9  UNL     1       5.218   0.461   0.382  1.00  0.00     0.274 C 
BRANCH  22  23
HETATM   23  N3  UNL     1       6.124   0.207  -0.691  1.00  0.00     0.092 N 
HETATM   24  C10 UNL     1       6.665  -1.113  -0.735  1.00  0.00     0.298 C 
HETATM   25  C11 UNL     1       7.417  -1.448   0.549  1.00  0.00     0.198 C 
HETATM   26  O2  UNL     1       8.502  -0.579   0.610  1.00  0.00    -0.388 OA
HETATM   27  C12 UNL     1       8.137   0.745   0.609  1.00  0.00     0.198 C 
HETATM   28  C13 UNL     1       7.248   1.137  -0.528  1.00  0.00     0.298 C 
ENDBRANCH  22  23
ENDBRANCH  21  22
ENDBRANCH  20  21
ENDBRANCH  18  20
ENDBRANCH  16  18
ENDBRANCH  14  16
ENDBRANCH   1  14
BRANCH   1  29
HETATM   29  C14 UNL     1      -2.665  -1.757  -0.302  1.00  0.00     0.003 A 
HETATM   30  C15 UNL     1      -2.926  -1.999  -1.633  1.00  0.00     0.036 A 
HETATM   31  C16 UNL     1      -3.861  -2.925  -2.083  1.00  0.00     0.009 A 
HETATM   32  C17 UNL     1      -4.139  -3.182  -3.515  1.00  0.00     0.068 C 
HETATM   33  N4  UNL     1      -4.520  -3.595  -1.131  1.00  0.00    -0.326 N 
HETATM   34  C18 UNL     1      -4.337  -3.432   0.169  1.00  0.00     0.273 A 
ATOM     35  H4  UNL     1      -5.214  -4.281  -1.429  1.00  0.00     0.169 HD
HETATM   36  O3  UNL     1      -4.985  -4.089   0.992  1.00  0.00    -0.266 OA
HETATM   37  C19 UNL     1      -3.381  -2.486   0.607  1.00  0.00     0.108 A 
BRANCH  37  38
HETATM   38  N5  UNL     1      -3.174  -2.326   1.996  1.00  0.00    -0.376 N 
HETATM   39  C20 UNL     1      -2.293  -2.909   3.023  1.00  0.00     0.125 C 
HETATM   40  C21 UNL     1      -3.514  -2.800   3.950  1.00  0.00     0.040 C 
HETATM   41  C22 UNL     1      -3.748  -1.556   3.072  1.00  0.00     0.125 C 
ENDBRANCH  37  38
ENDBRANCH   1  29
TORSDOF 13
