REMARK  11 active torsions:
REMARK  status: ('A' for Active; 'I' for Inactive)
REMARK    1  A    between atoms: C2_2  and  C3_3 
REMARK    2  A    between atoms: C8_9  and  O2_10 
REMARK    3  A    between atoms: C9_12  and  C10_13 
REMARK    4  A    between atoms: C15_18  and  C16_19 
REMARK    5  A    between atoms: C16_19  and  N1_20 
REMARK    6  A    between atoms: N1_20  and  C17_22 
REMARK    7  A    between atoms: C23_31  and  C24_32 
REMARK    8  A    between atoms: C23_31  and  C29_38 
REMARK    9  A    between atoms: C25_33  and  C26_34 
REMARK   10  A    between atoms: C26_34  and  C28_36 
REMARK   11  A    between atoms: C29_38  and  O7_41 
ROOT
HETATM    1  C3  UNL     1      -0.630   0.195  -1.037  1.00  0.00    -0.032 C 
HETATM    2  C4  UNL     1      -1.306   1.468  -1.576  1.00  0.00     0.187 A 
HETATM    3  O1  UNL     1      -2.493   1.997  -1.343  1.00  0.00    -0.365 OA
HETATM    4  C5  UNL     1      -1.628   2.392  -0.419  1.00  0.00     0.218 A 
HETATM    5  C6  UNL     1      -0.602   3.456  -0.468  1.00  0.00     0.195 C 
HETATM    6  C7  UNL     1       0.590   3.123  -1.291  1.00  0.00     0.104 C 
HETATM    7  C8  UNL     1       1.154   1.801  -1.356  1.00  0.00     0.132 C 
HETATM    8  C9  UNL     1       0.603   0.669  -0.443  1.00  0.00     0.052 C 
HETATM    9  O4  UNL     1      -1.239   4.594  -0.990  1.00  0.00    -0.350 OA
HETATM   10  C21 UNL     1      -0.726   5.684  -0.354  1.00  0.00     0.198 C 
HETATM   11  C22 UNL     1      -0.033   5.154   0.870  1.00  0.00     0.198 C 
HETATM   12  O5  UNL     1      -0.187   3.792   0.804  1.00  0.00    -0.350 OA
ENDROOT
BRANCH   1  13
HETATM   13  C2  UNL     1      -1.579  -0.803  -0.596  1.00  0.00    -0.031 C 
HETATM   14  C1  UNL     1      -1.623  -1.893  -1.469  1.00  0.00     0.024 C 
HETATM   15  C23 UNL     1      -2.601  -0.953   0.417  1.00  0.00    -0.015 C 
BRANCH  15  16
HETATM   16  C24 UNL     1      -3.917  -0.247   0.118  1.00  0.00     0.008 C 
HETATM   17  C25 UNL     1      -4.833  -0.830  -0.628  1.00  0.00    -0.015 C 
BRANCH  17  18
HETATM   18  C26 UNL     1      -6.138  -0.191  -0.956  1.00  0.00     0.065 C 
HETATM   19  C27 UNL     1      -7.254  -1.102  -0.520  1.00  0.00     0.021 C 
BRANCH  18  20
HETATM   20  C28 UNL     1      -6.212  -0.069  -2.440  1.00  0.00     0.239 C 
HETATM   21  O6  UNL     1      -7.211  -0.376  -3.076  1.00  0.00    -0.306 OA
ENDBRANCH  18  20
ENDBRANCH  17  18
ENDBRANCH  15  16
BRANCH  15  22
HETATM   22  C29 UNL     1      -2.395  -1.105   1.868  1.00  0.00     0.078 C 
HETATM   23  C30 UNL     1      -1.666  -2.340   2.334  1.00  0.00     0.051 C 
HETATM   24  C31 UNL     1      -3.771  -1.219   2.593  1.00  0.00     0.051 C 
BRANCH  22  25
HETATM   25  O7  UNL     1      -1.688  -0.039   2.477  1.00  0.00    -0.386 OA
ATOM     26  H7  UNL     1      -1.555  -0.137   3.413  1.00  0.00     0.211 HD
ENDBRANCH  22  25
ENDBRANCH  15  22
ENDBRANCH   1  13
BRANCH   8  27
HETATM   27  C10 UNL     1       1.775  -0.034   0.039  1.00  0.00     0.005 C 
HETATM   28  C11 UNL     1       1.574  -0.944   1.228  1.00  0.00     0.007 C 
HETATM   29  C12 UNL     1       2.987  -1.420   1.556  1.00  0.00     0.011 C 
HETATM   30  C13 UNL     1       3.583  -1.621   0.195  1.00  0.00    -0.031 C 
HETATM   31  C14 UNL     1       3.475  -3.068  -0.184  1.00  0.00     0.016 C 
HETATM   32  C15 UNL     1       4.920  -1.071  -0.095  1.00  0.00     0.013 C 
HETATM   33  C19 UNL     1       2.877  -0.626  -0.762  1.00  0.00    -0.032 C 
HETATM   34  C18 UNL     1       4.220   0.095  -0.748  1.00  0.00     0.017 C 
HETATM   35  C20 UNL     1       2.718  -1.199  -2.112  1.00  0.00     0.016 C 
BRANCH  32  36
HETATM   36  C16 UNL     1       5.753  -0.598   1.056  1.00  0.00     0.127 C 
BRANCH  36  37
HETATM   37  N1  UNL     1       6.044  -1.636   2.025  1.00  0.00    -0.368 N 
ATOM     38  H1  UNL     1       5.733  -1.515   2.989  1.00  0.00     0.161 HD
BRANCH  37  39
HETATM   39  C17 UNL     1       6.738  -2.798   1.678  1.00  0.00     0.348 C 
HETATM   40  O3  UNL     1       7.138  -2.984   0.502  1.00  0.00    -0.284 OA
ENDBRANCH  37  39
ENDBRANCH  36  37
ENDBRANCH  32  36
ENDBRANCH   8  27
BRANCH   7  41
HETATM   41  O2  UNL     1       1.251   1.360  -2.685  1.00  0.00    -0.395 OA
ATOM     42  H2  UNL     1       1.623   0.487  -2.728  1.00  0.00     0.210 HD
ENDBRANCH   7  41
TORSDOF 11
