REMARK  13 active torsions:
REMARK  status: ('A' for Active; 'I' for Inactive)
REMARK    1  A    between atoms: C2_2  and  C3_3 
REMARK    2  A    between atoms: C3_3  and  C4_4 
REMARK    3  A    between atoms: C4_4  and  C5_5 
REMARK    4  A    between atoms: C7_9  and  C8_10 
REMARK    5  A    between atoms: C9_12  and  O4_13 
REMARK    6  A    between atoms: C11_16  and  C12_17 
REMARK       I    between atoms: C12_17  and  N1_19 
REMARK    7  A    between atoms: N1_19  and  C13_21 
REMARK    8  A    between atoms: C13_21  and  C14_22 
REMARK    9  A    between atoms: C14_22  and  O6_23 
REMARK   10  A    between atoms: O6_23  and  C15_24 
REMARK       I    between atoms: C15_24  and  N2_26 
REMARK   11  A    between atoms: N2_26  and  C16_27 
REMARK   12  A    between atoms: N2_26  and  C18_29 
REMARK   13  A    between atoms: C27_38  and  O8_39 
ROOT
HETATM    1  C5  UNL     1      -3.647   1.213   0.950  1.00  0.00     0.169 C 
HETATM    2  O1  UNL     1      -2.653   0.801   1.964  1.00  0.00    -0.312 OA
HETATM    3  C6  UNL     1      -1.369   1.174   1.606  1.00  0.00     0.273 C 
HETATM    4  O2  UNL     1      -0.490   1.606   2.418  1.00  0.00    -0.264 OA
HETATM    5  C7  UNL     1      -1.088   1.018   0.134  1.00  0.00     0.184 C 
HETATM    6  C9  UNL     1      -1.921  -0.012  -0.497  1.00  0.00     0.115 C 
HETATM    7  C10 UNL     1      -1.616  -1.457  -0.266  1.00  0.00     0.042 C 
HETATM    8  C11 UNL     1      -0.245  -1.899  -0.691  1.00  0.00     0.085 C 
HETATM    9  C20 UNL     1      -0.158  -3.438  -0.566  1.00  0.00     0.015 C 
HETATM   10  C21 UNL     1      -1.180  -4.197  -1.287  1.00  0.00     0.005 C 
HETATM   11  C22 UNL     1      -2.533  -3.685  -0.751  1.00  0.00    -0.014 C 
HETATM   12  C23 UNL     1      -3.660  -4.495  -1.306  1.00  0.00     0.010 C 
HETATM   13  C24 UNL     1      -2.526  -2.238  -1.202  1.00  0.00    -0.003 C 
HETATM   14  C25 UNL     1      -3.931  -1.785  -1.283  1.00  0.00     0.009 C 
HETATM   15  C26 UNL     1      -4.152  -0.987   0.016  1.00  0.00     0.044 C 
HETATM   16  C27 UNL     1      -3.387   0.279  -0.226  1.00  0.00     0.117 C 
ENDROOT
BRANCH   8  17
HETATM   17  C12 UNL     1       0.901  -1.517   0.141  1.00  0.00     0.222 C 
HETATM   18  O5  UNL     1       0.869  -1.452   1.385  1.00  0.00    -0.273 OA
HETATM   19  N1  UNL     1       2.133  -1.205  -0.487  1.00  0.00    -0.359 N 
ATOM     20  H1  UNL     1       2.183  -1.251  -1.505  1.00  0.00     0.162 HD
BRANCH  19  21
HETATM   21  C13 UNL     1       3.321  -0.825   0.240  1.00  0.00     0.149 C 
BRANCH  21  22
HETATM   22  C14 UNL     1       4.447  -0.561  -0.696  1.00  0.00     0.200 C 
BRANCH  22  23
HETATM   23  O6  UNL     1       5.652  -0.184  -0.082  1.00  0.00    -0.302 OA
BRANCH  23  24
HETATM   24  C15 UNL     1       5.864   0.917   0.698  1.00  0.00     0.362 C 
HETATM   25  O7  UNL     1       4.900   1.693   0.905  1.00  0.00    -0.238 OA
HETATM   26  N2  UNL     1       7.120   1.233   1.292  1.00  0.00    -0.329 N 
BRANCH  26  27
HETATM   27  C16 UNL     1       7.280   2.417   2.110  1.00  0.00     0.123 C 
HETATM   28  C17 UNL     1       7.691   3.579   1.239  1.00  0.00     0.026 C 
ENDBRANCH  26  27
BRANCH  26  29
HETATM   29  C18 UNL     1       8.281   0.370   1.090  1.00  0.00     0.123 C 
HETATM   30  C19 UNL     1       8.999   0.862  -0.142  1.00  0.00     0.026 C 
ENDBRANCH  26  29
ENDBRANCH  23  24
ENDBRANCH  22  23
ENDBRANCH  21  22
ENDBRANCH  19  21
ENDBRANCH   8  17
BRANCH   6  31
HETATM   31  O4  UNL     1      -1.718   0.143  -1.907  1.00  0.00    -0.385 OA
ATOM     32  H4  UNL     1      -2.257  -0.524  -2.316  1.00  0.00     0.210 HD
ENDBRANCH   6  31
BRANCH   5  33
HETATM   33  C8  UNL     1      -1.338   2.344  -0.493  1.00  0.00     0.248 C 
HETATM   34  O3  UNL     1      -1.419   2.431  -1.697  1.00  0.00    -0.306 OA
ENDBRANCH   5  33
BRANCH  16  35
HETATM   35  O8  UNL     1      -3.903   0.878  -1.362  1.00  0.00    -0.384 OA
ATOM     36  H8  UNL     1      -3.741   0.296  -2.095  1.00  0.00     0.210 HD
ENDBRANCH  16  35
BRANCH   1  37
HETATM   37  C4  UNL     1      -4.980   1.025   1.605  1.00  0.00     0.036 C 
BRANCH  37  38
HETATM   38  C3  UNL     1      -6.209   1.479   0.933  1.00  0.00     0.002 C 
BRANCH  38  39
HETATM   39  C2  UNL     1      -6.434   2.938   0.789  1.00  0.00    -0.004 C 
HETATM   40  C1  UNL     1      -5.499   3.789   0.045  1.00  0.00     0.005 C 
ENDBRANCH  38  39
ENDBRANCH  37  38
ENDBRANCH   1  37
TORSDOF 13
