REMARK  11 active torsions:
REMARK  status: ('A' for Active; 'I' for Inactive)
REMARK    1  A    between atoms: O1_2  and  C2_3 
REMARK    2  A    between atoms: C2_3  and  C3_4 
REMARK       I    between atoms: C3_4  and  N1_6 
REMARK    3  A    between atoms: N1_6  and  C4_8 
REMARK    4  A    between atoms: C4_8  and  C5_9 
REMARK    5  A    between atoms: C7_11  and  C8_12 
REMARK    6  A    between atoms: C11_16  and  C12_17 
REMARK       I    between atoms: C12_17  and  N3_19 
REMARK    7  A    between atoms: N3_19  and  C13_21 
REMARK    8  A    between atoms: C23_34  and  N6_35 
REMARK    9  A    between atoms: N6_35  and  C24_37 
REMARK   10  A    between atoms: C24_37  and  C25_38 
REMARK   11  A    between atoms: C25_38  and  N7_39 
ROOT
HETATM    1  C5  UNL     1      -2.925   1.381   0.781  1.00  0.00     0.029 A 
HETATM    2  C6  UNL     1      -1.544   1.397   1.035  1.00  0.00     0.039 A 
HETATM    3  C7  UNL     1      -0.808   0.238   0.963  1.00  0.00    -0.012 A 
HETATM    4  C21 UNL     1      -1.411  -0.953   0.640  1.00  0.00    -0.007 A 
HETATM    5  C22 UNL     1      -0.705  -2.250   0.523  1.00  0.00     0.053 C 
HETATM    6  C23 UNL     1      -2.780  -0.941   0.390  1.00  0.00     0.108 A 
HETATM    7  N8  UNL     1      -3.487   0.205   0.467  1.00  0.00    -0.344 N 
ATOM      8  H8  UNL     1      -4.489   0.176   0.279  1.00  0.00     0.167 HD
ENDROOT
BRANCH   3   9
HETATM    9  C8  UNL     1       0.613   0.228   1.286  1.00  0.00    -0.001 A 
HETATM   10  C9  UNL     1       1.209  -0.081   2.489  1.00  0.00     0.104 A 
HETATM   11  N2  UNL     1       2.571   0.080   2.399  1.00  0.00    -0.355 N 
HETATM   12  C10 UNL     1       3.452  -0.134   3.527  1.00  0.00     0.156 C 
HETATM   13  C11 UNL     1       2.877   0.481   1.170  1.00  0.00     0.109 A 
HETATM   14  C19 UNL     1       1.671   0.581   0.463  1.00  0.00    -0.017 A 
HETATM   15  C20 UNL     1       1.485   0.980  -0.965  1.00  0.00     0.052 C 
BRANCH  13  16
HETATM   16  C12 UNL     1       4.148   0.722   0.521  1.00  0.00     0.273 C 
HETATM   17  O3  UNL     1       4.191   1.274  -0.640  1.00  0.00    -0.266 OA
HETATM   18  N3  UNL     1       5.393   0.387   1.062  1.00  0.00    -0.318 N 
ATOM     19  H3  UNL     1       5.466  -0.042   1.984  1.00  0.00     0.169 HD
BRANCH  18  20
HETATM   20  C13 UNL     1       6.573   0.667   0.276  1.00  0.00     0.083 A 
HETATM   21  C14 UNL     1       7.366   1.758   0.266  1.00  0.00     0.051 A 
HETATM   22  C15 UNL     1       7.211   2.971   1.132  1.00  0.00     0.072 C 
HETATM   23  N4  UNL     1       8.335   1.551  -0.673  1.00  0.00    -0.301 N 
HETATM   24  N5  UNL     1       8.174   0.365  -1.254  1.00  0.00    -0.299 N 
ATOM     25  H4  UNL     1       9.078   2.213  -0.898  1.00  0.00     0.187 HD
HETATM   26  C16 UNL     1       9.003  -0.223  -2.323  1.00  0.00     0.177 C 
HETATM   27  C17 UNL     1       7.099  -0.202  -0.690  1.00  0.00     0.053 A 
HETATM   28  C18 UNL     1       6.505  -1.532  -0.975  1.00  0.00     0.072 C 
ENDBRANCH  18  20
ENDBRANCH  13  16
ENDBRANCH   3   9
BRANCH   1  29
HETATM   29  C4  UNL     1      -3.723   2.654   0.896  1.00  0.00     0.179 C 
BRANCH  29  30
HETATM   30  N1  UNL     1      -2.861   3.735   0.454  1.00  0.00    -0.354 N 
HETATM   31  C3  UNL     1      -2.347   3.770  -0.850  1.00  0.00     0.241 C 
HETATM   32  O2  UNL     1      -2.617   2.867  -1.671  1.00  0.00    -0.271 OA
ATOM     33  H1  UNL     1      -2.625   4.484   1.105  1.00  0.00     0.162 HD
BRANCH  31  34
HETATM   34  C2  UNL     1      -1.471   4.871  -1.294  1.00  0.00     0.269 C 
BRANCH  34  35
HETATM   35  O1  UNL     1      -1.283   5.749  -0.221  1.00  0.00    -0.387 OA
HETATM   36  C1  UNL     1      -0.443   6.787  -0.661  1.00  0.00     0.202 C 
ENDBRANCH  34  35
ENDBRANCH  31  34
ENDBRANCH  29  30
ENDBRANCH   1  29
BRANCH   6  37
HETATM   37  N6  UNL     1      -3.330  -2.060   0.061  1.00  0.00    -0.374 N 
ATOM     38  H6  UNL     1      -2.759  -2.903  -0.006  1.00  0.00     0.161 HD
BRANCH  37  39
HETATM   39  C24 UNL     1      -4.748  -2.133  -0.214  1.00  0.00     0.151 C 
BRANCH  39  40
HETATM   40  C25 UNL     1      -5.140  -3.449  -0.817  1.00  0.00     0.292 C 
BRANCH  40  41
HETATM   41  N7  UNL     1      -6.548  -3.530  -1.103  1.00  0.00     0.090 N 
HETATM   42  C26 UNL     1      -7.324  -3.564   0.096  1.00  0.00     0.272 C 
HETATM   43  C27 UNL     1      -7.758  -4.994   0.302  1.00  0.00     0.032 C 
HETATM   44  C28 UNL     1      -7.043  -5.770  -0.768  1.00  0.00     0.032 C 
HETATM   45  C29 UNL     1      -6.881  -4.712  -1.863  1.00  0.00     0.272 C 
ENDBRANCH  40  41
ENDBRANCH  39  40
ENDBRANCH  37  39
ENDBRANCH   6  37
TORSDOF 11
