REMARK  1 active torsions:
REMARK  status: ('A' for Active; 'I' for Inactive)
REMARK    1  A    between atoms: S1_2  and  C2_3 
ROOT
HETATM    1  C2  UNL     1       2.289  -0.458   0.316  1.00  0.00     0.183 C 
HETATM    2  C3  UNL     1       1.558  -1.716  -0.108  1.00  0.00     0.070 C 
HETATM    3  C4  UNL     1       0.086  -1.664   0.286  1.00  0.00     0.236 C 
HETATM    4  N1  UNL     1      -0.726  -1.012  -0.702  1.00  0.00    -0.064 N 
ATOM      5  H11 UNL     1      -1.240  -1.676  -1.281  1.00  0.00     0.278 HD
ATOM      6  H12 UNL     1      -0.168  -0.580  -1.439  1.00  0.00     0.278 HD
HETATM    7  C5  UNL     1      -1.595  -0.069  -0.050  1.00  0.00     0.150 C 
HETATM    8  C6  UNL     1      -2.708   0.427  -0.968  1.00  0.00     0.067 C 
HETATM    9  C7  UNL     1      -3.678   0.905   0.109  1.00  0.00     0.170 C 
HETATM   10  O1  UNL     1      -3.706  -0.210   0.942  1.00  0.00    -0.389 OA
HETATM   11  C8  UNL     1      -2.419  -0.688   1.056  1.00  0.00     0.206 C 
HETATM   12  C9  UNL     1      -0.838   1.149   0.408  1.00  0.00     0.067 C 
HETATM   13  C10 UNL     1       0.606   1.082  -0.052  1.00  0.00     0.172 C 
HETATM   14  O2  UNL     1       1.351   0.384   0.895  1.00  0.00    -0.376 OA
ENDROOT
BRANCH   1  15
HETATM   15  S1  UNL     1       3.103   0.292  -1.112  1.00  0.00    -0.142 SA
HETATM   16  C1  UNL     1       4.655   1.068  -0.606  1.00  0.00     0.092 C 
ENDBRANCH   1  15
TORSDOF 1
