REMARK  2 active torsions:
REMARK  status: ('A' for Active; 'I' for Inactive)
REMARK    1  A    between atoms: O1_1  and  C1_3 
REMARK    2  A    between atoms: C6_10  and  C7_11 
ROOT
HETATM    1  C1  UNL     1      -0.233  -1.269   0.765  1.00  0.00     0.161 C 
HETATM    2  C2  UNL     1      -1.740  -1.308   0.626  1.00  0.00     0.098 C 
HETATM    3  C3  UNL     1      -2.033  -0.730  -0.740  1.00  0.00     0.362 C 
HETATM    4  O2  UNL     1      -3.157   0.075  -0.643  1.00  0.00    -0.355 OA
HETATM    5  C4  UNL     1      -2.768   1.213   0.034  1.00  0.00     0.201 C 
HETATM    6  C5  UNL     1      -1.247   1.211   0.068  1.00  0.00     0.303 C 
HETATM    7  N1  UNL     1      -0.911   0.208  -0.912  1.00  0.00     0.131 N 
HETATM    8  C6  UNL     1       0.196  -0.633  -0.514  1.00  0.00     0.294 C 
ENDROOT
BRANCH   8   9
HETATM    9  C7  UNL     1       1.440   0.183  -0.337  1.00  0.00     0.018 A 
HETATM   10  C8  UNL     1       2.692  -0.123  -0.785  1.00  0.00     0.017 A 
HETATM   11  C9  UNL     1       3.676   0.753  -0.516  1.00  0.00     0.008 A 
HETATM   12  C10 UNL     1       3.347   1.878   0.183  1.00  0.00     0.050 A 
HETATM   13  S1  UNL     1       1.673   1.682   0.446  1.00  0.00    -0.104 SA
ENDBRANCH   8   9
BRANCH   1  14
HETATM   14  O1  UNL     1       0.241  -2.589   0.761  1.00  0.00    -0.393 OA
ATOM     15  H1  UNL     1       1.187  -2.565   0.848  1.00  0.00     0.210 HD
ENDBRANCH   1  14
TORSDOF 2
