REMARK  2 active torsions:
REMARK  status: ('A' for Active; 'I' for Inactive)
REMARK    1  A    between atoms: O1_1  and  C1_3 
REMARK    2  A    between atoms: N1_9  and  C7_10 
ROOT
HETATM    1  C1  UNL     1      -1.556  -0.075  -0.510  1.00  0.00     0.064 C 
HETATM    2  C2  UNL     1      -3.060   0.153  -0.475  1.00  0.00     0.038 C 
HETATM    3  C3  UNL     1      -3.319   1.117   0.655  1.00  0.00     0.004 C 
HETATM    4  C4  UNL     1      -2.134   0.827   1.577  1.00  0.00     0.009 C 
HETATM    5  C5  UNL     1      -0.993   0.845   0.551  1.00  0.00     0.038 C 
HETATM    6  C6  UNL     1       0.251   0.327   1.186  1.00  0.00     0.132 C 
HETATM    7  N1  UNL     1       0.958  -0.526   0.257  1.00  0.00    -0.366 N 
HETATM    8  C11 UNL     1       0.268  -1.691  -0.263  1.00  0.00     0.127 C 
HETATM    9  C12 UNL     1      -1.240  -1.516  -0.196  1.00  0.00     0.058 C 
ENDROOT
BRANCH   7  10
HETATM   10  C7  UNL     1       2.292  -0.232  -0.136  1.00  0.00     0.118 A 
HETATM   11  C8  UNL     1       3.006  -1.002  -1.009  1.00  0.00     0.136 A 
HETATM   12  N2  UNL     1       4.282  -0.645  -1.331  1.00  0.00    -0.371 N 
HETATM   13  C9  UNL     1       4.856   0.457  -0.803  1.00  0.00     0.104 A 
ATOM     14  H2  UNL     1       4.813  -1.222  -1.983  1.00  0.00     0.164 HD
HETATM   15  C10 UNL     1       4.130   1.237   0.082  1.00  0.00     0.106 A 
HETATM   16  N3  UNL     1       2.892   0.861   0.373  1.00  0.00    -0.350 N 
ATOM     17  H3  UNL     1       2.360   1.437   1.025  1.00  0.00     0.166 HD
ENDBRANCH   7  10
BRANCH   1  18
HETATM   18  O1  UNL     1      -1.036   0.219  -1.770  1.00  0.00    -0.389 OA
ATOM     19  H1  UNL     1      -0.097   0.077  -1.792  1.00  0.00     0.210 HD
ENDBRANCH   1  18
TORSDOF 2
