REMARK  8 active torsions:
REMARK  status: ('A' for Active; 'I' for Inactive)
REMARK    1  A    between atoms: N1_2  and  C3_4 
REMARK    2  A    between atoms: C5_6  and  C6_7 
REMARK    3  A    between atoms: C6_7  and  O1_8 
REMARK    4  A    between atoms: O1_8  and  C7_9 
REMARK    5  A    between atoms: N4_19  and  C13_20 
REMARK    6  A    between atoms: C13_20  and  C14_21 
REMARK    7  A    between atoms: C18_27  and  C19_28 
REMARK    8  A    between atoms: C19_28  and  N5_29 
ROOT
HETATM    1  O1  UNL     1       0.774  -0.574   0.196  1.00  0.00    -0.321 OA
ENDROOT
BRANCH   1   2
HETATM    2  C6  UNL     1       0.093  -0.975  -0.960  1.00  0.00     0.183 C 
BRANCH   2   3
HETATM    3  C5  UNL     1      -1.270  -1.539  -0.726  1.00  0.00     0.018 C 
HETATM    4  C4  UNL     1      -1.229  -2.772   0.154  1.00  0.00     0.043 C 
HETATM    5  C3  UNL     1      -2.306  -2.621   1.170  1.00  0.00     0.223 C 
HETATM    6  C25 UNL     1      -3.110  -1.397   0.802  1.00  0.00     0.042 C 
HETATM    7  C18 UNL     1      -2.191  -0.544  -0.056  1.00  0.00     0.022 C 
BRANCH   5   8
HETATM    8  N1  UNL     1      -3.168  -3.751   1.302  1.00  0.00     0.084 N 
HETATM    9  C1  UNL     1      -3.926  -4.091   0.139  1.00  0.00     0.309 C 
HETATM   10  C2  UNL     1      -2.468  -4.912   1.831  1.00  0.00     0.309 C 
ENDBRANCH   5   8
BRANCH   7  11
HETATM   11  C19 UNL     1      -2.959   0.162  -1.141  1.00  0.00     0.277 C 
BRANCH  11  12
HETATM   12  N5  UNL     1      -3.888   1.139  -0.666  1.00  0.00     0.089 N 
HETATM   13  C20 UNL     1      -3.314   2.295  -0.070  1.00  0.00     0.278 C 
HETATM   14  C21 UNL     1      -4.473   3.115   0.515  1.00  0.00     0.109 C 
HETATM   15  C22 UNL     1      -5.217   3.663  -0.686  1.00  0.00     0.246 C 
HETATM   16  F3  UNL     1      -4.271   4.344  -1.441  1.00  0.00    -0.206 F 
HETATM   17  F4  UNL     1      -6.229   4.499  -0.268  1.00  0.00    -0.206 F 
HETATM   18  C23 UNL     1      -5.801   2.505  -1.426  1.00  0.00     0.109 C 
HETATM   19  C24 UNL     1      -4.894   1.351  -1.650  1.00  0.00     0.278 C 
ENDBRANCH  11  12
ENDBRANCH   7  11
ENDBRANCH   2   3
ENDBRANCH   1   2
BRANCH   1  20
HETATM   20  C7  UNL     1       2.074  -0.069  -0.002  1.00  0.00     0.228 A 
HETATM   21  N2  UNL     1       2.732   0.067  -1.171  1.00  0.00    -0.319 N 
HETATM   22  C8  UNL     1       3.959   0.583  -0.987  1.00  0.00     0.080 A 
ATOM     23  H2  UNL     1       2.347  -0.189  -2.080  1.00  0.00     0.169 HD
HETATM   24  C9  UNL     1       5.012   0.913  -1.812  1.00  0.00     0.042 A 
HETATM   25  C12 UNL     1       4.075   0.782   0.377  1.00  0.00     0.138 A 
HETATM   26  C10 UNL     1       6.207   1.447  -1.318  1.00  0.00    -0.033 A 
HETATM   27  C11 UNL     1       6.272   1.626   0.044  1.00  0.00     0.017 A 
HETATM   28  C17 UNL     1       7.463   1.870  -1.980  1.00  0.00     0.041 A 
HETATM   29  N3  UNL     1       5.224   1.295   0.844  1.00  0.00    -0.343 N 
HETATM   30  C15 UNL     1       7.592   2.202   0.427  1.00  0.00     0.058 A 
ATOM     31  H3  UNL     1       5.315   1.444   1.849  1.00  0.00     0.167 HD
HETATM   32  C16 UNL     1       8.327   2.374  -0.873  1.00  0.00     0.011 A 
HETATM   33  N4  UNL     1       2.912   0.375   0.945  1.00  0.00    -0.292 N 
BRANCH  33  34
HETATM   34  C13 UNL     1       2.599   0.410   2.358  1.00  0.00     0.205 C 
BRANCH  34  35
HETATM   35  C14 UNL     1       3.036  -0.910   2.956  1.00  0.00     0.371 C 
HETATM   36  F1  UNL     1       2.773  -0.966   4.313  1.00  0.00    -0.213 F 
HETATM   37  F2  UNL     1       4.383  -1.121   2.746  1.00  0.00    -0.213 F 
ENDBRANCH  34  35
ENDBRANCH  33  34
ENDBRANCH   1  20
TORSDOF 8
