REMARK  13 active torsions:
REMARK  status: ('A' for Active; 'I' for Inactive)
REMARK    1  A    between atoms: N1_1  and  C1_4 
REMARK    2  A    between atoms: C3_8  and  C4_9 
REMARK    3  A    between atoms: C4_9  and  C5_10 
REMARK    4  A    between atoms: C5_10  and  N3_11 
REMARK    5  A    between atoms: C8_14  and  N4_15 
REMARK    6  A    between atoms: N4_15  and  C9_17 
REMARK    7  A    between atoms: C10_20  and  N6_21 
REMARK    8  A    between atoms: N6_21  and  C11_23 
REMARK    9  A    between atoms: C11_23  and  C12_24 
REMARK   10  A    between atoms: C12_24  and  N7_25 
REMARK   11  A    between atoms: C16_32  and  C17_33 
REMARK   12  A    between atoms: C17_33  and  C18_34 
REMARK   13  A    between atoms: C20_41  and  O2_42 
ROOT
HETATM    1  C9  UNL     1      -1.454   0.747   0.005  1.00  0.00     0.695 A 
HETATM    2  N5  UNL     1      -1.717  -0.536  -0.116  1.00  0.00    -0.021 N 
ATOM      3  H5  UNL     1      -0.964  -1.213   0.009  1.00  0.00     0.203 HD
HETATM    4  C10 UNL     1      -2.955  -0.976  -0.400  1.00  0.00     0.715 A 
HETATM    5  N8  UNL     1      -3.937  -0.066  -0.561  1.00  0.00    -0.068 N 
HETATM    6  N9  UNL     1      -5.225  -0.221  -0.842  1.00  0.00    -0.288 N 
ATOM      7  H9  UNL     1      -5.679  -1.123  -0.986  1.00  0.00     0.187 HD
HETATM    8  C15 UNL     1      -5.846   0.951  -0.912  1.00  0.00     0.123 A 
HETATM    9  C16 UNL     1      -4.883   1.918  -0.658  1.00  0.00     0.030 A 
HETATM   10  C21 UNL     1      -3.702   1.253  -0.444  1.00  0.00     0.172 A 
HETATM   11  N12 UNL     1      -2.431   1.649  -0.155  1.00  0.00    -0.173 N 
ATOM     12  H12 UNL     1      -2.221   2.643  -0.059  1.00  0.00     0.186 HD
ENDROOT
BRANCH   1  13
HETATM   13  N4  UNL     1      -0.278   1.156   0.274  1.00  0.00    -0.212 N 
ATOM     14  H4  UNL     1      -0.167   2.167   0.348  1.00  0.00     0.178 HD
BRANCH  13  15
HETATM   15  C8  UNL     1       0.900   0.390   0.484  1.00  0.00     0.194 C 
HETATM   16  C7  UNL     1       1.917   1.274   1.227  1.00  0.00     0.051 C 
HETATM   17  C6  UNL     1       3.128   0.485   1.614  1.00  0.00     0.116 C 
HETATM   18  N3  UNL     1       3.510  -0.541   0.703  1.00  0.00    -0.228 NA
HETATM   19  N13 UNL     1       2.969  -0.430  -0.579  1.00  0.00    -0.287 N 
HETATM   20  C22 UNL     1       1.598  -0.067  -0.728  1.00  0.00     0.255 C 
ATOM     21  H13 UNL     1       3.548  -0.607  -1.400  1.00  0.00     0.184 HD
HETATM   22  O3  UNL     1       1.067  -0.155  -1.864  1.00  0.00    -0.270 OA
BRANCH  18  23
HETATM   23  C5  UNL     1       4.937  -0.719   0.596  1.00  0.00     0.119 C 
BRANCH  23  24
HETATM   24  C4  UNL     1       5.622   0.461  -0.064  1.00  0.00     0.074 C 
BRANCH  24  25
HETATM   25  C3  UNL     1       7.079   0.150  -0.118  1.00  0.00     0.025 A 
HETATM   26  N2  UNL     1       7.934   0.477   0.870  1.00  0.00    -0.365 N 
HETATM   27  C2  UNL     1       9.243   0.191   0.807  1.00  0.00     0.136 A 
ATOM     28  H2  UNL     1       7.574   0.958   1.694  1.00  0.00     0.165 HD
HETATM   29  C1  UNL     1       9.790  -0.456  -0.275  1.00  0.00     0.114 A 
HETATM   30  N14 UNL     1       8.932  -0.791  -1.282  1.00  0.00    -0.350 N 
HETATM   31  C23 UNL     1       7.624  -0.503  -1.213  1.00  0.00     0.114 A 
ATOM     32  H14 UNL     1       9.294  -1.271  -2.106  1.00  0.00     0.166 HD
BRANCH  29  33
HETATM   33  N1  UNL     1      11.049  -0.754  -0.385  1.00  0.00    -0.384 N 
ATOM     34  H12 UNL     1      11.690  -0.504   0.368  1.00  0.00     0.157 HD
ATOM     35  H11 UNL     1      11.455  -1.234  -1.188  1.00  0.00     0.157 HD
ENDBRANCH  29  33
ENDBRANCH  24  25
ENDBRANCH  23  24
ENDBRANCH  18  23
ENDBRANCH  13  15
ENDBRANCH   1  13
BRANCH   4  36
HETATM   36  N6  UNL     1      -3.176  -2.388  -0.514  1.00  0.00    -0.222 N 
ATOM     37  H6  UNL     1      -2.399  -3.033  -0.369  1.00  0.00     0.177 HD
BRANCH  36  38
HETATM   38  C11 UNL     1      -4.468  -2.901  -0.828  1.00  0.00     0.168 C 
BRANCH  38  39
HETATM   39  C12 UNL     1      -4.452  -4.430  -0.880  1.00  0.00     0.292 C 
BRANCH  39  40
HETATM   40  N7  UNL     1      -5.828  -4.810  -1.229  1.00  0.00     0.093 N 
HETATM   41  C13 UNL     1      -6.791  -4.502  -0.162  1.00  0.00     0.302 A 
HETATM   42  C14 UNL     1      -6.417  -5.914  -0.440  1.00  0.00     0.302 A 
ENDBRANCH  39  40
ENDBRANCH  38  39
ENDBRANCH  36  38
ENDBRANCH   4  36
BRANCH   9  43
HETATM   43  C17 UNL     1      -5.079   3.213  -0.632  1.00  0.00     0.051 C 
BRANCH  43  44
HETATM   44  C18 UNL     1      -4.042   4.181  -0.360  1.00  0.00     0.088 A 
HETATM   45  N10 UNL     1      -3.404   4.932  -1.247  1.00  0.00    -0.305 N 
HETATM   46  C19 UNL     1      -2.498   5.739  -0.650  1.00  0.00     0.326 A 
ATOM     47  H10 UNL     1      -3.575   4.905  -2.252  1.00  0.00     0.171 HD
HETATM   48  O1  UNL     1      -1.741   6.563  -1.222  1.00  0.00    -0.247 OA
HETATM   49  N11 UNL     1      -2.600   5.452   0.676  1.00  0.00    -0.287 N 
HETATM   50  C20 UNL     1      -3.531   4.509   0.875  1.00  0.00     0.171 A 
ATOM     51  H11 UNL     1      -2.048   5.891   1.412  1.00  0.00     0.172 HD
BRANCH  50  52
HETATM   52  O2  UNL     1      -3.920   3.958   2.080  1.00  0.00    -0.344 OA
ATOM     53  H2  UNL     1      -3.567   4.184   2.933  1.00  0.00     0.219 HD
ENDBRANCH  50  52
ENDBRANCH  43  44
ENDBRANCH   9  43
TORSDOF 13
