REMARK  6 active torsions:
REMARK  status: ('A' for Active; 'I' for Inactive)
REMARK    1  A    between atoms: C2_2  and  O1_3 
REMARK    2  A    between atoms: O1_3  and  C3_4 
REMARK    3  A    between atoms: C4_7  and  N2_8 
REMARK    4  A    between atoms: C7_11  and  N3_12 
REMARK    5  A    between atoms: C15_22  and  N5_23 
REMARK    6  A    between atoms: N5_23  and  C16_24 
ROOT
HETATM    1  C3  UNL     1       2.991   2.209  -0.521  1.00  0.00     0.201 A 
HETATM    2  N1  UNL     1       1.661   2.172  -0.479  1.00  0.00    -0.167 N 
ATOM      3  H1  UNL     1       1.146   3.026  -0.691  1.00  0.00     0.186 HD
HETATM    4  C4  UNL     1       0.964   1.066  -0.172  1.00  0.00     0.684 A 
HETATM    5  N4  UNL     1       1.625  -0.054   0.104  1.00  0.00    -0.161 N 
ATOM      6  H4  UNL     1       1.083  -0.887   0.334  1.00  0.00     0.187 HD
HETATM    7  C15 UNL     1       3.000  -0.156   0.097  1.00  0.00     0.231 A 
HETATM    8  C21 UNL     1       3.659   1.011  -0.225  1.00  0.00     0.225 A 
HETATM    9  F1  UNL     1       4.998   1.021  -0.259  1.00  0.00    -0.196 F 
ENDROOT
BRANCH   4  10
HETATM   10  N2  UNL     1      -0.467   1.146  -0.154  1.00  0.00    -0.217 N 
HETATM   11  C5  UNL     1      -1.149   0.852  -1.382  1.00  0.00     0.143 C 
HETATM   12  C6  UNL     1      -2.655   0.828  -1.216  1.00  0.00     0.045 C 
HETATM   13  C7  UNL     1      -2.940   0.171   0.117  1.00  0.00     0.086 C 
HETATM   14  C13 UNL     1      -2.529   1.149   1.189  1.00  0.00     0.045 C 
HETATM   15  C14 UNL     1      -1.082   1.511   1.085  1.00  0.00     0.143 C 
BRANCH  13  16
HETATM   16  N3  UNL     1      -4.268  -0.299   0.283  1.00  0.00    -0.389 N 
HETATM   17  C8  UNL     1      -5.316   0.643   0.258  1.00  0.00     0.058 C 
HETATM   18  C9  UNL     1      -6.462   0.102  -0.566  1.00  0.00     0.044 C 
HETATM   19  C10 UNL     1      -6.892  -1.190   0.100  1.00  0.00     0.007 C 
HETATM   20  C11 UNL     1      -5.788  -2.191  -0.139  1.00  0.00     0.020 C 
HETATM   21  C12 UNL     1      -4.455  -1.539  -0.363  1.00  0.00     0.122 C 
ENDBRANCH  13  16
ENDBRANCH   4  10
BRANCH   1  22
HETATM   22  O1  UNL     1       3.733   3.343  -0.836  1.00  0.00    -0.333 OA
BRANCH  22  23
HETATM   23  C2  UNL     1       3.002   4.529  -1.128  1.00  0.00     0.173 C 
HETATM   24  C1  UNL     1       2.181   4.889   0.069  1.00  0.00     0.034 C 
ENDBRANCH  22  23
ENDBRANCH   1  22
BRANCH   7  25
HETATM   25  N5  UNL     1       3.537  -1.193   0.355  1.00  0.00    -0.422 NA
BRANCH  25  26
HETATM   26  C16 UNL     1       4.425  -2.167   0.587  1.00  0.00     0.165 C 
HETATM   27  C17 UNL     1       5.894  -1.946   0.207  1.00  0.00     0.039 C 
HETATM   28  C18 UNL     1       6.520  -3.342   0.346  1.00  0.00     0.003 C 
HETATM   29  C19 UNL     1       5.365  -4.310   0.373  1.00  0.00     0.003 C 
HETATM   30  C20 UNL     1       4.180  -3.504  -0.116  1.00  0.00     0.039 C 
ENDBRANCH  25  26
ENDBRANCH   7  25
TORSDOF 6
