REMARK  5 active torsions:
REMARK  status: ('A' for Active; 'I' for Inactive)
REMARK    1  A    between atoms: C3_7  and  S1_8 
REMARK    2  A    between atoms: S1_8  and  C4_9 
REMARK    3  A    between atoms: C4_9  and  C5_10 
REMARK    4  A    between atoms: C5_10  and  C6_11 
REMARK       I    between atoms: C6_11  and  N3_13 
REMARK    5  A    between atoms: N3_13  and  C7_15 
ROOT
HETATM    1  C6  UNL     1       0.577  -1.215   0.254  1.00  0.00     0.218 C 
HETATM    2  O1  UNL     1       0.415  -2.248   0.990  1.00  0.00    -0.274 OA
HETATM    3  N3  UNL     1      -0.473  -0.274   0.110  1.00  0.00    -0.356 N 
ATOM      4  H3  UNL     1      -0.329   0.545  -0.481  1.00  0.00     0.162 HD
ENDROOT
BRANCH   3   5
HETATM    5  C7  UNL     1      -1.719  -0.442   0.767  1.00  0.00     0.092 C 
HETATM    6  C8  UNL     1      -2.023   0.674   1.798  1.00  0.00     0.052 C 
HETATM    7  C9  UNL     1      -2.879   1.792   1.347  1.00  0.00    -0.026 C 
HETATM    8  C10 UNL     1      -4.332   1.731   1.243  1.00  0.00     0.003 C 
HETATM    9  C11 UNL     1      -5.044   1.100   0.121  1.00  0.00     0.168 C 
HETATM   10  O2  UNL     1      -4.612   0.972  -1.119  1.00  0.00    -0.375 OA
HETATM   11  C16 UNL     1      -5.365  -0.341   0.566  1.00  0.00     0.069 C 
HETATM   12  C12 UNL     1      -4.641  -0.360  -1.598  1.00  0.00     0.124 C 
HETATM   13  C13 UNL     1      -3.290  -1.087  -1.288  1.00  0.00     0.038 C 
HETATM   14  C17 UNL     1      -5.748  -0.965  -0.750  1.00  0.00     0.060 C 
HETATM   15  C14 UNL     1      -2.915  -0.433  -0.045  1.00  0.00     0.013 C 
HETATM   16  C15 UNL     1      -3.990  -0.809   0.907  1.00  0.00     0.035 C 
HETATM   17 CL1  UNL     1      -6.532  -0.450   1.822  1.00  0.00    -0.116 Cl
ENDBRANCH   3   5
BRANCH   1  18
HETATM   18  C5  UNL     1       1.874  -1.060  -0.417  1.00  0.00     0.113 C 
BRANCH  18  19
HETATM   19  C4  UNL     1       2.795  -2.192  -0.112  1.00  0.00     0.091 C 
BRANCH  19  20
HETATM   20  S1  UNL     1       4.390  -2.040  -0.909  1.00  0.00    -0.092 SA
BRANCH  20  21
HETATM   21  C3  UNL     1       5.329  -0.672  -0.287  1.00  0.00     0.162 A 
HETATM   22  N2  UNL     1       5.032   0.233   0.662  1.00  0.00    -0.278 N 
HETATM   23  N1  UNL     1       6.042   1.095   0.810  1.00  0.00    -0.287 N 
ATOM     24  H2  UNL     1       4.161   0.258   1.192  1.00  0.00     0.189 HD
HETATM   25  C2  UNL     1       6.998   0.720  -0.069  1.00  0.00     0.095 A 
ATOM     26  H1  UNL     1       6.084   1.881   1.459  1.00  0.00     0.188 HD
HETATM   27  C1  UNL     1       8.316   1.398  -0.257  1.00  0.00     0.091 C 
HETATM   28  N4  UNL     1       6.562  -0.347  -0.729  1.00  0.00    -0.320 N 
HETATM   29  C18 UNL     1       7.310  -1.054  -1.774  1.00  0.00     0.159 C 
ENDBRANCH  20  21
ENDBRANCH  19  20
ENDBRANCH  18  19
ENDBRANCH   1  18
TORSDOF 5
