REMARK  6 active torsions:
REMARK  status: ('A' for Active; 'I' for Inactive)
REMARK    1  A    between atoms: C2_2  and  O1_3 
REMARK    2  A    between atoms: O1_3  and  C3_4 
REMARK       I    between atoms: C3_4  and  N1_6 
REMARK    3  A    between atoms: N2_9  and  C6_10 
REMARK    4  A    between atoms: C6_10  and  C7_11 
REMARK    5  A    between atoms: C7_11  and  C8_12 
REMARK       I    between atoms: C8_12  and  N3_14 
REMARK    6  A    between atoms: N3_14  and  C9_16 
ROOT
HETATM    1  C8  UNL     1      -2.015   0.852  -1.058  1.00  0.00     0.225 C 
HETATM    2  O3  UNL     1      -1.906  -0.403  -0.970  1.00  0.00    -0.273 OA
HETATM    3  N3  UNL     1      -3.153   1.504  -0.559  1.00  0.00    -0.307 N 
ATOM      4  H3  UNL     1      -3.247   2.518  -0.620  1.00  0.00     0.171 HD
ENDROOT
BRANCH   1   5
HETATM    5  C7  UNL     1      -0.934   1.637  -1.693  1.00  0.00     0.133 C 
BRANCH   5   6
HETATM    6  C6  UNL     1       0.128   0.669  -2.133  1.00  0.00     0.281 C 
BRANCH   6   7
HETATM    7  N2  UNL     1       0.632  -0.026  -0.962  1.00  0.00     0.092 N 
HETATM    8  C5  UNL     1       1.446  -1.165  -1.375  1.00  0.00     0.292 C 
HETATM    9  C4  UNL     1       2.266  -1.576  -0.173  1.00  0.00     0.158 C 
HETATM   10  N1  UNL     1       3.332  -0.554  -0.134  1.00  0.00    -0.325 N 
HETATM   11  C3  UNL     1       4.666  -0.882   0.138  1.00  0.00     0.362 C 
HETATM   12  C17 UNL     1       2.855   0.798  -0.419  1.00  0.00     0.158 C 
HETATM   13  O2  UNL     1       5.005  -2.082   0.365  1.00  0.00    -0.238 OA
HETATM   14  C16 UNL     1       1.374   0.860  -0.090  1.00  0.00     0.292 C 
BRANCH  11  15
HETATM   15  O1  UNL     1       5.689   0.060   0.178  1.00  0.00    -0.304 OA
BRANCH  15  16
HETATM   16  C2  UNL     1       7.031  -0.358   0.456  1.00  0.00     0.176 C 
HETATM   17  C1  UNL     1       7.133  -1.020   1.793  1.00  0.00     0.034 C 
ENDBRANCH  15  16
ENDBRANCH  11  15
ENDBRANCH   6   7
ENDBRANCH   5   6
ENDBRANCH   1   5
BRANCH   3  18
HETATM   18  C9  UNL     1      -4.190   0.692   0.045  1.00  0.00     0.158 A 
HETATM   19  O4  UNL     1      -4.175  -0.595   0.171  1.00  0.00    -0.290 OA
HETATM   20  C10 UNL     1      -5.278  -1.049   0.770  1.00  0.00     0.117 A 
HETATM   21  C11 UNL     1      -5.776  -2.254   1.143  1.00  0.00     0.075 A 
HETATM   22  C13 UNL     1      -6.024   0.054   1.030  1.00  0.00     0.050 A 
HETATM   23 CL1  UNL     1      -4.961  -3.838   0.896  1.00  0.00    -0.081 Cl
HETATM   24  C12 UNL     1      -6.998  -2.251   1.754  1.00  0.00     0.077 A 
HETATM   25  S1  UNL     1      -7.409  -0.593   1.789  1.00  0.00    -0.097 SA
HETATM   26  C14 UNL     1      -5.336   1.193   0.568  1.00  0.00     0.009 A 
HETATM   27  C15 UNL     1      -5.872   2.544   0.697  1.00  0.00     0.054 C 
ENDBRANCH   3  18
TORSDOF 6
