REMARK  15 active torsions:
REMARK  status: ('A' for Active; 'I' for Inactive)
REMARK    1  A    between atoms: N1_1  and  C1_4 
REMARK    2  A    between atoms: C2_5  and  N2_6 
REMARK    3  A    between atoms: N2_6  and  C3_7 
REMARK    4  A    between atoms: N2_6  and  C5_11 
REMARK    5  A    between atoms: C3_7  and  C4_8 
REMARK    6  A    between atoms: C4_8  and  O1_9 
REMARK    7  A    between atoms: C5_11  and  C6_12 
REMARK    8  A    between atoms: C6_12  and  N3_13 
REMARK    9  A    between atoms: N3_13  and  O2_14 
REMARK   10  A    between atoms: N3_13  and  C7_16 
REMARK   11  A    between atoms: C7_16  and  C8_17 
REMARK   12  A    between atoms: C8_17  and  O3_18 
REMARK   13  A    between atoms: C9_26  and  N7_27 
REMARK   14  A    between atoms: C10_29  and  C11_30 
REMARK   15  A    between atoms: C11_30  and  O4_31 
ROOT
HETATM    1  C1  UNL     1       1.734  -0.153  -0.559  1.00  0.00     0.118 A 
HETATM    2  C2  UNL     1       0.660  -0.196   0.267  1.00  0.00     0.153 A 
HETATM    3  N4  UNL     1       0.864   0.251   1.546  1.00  0.00    -0.269 N 
ATOM      4  H4  UNL     1       0.095   0.245   2.216  1.00  0.00     0.190 HD
HETATM    5  N5  UNL     1       2.048   0.687   1.911  1.00  0.00    -0.239 N 
ATOM      6  H5  UNL     1       2.156   1.011   2.872  1.00  0.00     0.208 HD
HETATM    7  N6  UNL     1       3.107   0.737   1.127  1.00  0.00    -0.269 N 
ATOM      8  H6  UNL     1       3.995   1.089   1.485  1.00  0.00     0.190 HD
HETATM    9  C9  UNL     1       3.008   0.321  -0.148  1.00  0.00     0.151 A 
ENDROOT
BRANCH   2  10
HETATM   10  N2  UNL     1      -0.615  -0.683  -0.105  1.00  0.00    -0.341 N 
BRANCH  10  11
HETATM   11  C3  UNL     1      -0.896  -2.052  -0.281  1.00  0.00     0.091 C 
BRANCH  11  12
HETATM   12  C4  UNL     1       0.164  -3.038   0.053  1.00  0.00     0.208 C 
BRANCH  12  13
HETATM   13  O1  UNL     1       0.489  -2.880   1.402  1.00  0.00    -0.396 OA
ATOM     14  H1  UNL     1       1.167  -3.510   1.616  1.00  0.00     0.209 HD
ENDBRANCH  12  13
ENDBRANCH  11  12
ENDBRANCH  10  11
BRANCH  10  15
HETATM   15  C5  UNL     1      -1.676   0.288  -0.334  1.00  0.00     0.146 C 
BRANCH  15  16
HETATM   16  C6  UNL     1      -2.756   0.167   0.731  1.00  0.00     0.140 C 
BRANCH  16  17
HETATM   17  N3  UNL     1      -3.806   1.118   0.524  1.00  0.00    -0.196 NA
BRANCH  17  18
HETATM   18  O2  UNL     1      -4.605   1.247   1.608  1.00  0.00    -0.313 OA
ATOM     19  H2  UNL     1      -5.302   1.878   1.471  1.00  0.00     0.237 HD
ENDBRANCH  17  18
BRANCH  17  20
HETATM   20  C7  UNL     1      -4.605   0.879  -0.652  1.00  0.00     0.146 C 
BRANCH  20  21
HETATM   21  C8  UNL     1      -5.663   1.991  -0.679  1.00  0.00     0.180 C 
BRANCH  21  22
HETATM   22  O3  UNL     1      -6.509   1.883  -1.767  1.00  0.00    -0.400 OA
ATOM     23  H3  UNL     1      -7.164   2.571  -1.784  1.00  0.00     0.209 HD
ENDBRANCH  21  22
ENDBRANCH  20  21
ENDBRANCH  17  20
ENDBRANCH  16  17
ENDBRANCH  15  16
ENDBRANCH  10  15
ENDBRANCH   2  10
BRANCH   1  24
HETATM   24  N1  UNL     1       1.640  -0.524  -1.801  1.00  0.00    -0.393 N 
ATOM     25  H12 UNL     1       0.725  -0.864  -2.096  1.00  0.00     0.156 HD
ATOM     26  H11 UNL     1       2.448  -0.492  -2.423  1.00  0.00     0.156 HD
ENDBRANCH   1  24
BRANCH   9  27
HETATM   27  N7  UNL     1       3.937   0.317  -0.965  1.00  0.00    -0.351 N 
HETATM   28  C10 UNL     1       5.247   0.602  -1.189  1.00  0.00     0.088 C 
ATOM     29  H7  UNL     1       3.563  -0.058  -1.837  1.00  0.00     0.166 HD
BRANCH  28  30
HETATM   30  C11 UNL     1       6.215   0.695  -0.041  1.00  0.00     0.208 C 
BRANCH  30  31
HETATM   31  O4  UNL     1       6.229  -0.517   0.622  1.00  0.00    -0.396 OA
ATOM     32  H4  UNL     1       6.840  -0.458   1.347  1.00  0.00     0.209 HD
ENDBRANCH  30  31
ENDBRANCH  28  30
ENDBRANCH   9  27
TORSDOF 15
