REMARK  13 active torsions:
REMARK  status: ('A' for Active; 'I' for Inactive)
REMARK       I    between atoms: C1_4  and  N3_6 
REMARK    1  A    between atoms: N3_6  and  C2_8 
REMARK    2  A    between atoms: C2_8  and  C3_9 
REMARK    3  A    between atoms: C3_9  and  C4_10 
REMARK    4  A    between atoms: C4_10  and  O1_11 
REMARK    5  A    between atoms: O1_11  and  C5_12 
REMARK    6  A    between atoms: C6_14  and  C7_15 
REMARK    7  A    between atoms: C7_15  and  N4_16 
REMARK    8  A    between atoms: N4_16  and  C8_18 
REMARK    9  A    between atoms: C8_18  and  C9_19 
REMARK   10  A    between atoms: C9_19  and  N5_20 
REMARK   11  A    between atoms: C10_24  and  O3_25 
REMARK   12  A    between atoms: C11_27  and  O4_28 
REMARK   13  A    between atoms: C12_30  and  O5_31 
ROOT
HETATM    1  C5  UNL     1       0.430  -0.374  -0.765  1.00  0.00     0.291 C 
HETATM    2  O2  UNL     1      -0.654  -1.079  -0.341  1.00  0.00    -0.349 OA
HETATM    3  C6  UNL     1      -1.903  -0.620  -0.680  1.00  0.00     0.173 C 
HETATM    4  C10 UNL     1      -2.055  -0.291  -2.126  1.00  0.00     0.180 C 
HETATM    5  C11 UNL     1      -0.838   0.416  -2.703  1.00  0.00     0.183 C 
HETATM    6  C12 UNL     1       0.438  -0.251  -2.272  1.00  0.00     0.204 C 
ENDROOT
BRANCH   1   7
HETATM    7  O1  UNL     1       0.702   0.800  -0.124  1.00  0.00    -0.358 OA
BRANCH   7   8
HETATM    8  C4  UNL     1       1.880   0.880   0.562  1.00  0.00     0.172 C 
BRANCH   8   9
HETATM    9  C3  UNL     1       3.121   0.702  -0.290  1.00  0.00     0.046 C 
BRANCH   9  10
HETATM   10  C2  UNL     1       4.380   0.811   0.537  1.00  0.00     0.124 C 
BRANCH  10  11
HETATM   11  N3  UNL     1       4.443  -0.191   1.576  1.00  0.00    -0.365 N 
HETATM   12  C1  UNL     1       5.523  -0.274   2.489  1.00  0.00     0.181 C 
HETATM   13  N1  UNL     1       5.328  -0.176   3.766  1.00  0.00    -0.374 N 
HETATM   14  N2  UNL     1       6.848  -0.467   2.036  1.00  0.00    -0.064 NA
ATOM     15  H12 UNL     1       6.106  -0.236   4.423  1.00  0.00     0.158 HD
ATOM     16  H11 UNL     1       4.372  -0.037   4.093  1.00  0.00     0.158 HD
ATOM     17  H3  UNL     1       3.681  -0.864   1.655  1.00  0.00     0.162 HD
ENDBRANCH  10  11
ENDBRANCH   9  10
ENDBRANCH   8   9
ENDBRANCH   7   8
ENDBRANCH   1   7
BRANCH   6  18
HETATM   18  O5  UNL     1       0.496  -1.504  -2.877  1.00  0.00    -0.388 OA
ATOM     19  H5  UNL     1       0.501  -1.427  -3.824  1.00  0.00     0.210 HD
ENDBRANCH   6  18
BRANCH   3  20
HETATM   20  C7  UNL     1      -2.306   0.489   0.245  1.00  0.00     0.148 C 
BRANCH  20  21
HETATM   21  N4  UNL     1      -3.621   1.014  -0.037  1.00  0.00    -0.417 N 
ATOM     22  H4  UNL     1      -3.766   1.954  -0.406  1.00  0.00     0.153 HD
BRANCH  21  23
HETATM   23  C8  UNL     1      -4.703   0.127   0.236  1.00  0.00     0.141 C 
BRANCH  23  24
HETATM   24  C9  UNL     1      -4.861  -0.109   1.725  1.00  0.00     0.248 C 
BRANCH  24  25
HETATM   25  N5  UNL     1      -5.992  -1.020   1.864  1.00  0.00    -0.078 N 
ATOM     26  H53 UNL     1      -6.843  -0.687   1.411  1.00  0.00     0.274 HD
ATOM     27  H52 UNL     1      -5.894  -1.879   1.323  1.00  0.00     0.274 HD
ATOM     28  H51 UNL     1      -6.098  -1.179   2.866  1.00  0.00     0.274 HD
ENDBRANCH  24  25
ENDBRANCH  23  24
ENDBRANCH  21  23
ENDBRANCH  20  21
ENDBRANCH   3  20
BRANCH   5  29
HETATM   29  O4  UNL     1      -0.901   1.755  -2.316  1.00  0.00    -0.390 OA
ATOM     30  H4  UNL     1      -0.141   2.197  -2.676  1.00  0.00     0.210 HD
ENDBRANCH   5  29
BRANCH   4  31
HETATM   31  O3  UNL     1      -3.151   0.464  -2.443  1.00  0.00    -0.390 OA
ATOM     32  H3  UNL     1      -3.248   0.674  -3.364  1.00  0.00     0.210 HD
ENDBRANCH   4  31
TORSDOF 13
