REMARK  16 active torsions:
REMARK  status: ('A' for Active; 'I' for Inactive)
REMARK    1  A    between atoms: N1_1  and  C1_4 
REMARK    2  A    between atoms: C3_8  and  N3_9 
REMARK    3  A    between atoms: N3_9  and  C4_10 
REMARK    4  A    between atoms: N3_9  and  C8_20 
REMARK    5  A    between atoms: C4_10  and  C5_11 
REMARK    6  A    between atoms: C5_11  and  C6_12 
REMARK    7  A    between atoms: C6_12  and  N4_13 
REMARK    8  A    between atoms: C6_12  and  C7_17 
REMARK    9  A    between atoms: C7_17  and  O1_18 
REMARK   10  A    between atoms: C8_20  and  C9_21 
REMARK   11  A    between atoms: C9_21  and  N5_22 
REMARK   12  A    between atoms: C9_21  and  N6_26 
REMARK   13  A    between atoms: C10_30  and  N7_31 
REMARK   14  A    between atoms: N7_31  and  C11_33 
REMARK   15  A    between atoms: C11_33  and  C12_34 
REMARK   16  A    between atoms: C12_34  and  N8_35 
ROOT
HETATM    1  N3  UNL     1      -0.365   1.060  -0.738  1.00  0.00    -0.373 N 
ENDROOT
BRANCH   1   2
HETATM    2  C3  UNL     1       0.881   1.099  -0.017  1.00  0.00     0.091 A 
HETATM    3  C2  UNL     1       1.115   1.925   1.057  1.00  0.00     0.139 A 
HETATM    4  N2  UNL     1       2.318   1.883   1.704  1.00  0.00    -0.200 N 
HETATM    5  C1  UNL     1       3.299   1.055   1.330  1.00  0.00     0.677 A 
ATOM      6  H2  UNL     1       2.473   2.504   2.498  1.00  0.00     0.183 HD
HETATM    7  N9  UNL     1       3.093   0.240   0.285  1.00  0.00    -0.175 N 
HETATM    8  C10 UNL     1       1.913   0.247  -0.389  1.00  0.00     0.145 A 
ATOM      9  H9  UNL     1       3.835  -0.396  -0.009  1.00  0.00     0.186 HD
BRANCH   5  10
HETATM   10  N1  UNL     1       4.420   1.055   1.977  1.00  0.00    -0.234 N 
ATOM     11  H12 UNL     1       4.577   1.675   2.772  1.00  0.00     0.174 HD
ATOM     12  H11 UNL     1       5.168   0.423   1.692  1.00  0.00     0.174 HD
ENDBRANCH   5  10
BRANCH   8  13
HETATM   13  N7  UNL     1       1.740  -0.515  -1.390  1.00  0.00    -0.372 N 
ATOM     14  H7  UNL     1       0.835  -0.440  -1.855  1.00  0.00     0.161 HD
BRANCH  13  15
HETATM   15  C11 UNL     1       2.647  -1.459  -1.945  1.00  0.00     0.148 C 
BRANCH  15  16
HETATM   16  C12 UNL     1       2.368  -2.884  -1.520  1.00  0.00     0.249 C 
BRANCH  16  17
HETATM   17  N8  UNL     1       2.437  -3.084  -0.104  1.00  0.00    -0.078 N 
ATOM     18  H83 UNL     1       3.336  -2.768   0.261  1.00  0.00     0.274 HD
ATOM     19  H82 UNL     1       1.818  -2.435   0.382  1.00  0.00     0.274 HD
ATOM     20  H81 UNL     1       2.249  -4.045   0.183  1.00  0.00     0.274 HD
ENDBRANCH  16  17
ENDBRANCH  15  16
ENDBRANCH  13  15
ENDBRANCH   8  13
ENDBRANCH   1   2
BRANCH   1  21
HETATM   21  C4  UNL     1      -1.366   0.092  -0.431  1.00  0.00     0.125 C 
BRANCH  21  22
HETATM   22  C5  UNL     1      -1.097  -0.794   0.743  1.00  0.00     0.055 C 
BRANCH  22  23
HETATM   23  C6  UNL     1      -2.320  -1.721   0.851  1.00  0.00     0.208 C 
BRANCH  23  24
HETATM   24  N4  UNL     1      -3.458  -0.858   1.052  1.00  0.00    -0.073 N 
ATOM     25  H43 UNL     1      -3.355  -0.227   1.847  1.00  0.00     0.274 HD
ATOM     26  H42 UNL     1      -3.555  -0.139   0.335  1.00  0.00     0.274 HD
ATOM     27  H41 UNL     1      -4.269  -1.473   1.124  1.00  0.00     0.274 HD
ENDBRANCH  23  24
BRANCH  23  28
HETATM   28  C7  UNL     1      -2.195  -2.645   2.018  1.00  0.00     0.197 C 
BRANCH  28  29
HETATM   29  O1  UNL     1      -3.299  -3.444   2.206  1.00  0.00    -0.399 OA
ATOM     30  H1  UNL     1      -3.220  -4.032   2.948  1.00  0.00     0.209 HD
ENDBRANCH  28  29
ENDBRANCH  23  28
ENDBRANCH  22  23
ENDBRANCH  21  22
ENDBRANCH   1  21
BRANCH   1  31
HETATM   31  C8  UNL     1      -0.526   1.991  -1.798  1.00  0.00     0.185 C 
BRANCH  31  32
HETATM   32  C9  UNL     1      -1.548   3.054  -1.686  1.00  0.00     0.395 C 
BRANCH  32  33
HETATM   33  N5  UNL     1      -2.905   2.643  -1.540  1.00  0.00    -0.049 N 
ATOM     34  H53 UNL     1      -3.153   2.015  -2.304  1.00  0.00     0.276 HD
ATOM     35  H52 UNL     1      -2.984   2.012  -0.742  1.00  0.00     0.276 HD
ATOM     36  H51 UNL     1      -3.610   3.376  -1.463  1.00  0.00     0.276 HD
ENDBRANCH  32  33
BRANCH  32  37
HETATM   37  N6  UNL     1      -1.245   4.088  -0.698  1.00  0.00    -0.049 N 
ATOM     38  H63 UNL     1      -1.071   3.666   0.214  1.00  0.00     0.276 HD
ATOM     39  H62 UNL     1      -0.328   4.496  -0.881  1.00  0.00     0.276 HD
ATOM     40  H61 UNL     1      -1.950   4.821  -0.621  1.00  0.00     0.276 HD
ENDBRANCH  32  37
ENDBRANCH  31  32
ENDBRANCH   1  31
TORSDOF 16
