REMARK  8 active torsions:
REMARK  status: ('A' for Active; 'I' for Inactive)
REMARK    1  A    between atoms: C2_2  and  C3_3 
REMARK    2  A    between atoms: C3_3  and  N1_5 
REMARK    3  A    between atoms: C3_3  and  C5_9 
REMARK       I    between atoms: C5_9  and  N2_11 
REMARK    4  A    between atoms: N2_11  and  C6_13 
REMARK    5  A    between atoms: C9_16  and  C10_17 
REMARK    6  A    between atoms: C12_20  and  N3_21 
REMARK    7  A    between atoms: N3_21  and  C13_23 
REMARK    8  A    between atoms: C18_32  and  S2_33 
ROOT
HETATM    1  C10 UNL     1       1.073  -0.040   0.242  1.00  0.00     0.068 A 
HETATM    2  C11 UNL     1       1.306  -0.960   1.221  1.00  0.00     0.085 A 
HETATM    3  S1  UNL     1       3.027  -0.912   1.365  1.00  0.00    -0.063 SA
HETATM    4  C12 UNL     1       3.323   0.263   0.178  1.00  0.00     0.149 A 
HETATM    5  N4  UNL     1       2.121   0.567  -0.271  1.00  0.00    -0.334 N 
ATOM      6  H4  UNL     1       2.005   1.264  -1.007  1.00  0.00     0.168 HD
ENDROOT
BRANCH   1   7
HETATM    7  C9  UNL     1      -0.302   0.201  -0.289  1.00  0.00     0.063 A 
HETATM    8  C8  UNL     1      -0.573   0.714  -1.538  1.00  0.00     0.036 A 
HETATM    9  C7  UNL     1      -1.907   0.808  -1.670  1.00  0.00     0.051 A 
HETATM   10  C6  UNL     1      -2.527   0.344  -0.474  1.00  0.00     0.110 A 
HETATM   11  N5  UNL     1      -1.482   0.002   0.311  1.00  0.00    -0.336 N 
HETATM   12  C20 UNL     1      -1.661  -0.378   1.724  1.00  0.00     0.158 C 
BRANCH  10  13
HETATM   13  N2  UNL     1      -3.921   0.350  -0.337  1.00  0.00    -0.311 N 
HETATM   14  C5  UNL     1      -4.808  -0.267   0.512  1.00  0.00     0.259 C 
HETATM   15  O1  UNL     1      -4.527  -1.124   1.365  1.00  0.00    -0.270 OA
ATOM     16  H2  UNL     1      -4.382   0.948  -1.023  1.00  0.00     0.170 HD
BRANCH  14  17
HETATM   17  C3  UNL     1      -6.274   0.083   0.457  1.00  0.00     0.199 C 
HETATM   18  C4  UNL     1      -6.404   1.565   0.434  1.00  0.00     0.056 C 
BRANCH  17  19
HETATM   19  C2  UNL     1      -6.979  -0.596  -0.677  1.00  0.00     0.044 C 
HETATM   20  C1  UNL     1      -6.514  -0.205  -2.044  1.00  0.00     0.008 C 
ENDBRANCH  17  19
BRANCH  17  21
HETATM   21  N1  UNL     1      -6.935  -0.406   1.680  1.00  0.00    -0.062 N 
ATOM     22  H13 UNL     1      -7.946  -0.268   1.683  1.00  0.00     0.275 HD
ATOM     23  H12 UNL     1      -6.953  -1.423   1.758  1.00  0.00     0.275 HD
ATOM     24  H11 UNL     1      -6.455   0.056   2.452  1.00  0.00     0.275 HD
ENDBRANCH  17  21
ENDBRANCH  14  17
ENDBRANCH  10  13
ENDBRANCH   1   7
BRANCH   4  25
HETATM   25  N3  UNL     1       4.480   0.762  -0.209  1.00  0.00    -0.334 N 
ATOM     26  H3  UNL     1       4.527   1.471  -0.941  1.00  0.00     0.168 HD
BRANCH  25  27
HETATM   27  C13 UNL     1       5.662   0.283   0.424  1.00  0.00     0.081 A 
HETATM   28  C14 UNL     1       5.879   0.693   1.724  1.00  0.00     0.087 A 
HETATM   29 CL1  UNL     1       4.731   1.756   2.518  1.00  0.00    -0.080 Cl
HETATM   30  C15 UNL     1       7.006   0.266   2.404  1.00  0.00     0.098 A 
HETATM   31 CL2  UNL     1       7.284   0.784   4.050  1.00  0.00    -0.079 Cl
HETATM   32  C16 UNL     1       7.886  -0.571   1.736  1.00  0.00     0.163 A 
HETATM   33  F1  UNL     1       9.002  -1.002   2.388  1.00  0.00    -0.202 F 
HETATM   34  C17 UNL     1       7.654  -0.972   0.437  1.00  0.00     0.098 A 
HETATM   35 CL3  UNL     1       8.773  -2.034  -0.407  1.00  0.00    -0.079 Cl
HETATM   36  C18 UNL     1       6.525  -0.550  -0.257  1.00  0.00     0.112 A 
BRANCH  36  37
HETATM   37  S2  UNL     1       6.232  -1.053  -1.900  1.00  0.00     0.175 S 
HETATM   38  C19 UNL     1       6.992   0.142  -2.982  1.00  0.00     0.167 C 
HETATM   39  O2  UNL     1       6.935  -2.361  -2.109  1.00  0.00    -0.223 OA
HETATM   40  O3  UNL     1       4.779  -1.126  -2.168  1.00  0.00    -0.223 OA
ENDBRANCH  36  37
ENDBRANCH  25  27
ENDBRANCH   4  25
TORSDOF 8
