REMARK  8 active torsions:
REMARK  status: ('A' for Active; 'I' for Inactive)
REMARK    1  A    between atoms: C2_2  and  N1_3 
REMARK    2  A    between atoms: N1_3  and  C3_5 
REMARK    3  A    between atoms: C4_8  and  C5_9 
REMARK    4  A    between atoms: C9_15  and  O1_16 
REMARK    5  A    between atoms: O1_16  and  C10_17 
REMARK    6  A    between atoms: C15_27  and  O2_28 
REMARK    7  A    between atoms: O2_28  and  C16_29 
REMARK    8  A    between atoms: C26_42  and  N6_43 
ROOT
HETATM    1  C3  UNL     1       6.007   0.210  -0.905  1.00  0.00     0.680 A 
HETATM    2  N2  UNL     1       4.756  -0.195  -0.640  1.00  0.00    -0.189 N 
ATOM      3  H2  UNL     1       4.370   0.005   0.283  1.00  0.00     0.184 HD
HETATM    4  C4  UNL     1       3.978  -0.854  -1.530  1.00  0.00     0.090 A 
HETATM    5  C24 UNL     1       4.495  -1.117  -2.758  1.00  0.00     0.117 A 
HETATM    6  C25 UNL     1       3.791  -1.705  -3.870  1.00  0.00     0.105 C 
HETATM    7  N5  UNL     1       3.217  -2.147  -4.785  1.00  0.00    -0.191 NA
HETATM    8  C26 UNL     1       5.806  -0.691  -3.027  1.00  0.00     0.138 A 
HETATM    9  N7  UNL     1       6.524  -0.045  -2.104  1.00  0.00    -0.176 N 
ATOM     10  H7  UNL     1       7.475   0.255  -2.320  1.00  0.00     0.186 HD
ENDROOT
BRANCH   4  11
HETATM   11  C5  UNL     1       2.584  -1.153  -1.231  1.00  0.00     0.073 A 
HETATM   12  C6  UNL     1       2.003  -2.369  -1.436  1.00  0.00     0.135 A 
HETATM   13  F1  UNL     1       2.759  -3.485  -1.720  1.00  0.00    -0.205 F 
HETATM   14  C7  UNL     1       0.645  -2.513  -1.263  1.00  0.00     0.088 A 
HETATM   15  C8  UNL     1      -0.187  -1.436  -0.871  1.00  0.00     0.156 A 
HETATM   16  F2  UNL     1      -1.500  -1.729  -0.768  1.00  0.00    -0.203 F 
HETATM   17  C9  UNL     1       0.371  -0.248  -0.664  1.00  0.00     0.156 A 
HETATM   18  C23 UNL     1       1.780  -0.090  -0.844  1.00  0.00     0.169 A 
HETATM   19  F3  UNL     1       2.387   1.100  -0.661  1.00  0.00    -0.202 F 
BRANCH  17  20
HETATM   20  O1  UNL     1      -0.207   0.954  -0.278  1.00  0.00    -0.287 OA
BRANCH  20  21
HETATM   21  C10 UNL     1      -0.396   1.461   0.974  1.00  0.00     0.162 A 
HETATM   22  N3  UNL     1       0.695   2.101   1.564  1.00  0.00    -0.332 N 
HETATM   23  C11 UNL     1       0.606   2.626   2.774  1.00  0.00     0.182 A 
ATOM     24  H3  UNL     1       1.576   2.165   1.053  1.00  0.00     0.168 HD
HETATM   25  N4  UNL     1      -0.524   2.575   3.493  1.00  0.00    -0.351 N 
HETATM   26  C12 UNL     1      -1.604   1.971   2.959  1.00  0.00     0.049 A 
ATOM     27  H4  UNL     1      -0.566   2.985   4.426  1.00  0.00     0.166 HD
HETATM   28  C13 UNL     1      -2.802   1.954   3.635  1.00  0.00     0.057 A 
HETATM   29  C22 UNL     1      -1.557   1.404   1.685  1.00  0.00     0.045 A 
HETATM   30  C14 UNL     1      -3.929   1.408   3.092  1.00  0.00     0.069 A 
HETATM   31 CL1  UNL     1      -5.468   1.382   3.944  1.00  0.00    -0.081 Cl
HETATM   32  C15 UNL     1      -3.917   0.837   1.810  1.00  0.00     0.092 A 
HETATM   33  C21 UNL     1      -2.723   0.856   1.151  1.00  0.00     0.056 A 
BRANCH  32  34
HETATM   34  O2  UNL     1      -5.072   0.298   1.285  1.00  0.00    -0.344 OA
BRANCH  34  35
HETATM   35  C16 UNL     1      -5.279  -0.310   0.066  1.00  0.00     0.133 C 
HETATM   36  C17 UNL     1      -6.185   0.487  -0.854  1.00  0.00     0.058 C 
HETATM   37  C18 UNL     1      -7.615   0.040  -0.702  1.00  0.00     0.170 C 
HETATM   38  O3  UNL     1      -7.739  -1.210  -1.307  1.00  0.00    -0.391 OA
HETATM   39  C19 UNL     1      -6.729  -2.088  -0.941  1.00  0.00     0.170 C 
HETATM   40  C20 UNL     1      -5.988  -1.644   0.285  1.00  0.00     0.058 C 
ENDBRANCH  34  35
ENDBRANCH  32  34
ENDBRANCH  20  21
ENDBRANCH  17  20
ENDBRANCH   4  11
BRANCH   8  41
HETATM   41  N6  UNL     1       6.326  -0.926  -4.173  1.00  0.00    -0.384 N 
ATOM     42  H62 UNL     1       5.778  -1.419  -4.878  1.00  0.00     0.157 HD
ATOM     43  H61 UNL     1       7.278  -0.617  -4.368  1.00  0.00     0.157 HD
ENDBRANCH   8  41
BRANCH   1  44
HETATM   44  N1  UNL     1       6.768   0.828  -0.072  1.00  0.00    -0.226 N 
ATOM     45  H1  UNL     1       7.704   1.093  -0.380  1.00  0.00     0.177 HD
BRANCH  44  46
HETATM   46  C2  UNL     1       6.377   1.162   1.254  1.00  0.00     0.133 C 
HETATM   47  C1  UNL     1       6.808   0.012   2.160  1.00  0.00     0.027 C 
ENDBRANCH  44  46
ENDBRANCH   1  44
TORSDOF 8
