REMARK  8 active torsions:
REMARK  status: ('A' for Active; 'I' for Inactive)
REMARK    1  A    between atoms: C3_3  and  C4_4 
REMARK    2  A    between atoms: C4_4  and  C5_7 
REMARK    3  A    between atoms: C11_15  and  O1_16 
REMARK    4  A    between atoms: C14_22  and  N2_23 
REMARK    5  A    between atoms: N2_23  and  C15_25 
REMARK    6  A    between atoms: C15_25  and  C16_26 
REMARK    7  A    between atoms: C16_26  and  O3_27 
REMARK    8  A    between atoms: C16_26  and  C17_29 
ROOT
HETATM    1  C1  UNL     1       1.304   1.458   0.753  1.00  0.00     0.053 C 
HETATM    2  C2  UNL     1       0.939   0.058   0.918  1.00  0.00    -0.004 A 
HETATM    3  C3  UNL     1       1.951  -0.876   0.982  1.00  0.00     0.045 A 
HETATM    4  C11 UNL     1       1.637  -2.246   1.113  1.00  0.00     0.146 A 
HETATM    5  C12 UNL     1       0.329  -2.625   1.173  1.00  0.00     0.282 A 
HETATM    6  O2  UNL     1       0.041  -3.823   1.285  1.00  0.00    -0.265 OA
HETATM    7  N1  UNL     1      -0.676  -1.716   1.112  1.00  0.00    -0.302 N 
HETATM    8  C13 UNL     1      -2.006  -2.228   1.268  1.00  0.00     0.161 C 
HETATM    9  C14 UNL     1      -0.411  -0.385   0.985  1.00  0.00     0.112 A 
ENDROOT
BRANCH   9  10
HETATM   10  N2  UNL     1      -1.414   0.616   1.003  1.00  0.00    -0.373 N 
ATOM     11  H2  UNL     1      -1.065   1.536   1.270  1.00  0.00     0.161 HD
BRANCH  10  12
HETATM   12  C15 UNL     1      -2.799   0.598   0.726  1.00  0.00     0.160 C 
BRANCH  12  13
HETATM   13  C16 UNL     1      -3.103   0.545  -0.771  1.00  0.00     0.192 C 
BRANCH  13  14
HETATM   14  O3  UNL     1      -2.581   1.656  -1.435  1.00  0.00    -0.387 OA
ATOM     15  H3  UNL     1      -2.770   1.623  -2.365  1.00  0.00     0.210 HD
ENDBRANCH  13  14
BRANCH  13  16
HETATM   16  C17 UNL     1      -4.592   0.620  -0.900  1.00  0.00     0.081 A 
HETATM   17  N3  UNL     1      -5.405  -0.379  -1.210  1.00  0.00    -0.361 N 
HETATM   18  C18 UNL     1      -6.679  -0.173  -1.288  1.00  0.00     0.096 A 
ATOM     19  H3  UNL     1      -5.026  -1.309  -1.387  1.00  0.00     0.165 HD
HETATM   20  C19 UNL     1      -7.138   1.096  -1.042  1.00  0.00     0.068 A 
HETATM   21  S1  UNL     1      -5.676   1.924  -0.707  1.00  0.00    -0.085 SA
ENDBRANCH  13  16
ENDBRANCH  12  13
ENDBRANCH  10  12
ENDBRANCH   9  10
BRANCH   3  22
HETATM   22  C4  UNL     1       3.351  -0.516   0.979  1.00  0.00     0.219 C 
HETATM   23  F1  UNL     1       4.142  -1.708   0.925  1.00  0.00    -0.219 F 
HETATM   24 BR1  UNL     1       3.915   0.234   2.698  1.00  0.00    -0.037 Br
BRANCH  22  25
HETATM   25  C5  UNL     1       3.933   0.277  -0.123  1.00  0.00     0.015 A 
HETATM   26  C6  UNL     1       4.657   1.450   0.163  1.00  0.00     0.016 A 
HETATM   27  C7  UNL     1       5.277   2.164  -0.799  1.00  0.00     0.043 A 
HETATM   28  C8  UNL     1       5.208   1.745  -2.111  1.00  0.00     0.117 A 
HETATM   29  F2  UNL     1       5.825   2.450  -3.085  1.00  0.00    -0.206 F 
HETATM   30  C9  UNL     1       4.516   0.608  -2.461  1.00  0.00     0.062 A 
HETATM   31  C10 UNL     1       3.891  -0.098  -1.433  1.00  0.00     0.024 A 
HETATM   32 BR2  UNL     1       2.918  -1.647  -2.036  1.00  0.00    -0.050 Br
ENDBRANCH  22  25
ENDBRANCH   3  22
BRANCH   4  33
HETATM   33  O1  UNL     1       2.684  -3.154   1.185  1.00  0.00    -0.355 OA
ATOM     34  H1  UNL     1       2.473  -4.076   1.273  1.00  0.00     0.218 HD
ENDBRANCH   4  33
TORSDOF 8
