REMARK  8 active torsions:
REMARK  status: ('A' for Active; 'I' for Inactive)
REMARK    1  A    between atoms: C5_5  and  O1_6 
REMARK    2  A    between atoms: O1_6  and  C6_7 
REMARK    3  A    between atoms: C6_7  and  C7_9 
REMARK    4  A    between atoms: C11_13  and  N1_14 
REMARK    5  A    between atoms: N1_14  and  C12_16 
REMARK    6  A    between atoms: C12_16  and  C13_17 
REMARK    7  A    between atoms: C19_27  and  O4_28 
REMARK    8  A    between atoms: C25_36  and  C26_37 
ROOT
HETATM    1  C1  UNL     1      -2.308  -5.158   0.317  1.00  0.00     0.046 C 
HETATM    2  C2  UNL     1      -2.058  -4.129  -0.453  1.00  0.00     0.039 C 
HETATM    3  C3  UNL     1      -0.780  -3.348  -0.388  1.00  0.00     0.074 C 
HETATM    4  C4  UNL     1      -1.161  -1.992  -0.943  1.00  0.00     0.063 C 
HETATM    5  C5  UNL     1      -0.849  -0.901   0.005  1.00  0.00     0.169 C 
HETATM    6  C15 UNL     1      -1.689   0.327  -0.116  1.00  0.00     0.158 C 
HETATM    7  O3  UNL     1      -0.959   1.460   0.166  1.00  0.00    -0.370 OA
HETATM    8  C16 UNL     1      -1.720   2.616   0.215  1.00  0.00     0.080 C 
HETATM    9  C17 UNL     1      -2.332   3.040  -1.072  1.00  0.00     0.048 C 
HETATM   10  C18 UNL     1      -0.751   3.733   0.635  1.00  0.00     0.048 C 
HETATM   11  C19 UNL     1      -2.786   2.568   1.296  1.00  0.00     0.152 C 
HETATM   12  C20 UNL     1      -3.715   1.406   0.906  1.00  0.00     0.043 C 
HETATM   13  C21 UNL     1      -2.837   0.201   0.856  1.00  0.00     0.037 C 
HETATM   14  C22 UNL     1      -3.575  -1.066   0.611  1.00  0.00     0.102 C 
HETATM   15  C23 UNL     1      -4.971  -0.834   1.067  1.00  0.00     0.064 C 
HETATM   16  N2  UNL     1      -6.062  -0.659   1.414  1.00  0.00    -0.197 NA
HETATM   17  C24 UNL     1      -3.645  -1.417  -0.824  1.00  0.00     0.063 C 
HETATM   18  C25 UNL     1      -2.524  -2.126  -1.453  1.00  0.00     0.119 C 
HETATM   19  O5  UNL     1      -2.781  -3.519  -1.431  1.00  0.00    -0.341 OA
ENDROOT
BRANCH  18  20
HETATM   20  C26 UNL     1      -2.606  -1.817  -2.970  1.00  0.00     0.301 C 
HETATM   21  F3  UNL     1      -1.772  -2.734  -3.580  1.00  0.00    -0.230 F 
HETATM   22 CL2  UNL     1      -4.272  -2.144  -3.476  1.00  0.00    -0.086 Cl
ENDBRANCH  18  20
BRANCH   5  23
HETATM   23  O1  UNL     1       0.520  -0.461  -0.076  1.00  0.00    -0.309 OA
BRANCH  23  24
HETATM   24  C6  UNL     1       1.362  -0.582   1.019  1.00  0.00     0.295 C 
HETATM   25  O2  UNL     1       0.852  -1.086   2.046  1.00  0.00    -0.259 OA
BRANCH  24  26
HETATM   26  C7  UNL     1       2.753  -0.191   1.081  1.00  0.00     0.063 A 
HETATM   27  C8  UNL     1       3.204   0.393   2.260  1.00  0.00     0.019 A 
HETATM   28  C9  UNL     1       4.510   0.789   2.424  1.00  0.00     0.003 A 
HETATM   29  C10 UNL     1       5.426   0.608   1.390  1.00  0.00     0.031 A 
HETATM   30  C11 UNL     1       5.009   0.036   0.216  1.00  0.00     0.051 A 
HETATM   31  C14 UNL     1       3.676  -0.352   0.088  1.00  0.00     0.076 A 
HETATM   32 CL1  UNL     1       3.142  -1.084  -1.416  1.00  0.00    -0.081 Cl
BRANCH  30  33
HETATM   33  N1  UNL     1       5.933  -0.176  -0.838  1.00  0.00    -0.383 N 
ATOM     34  H1  UNL     1       5.592  -0.690  -1.650  1.00  0.00     0.159 HD
BRANCH  33  35
HETATM   35  C12 UNL     1       7.290   0.256  -0.878  1.00  0.00     0.191 C 
BRANCH  35  36
HETATM   36  C13 UNL     1       7.391   1.731  -1.040  1.00  0.00     0.370 C 
HETATM   37  F1  UNL     1       8.731   2.094  -1.066  1.00  0.00    -0.213 F 
HETATM   38  F2  UNL     1       6.875   2.053  -2.299  1.00  0.00    -0.213 F 
ENDBRANCH  35  36
ENDBRANCH  33  35
ENDBRANCH  30  33
ENDBRANCH  24  26
ENDBRANCH  23  24
ENDBRANCH   5  23
BRANCH  11  39
HETATM   39  O4  UNL     1      -3.446   3.766   1.369  1.00  0.00    -0.393 OA
ATOM     40  H4  UNL     1      -4.113   3.736   2.045  1.00  0.00     0.210 HD
ENDBRANCH  11  39
TORSDOF 8
