REMARK  2 active torsions:
REMARK  status: ('A' for Active; 'I' for Inactive)
REMARK    1  A    between atoms: C5_6  and  N2_7 
REMARK    2  A    between atoms: N3_13  and  C10_14 
ROOT
HETATM    1  N1  UNL     1       7.449   2.451   0.644  1.00  0.00    -0.191 NA
HETATM    2  C1  UNL     1       6.468   1.850   0.766  1.00  0.00     0.107 C 
HETATM    3  C2  UNL     1       5.219   1.114   0.913  1.00  0.00     0.087 A 
HETATM    4  C3  UNL     1       5.057  -0.194   1.289  1.00  0.00     0.033 A 
HETATM    5  C4  UNL     1       3.810  -0.666   1.358  1.00  0.00     0.039 A 
HETATM    6  C5  UNL     1       2.787   0.194   1.045  1.00  0.00     0.076 A 
HETATM    7  S1  UNL     1       3.615   1.636   0.667  1.00  0.00    -0.061 SA
ENDROOT
BRANCH   6   8
HETATM    8  N2  UNL     1       1.370  -0.091   1.049  1.00  0.00    -0.340 N 
HETATM    9  C6  UNL     1       0.739  -0.326  -0.051  1.00  0.00     0.080 C 
HETATM   10  C7  UNL     1       1.427  -0.319  -1.396  1.00  0.00     0.078 C 
HETATM   11  N3  UNL     1      -0.630  -0.622  -0.223  1.00  0.00    -0.366 N 
HETATM   12  C8  UNL     1       0.493  -1.298  -2.120  1.00  0.00     0.027 C 
HETATM   13  C9  UNL     1      -0.835  -0.740  -1.653  1.00  0.00     0.125 C 
ATOM     14  H2  UNL     1       0.862  -0.106   1.934  1.00  0.00     0.167 HD
BRANCH  11  15
HETATM   15  C10 UNL     1      -1.638  -0.776   0.830  1.00  0.00     0.085 C 
HETATM   16  C11 UNL     1      -2.981  -1.127   0.229  1.00  0.00     0.025 C 
HETATM   17  C12 UNL     1      -3.683   0.008  -0.426  1.00  0.00     0.002 C 
HETATM   18  C13 UNL     1      -3.882   1.134   0.550  1.00  0.00     0.000 C 
HETATM   19  C14 UNL     1      -2.540   1.560   1.096  1.00  0.00     0.002 C 
HETATM   20  C15 UNL     1      -1.770   0.427   1.706  1.00  0.00     0.025 C 
ENDBRANCH  11  15
ENDBRANCH   6   8
TORSDOF 2
