REMARK  2 active torsions:
REMARK  status: ('A' for Active; 'I' for Inactive)
REMARK    1  A    between atoms: C4_6  and  C5_7 
REMARK    2  A    between atoms: N3_16  and  C12_17 
ROOT
HETATM    1  C5  UNL     1       1.523   0.052   0.171  1.00  0.00     0.124 A 
HETATM    2  N2  UNL     1       2.407   0.989   0.732  1.00  0.00    -0.339 N 
ATOM      3  H2  UNL     1       3.407   0.842   0.872  1.00  0.00     0.167 HD
HETATM    4  C6  UNL     1       1.746   2.091   1.051  1.00  0.00     0.061 A 
HETATM    5  C7  UNL     1       2.170   3.301   1.623  1.00  0.00     0.032 A 
HETATM    6  C8  UNL     1       1.208   4.262   1.819  1.00  0.00     0.002 A 
HETATM    7  C9  UNL     1      -0.108   4.064   1.476  1.00  0.00     0.002 A 
HETATM    8  C10 UNL     1      -0.501   2.856   0.910  1.00  0.00     0.032 A 
HETATM    9  C11 UNL     1       0.439   1.870   0.701  1.00  0.00     0.067 A 
HETATM   10  N3  UNL     1       0.309   0.587   0.152  1.00  0.00    -0.302 N 
ENDROOT
BRANCH   1  11
HETATM   11  C4  UNL     1       2.021  -1.248  -0.216  1.00  0.00     0.024 A 
HETATM   12  C3  UNL     1       1.560  -2.114  -1.133  1.00  0.00     0.102 A 
HETATM   13  N1  UNL     1       2.087  -3.358  -1.350  1.00  0.00    -0.374 N 
HETATM   14  C2  UNL     1       3.128  -3.827  -0.654  1.00  0.00     0.087 A 
ATOM     15  H1  UNL     1       1.670  -3.949  -2.069  1.00  0.00     0.164 HD
HETATM   16  C1  UNL     1       3.650  -2.990   0.301  1.00  0.00     0.018 A 
HETATM   17  C18 UNL     1       3.127  -1.748   0.520  1.00  0.00     0.018 A 
ENDBRANCH   1  11
BRANCH  10  18
HETATM   18  C12 UNL     1      -0.961   0.088  -0.230  1.00  0.00    -0.004 C 
HETATM   19  C13 UNL     1      -1.372  -1.282   0.198  1.00  0.00     0.053 C 
HETATM   20  C14 UNL     1      -2.908  -1.205   0.452  1.00  0.00     0.006 C 
HETATM   21  C15 UNL     1      -3.562  -0.629  -0.782  1.00  0.00     0.001 C 
HETATM   22  C16 UNL     1      -2.628  -0.498  -1.961  1.00  0.00     0.006 C 
HETATM   23  C17 UNL     1      -1.387   0.308  -1.658  1.00  0.00     0.053 C 
ENDBRANCH  10  18
TORSDOF 2
