REMARK  3 active torsions:
REMARK  status: ('A' for Active; 'I' for Inactive)
REMARK    1  A    between atoms: C4_6  and  C5_7 
REMARK    2  A    between atoms: N3_17  and  O1_18 
REMARK    3  A    between atoms: N4_21  and  O2_22 
ROOT
HETATM    1  N1  UNL     1      -3.431   3.862   0.045  1.00  0.00    -0.190 NA
HETATM    2  C1  UNL     1      -2.882   2.844   0.088  1.00  0.00     0.122 C 
HETATM    3  C2  UNL     1      -2.177   1.585   0.118  1.00  0.00     0.169 A 
HETATM    4  C3  UNL     1      -0.804   1.538  -0.015  1.00  0.00     0.098 A 
HETATM    5  N2  UNL     1      -0.073   2.739  -0.176  1.00  0.00    -0.098 NA
HETATM    6  C4  UNL     1      -0.102   0.341   0.014  1.00  0.00     0.015 A 
HETATM    7  C11 UNL     1      -0.844  -0.810   0.184  1.00  0.00     0.026 A 
HETATM    8  C12 UNL     1      -0.215  -2.040   0.226  1.00  0.00     0.018 A 
HETATM    9  C13 UNL     1      -0.990  -3.164   0.395  1.00  0.00     0.021 A 
HETATM   10  C14 UNL     1      -2.355  -3.025   0.517  1.00  0.00     0.125 A 
HETATM   11  N3  UNL     1      -2.973  -1.846   0.479  1.00  0.00    -0.216 N 
HETATM   12  C15 UNL     1      -2.222  -0.735   0.313  1.00  0.00     0.171 A 
HETATM   13  N4  UNL     1      -2.867   0.444   0.280  1.00  0.00    -0.193 N 
ENDROOT
BRANCH  13  14
HETATM   14  O2  UNL     1      -4.251   0.478   0.406  1.00  0.00    -0.280 OA
ATOM     15  H2  UNL     1      -4.739  -0.329   0.521  1.00  0.00     0.245 HD
ENDBRANCH  13  14
BRANCH   6  16
HETATM   16  C5  UNL     1       1.343   0.312  -0.158  1.00  0.00    -0.023 A 
HETATM   17  C6  UNL     1       2.190   0.783   0.815  1.00  0.00     0.012 A 
HETATM   18  C7  UNL     1       3.547   0.768   0.629  1.00  0.00     0.001 A 
HETATM   19  C8  UNL     1       4.138   0.287  -0.532  1.00  0.00     0.000 A 
HETATM   20  C9  UNL     1       3.300  -0.187  -1.514  1.00  0.00     0.001 A 
HETATM   21  C10 UNL     1       1.941  -0.174  -1.329  1.00  0.00     0.012 A 
ENDBRANCH   6  16
BRANCH  11  22
HETATM   22  O1  UNL     1      -4.357  -1.735   0.601  1.00  0.00    -0.281 OA
ATOM     23  H1  UNL     1      -4.798  -0.894   0.574  1.00  0.00     0.245 HD
ENDBRANCH  11  22
TORSDOF 3
