REMARK  1 active torsions:
REMARK  status: ('A' for Active; 'I' for Inactive)
REMARK    1  A    between atoms: C2_5  and  C3_6 
ROOT
HETATM    1  O1  UNL     1       2.861  -2.312  -1.503  1.00  0.00    -0.265 OA
HETATM    2  C1  UNL     1       2.617  -1.235  -0.875  1.00  0.00     0.278 A 
HETATM    3  N1  UNL     1       1.351  -0.888  -0.704  1.00  0.00    -0.306 N 
ATOM      4  H1  UNL     1       0.615  -1.488  -1.077  1.00  0.00     0.170 HD
HETATM    5  C2  UNL     1       1.017   0.220  -0.060  1.00  0.00     0.135 A 
HETATM    6  N2  UNL     1       2.029   0.989   0.421  1.00  0.00    -0.262 N 
ATOM      7  H2  UNL     1       1.796   1.846   0.922  1.00  0.00     0.191 HD
HETATM    8  N3  UNL     1       3.335   0.664   0.263  1.00  0.00    -0.183 N 
HETATM    9  N4  UNL     1       4.314   1.415   0.731  1.00  0.00    -0.248 N 
ATOM     10  H4  UNL     1       4.235   2.292   1.246  1.00  0.00     0.197 HD
HETATM   11  S1  UNL     1       5.716   0.607   0.291  1.00  0.00    -0.006 SA
HETATM   12  C13 UNL     1       4.987  -0.713  -0.506  1.00  0.00     0.108 A 
HETATM   13  C14 UNL     1       3.653  -0.427  -0.371  1.00  0.00     0.151 A 
ENDROOT
BRANCH   5  14
HETATM   14  C3  UNL     1      -0.375   0.644   0.036  1.00  0.00     0.021 A 
HETATM   15  C4  UNL     1      -0.594   2.007   0.248  1.00  0.00     0.016 A 
HETATM   16  C5  UNL     1      -1.856   2.510   0.385  1.00  0.00     0.002 A 
HETATM   17  C6  UNL     1      -2.958   1.717   0.323  1.00  0.00     0.012 A 
HETATM   18  C7  UNL     1      -2.739   0.369   0.115  1.00  0.00    -0.025 A 
HETATM   19  C8  UNL     1      -3.832  -0.462   0.065  1.00  0.00     0.012 A 
HETATM   20  C12 UNL     1      -1.455  -0.180  -0.029  1.00  0.00    -0.012 A 
HETATM   21  C9  UNL     1      -3.699  -1.819  -0.120  1.00  0.00     0.001 A 
HETATM   22  C10 UNL     1      -2.434  -2.333  -0.256  1.00  0.00     0.001 A 
HETATM   23  C11 UNL     1      -1.317  -1.526  -0.211  1.00  0.00     0.013 A 
ENDBRANCH   5  14
TORSDOF 1
