REMARK  8 active torsions:
REMARK  status: ('A' for Active; 'I' for Inactive)
REMARK    1  A    between atoms: C6_6  and  C7_7 
REMARK       I    between atoms: C7_7  and  N1_9 
REMARK    2  A    between atoms: N1_9  and  C8_11 
REMARK    3  A    between atoms: C8_11  and  C9_12 
REMARK    4  A    between atoms: C9_12  and  N2_13 
REMARK       I    between atoms: N3_16  and  C12_17 
REMARK    5  A    between atoms: C12_17  and  C13_19 
REMARK    6  A    between atoms: C16_22  and  N4_23 
REMARK    7  A    between atoms: C17_27  and  N5_28 
REMARK       I    between atoms: N5_28  and  C18_30 
REMARK    8  A    between atoms: C18_30  and  C19_32 
ROOT
HETATM    1  C13 UNL     1      -1.163   0.192  -0.481  1.00  0.00     0.080 C 
HETATM    2  C14 UNL     1      -1.062   1.669  -0.381  1.00  0.00     0.016 C 
HETATM    3  C15 UNL     1      -2.441   2.250  -0.188  1.00  0.00     0.036 C 
HETATM    4  C16 UNL     1      -3.559   1.367  -0.655  1.00  0.00     0.206 C 
HETATM    5  C17 UNL     1      -3.539   0.012   0.017  1.00  0.00     0.116 C 
HETATM    6  C23 UNL     1      -2.150  -0.270   0.603  1.00  0.00     0.041 C 
ENDROOT
BRANCH   1   7
HETATM    7  C12 UNL     1       0.091  -0.561  -0.414  1.00  0.00     0.225 C 
HETATM    8  N3  UNL     1       1.028  -0.610  -1.477  1.00  0.00    -0.334 N 
HETATM    9  C2  UNL     1       0.837   0.080  -2.718  1.00  0.00     0.084 C 
HETATM   10  C6  UNL     1       2.228  -1.421  -1.311  1.00  0.00     0.179 C 
HETATM   11  C1  UNL     1       1.799   1.225  -2.958  1.00  0.00     0.032 C 
HETATM   12  C3  UNL     1       1.041  -0.874  -3.899  1.00  0.00     0.025 C 
HETATM   13  C4  UNL     1       2.400  -1.493  -3.849  1.00  0.00     0.004 C 
HETATM   14  C5  UNL     1       2.686  -2.113  -2.532  1.00  0.00     0.035 C 
HETATM   15  O2  UNL     1       0.368  -1.218   0.659  1.00  0.00    -0.273 OA
BRANCH  10  16
HETATM   16  C7  UNL     1       3.293  -0.681  -0.563  1.00  0.00     0.240 C 
HETATM   17  O1  UNL     1       3.038   0.490  -0.265  1.00  0.00    -0.271 OA
HETATM   18  N1  UNL     1       4.490  -1.312  -0.237  1.00  0.00    -0.358 N 
ATOM     19  H1  UNL     1       4.554  -2.281  -0.549  1.00  0.00     0.162 HD
BRANCH  18  20
HETATM   20  C8  UNL     1       5.640  -0.841   0.456  1.00  0.00     0.152 C 
BRANCH  20  21
HETATM   21  C9  UNL     1       5.512  -0.386   1.846  1.00  0.00     0.290 C 
BRANCH  21  22
HETATM   22  N2  UNL     1       4.761   0.763   2.164  1.00  0.00     0.081 N 
HETATM   23  C10 UNL     1       5.399   2.008   1.752  1.00  0.00     0.309 C 
HETATM   24  C11 UNL     1       4.477   0.869   3.580  1.00  0.00     0.309 C 
ENDBRANCH  21  22
ENDBRANCH  20  21
ENDBRANCH  18  20
ENDBRANCH  10  16
ENDBRANCH   1   7
BRANCH   5  25
HETATM   25  N5  UNL     1      -4.590  -0.148   0.996  1.00  0.00    -0.350 N 
HETATM   26  C18 UNL     1      -5.605  -1.134   0.865  1.00  0.00     0.252 C 
HETATM   27  O3  UNL     1      -5.586  -1.879  -0.121  1.00  0.00    -0.268 OA
ATOM     28  H5  UNL     1      -4.604   0.468   1.809  1.00  0.00     0.163 HD
BRANCH  26  29
HETATM   29  C19 UNL     1      -6.689  -1.301   1.870  1.00  0.00     0.040 A 
HETATM   30  C20 UNL     1      -7.592  -2.331   1.764  1.00  0.00     0.068 A 
HETATM   31  S1  UNL     1      -8.616  -2.113   3.108  1.00  0.00    -0.089 SA
HETATM   32  C21 UNL     1      -7.891  -0.731   3.781  1.00  0.00     0.075 A 
HETATM   33 CL1  UNL     1      -8.343   0.182   5.239  1.00  0.00    -0.076 Cl
HETATM   34  C22 UNL     1      -6.861  -0.473   2.933  1.00  0.00     0.048 A 
ENDBRANCH  26  29
ENDBRANCH   5  25
BRANCH   4  35
HETATM   35  N4  UNL     1      -4.803   2.009  -0.231  1.00  0.00    -0.073 N 
ATOM     36  H43 UNL     1      -4.835   2.205   0.769  1.00  0.00     0.274 HD
ATOM     37  H42 UNL     1      -4.889   2.973  -0.553  1.00  0.00     0.274 HD
ATOM     38  H41 UNL     1      -5.564   1.408  -0.549  1.00  0.00     0.274 HD
ENDBRANCH   4  35
TORSDOF 8
