REMARK  8 active torsions:
REMARK  status: ('A' for Active; 'I' for Inactive)
REMARK    1  A    between atoms: O1_2  and  C2_3 
REMARK    2  A    between atoms: C10_12  and  C11_13 
REMARK    3  A    between atoms: C11_13  and  O3_14 
REMARK    4  A    between atoms: C14_18  and  O4_19 
REMARK    5  A    between atoms: C17_23  and  O5_24 
REMARK    6  A    between atoms: C22_30  and  O6_31 
REMARK    7  A    between atoms: C32_42  and  O7_43 
REMARK    8  A    between atoms: C34_45  and  O8_46 
ROOT
HETATM    1  C2  UNL     1       5.308  -1.403  -0.045  1.00  0.00     0.073 C 
HETATM    2  C3  UNL     1       4.848  -2.615   0.072  1.00  0.00     0.012 C 
HETATM    3  C4  UNL     1       3.602  -3.206  -0.442  1.00  0.00     0.009 C 
HETATM    4  C5  UNL     1       3.861  -4.714  -0.652  1.00  0.00     0.014 C 
HETATM    5  C6  UNL     1       2.520  -3.065   0.600  1.00  0.00     0.040 C 
HETATM    6  C7  UNL     1       1.135  -2.867  -0.024  1.00  0.00     0.124 C 
HETATM    7  C8  UNL     1       0.876  -3.978  -0.977  1.00  0.00     0.040 C 
HETATM    8  O2  UNL     1       0.180  -2.585   0.919  1.00  0.00    -0.358 OA
HETATM    9  C9  UNL     1      -0.645  -3.336   1.705  1.00  0.00     0.140 C 
HETATM   10  C10 UNL     1      -1.936  -3.532   1.412  1.00  0.00    -0.029 C 
HETATM   11  C12 UNL     1      -2.580  -2.928   0.198  1.00  0.00     0.044 C 
HETATM   12  C13 UNL     1      -3.187  -4.053  -0.600  1.00  0.00     0.017 C 
HETATM   13  C14 UNL     1      -3.704  -1.990   0.601  1.00  0.00     0.132 C 
HETATM   14  C15 UNL     1      -3.684  -0.771  -0.276  1.00  0.00     0.042 C 
HETATM   15  C16 UNL     1      -4.014  -1.034  -1.716  1.00  0.00     0.015 C 
HETATM   16  C17 UNL     1      -4.499   0.374   0.282  1.00  0.00     0.149 C 
HETATM   17  C19 UNL     1      -3.601   1.542   0.720  1.00  0.00     0.106 C 
HETATM   18  C20 UNL     1      -3.927   1.899   2.179  1.00  0.00     0.034 C 
HETATM   19  N1  UNL     1      -3.728   2.685  -0.059  1.00  0.00    -0.385 N 
HETATM   20  C21 UNL     1      -5.032   3.115  -0.419  1.00  0.00     0.146 C 
HETATM   21  C22 UNL     1      -2.674   3.098  -0.923  1.00  0.00     0.219 C 
HETATM   22  C23 UNL     1      -1.556   3.844  -0.206  1.00  0.00     0.030 C 
HETATM   23  C24 UNL     1      -1.351   5.240  -0.803  1.00  0.00     0.014 C 
HETATM   24  C25 UNL     1      -0.294   3.059  -0.320  1.00  0.00     0.012 C 
HETATM   25  C26 UNL     1       0.892   3.606   0.356  1.00  0.00    -0.018 C 
HETATM   26  C27 UNL     1       0.737   4.883   1.096  1.00  0.00     0.010 C 
HETATM   27  C28 UNL     1       1.984   3.809  -0.699  1.00  0.00     0.008 C 
HETATM   28  C29 UNL     1       3.190   2.937  -0.436  1.00  0.00    -0.016 C 
HETATM   29  C30 UNL     1       4.256   3.331  -1.418  1.00  0.00     0.010 C 
HETATM   30  C31 UNL     1       2.911   1.478  -0.573  1.00  0.00     0.039 C 
HETATM   31  C32 UNL     1       3.950   0.685   0.212  1.00  0.00     0.156 C 
HETATM   32  C34 UNL     1       4.686  -0.265  -0.743  1.00  0.00     0.203 C 
ENDROOT
BRANCH  10  33
HETATM   33  C11 UNL     1      -2.742  -4.365   2.332  1.00  0.00     0.200 C 
BRANCH  33  34
HETATM   34  O3  UNL     1      -3.282  -5.500   1.688  1.00  0.00    -0.397 OA
ATOM     35  H3  UNL     1      -3.799  -6.035   2.279  1.00  0.00     0.209 HD
ENDBRANCH  33  34
ENDBRANCH  10  33
BRANCH  13  36
HETATM   36  O4  UNL     1      -4.927  -2.605   0.678  1.00  0.00    -0.394 OA
ATOM     37  H4  UNL     1      -5.630  -2.018   0.930  1.00  0.00     0.210 HD
ENDBRANCH  13  36
BRANCH  16  38
HETATM   38  O5  UNL     1      -5.242  -0.109   1.345  1.00  0.00    -0.388 OA
HETATM   39  C18 UNL     1      -6.625  -0.025   1.089  1.00  0.00     0.202 C 
ENDBRANCH  16  38
BRANCH   1  40
HETATM   40  O1  UNL     1       6.565  -1.135   0.573  1.00  0.00    -0.358 OA
HETATM   41  C1  UNL     1       7.758  -1.467  -0.115  1.00  0.00     0.209 C 
ENDBRANCH   1  40
BRANCH  21  42
HETATM   42  O6  UNL     1      -2.222   2.141  -1.803  1.00  0.00    -0.377 OA
ATOM     43  H6  UNL     1      -1.519   2.417  -2.379  1.00  0.00     0.212 HD
ENDBRANCH  21  42
BRANCH  32  44
HETATM   44  O8  UNL     1       3.893  -0.594  -1.823  1.00  0.00    -0.386 OA
ATOM     45  H8  UNL     1       3.492   0.140  -2.273  1.00  0.00     0.210 HD
ENDBRANCH  32  44
BRANCH  31  46
HETATM   46  O7  UNL     1       4.796   1.560   0.854  1.00  0.00    -0.388 OA
HETATM   47  C33 UNL     1       4.813   1.466   2.229  1.00  0.00     0.202 C 
ENDBRANCH  31  46
TORSDOF 8
