REMARK  8 active torsions:
REMARK  status: ('A' for Active; 'I' for Inactive)
REMARK    1  A    between atoms: C2_2  and  C3_3 
REMARK    2  A    between atoms: C10_11  and  O2_13 
REMARK    3  A    between atoms: C15_20  and  O5_21 
REMARK    4  A    between atoms: O5_21  and  C16_22 
REMARK    5  A    between atoms: C20_26  and  O6_28 
REMARK    6  A    between atoms: C26_34  and  O7_35 
REMARK    7  A    between atoms: C31_41  and  C32_42 
REMARK    8  A    between atoms: C32_42  and  O8_44 
ROOT
HETATM    1  C3  UNL     1      -4.005  -1.097  -0.141  1.00  0.00    -0.009 C 
HETATM    2  C4  UNL     1      -3.873  -1.083  -1.631  1.00  0.00     0.024 C 
HETATM    3  C5  UNL     1      -3.822  -2.401   0.540  1.00  0.00    -0.017 C 
HETATM    4  C6  UNL     1      -2.575  -3.092   0.713  1.00  0.00    -0.019 C 
HETATM    5  C7  UNL     1      -1.336  -2.818   0.004  1.00  0.00     0.079 C 
HETATM    6  C8  UNL     1      -0.035  -2.862   0.741  1.00  0.00     0.062 C 
HETATM    7  C9  UNL     1       0.030  -4.384   1.005  1.00  0.00     0.180 C 
HETATM    8  O1  UNL     1      -0.451  -4.966  -0.143  1.00  0.00    -0.354 OA
HETATM    9  C10 UNL     1      -0.957  -3.976  -0.960  1.00  0.00     0.165 C 
HETATM   10  C11 UNL     1      -2.085  -4.529  -1.731  1.00  0.00     0.079 C 
HETATM   11  C12 UNL     1       0.237  -2.119   1.932  1.00  0.00     0.130 A 
HETATM   12  C13 UNL     1       1.121  -3.000   2.867  1.00  0.00     0.052 C 
HETATM   13  O3  UNL     1      -0.710  -1.566   2.731  1.00  0.00    -0.226 OA
HETATM   14  O4  UNL     1      -0.194  -0.412   2.804  1.00  0.00    -0.229 OA
HETATM   15  C14 UNL     1       0.795  -0.753   1.912  1.00  0.00     0.229 A 
HETATM   16  C15 UNL     1       0.882   0.015   0.681  1.00  0.00     0.186 C 
HETATM   17  C26 UNL     1       0.137   1.331   0.719  1.00  0.00     0.153 C 
HETATM   18  C27 UNL     1      -0.867   1.393  -0.410  1.00  0.00     0.076 C 
HETATM   19  C28 UNL     1      -2.099   2.164  -0.165  1.00  0.00     0.082 C 
HETATM   20  C29 UNL     1      -2.324   3.164  -1.281  1.00  0.00     0.009 C 
HETATM   21  C30 UNL     1      -2.502   4.364  -0.796  1.00  0.00     0.006 C 
HETATM   22  C31 UNL     1      -2.409   4.241   0.664  1.00  0.00     0.174 C 
HETATM   23  O9  UNL     1      -2.003   2.970   0.930  1.00  0.00    -0.364 OA
HETATM   24  C34 UNL     1      -3.375   1.346  -0.163  1.00  0.00     0.043 C 
HETATM   25  C35 UNL     1      -3.245   0.032   0.529  1.00  0.00     0.020 C 
ENDROOT
BRANCH  16  26
HETATM   26  O5  UNL     1       2.237   0.374   0.453  1.00  0.00    -0.370 OA
BRANCH  26  27
HETATM   27  C16 UNL     1       2.722  -0.007  -0.768  1.00  0.00     0.158 C 
HETATM   28  C17 UNL     1       3.153   1.270  -1.455  1.00  0.00    -0.057 C 
HETATM   29  C18 UNL     1       2.525   1.617  -2.553  1.00  0.00     0.017 C 
HETATM   30  C19 UNL     1       4.239   2.108  -0.934  1.00  0.00     0.073 C 
HETATM   31  C20 UNL     1       5.126   1.449   0.053  1.00  0.00     0.059 C 
HETATM   32  C21 UNL     1       6.575   1.558  -0.441  1.00  0.00     0.046 C 
HETATM   33  C22 UNL     1       4.818   0.057   0.439  1.00  0.00     0.049 C 
HETATM   34  C23 UNL     1       4.025  -0.749  -0.551  1.00  0.00    -0.015 C 
HETATM   35  C24 UNL     1       3.831  -2.121   0.050  1.00  0.00     0.018 C 
HETATM   36  C25 UNL     1       4.775  -0.946  -1.849  1.00  0.00     0.018 C 
BRANCH  31  37
HETATM   37  O6  UNL     1       5.104   2.227   1.236  1.00  0.00    -0.390 OA
ATOM     38  H6  UNL     1       5.673   1.804   1.869  1.00  0.00     0.210 HD
ENDBRANCH  31  37
ENDBRANCH  26  27
ENDBRANCH  16  26
BRANCH  17  39
HETATM   39  O7  UNL     1      -0.382   1.626   1.951  1.00  0.00    -0.393 OA
ATOM     40  H7  UNL     1      -0.850   2.452   1.975  1.00  0.00     0.210 HD
ENDBRANCH  17  39
BRANCH   9  41
HETATM   41  O2  UNL     1       0.048  -3.502  -1.810  1.00  0.00    -0.365 OA
ATOM     42  H2  UNL     1       0.280  -4.210  -2.399  1.00  0.00     0.213 HD
ENDBRANCH   9  41
BRANCH  22  43
HETATM   43  C32 UNL     1      -1.293   5.182   1.140  1.00  0.00     0.146 C 
HETATM   44  C33 UNL     1      -1.623   6.598   0.774  1.00  0.00     0.042 C 
BRANCH  43  45
HETATM   45  O8  UNL     1      -1.126   4.976   2.496  1.00  0.00    -0.393 OA
ATOM     46  H8  UNL     1      -0.436   5.558   2.791  1.00  0.00     0.210 HD
ENDBRANCH  43  45
ENDBRANCH  22  43
BRANCH   1  47
HETATM   47  C2  UNL     1      -5.458  -0.741   0.095  1.00  0.00    -0.024 C 
HETATM   48  C1  UNL     1      -6.403  -1.046  -0.748  1.00  0.00     0.008 C 
ENDBRANCH   1  47
TORSDOF 8
