REMARK  10 active torsions:
REMARK  status: ('A' for Active; 'I' for Inactive)
REMARK    1  A    between atoms: C3_3  and  C5_5 
REMARK    2  A    between atoms: C5_5  and  O2_7 
REMARK    3  A    between atoms: O2_7  and  C6_8 
REMARK    4  A    between atoms: C7_9  and  O3_10 
REMARK    5  A    between atoms: O3_10  and  C8_11 
REMARK    6  A    between atoms: C12_16  and  O5_17 
REMARK    7  A    between atoms: C13_19  and  O6_20 
REMARK    8  A    between atoms: C25_33  and  C26_34 
REMARK    9  A    between atoms: C26_34  and  O7_37 
REMARK   10  A    between atoms: C35_46  and  O9_47 
ROOT
HETATM    1  C6  UNL     1      -4.768  -0.415  -0.442  1.00  0.00     0.227 C 
HETATM    2  C7  UNL     1      -5.596  -1.129   0.585  1.00  0.00     0.167 C 
HETATM    3  C10 UNL     1      -4.964  -1.315   1.911  1.00  0.00     0.038 C 
HETATM    4  C11 UNL     1      -3.520  -1.765   1.857  1.00  0.00     0.049 C 
HETATM    5  C12 UNL     1      -2.773  -0.782   1.046  1.00  0.00     0.150 C 
HETATM    6  C13 UNL     1      -1.354  -1.217   0.687  1.00  0.00     0.120 C 
HETATM    7  C14 UNL     1      -0.429  -0.655   1.687  1.00  0.00     0.044 C 
HETATM    8  C15 UNL     1       1.032  -0.599   1.263  1.00  0.00     0.009 C 
HETATM    9  C16 UNL     1       1.082  -0.485  -0.219  1.00  0.00     0.001 C 
HETATM   10  C17 UNL     1      -0.090   0.374  -0.616  1.00  0.00     0.023 C 
HETATM   11  C18 UNL     1       0.086   1.203  -1.822  1.00  0.00     0.008 C 
HETATM   12  C19 UNL     1       1.287   2.089  -1.652  1.00  0.00     0.006 C 
HETATM   13  C20 UNL     1       2.269   1.527  -0.640  1.00  0.00    -0.006 C 
HETATM   14  C21 UNL     1       3.539   2.285  -0.687  1.00  0.00     0.006 C 
HETATM   15  C22 UNL     1       4.585   1.710   0.230  1.00  0.00     0.010 C 
HETATM   16  C23 UNL     1       4.828   0.252  -0.068  1.00  0.00    -0.033 C 
HETATM   17  C24 UNL     1       5.472   0.172  -1.423  1.00  0.00     0.016 C 
HETATM   18  C25 UNL     1       5.554  -0.479   0.994  1.00  0.00     0.028 C 
HETATM   19  C29 UNL     1       5.171  -1.923   0.749  1.00  0.00     0.009 C 
HETATM   20  C30 UNL     1       3.893  -1.893  -0.098  1.00  0.00     0.007 C 
HETATM   21  C31 UNL     1       3.509  -0.458   0.029  1.00  0.00     0.003 C 
HETATM   22  C32 UNL     1       2.403   0.028  -0.780  1.00  0.00    -0.032 C 
HETATM   23  C33 UNL     1       2.423  -0.416  -2.229  1.00  0.00     0.016 C 
HETATM   24  C34 UNL     1      -1.243  -0.609  -0.694  1.00  0.00     0.167 C 
HETATM   25  O8  UNL     1      -2.443  -0.044  -1.024  1.00  0.00    -0.341 OA
HETATM   26  C35 UNL     1      -3.356  -0.830  -0.375  1.00  0.00     0.227 C 
ENDROOT
BRANCH   1  27
HETATM   27  O2  UNL     1      -4.968   0.981  -0.437  1.00  0.00    -0.304 OA
BRANCH  27  28
HETATM   28  C5  UNL     1      -5.535   1.684  -1.488  1.00  0.00     0.289 C 
HETATM   29  O1  UNL     1      -5.872   0.963  -2.486  1.00  0.00    -0.260 OA
BRANCH  28  30
HETATM   30  C3  UNL     1      -5.762   3.096  -1.536  1.00  0.00     0.009 C 
HETATM   31  C2  UNL     1      -5.454   3.941  -0.562  1.00  0.00    -0.018 C 
HETATM   32  C1  UNL     1      -4.836   3.470   0.681  1.00  0.00     0.036 C 
HETATM   33  C4  UNL     1      -6.389   3.685  -2.761  1.00  0.00     0.054 C 
ENDBRANCH  28  30
ENDBRANCH  27  28
ENDBRANCH   1  27
BRANCH   2  34
HETATM   34  O3  UNL     1      -5.970  -2.400   0.082  1.00  0.00    -0.314 OA
BRANCH  34  35
HETATM   35  C8  UNL     1      -7.285  -2.746  -0.160  1.00  0.00     0.255 C 
HETATM   36  C9  UNL     1      -7.609  -4.103  -0.690  1.00  0.00     0.126 C 
HETATM   37  O4  UNL     1      -8.188  -1.931   0.063  1.00  0.00    -0.266 OA
ENDBRANCH  34  35
ENDBRANCH   2  34
BRANCH  26  38
HETATM   38  O9  UNL     1      -3.248  -2.169  -0.771  1.00  0.00    -0.361 OA
ATOM     39  H9  UNL     1      -2.337  -2.437  -0.728  1.00  0.00     0.213 HD
ENDBRANCH  26  38
BRANCH   5  40
HETATM   40  O5  UNL     1      -2.745   0.494   1.540  1.00  0.00    -0.381 OA
ATOM     41  H5  UNL     1      -2.265   1.126   1.018  1.00  0.00     0.211 HD
ENDBRANCH   5  40
BRANCH   6  42
HETATM   42  O6  UNL     1      -1.300  -2.627   0.630  1.00  0.00    -0.384 OA
ATOM     43  H6  UNL     1      -0.417  -2.898   0.407  1.00  0.00     0.210 HD
ENDBRANCH   6  42
BRANCH  18  44
HETATM   44  C26 UNL     1       7.022  -0.332   1.077  1.00  0.00     0.055 C 
HETATM   45  C27 UNL     1       7.465  -1.205   2.268  1.00  0.00     0.045 C 
HETATM   46  C28 UNL     1       7.466   1.069   1.425  1.00  0.00     0.045 C 
BRANCH  44  47
HETATM   47  O7  UNL     1       7.723  -0.842  -0.001  1.00  0.00    -0.390 OA
ATOM     48  H7  UNL     1       8.667  -0.747   0.052  1.00  0.00     0.210 HD
ENDBRANCH  44  47
ENDBRANCH  18  44
TORSDOF 10
