REMARK  8 active torsions:
REMARK  status: ('A' for Active; 'I' for Inactive)
REMARK    1  A    between atoms: C2_2  and  C3_3 
REMARK    2  A    between atoms: C3_3  and  C4_4 
REMARK    3  A    between atoms: C5_5  and  C6_6 
REMARK    4  A    between atoms: C7_8  and  O2_9 
REMARK    5  A    between atoms: C15_18  and  C16_19 
REMARK    6  A    between atoms: C16_19  and  O3_20 
REMARK    7  A    between atoms: C25_30  and  O4_31 
REMARK    8  A    between atoms: C32_40  and  O6_41 
ROOT
HETATM    1  C6  UNL     1       3.502  -0.983  -1.392  1.00  0.00     0.176 C 
HETATM    2  O1  UNL     1       2.165  -1.171  -1.644  1.00  0.00    -0.350 OA
HETATM    3  C7  UNL     1       1.394  -1.696  -0.656  1.00  0.00     0.257 C 
HETATM    4  C8  UNL     1       1.557  -3.200  -0.476  1.00  0.00     0.060 C 
HETATM    5  C9  UNL     1       0.242  -3.921  -0.413  1.00  0.00     0.005 C 
HETATM    6  C10 UNL     1      -0.880  -3.111   0.148  1.00  0.00     0.000 C 
HETATM    7  C11 UNL     1      -1.909  -4.052   0.785  1.00  0.00     0.002 C 
HETATM    8  C12 UNL     1      -3.054  -3.203   1.334  1.00  0.00     0.032 C 
HETATM    9  C13 UNL     1      -3.935  -2.772   0.198  1.00  0.00     0.123 C 
HETATM   10  C14 UNL     1      -5.405  -3.027   0.484  1.00  0.00     0.041 C 
HETATM   11  C15 UNL     1      -5.993  -1.928  -0.395  1.00  0.00     0.046 C 
HETATM   12  C17 UNL     1      -5.022  -0.823  -0.115  1.00  0.00     0.067 C 
HETATM   13  C18 UNL     1      -5.108   0.168  -1.251  1.00  0.00     0.047 C 
HETATM   14  C19 UNL     1      -5.140  -0.215   1.236  1.00  0.00     0.071 C 
HETATM   15  C20 UNL     1      -5.123   1.289   1.217  1.00  0.00    -0.082 C 
HETATM   16  C21 UNL     1      -6.434   2.038   1.181  1.00  0.00     0.043 C 
HETATM   17  C22 UNL     1      -4.021   2.007   1.235  1.00  0.00     0.007 C 
HETATM   18  C23 UNL     1      -2.639   1.450   1.275  1.00  0.00     0.153 C 
HETATM   19  C24 UNL     1      -1.704   2.342   2.064  1.00  0.00     0.104 C 
HETATM   20  C25 UNL     1      -1.305   2.911   0.719  1.00  0.00     0.165 C 
HETATM   21  C26 UNL     1       0.160   2.737   0.441  1.00  0.00     0.073 C 
HETATM   22  C27 UNL     1       0.827   4.028   0.023  1.00  0.00     0.039 C 
HETATM   23  C28 UNL     1       1.519   3.921  -1.289  1.00  0.00    -0.083 C 
HETATM   24  C29 UNL     1       0.928   4.618  -2.492  1.00  0.00     0.043 C 
HETATM   25  C30 UNL     1       2.646   3.223  -1.424  1.00  0.00     0.035 C 
HETATM   26  C31 UNL     1       3.329   2.495  -0.333  1.00  0.00     0.288 C 
HETATM   27  O5  UNL     1       4.656   2.818  -0.162  1.00  0.00    -0.328 OA
HETATM   28  C32 UNL     1       5.333   3.213  -1.283  1.00  0.00     0.260 C 
HETATM   29  C33 UNL     1       5.610   2.017  -2.176  1.00  0.00     0.063 C 
HETATM   30  C34 UNL     1       5.251   0.737  -1.453  1.00  0.00     0.040 C 
HETATM   31  C35 UNL     1       3.786   0.490  -1.391  1.00  0.00     0.158 C 
HETATM   32  O7  UNL     1       3.103   1.127  -0.399  1.00  0.00    -0.350 OA
HETATM   33  O8  UNL     1      -1.983   1.843   0.133  1.00  0.00    -0.346 OA
HETATM   34  O9  UNL     1      -3.791  -1.472  -0.184  1.00  0.00    -0.374 OA
ENDROOT
BRANCH   1  35
HETATM   35  C5  UNL     1       4.081  -1.758  -0.307  1.00  0.00     0.003 C 
HETATM   36  C4  UNL     1       4.476  -1.350   0.884  1.00  0.00    -0.028 C 
BRANCH  36  37
HETATM   37  C3  UNL     1       5.059  -2.232   1.926  1.00  0.00     0.026 C 
BRANCH  37  38
HETATM   38  C2  UNL     1       6.455  -1.818   2.320  1.00  0.00    -0.001 C 
HETATM   39  C1  UNL     1       7.396  -1.858   1.128  1.00  0.00     0.005 C 
ENDBRANCH  37  38
ENDBRANCH  36  37
ENDBRANCH   1  35
BRANCH   3  40
HETATM   40  O2  UNL     1       1.421  -1.016   0.555  1.00  0.00    -0.371 OA
ATOM     41  H2  UNL     1       0.882  -1.383   1.246  1.00  0.00     0.212 HD
ENDBRANCH   3  40
BRANCH  28  42
HETATM   42  O6  UNL     1       6.559   3.758  -0.828  1.00  0.00    -0.371 OA
ATOM     43  H6  UNL     1       7.029   4.032  -1.607  1.00  0.00     0.212 HD
ENDBRANCH  28  42
BRANCH  20  44
HETATM   44  O4  UNL     1      -1.847   4.145   0.425  1.00  0.00    -0.365 OA
ATOM     45  H4  UNL     1      -1.597   4.502  -0.419  1.00  0.00     0.213 HD
ENDBRANCH  20  44
BRANCH  11  46
HETATM   46  C16 UNL     1      -7.408  -1.637  -0.103  1.00  0.00     0.172 C 
BRANCH  46  47
HETATM   47  O3  UNL     1      -7.856  -0.635  -0.943  1.00  0.00    -0.400 OA
ATOM     48  H3  UNL     1      -8.768  -0.447  -0.755  1.00  0.00     0.209 HD
ENDBRANCH  46  47
ENDBRANCH  11  46
TORSDOF 8
