REMARK  7 active torsions:
REMARK  status: ('A' for Active; 'I' for Inactive)
REMARK    1  A    between atoms: C3_4  and  O2_5 
REMARK    2  A    between atoms: O2_5  and  C4_6 
REMARK    3  A    between atoms: C18_21  and  O4_22 
REMARK    4  A    between atoms: C29_34  and  O5_35 
REMARK    5  A    between atoms: C30_37  and  O6_38 
REMARK    6  A    between atoms: O6_38  and  S1_39 
REMARK    7  A    between atoms: C31_43  and  O10_44 
ROOT
HETATM    1  C4  UNL     1       1.480  -1.400   0.094  1.00  0.00     0.162 C 
HETATM    2  C5  UNL     1       2.262  -2.668  -0.175  1.00  0.00     0.148 C 
HETATM    3  C6  UNL     1       3.107  -3.142   0.991  1.00  0.00     0.042 C 
HETATM    4  O3  UNL     1       1.584  -3.753  -0.605  1.00  0.00    -0.373 OA
HETATM    5  C7  UNL     1       0.431  -4.071   0.060  1.00  0.00     0.059 C 
HETATM    6  C8  UNL     1      -0.182  -5.201  -0.808  1.00  0.00     0.046 C 
HETATM    7  C9  UNL     1       0.519  -4.662   1.400  1.00  0.00     0.046 C 
HETATM    8  C10 UNL     1      -0.500  -2.927  -0.107  1.00  0.00     0.031 C 
HETATM    9  C11 UNL     1      -1.891  -3.218   0.312  1.00  0.00     0.009 C 
HETATM   10  C12 UNL     1      -2.762  -2.304  -0.568  1.00  0.00     0.007 C 
HETATM   11  C13 UNL     1      -2.309  -0.902  -0.169  1.00  0.00     0.003 C 
HETATM   12  C14 UNL     1      -3.319   0.132  -0.556  1.00  0.00    -0.035 C 
HETATM   13  C15 UNL     1      -4.640  -0.422   0.013  1.00  0.00     0.016 C 
HETATM   14  C16 UNL     1      -3.571   0.274  -2.020  1.00  0.00     0.012 C 
HETATM   15  C17 UNL     1      -4.835   1.138  -2.142  1.00  0.00     0.033 C 
HETATM   16  C18 UNL     1      -4.601   2.496  -1.601  1.00  0.00     0.126 C 
HETATM   17  C19 UNL     1      -3.889   2.581  -0.290  1.00  0.00    -0.017 C 
HETATM   18  C20 UNL     1      -4.845   2.876   0.875  1.00  0.00     0.018 C 
HETATM   19  C21 UNL     1      -3.043   3.869  -0.386  1.00  0.00     0.018 C 
HETATM   20  C22 UNL     1      -2.963   1.447   0.016  1.00  0.00     0.004 C 
HETATM   21  C23 UNL     1      -1.590   1.810  -0.431  1.00  0.00     0.007 C 
HETATM   22  C24 UNL     1      -0.543   0.777  -0.134  1.00  0.00     0.011 C 
HETATM   23  C25 UNL     1      -0.879  -0.618  -0.484  1.00  0.00    -0.029 C 
HETATM   24  C26 UNL     1      -0.587  -0.791  -1.957  1.00  0.00     0.016 C 
HETATM   25  C27 UNL     1       0.024  -1.561   0.353  1.00  0.00    -0.001 C 
HETATM   26  C28 UNL     1      -0.209  -1.363   1.820  1.00  0.00     0.019 C 
ENDROOT
BRANCH   1  27
HETATM   27  O2  UNL     1       2.218  -0.803   1.150  1.00  0.00    -0.350 OA
BRANCH  27  28
HETATM   28  C3  UNL     1       2.853   0.375   0.818  1.00  0.00     0.292 C 
HETATM   29  O1  UNL     1       2.509   1.451   1.586  1.00  0.00    -0.351 OA
HETATM   30  C2  UNL     1       3.269   2.564   1.540  1.00  0.00     0.152 C 
HETATM   31  C1  UNL     1       2.300   3.760   1.563  1.00  0.00     0.042 C 
HETATM   32  C31 UNL     1       4.034   2.608   0.242  1.00  0.00     0.180 C 
HETATM   33  C30 UNL     1       4.997   1.454   0.244  1.00  0.00     0.209 C 
HETATM   34  C29 UNL     1       4.377   0.185   0.782  1.00  0.00     0.206 C 
BRANCH  32  35
HETATM   35  O10 UNL     1       4.698   3.825   0.079  1.00  0.00    -0.390 OA
ATOM     36  H10 UNL     1       5.180   3.853  -0.739  1.00  0.00     0.210 HD
ENDBRANCH  32  35
BRANCH  33  37
HETATM   37  O6  UNL     1       5.377   1.221  -1.072  1.00  0.00    -0.246 OA
BRANCH  37  38
HETATM   38  S1  UNL     1       7.022   1.446  -1.314  1.00  0.00     0.252 S 
HETATM   39  O7  UNL     1       7.280   2.128  -2.623  1.00  0.00    -0.572 OA
HETATM   40  O8  UNL     1       7.640   0.057  -1.375  1.00  0.00    -0.572 OA
HETATM   41  O9  UNL     1       7.636   2.290  -0.013  1.00  0.00    -0.572 OA
ENDBRANCH  37  38
ENDBRANCH  33  37
BRANCH  34  42
HETATM   42  O5  UNL     1       4.894  -0.181   2.008  1.00  0.00    -0.388 OA
ATOM     43  H5  UNL     1       5.836  -0.298   1.986  1.00  0.00     0.210 HD
ENDBRANCH  34  42
ENDBRANCH  27  28
ENDBRANCH   1  27
BRANCH  16  44
HETATM   44  O4  UNL     1      -5.861   3.127  -1.485  1.00  0.00    -0.395 OA
ATOM     45  H4  UNL     1      -5.711   3.998  -1.138  1.00  0.00     0.210 HD
ENDBRANCH  16  44
TORSDOF 7
