REMARK  3 active torsions:
REMARK  status: ('A' for Active; 'I' for Inactive)
REMARK    1  A    between atoms: O1_1  and  C1_3 
REMARK    2  A    between atoms: C1_3  and  C2_4 
REMARK    3  A    between atoms: C2_4  and  C3_5 
ROOT
HETATM    1  C1  UNL     1      -0.304  -0.494   0.049  1.00  0.00     0.092 C 
HETATM    2  C7  UNL     1      -0.342   0.357   1.305  1.00  0.00     0.070 C 
HETATM    3  C8  UNL     1      -1.689   0.080   1.882  1.00  0.00     0.276 C 
HETATM    4  N2  UNL     1      -2.308  -0.950   1.046  1.00  0.00     0.096 N 
HETATM    5  C9  UNL     1      -3.716  -0.659   1.002  1.00  0.00     0.273 C 
HETATM    6  C10 UNL     1      -3.811   0.516   0.085  1.00  0.00     0.032 C 
HETATM    7  C11 UNL     1      -2.440   0.674  -0.573  1.00  0.00     0.041 C 
HETATM    8  C12 UNL     1      -1.772  -0.633  -0.265  1.00  0.00     0.257 C 
ENDROOT
BRANCH   1   9
HETATM    9  O1  UNL     1       0.206  -1.745   0.276  1.00  0.00    -0.388 OA
ATOM     10  H1  UNL     1      -0.282  -2.223   0.936  1.00  0.00     0.210 HD
ENDBRANCH   1   9
BRANCH   1  11
HETATM   11  C2  UNL     1       0.461   0.255  -0.986  1.00  0.00     0.073 C 
BRANCH  11  12
HETATM   12  C3  UNL     1       1.874   0.403  -0.528  1.00  0.00     0.189 C 
HETATM   13  C4  UNL     1       2.616  -0.867  -0.294  1.00  0.00     0.034 C 
HETATM   14  C5  UNL     1       4.086  -0.502  -0.523  1.00  0.00     0.029 C 
HETATM   15  C6  UNL     1       4.002   0.992  -0.729  1.00  0.00     0.233 C 
HETATM   16  N1  UNL     1       2.732   1.109  -1.463  1.00  0.00    -0.071 N 
ATOM     17  H12 UNL     1       2.731   0.769  -2.425  1.00  0.00     0.277 HD
ATOM     18  H11 UNL     1       2.442   2.052  -1.721  1.00  0.00     0.277 HD
ENDBRANCH  11  12
ENDBRANCH   1  11
TORSDOF 3
