REMARK  4 active torsions:
REMARK  status: ('A' for Active; 'I' for Inactive)
REMARK    1  A    between atoms: O1_2  and  C2_3 
REMARK    2  A    between atoms: C3_4  and  C4_5 
REMARK    3  A    between atoms: C4_5  and  O2_6 
REMARK    4  A    between atoms: C11_14  and  O3_16 
ROOT
HETATM    1  C2  UNL     1      -1.418  -0.343  -0.275  1.00  0.00     0.161 C 
HETATM    2  C3  UNL     1      -0.838   1.033  -0.068  1.00  0.00     0.046 C 
HETATM    3  C5  UNL     1       0.389   0.744   0.772  1.00  0.00     0.001 C 
HETATM    4  C6  UNL     1       1.445   1.708   0.344  1.00  0.00     0.005 C 
HETATM    5  C7  UNL     1       2.841   1.300   0.703  1.00  0.00     0.000 C 
HETATM    6  C8  UNL     1       3.073  -0.046   0.061  1.00  0.00     0.001 C 
HETATM    7  C9  UNL     1       2.105  -1.088   0.486  1.00  0.00     0.008 C 
HETATM    8  C10 UNL     1       0.712  -0.680   0.674  1.00  0.00     0.027 C 
HETATM    9  C11 UNL     1      -0.168  -1.170  -0.486  1.00  0.00     0.085 C 
HETATM   10  C12 UNL     1      -0.438  -2.651  -0.360  1.00  0.00     0.049 C 
ENDROOT
BRANCH   2  11
HETATM   11  C4  UNL     1      -1.783   1.962   0.647  1.00  0.00     0.171 C 
BRANCH  11  12
HETATM   12  O2  UNL     1      -1.151   3.194   0.783  1.00  0.00    -0.400 OA
ATOM     13  H2  UNL     1      -1.747   3.780   1.234  1.00  0.00     0.209 HD
ENDBRANCH  11  12
ENDBRANCH   2  11
BRANCH   1  14
HETATM   14  O1  UNL     1      -2.231  -0.420  -1.384  1.00  0.00    -0.387 OA
HETATM   15  C1  UNL     1      -3.494  -0.933  -1.086  1.00  0.00     0.202 C 
ENDBRANCH   1  14
BRANCH   9  16
HETATM   16  O3  UNL     1       0.475  -0.843  -1.653  1.00  0.00    -0.387 OA
ATOM     17  H3  UNL     1       1.260  -1.362  -1.785  1.00  0.00     0.210 HD
ENDBRANCH   9  16
TORSDOF 4
