REMARK  3 active torsions:
REMARK  status: ('A' for Active; 'I' for Inactive)
REMARK    1  A    between atoms: N1_1  and  C1_5 
REMARK    2  A    between atoms: C2_6  and  C3_7 
REMARK    3  A    between atoms: C6_12  and  N2_13 
ROOT
HETATM    1  C1  UNL     1      -1.413   0.557  -0.605  1.00  0.00     0.230 C 
HETATM    2  C2  UNL     1      -2.432  -0.039   0.354  1.00  0.00     0.119 C 
HETATM    3  C4  UNL     1      -2.345  -1.509  -0.062  1.00  0.00     0.020 C 
HETATM    4  C5  UNL     1      -0.829  -1.695   0.110  1.00  0.00     0.039 C 
HETATM    5  C6  UNL     1      -0.286  -0.443  -0.527  1.00  0.00     0.254 C 
ENDROOT
BRANCH   5   6
HETATM    6  N2  UNL     1       0.883   0.025   0.145  1.00  0.00     0.095 N 
HETATM    7  C7  UNL     1       1.472   1.138  -0.567  1.00  0.00     0.273 C 
HETATM    8  C8  UNL     1       2.488   1.766   0.365  1.00  0.00     0.030 C 
HETATM    9  C9  UNL     1       3.577   0.779   0.626  1.00  0.00     0.003 C 
HETATM   10  C10 UNL     1       3.097  -0.585   0.999  1.00  0.00     0.030 C 
HETATM   11  C11 UNL     1       1.861  -1.013   0.244  1.00  0.00     0.273 C 
ENDBRANCH   5   6
BRANCH   1  12
HETATM   12  N1  UNL     1      -1.956   0.516  -1.949  1.00  0.00    -0.072 N 
ATOM     13  H13 UNL     1      -2.247  -0.422  -2.223  1.00  0.00     0.274 HD
ATOM     14  H12 UNL     1      -2.866   0.971  -2.015  1.00  0.00     0.274 HD
ATOM     15  H11 UNL     1      -1.273   0.916  -2.592  1.00  0.00     0.274 HD
ENDBRANCH   1  12
BRANCH   2  16
HETATM   16  C3  UNL     1      -3.763   0.533   0.244  1.00  0.00     0.179 C 
HETATM   17  O1  UNL     1      -4.052   1.428  -0.575  1.00  0.00    -0.648 OA
HETATM   18  O2  UNL     1      -4.765   0.069   1.083  1.00  0.00    -0.648 OA
ENDBRANCH   2  16
TORSDOF 3
