REMARK  4 active torsions:
REMARK  status: ('A' for Active; 'I' for Inactive)
REMARK    1  A    between atoms: C2_2  and  C3_3 
REMARK    2  A    between atoms: C3_3  and  N1_4 
REMARK    3  A    between atoms: C10_11  and  O1_12 
REMARK    4  A    between atoms: C11_14  and  O2_15 
ROOT
HETATM    1  C3  UNL     1      -0.624   0.358   0.021  1.00  0.00     0.054 C 
HETATM    2  C9  UNL     1      -1.222   0.268  -1.338  1.00  0.00     0.069 C 
HETATM    3  C10 UNL     1      -2.353  -0.734  -1.220  1.00  0.00     0.149 C 
HETATM    4  C11 UNL     1      -2.952  -0.223   0.109  1.00  0.00     0.149 C 
HETATM    5  C12 UNL     1      -1.668  -0.319   0.930  1.00  0.00     0.069 C 
ENDROOT
BRANCH   1   6
HETATM    6  C2  UNL     1      -0.678   1.800   0.407  1.00  0.00    -0.006 C 
HETATM    7  C1  UNL     1      -0.322   2.796  -0.358  1.00  0.00     0.009 C 
ENDBRANCH   1   6
BRANCH   1   8
HETATM    8  N1  UNL     1       0.591  -0.240   0.262  1.00  0.00    -0.376 N 
HETATM    9  C4  UNL     1       1.249  -1.073  -0.642  1.00  0.00     0.060 C 
HETATM   10  C5  UNL     1       2.677  -0.607  -0.829  1.00  0.00     0.046 C 
HETATM   11  C6  UNL     1       2.701   0.678  -0.033  1.00  0.00     0.030 C 
HETATM   12  C7  UNL     1       1.607   0.408   1.001  1.00  0.00     0.081 C 
HETATM   13  C8  UNL     1       2.278  -0.549   2.010  1.00  0.00     0.032 C 
ENDBRANCH   1   8
BRANCH   3  14
HETATM   14  O1  UNL     1      -1.893  -2.008  -0.941  1.00  0.00    -0.393 OA
ATOM     15  H1  UNL     1      -2.602  -2.636  -0.867  1.00  0.00     0.210 HD
ENDBRANCH   3  14
BRANCH   4  16
HETATM   16  O2  UNL     1      -3.939  -1.052   0.582  1.00  0.00    -0.393 OA
ATOM     17  H2  UNL     1      -4.307  -0.738   1.399  1.00  0.00     0.210 HD
ENDBRANCH   4  16
TORSDOF 4
