REMARK  3 active torsions:
REMARK  status: ('A' for Active; 'I' for Inactive)
REMARK    1  A    between atoms: C2_2  and  C4_4 
REMARK    2  A    between atoms: C4_4  and  N1_5 
REMARK    3  A    between atoms: C8_13  and  O2_14 
ROOT
HETATM    1  C4  UNL     1      -0.761  -0.517   0.207  1.00  0.00     0.195 C 
HETATM    2  C5  UNL     1       0.402  -0.736   1.167  1.00  0.00     0.068 C 
HETATM    3  C6  UNL     1       1.042  -2.036   0.701  1.00  0.00     0.039 C 
HETATM    4  C7  UNL     1       1.314  -2.037  -0.770  1.00  0.00     0.172 C 
HETATM    5  O1  UNL     1       0.451  -1.408  -1.567  1.00  0.00    -0.349 OA
HETATM    6  C8  UNL     1      -0.164  -0.255  -1.109  1.00  0.00     0.231 C 
HETATM    7  C9  UNL     1       0.839   0.853  -1.157  1.00  0.00     0.133 C 
HETATM    8  N2  UNL     1       1.507   1.163   0.030  1.00  0.00    -0.372 N 
HETATM    9  C10 UNL     1       2.805   1.721  -0.230  1.00  0.00     0.154 C 
HETATM   10  C11 UNL     1       1.439   0.314   1.132  1.00  0.00     0.070 C 
ENDROOT
BRANCH   1  11
HETATM   11  C2  UNL     1      -1.816   0.361   0.722  1.00  0.00     0.020 C 
HETATM   12  C1  UNL     1      -3.019   0.403  -0.204  1.00  0.00     0.012 C 
HETATM   13  C3  UNL     1      -1.491   1.767   1.061  1.00  0.00     0.012 C 
ENDBRANCH   1  11
BRANCH   1  14
HETATM   14  N1  UNL     1      -1.370  -1.864   0.097  1.00  0.00    -0.064 N 
ATOM     15  H13 UNL     1      -1.787  -2.195   0.967  1.00  0.00     0.275 HD
ATOM     16  H12 UNL     1      -2.223  -1.881  -0.462  1.00  0.00     0.275 HD
ATOM     17  H11 UNL     1      -0.636  -2.475  -0.261  1.00  0.00     0.275 HD
ENDBRANCH   1  14
BRANCH   6  18
HETATM   18  O2  UNL     1      -1.162  -0.011  -2.057  1.00  0.00    -0.359 OA
ATOM     19  H2  UNL     1      -0.776   0.158  -2.908  1.00  0.00     0.213 HD
ENDBRANCH   6  18
TORSDOF 3
