REMARK  3 active torsions:
REMARK  status: ('A' for Active; 'I' for Inactive)
REMARK    1  A    between atoms: C2_2  and  C3_3 
REMARK    2  A    between atoms: C3_3  and  C9_13 
REMARK    3  A    between atoms: N1_4  and  N2_6 
ROOT
HETATM    1  C3  UNL     1      -1.225   0.574  -0.444  1.00  0.00     0.039 C 
HETATM    2  N1  UNL     1      -0.146   1.074  -0.072  1.00  0.00    -0.304 N 
ATOM      3  H1  UNL     1       0.207   1.859  -0.619  1.00  0.00     0.186 HD
ENDROOT
BRANCH   1   4
HETATM    4  C2  UNL     1      -1.861   1.205  -1.662  1.00  0.00     0.055 C 
HETATM    5  C1  UNL     1      -0.977   2.339  -2.163  1.00  0.00     0.011 C 
ENDBRANCH   1   4
BRANCH   1   6
HETATM    6  C9  UNL     1      -1.869  -0.543   0.222  1.00  0.00     0.032 A 
HETATM    7  C10 UNL     1      -1.535  -1.285   1.320  1.00  0.00     0.059 A 
HETATM    8  C11 UNL     1      -2.490  -2.255   1.561  1.00  0.00     0.105 A 
HETATM    9 CL1  UNL     1      -2.524  -3.453   2.844  1.00  0.00    -0.064 Cl
HETATM   10  N3  UNL     1      -3.415  -2.111   0.610  1.00  0.00    -0.335 N 
HETATM   11  C12 UNL     1      -3.085  -1.101  -0.211  1.00  0.00     0.129 A 
ATOM     12  H3  UNL     1      -4.253  -2.686   0.520  1.00  0.00     0.168 HD
HETATM   13  N4  UNL     1      -3.867  -0.693  -1.330  1.00  0.00    -0.082 NA
ENDBRANCH   1   6
BRANCH   2  14
HETATM   14  N2  UNL     1       0.610   0.680   0.990  1.00  0.00    -0.309 N 
HETATM   15  C4  UNL     1       1.844   0.401   0.870  1.00  0.00     0.004 C 
HETATM   16  C5  UNL     1       2.623   0.459  -0.394  1.00  0.00     0.054 C 
HETATM   17  C8  UNL     1       2.718  -0.033   1.990  1.00  0.00     0.054 C 
HETATM   18  C6  UNL     1       3.852  -0.385  -0.037  1.00  0.00     0.006 C 
HETATM   19  C7  UNL     1       4.093   0.099   1.398  1.00  0.00     0.006 C 
ATOM     20  H2  UNL     1       0.173   0.607   1.909  1.00  0.00     0.186 HD
ENDBRANCH   2  14
TORSDOF 3
