REMARK  4 active torsions:
REMARK  status: ('A' for Active; 'I' for Inactive)
REMARK    1  A    between atoms: N1_2  and  C2_4 
REMARK    2  A    between atoms: C8_13  and  N3_14 
REMARK    3  A    between atoms: N3_14  and  C9_16 
REMARK    4  A    between atoms: C9_16  and  C10_17 
ROOT
HETATM    1  C2  UNL     1       3.143   1.231  -0.360  1.00  0.00     0.145 A 
HETATM    2  N2  UNL     1       3.347  -0.082  -0.354  1.00  0.00    -0.336 N 
ATOM      3  H2  UNL     1       4.267  -0.470  -0.562  1.00  0.00     0.168 HD
HETATM    4  C3  UNL     1       2.328  -0.869  -0.072  1.00  0.00     0.054 A 
HETATM    5  C4  UNL     1       2.338  -2.279  -0.015  1.00  0.00     0.041 A 
HETATM    6  C5  UNL     1       1.204  -2.969   0.290  1.00  0.00    -0.019 A 
HETATM    7  C6  UNL     1       1.206  -4.478   0.354  1.00  0.00     0.051 C 
HETATM    8  C7  UNL     1      -0.013  -2.382   0.562  1.00  0.00     0.150 A 
HETATM    9  F1  UNL     1      -1.116  -3.080   0.861  1.00  0.00    -0.203 F 
HETATM   10  C8  UNL     1      -0.033  -1.001   0.509  1.00  0.00     0.087 A 
HETATM   11  C13 UNL     1       1.126  -0.281   0.196  1.00  0.00     0.064 A 
HETATM   12  S1  UNL     1       1.493   1.376   0.036  1.00  0.00    -0.050 SA
ENDROOT
BRANCH  10  13
HETATM   13  N3  UNL     1      -1.200  -0.249   0.761  1.00  0.00    -0.386 N 
ATOM     14  H3  UNL     1      -1.408   0.057   1.712  1.00  0.00     0.159 HD
BRANCH  13  15
HETATM   15  C9  UNL     1      -2.105   0.093  -0.317  1.00  0.00     0.123 C 
BRANCH  15  16
HETATM   16  C10 UNL     1      -3.242   0.891   0.269  1.00  0.00    -0.005 C 
HETATM   17  C11 UNL     1      -2.725   2.136   0.911  1.00  0.00     0.011 C 
HETATM   18  C12 UNL     1      -4.283   1.173  -0.794  1.00  0.00     0.011 C 
ENDBRANCH  15  16
ENDBRANCH  13  15
ENDBRANCH  10  13
BRANCH   1  19
HETATM   19  N1  UNL     1       4.017   2.178  -0.613  1.00  0.00    -0.375 N 
HETATM   20  C1  UNL     1       3.558   3.576  -0.560  1.00  0.00     0.148 C 
ATOM     21  H1  UNL     1       4.985   1.952  -0.840  1.00  0.00     0.161 HD
ENDBRANCH   1  19
TORSDOF 4
