REMARK  2 active torsions:
REMARK  status: ('A' for Active; 'I' for Inactive)
REMARK    1  A    between atoms: C2_2  and  C4_4 
REMARK    2  A    between atoms: C5_9  and  C6_10 
ROOT
HETATM    1  C6  UNL     1      -0.896  -0.850  -0.615  1.00  0.00     0.092 C 
HETATM    2  C7  UNL     1      -1.029  -2.232   0.032  1.00  0.00     0.043 C 
HETATM    3  C8  UNL     1      -2.321  -2.833  -0.479  1.00  0.00     0.233 C 
HETATM    4  N3  UNL     1      -3.377  -1.831  -0.488  1.00  0.00    -0.072 N 
ATOM      5  H31 UNL     1      -4.293  -2.246  -0.319  1.00  0.00     0.277 HD
ATOM      6  H32 UNL     1      -3.544  -1.466  -1.426  1.00  0.00     0.277 HD
HETATM    7  C9  UNL     1      -3.085  -0.773   0.455  1.00  0.00     0.271 C 
HETATM    8  C10 UNL     1      -1.883   0.069   0.002  1.00  0.00     0.095 C 
HETATM    9  C11 UNL     1      -1.413   0.817   1.216  1.00  0.00     0.042 C 
HETATM   10  C12 UNL     1      -2.595   1.792   1.361  1.00  0.00     0.029 C 
HETATM   11  C13 UNL     1      -2.922   2.044  -0.080  1.00  0.00     0.169 C 
HETATM   12  O1  UNL     1      -2.405   1.031  -0.855  1.00  0.00    -0.378 OA
ENDROOT
BRANCH   1  13
HETATM   13  C5  UNL     1       0.501  -0.394  -0.620  1.00  0.00     0.104 A 
HETATM   14  N2  UNL     1       1.231  -0.103  -1.711  1.00  0.00    -0.287 N 
HETATM   15  N1  UNL     1       2.436   0.265  -1.327  1.00  0.00    -0.287 N 
ATOM     16  H2  UNL     1       0.906  -0.158  -2.676  1.00  0.00     0.188 HD
HETATM   17  C4  UNL     1       2.532   0.228   0.013  1.00  0.00     0.100 A 
ATOM     18  H1  UNL     1       3.190   0.539  -1.957  1.00  0.00     0.188 HD
HETATM   19  N4  UNL     1       1.320  -0.183   0.424  1.00  0.00    -0.333 N 
ATOM     20  H4  UNL     1       1.057  -0.317   1.400  1.00  0.00     0.168 HD
BRANCH  17  21
HETATM   21  C2  UNL     1       3.726   0.570   0.828  1.00  0.00     0.047 C 
HETATM   22  C1  UNL     1       4.162   1.988   0.546  1.00  0.00     0.017 C 
HETATM   23  C3  UNL     1       4.876  -0.336   0.433  1.00  0.00     0.017 C 
ENDBRANCH  17  21
ENDBRANCH   1  13
TORSDOF 2
