REMARK  4 active torsions:
REMARK  status: ('A' for Active; 'I' for Inactive)
REMARK    1  A    between atoms: C2_2  and  C3_3 
REMARK    2  A    between atoms: C3_3  and  C4_4 
REMARK    3  A    between atoms: C7_9  and  O3_10 
REMARK    4  A    between atoms: C10_14  and  O4_15 
ROOT
HETATM    1  C4  UNL     1       1.593   0.671   0.672  1.00  0.00     0.163 C 
HETATM    2  C5  UNL     1       0.749   0.525  -0.577  1.00  0.00     0.080 C 
HETATM    3  C6  UNL     1      -0.534  -0.032   0.013  1.00  0.00     0.133 C 
HETATM    4  O1  UNL     1      -0.227  -0.070   1.383  1.00  0.00    -0.226 OA
HETATM    5  O2  UNL     1       1.079  -0.335   1.460  1.00  0.00    -0.234 OA
HETATM    6  C7  UNL     1      -0.738  -1.494  -0.392  1.00  0.00     0.157 C 
HETATM    7  C8  UNL     1      -1.948  -2.016   0.321  1.00  0.00     0.037 C 
HETATM    8  C9  UNL     1      -3.185  -1.216   0.109  1.00  0.00     0.035 C 
HETATM    9  C10 UNL     1      -2.866  -0.079  -0.824  1.00  0.00     0.129 C 
HETATM   10  C11 UNL     1      -1.737   0.792  -0.281  1.00  0.00     0.015 C 
HETATM   11  C12 UNL     1      -2.146   1.506   0.986  1.00  0.00     0.021 C 
HETATM   12  C13 UNL     1      -1.510   1.850  -1.343  1.00  0.00     0.021 C 
ENDROOT
BRANCH   6  13
HETATM   13  O3  UNL     1       0.356  -2.235   0.111  1.00  0.00    -0.392 OA
ATOM     14  H3  UNL     1       0.229  -3.142  -0.140  1.00  0.00     0.210 HD
ENDBRANCH   6  13
BRANCH   1  15
HETATM   15  C3  UNL     1       3.046   0.638   0.451  1.00  0.00     0.035 C 
BRANCH  15  16
HETATM   16  C2  UNL     1       3.602  -0.594  -0.164  1.00  0.00    -0.002 C 
HETATM   17  C1  UNL     1       5.105  -0.446  -0.313  1.00  0.00     0.005 C 
ENDBRANCH  15  16
ENDBRANCH   1  15
BRANCH   9  18
HETATM   18  O4  UNL     1      -3.957   0.645  -1.226  1.00  0.00    -0.395 OA
ATOM     19  H4  UNL     1      -3.756   1.363  -1.815  1.00  0.00     0.210 HD
ENDBRANCH   9  18
TORSDOF 4
