REMARK  3 active torsions:
REMARK  status: ('A' for Active; 'I' for Inactive)
REMARK    1  A    between atoms: N1_8  and  N2_10 
REMARK       I    between atoms: N2_10  and  C8_12 
REMARK    2  A    between atoms: C8_12  and  O2_14 
REMARK    3  A    between atoms: O2_14  and  C9_15 
ROOT
HETATM    1  N2  UNL     1       0.199  -0.895   0.248  1.00  0.00    -0.245 N 
ATOM      2  H2  UNL     1       0.152  -1.210  -0.721  1.00  0.00     0.192 HD
HETATM    3  C8  UNL     1      -0.977  -0.392   0.868  1.00  0.00     0.379 C 
HETATM    4  O1  UNL     1      -0.950  -0.003   2.043  1.00  0.00    -0.237 OA
ENDROOT
BRANCH   1   5
HETATM    5  N1  UNL     1       1.425  -0.971   0.931  1.00  0.00    -0.304 N 
HETATM    6  C7  UNL     1       2.490  -0.636   0.327  1.00  0.00     0.007 C 
HETATM    7  C2  UNL     1       3.774  -0.712   1.032  1.00  0.00     0.029 C 
HETATM    8  C6  UNL     1       2.475  -0.168  -1.077  1.00  0.00     0.054 C 
HETATM    9  C1  UNL     1       3.757   0.337   2.144  1.00  0.00     0.016 C 
HETATM   10  C3  UNL     1       4.974  -0.622   0.166  1.00  0.00     0.010 C 
HETATM   11  C4  UNL     1       4.920   0.370  -0.928  1.00  0.00     0.001 C 
HETATM   12  C5  UNL     1       3.570   0.816  -1.343  1.00  0.00     0.006 C 
ATOM     13  H1  UNL     1       1.459  -1.291   1.899  1.00  0.00     0.186 HD
ENDBRANCH   1   5
BRANCH   3  14
HETATM   14  O2  UNL     1      -2.139  -0.343   0.150  1.00  0.00    -0.295 OA
BRANCH  14  15
HETATM   15  C9  UNL     1      -3.369   0.136   0.659  1.00  0.00     0.157 C 
HETATM   16  C10 UNL     1      -4.381  -0.961   0.516  1.00  0.00     0.037 C 
HETATM   17  C11 UNL     1      -5.754  -0.468   0.164  1.00  0.00     0.029 C 
HETATM   18  C12 UNL     1      -5.756   0.589  -0.899  1.00  0.00     0.167 C 
HETATM   19  O3  UNL     1      -4.485   1.038  -1.226  1.00  0.00    -0.389 OA
HETATM   20  C13 UNL     1      -3.738   1.379  -0.113  1.00  0.00     0.200 C 
ENDBRANCH  14  15
ENDBRANCH   3  14
TORSDOF 3
