REMARK  3 active torsions:
REMARK  status: ('A' for Active; 'I' for Inactive)
REMARK    1  A    between atoms: N1_1  and  C1_4 
REMARK    2  A    between atoms: C2_7  and  C3_8 
REMARK    3  A    between atoms: C9_16  and  N4_17 
ROOT
HETATM    1  C1  UNL     1      -0.566  -1.764   1.967  1.00  0.00     0.691 A 
HETATM    2  N2  UNL     1       0.627  -1.397   1.479  1.00  0.00    -0.179 N 
ATOM      3  H2  UNL     1       1.476  -1.718   1.944  1.00  0.00     0.185 HD
HETATM    4  C2  UNL     1       0.731  -0.607   0.378  1.00  0.00     0.117 A 
HETATM    5  N3  UNL     1      -0.373  -0.174  -0.253  1.00  0.00    -0.179 N 
ATOM      6  H3  UNL     1      -0.290   0.418  -1.079  1.00  0.00     0.185 HD
HETATM    7  C9  UNL     1      -1.592  -0.524   0.209  1.00  0.00     0.696 A 
HETATM    8  N5  UNL     1      -1.652  -1.320   1.321  1.00  0.00    -0.022 N 
ATOM      9  H5  UNL     1      -2.570  -1.589   1.675  1.00  0.00     0.203 HD
ENDROOT
BRANCH   4  10
HETATM   10  C3  UNL     1       2.117  -0.282  -0.024  1.00  0.00     0.054 C 
HETATM   11  C4  UNL     1       2.264   0.671  -1.146  1.00  0.00     0.012 C 
HETATM   12  C5  UNL     1       3.709   1.141  -1.183  1.00  0.00     0.001 C 
HETATM   13  C6  UNL     1       4.621   0.242  -0.377  1.00  0.00     0.000 C 
HETATM   14  C7  UNL     1       4.228   0.167   1.079  1.00  0.00     0.001 C 
HETATM   15  C8  UNL     1       2.727   0.419   1.221  1.00  0.00     0.012 C 
ENDBRANCH   4  10
BRANCH   1  16
HETATM   16  N1  UNL     1      -0.671  -2.521   3.031  1.00  0.00    -0.234 N 
ATOM     17  H12 UNL     1       0.156  -2.859   3.523  1.00  0.00     0.174 HD
ATOM     18  H11 UNL     1      -1.579  -2.800   3.402  1.00  0.00     0.174 HD
ENDBRANCH   1  16
BRANCH   7  19
HETATM   19  N4  UNL     1      -2.784  -0.101  -0.427  1.00  0.00    -0.217 N 
HETATM   20  C10 UNL     1      -3.299   1.244  -0.450  1.00  0.00     0.141 C 
HETATM   21  C11 UNL     1      -4.814   1.059  -0.558  1.00  0.00     0.022 C 
HETATM   22  C12 UNL     1      -5.033  -0.430  -0.607  1.00  0.00     0.022 C 
HETATM   23  C13 UNL     1      -3.701  -0.933  -1.151  1.00  0.00     0.141 C 
ENDBRANCH   7  19
TORSDOF 3
