REMARK  3 active torsions:
REMARK  status: ('A' for Active; 'I' for Inactive)
REMARK    1  A    between atoms: C2_4  and  C4_6 
REMARK    2  A    between atoms: C4_6  and  C5_7 
REMARK    3  A    between atoms: C11_13  and  O1_14 
ROOT
HETATM    1  C5  UNL     1      -0.053  -0.631   0.191  1.00  0.00     0.063 C 
HETATM    2  C6  UNL     1      -0.539   0.650  -0.318  1.00  0.00     0.061 C 
HETATM    3  C7  UNL     1      -1.973   0.431  -0.843  1.00  0.00     0.129 C 
HETATM    4  C8  UNL     1      -2.019  -0.678  -1.711  1.00  0.00     0.032 C 
HETATM    5  C9  UNL     1      -2.172  -1.946  -0.874  1.00  0.00     0.008 C 
HETATM    6  C10 UNL     1      -2.153  -1.757   0.593  1.00  0.00     0.069 C 
HETATM    7  C11 UNL     1      -1.151  -0.859   1.200  1.00  0.00     0.167 C 
HETATM    8  O2  UNL     1      -1.582   0.375   1.640  1.00  0.00    -0.342 OA
HETATM    9  C12 UNL     1      -1.024   1.399   0.892  1.00  0.00     0.089 C 
HETATM   10  C13 UNL     1      -0.065   2.260   1.586  1.00  0.00     0.049 C 
HETATM   11  C14 UNL     1      -2.090   2.262   0.188  1.00  0.00     0.206 C 
HETATM   12  O3  UNL     1      -2.207   1.742  -1.136  1.00  0.00    -0.382 OA
ENDROOT
BRANCH   1  13
HETATM   13  C4  UNL     1       1.289  -0.676   0.821  1.00  0.00     0.062 C 
BRANCH  13  14
HETATM   14  C2  UNL     1       2.393  -0.275  -0.051  1.00  0.00    -0.022 C 
HETATM   15  N1  UNL     1       3.130   0.708   0.271  1.00  0.00    -0.401 N 
HETATM   16  C1  UNL     1       4.214   1.117  -0.560  1.00  0.00     0.145 C 
ATOM     17  H1  UNL     1       2.943   1.213   1.138  1.00  0.00     0.158 HD
HETATM   18  C3  UNL     1       2.679  -0.997  -1.312  1.00  0.00     0.062 C 
ENDBRANCH  13  14
ENDBRANCH   1  13
BRANCH   7  19
HETATM   19  O1  UNL     1      -0.527  -1.465   2.320  1.00  0.00    -0.365 OA
ATOM     20  H1  UNL     1      -1.218  -1.609   2.955  1.00  0.00     0.213 HD
ENDBRANCH   7  19
TORSDOF 3
