REMARK  4 active torsions:
REMARK  status: ('A' for Active; 'I' for Inactive)
REMARK    1  A    between atoms: N1_2  and  C2_4 
REMARK    2  A    between atoms: C2_4  and  C3_5 
REMARK    3  A    between atoms: C2_4  and  C8_12 
REMARK    4  A    between atoms: C2_4  and  C12_17 
ROOT
HETATM    1  C2  UNL     1      -0.175  -0.648  -0.453  1.00  0.00     0.179 C 
ENDROOT
BRANCH   1   2
HETATM    2  N1  UNL     1      -0.186  -1.681   0.525  1.00  0.00    -0.404 N 
HETATM    3  C1  UNL     1       0.824  -2.642   0.569  1.00  0.00     0.141 C 
ATOM      4  H1  UNL     1      -0.945  -1.720   1.205  1.00  0.00     0.154 HD
ENDBRANCH   1   2
BRANCH   1   5
HETATM    5  C3  UNL     1      -1.404   0.177  -0.282  1.00  0.00    -0.004 A 
HETATM    6  C4  UNL     1      -2.439  -0.100   0.571  1.00  0.00     0.013 A 
HETATM    7  C5  UNL     1      -3.557   0.728   0.681  1.00  0.00     0.018 A 
HETATM    8  C6  UNL     1      -3.650   1.858  -0.072  1.00  0.00     0.087 A 
HETATM    9  N2  UNL     1      -2.655   2.141  -0.904  1.00  0.00    -0.375 N 
HETATM   10  C7  UNL     1      -1.565   1.352  -1.027  1.00  0.00     0.097 A 
ATOM     11  H2  UNL     1      -2.716   2.986  -1.472  1.00  0.00     0.164 HD
ENDBRANCH   1   5
BRANCH   1  12
HETATM   12  C8  UNL     1       0.973   0.286  -0.367  1.00  0.00     0.163 C 
HETATM   13  C9  UNL     1       1.179   0.728   1.123  1.00  0.00     0.037 C 
HETATM   14  C10 UNL     1       2.474   1.498   0.920  1.00  0.00     0.029 C 
HETATM   15  C11 UNL     1       3.121   0.766  -0.214  1.00  0.00     0.168 C 
HETATM   16  O1  UNL     1       2.236  -0.253  -0.608  1.00  0.00    -0.383 OA
ENDBRANCH   1  12
BRANCH   1  17
HETATM   17  C12 UNL     1      -0.287  -1.296  -1.826  1.00  0.00     0.419 C 
HETATM   18  F1  UNL     1       0.753  -2.156  -2.092  1.00  0.00    -0.168 F 
HETATM   19  F2  UNL     1      -0.331  -0.400  -2.865  1.00  0.00    -0.168 F 
HETATM   20  F3  UNL     1      -1.519  -1.969  -1.865  1.00  0.00    -0.168 F 
ENDBRANCH   1  17
TORSDOF 4
