REMARK  5 active torsions:
REMARK  status: ('A' for Active; 'I' for Inactive)
REMARK    1  A    between atoms: C2_2  and  C3_3 
REMARK    2  A    between atoms: C4_7  and  C5_8 
REMARK    3  A    between atoms: C5_8  and  C6_9 
REMARK    4  A    between atoms: C6_9  and  C7_10 
REMARK    5  A    between atoms: C7_10  and  O1_11 
ROOT
HETATM    1  C1  UNL     1      -1.544  -0.919  -1.575  1.00  0.00     0.049 C 
HETATM    2  C2  UNL     1      -1.095  -0.699  -0.139  1.00  0.00     0.139 C 
HETATM    3  C4  UNL     1       0.237  -0.000  -0.075  1.00  0.00     0.023 C 
HETATM    4  C8  UNL     1       0.128   1.239  -0.937  1.00  0.00     0.009 C 
HETATM    5  C9  UNL     1      -0.932   2.171  -0.456  1.00  0.00     0.021 C 
HETATM    6  C10 UNL     1      -2.220   1.496  -0.050  1.00  0.00     0.136 C 
HETATM    7  N1  UNL     1      -2.011   0.194   0.515  1.00  0.00    -0.301 N 
HETATM    8  C11 UNL     1      -2.670  -0.196   1.659  1.00  0.00     0.180 C 
HETATM    9  N2  UNL     1      -3.239  -0.507   2.641  1.00  0.00    -0.172 NA
ENDROOT
BRANCH   2  10
HETATM   10  C3  UNL     1      -1.133  -2.034   0.524  1.00  0.00     0.413 C 
HETATM   11  F1  UNL     1      -0.760  -2.054   1.829  1.00  0.00    -0.168 F 
HETATM   12  F2  UNL     1      -2.466  -2.474   0.476  1.00  0.00    -0.168 F 
HETATM   13  F3  UNL     1      -0.462  -2.999  -0.244  1.00  0.00    -0.168 F 
ENDBRANCH   2  10
BRANCH   3  14
HETATM   14  C5  UNL     1       1.415  -0.837  -0.372  1.00  0.00     0.009 C 
BRANCH  14  15
HETATM   15  C6  UNL     1       2.729  -0.103  -0.304  1.00  0.00     0.027 C 
BRANCH  15  16
HETATM   16  C7  UNL     1       2.958   0.477   1.098  1.00  0.00     0.164 C 
BRANCH  16  17
HETATM   17  O1  UNL     1       2.980  -0.507   2.057  1.00  0.00    -0.401 OA
ATOM     18  H1  UNL     1       3.122  -0.148   2.925  1.00  0.00     0.209 HD
ENDBRANCH  16  17
ENDBRANCH  15  16
ENDBRANCH  14  15
ENDBRANCH   3  14
TORSDOF 5
