REMARK  11 active torsions:
REMARK  status: ('A' for Active; 'I' for Inactive)
REMARK    1  A    between atoms: S1_2  and  C2_5 
REMARK    2  A    between atoms: C2_5  and  C3_6 
REMARK    3  A    between atoms: C3_6  and  O3_7 
REMARK    4  A    between atoms: C3_6  and  C4_9 
REMARK    5  A    between atoms: C4_9  and  N1_10 
REMARK    6  A    between atoms: N1_10  and  C5_12 
REMARK    7  A    between atoms: C8_15  and  C9_16 
REMARK    8  A    between atoms: C9_16  and  N2_17 
REMARK    9  A    between atoms: N2_17  and  C10_19 
REMARK   10  A    between atoms: C10_19  and  C11_20 
REMARK   11  A    between atoms: C11_20  and  C12_21 
ROOT
HETATM    1  C5  UNL     1       1.524   0.773  -1.133  1.00  0.00     0.028 A 
HETATM    2  C6  UNL     1       1.164   0.439   0.152  1.00  0.00     0.029 A 
HETATM    3  C7  UNL     1      -0.101  -0.006   0.474  1.00  0.00     0.011 A 
HETATM    4  C8  UNL     1      -1.090  -0.141  -0.493  1.00  0.00    -0.041 A 
HETATM    5  C15 UNL     1      -0.735   0.193  -1.783  1.00  0.00     0.011 A 
HETATM    6  C16 UNL     1       0.528   0.637  -2.106  1.00  0.00     0.029 A 
ENDROOT
BRANCH   4   7
HETATM    7  C9  UNL     1      -2.454  -0.621  -0.155  1.00  0.00     0.152 C 
BRANCH   7   8
HETATM    8  N2  UNL     1      -3.187   0.500   0.345  1.00  0.00    -0.417 N 
ATOM      9  H2  UNL     1      -2.768   1.427   0.419  1.00  0.00     0.153 HD
BRANCH   8  10
HETATM   10  C10 UNL     1      -4.532   0.252   0.733  1.00  0.00     0.120 C 
BRANCH  10  11
HETATM   11  C11 UNL     1      -5.452  -0.069  -0.411  1.00  0.00     0.077 C 
BRANCH  11  12
HETATM   12  C12 UNL     1      -6.794  -0.297   0.161  1.00  0.00     0.027 A 
HETATM   13  C13 UNL     1      -7.302  -1.501   0.589  1.00  0.00     0.114 A 
HETATM   14  N3  UNL     1      -8.556  -1.332   1.054  1.00  0.00    -0.360 N 
HETATM   15  C14 UNL     1      -8.825  -0.028   0.915  1.00  0.00     0.180 A 
ATOM     16  H3  UNL     1      -9.173  -2.050   1.434  1.00  0.00     0.166 HD
HETATM   17  N4  UNL     1      -7.750   0.614   0.369  1.00  0.00    -0.355 N 
ATOM     18  H4  UNL     1      -7.688   1.610   0.158  1.00  0.00     0.166 HD
ENDBRANCH  11  12
ENDBRANCH  10  11
ENDBRANCH   8  10
ENDBRANCH   7   8
ENDBRANCH   4   7
BRANCH   1  19
HETATM   19  N1  UNL     1       2.800   1.220  -1.517  1.00  0.00    -0.387 N 
ATOM     20  H1  UNL     1       2.910   1.590  -2.461  1.00  0.00     0.159 HD
BRANCH  19  21
HETATM   21  C4  UNL     1       3.954   1.191  -0.674  1.00  0.00     0.152 C 
BRANCH  21  22
HETATM   22  C3  UNL     1       4.379  -0.222  -0.443  1.00  0.00     0.149 C 
BRANCH  22  23
HETATM   23  C2  UNL     1       5.422  -0.399   0.628  1.00  0.00     0.173 C 
BRANCH  23  24
HETATM   24  S1  UNL     1       7.011   0.225   0.208  1.00  0.00     0.143 S 
HETATM   25  C1  UNL     1       8.093  -0.092   1.611  1.00  0.00     0.161 C 
HETATM   26  O1  UNL     1       7.572  -0.509  -0.988  1.00  0.00    -0.228 OA
HETATM   27  O2  UNL     1       6.968   1.700  -0.040  1.00  0.00    -0.228 OA
ENDBRANCH  23  24
ENDBRANCH  22  23
BRANCH  22  28
HETATM   28  O3  UNL     1       4.722  -0.860  -1.643  1.00  0.00    -0.393 OA
ATOM     29  H3  UNL     1       4.064  -0.748  -2.319  1.00  0.00     0.210 HD
ENDBRANCH  22  28
ENDBRANCH  21  22
ENDBRANCH  19  21
ENDBRANCH   1  19
TORSDOF 11
