REMARK  6 active torsions:
REMARK  status: ('A' for Active; 'I' for Inactive)
REMARK    1  A    between atoms: C3_5  and  N2_6 
REMARK    2  A    between atoms: N2_6  and  C4_8 
REMARK    3  A    between atoms: C4_8  and  C5_9 
REMARK    4  A    between atoms: C5_9  and  C6_10 
REMARK    5  A    between atoms: C6_10  and  N3_11 
REMARK    6  A    between atoms: C12_19  and  C13_20 
ROOT
HETATM    1  C1  UNL     1       3.609   2.823   1.072  1.00  0.00     0.069 C 
HETATM    2  C2  UNL     1       2.746   1.716   0.473  1.00  0.00     0.021 A 
HETATM    3  N1  UNL     1       1.461   1.613   0.723  1.00  0.00    -0.340 N 
ATOM      4  H1  UNL     1       0.995   2.282   1.336  1.00  0.00     0.168 HD
HETATM    5  C3  UNL     1       0.780   0.619   0.161  1.00  0.00     0.145 A 
HETATM    6  S1  UNL     1       1.976  -0.197  -0.744  1.00  0.00    -0.057 SA
HETATM    7  C12 UNL     1       3.311   0.789  -0.354  1.00  0.00     0.012 A 
ENDROOT
BRANCH   5   8
HETATM    8  N2  UNL     1      -0.501   0.337   0.277  1.00  0.00    -0.370 N 
ATOM      9  H2  UNL     1      -0.916  -0.460  -0.206  1.00  0.00     0.161 HD
BRANCH   8  10
HETATM   10  C4  UNL     1      -1.288   1.198   1.112  1.00  0.00     0.123 C 
BRANCH  10  11
HETATM   11  C5  UNL     1      -2.752   1.035   0.772  1.00  0.00     0.050 C 
BRANCH  11  12
HETATM   12  C6  UNL     1      -3.241  -0.368   0.973  1.00  0.00     0.274 C 
BRANCH  12  13
HETATM   13  N3  UNL     1      -4.627  -0.428   0.631  1.00  0.00     0.097 N 
HETATM   14  C7  UNL     1      -5.211  -1.745   0.789  1.00  0.00     0.299 C 
HETATM   15  C8  UNL     1      -6.715  -1.512   0.989  1.00  0.00     0.198 C 
HETATM   16  O1  UNL     1      -7.120  -0.322   0.386  1.00  0.00    -0.387 OA
HETATM   17  C9  UNL     1      -6.473  -0.108  -0.834  1.00  0.00     0.203 C 
HETATM   18  C10 UNL     1      -4.990   0.205  -0.594  1.00  0.00     0.242 C 
HETATM   19  C11 UNL     1      -4.248  -0.348  -1.793  1.00  0.00     0.045 C 
ENDBRANCH  12  13
ENDBRANCH  11  12
ENDBRANCH  10  11
ENDBRANCH   8  10
ENDBRANCH   5   8
BRANCH   7  20
HETATM   20  C13 UNL     1       4.720   0.644  -0.819  1.00  0.00     0.028 C 
HETATM   21  C14 UNL     1       4.789  -0.554  -1.712  1.00  0.00     0.010 C 
HETATM   22  C15 UNL     1       4.783  -1.861  -1.000  1.00  0.00     0.001 C 
HETATM   23  C16 UNL     1       5.631  -1.920   0.224  1.00  0.00     0.000 C 
HETATM   24  C17 UNL     1       5.372  -0.730   1.132  1.00  0.00     0.001 C 
HETATM   25  C18 UNL     1       5.698   0.509   0.294  1.00  0.00     0.010 C 
ENDBRANCH   7  20
TORSDOF 6
