REMARK  6 active torsions:
REMARK  status: ('A' for Active; 'I' for Inactive)
REMARK    1  A    between atoms: C3_3  and  O1_4 
REMARK    2  A    between atoms: O1_4  and  C4_5 
REMARK    3  A    between atoms: C4_5  and  C5_7 
REMARK    4  A    between atoms: C5_7  and  N1_8 
REMARK    5  A    between atoms: N1_8  and  C6_10 
REMARK    6  A    between atoms: C6_10  and  C7_11 
ROOT
HETATM    1  O1  UNL     1      -0.562  -0.909   0.180  1.00  0.00    -0.310 OA
ENDROOT
BRANCH   1   2
HETATM    2  C3  UNL     1      -1.412  -0.238  -0.750  1.00  0.00     0.144 C 
HETATM    3  C2  UNL     1      -1.641   1.197  -0.375  1.00  0.00     0.020 C 
HETATM    4  C1  UNL     1      -1.308   2.133  -1.517  1.00  0.00     0.013 C 
HETATM    5  C18 UNL     1      -2.971   1.467   0.251  1.00  0.00    -0.038 C 
HETATM    6  C16 UNL     1      -4.084   0.618  -0.269  1.00  0.00    -0.005 C 
HETATM    7  C19 UNL     1      -3.369   2.917  -0.031  1.00  0.00     0.015 C 
HETATM    8  C20 UNL     1      -2.863   1.385   1.780  1.00  0.00     0.015 C 
HETATM    9  C15 UNL     1      -4.378  -0.578   0.618  1.00  0.00     0.006 C 
HETATM   10  C17 UNL     1      -3.704  -0.104  -1.565  1.00  0.00     0.017 C 
HETATM   11  C14 UNL     1      -3.294  -1.553   0.291  1.00  0.00     0.012 C 
HETATM   12  C12 UNL     1      -2.640  -1.041  -0.979  1.00  0.00    -0.017 C 
HETATM   13  C13 UNL     1      -2.357  -2.188  -1.905  1.00  0.00     0.018 C 
ENDBRANCH   1   2
BRANCH   1  14
HETATM   14  C4  UNL     1       0.674  -1.408  -0.161  1.00  0.00     0.298 C 
HETATM   15  O2  UNL     1       1.076  -1.273  -1.334  1.00  0.00    -0.259 OA
BRANCH  14  16
HETATM   16  C5  UNL     1       1.564  -2.116   0.837  1.00  0.00     0.170 C 
BRANCH  16  17
HETATM   17  N1  UNL     1       2.789  -2.526   0.295  1.00  0.00    -0.373 N 
ATOM     18  H1  UNL     1       2.932  -3.528   0.168  1.00  0.00     0.164 HD
BRANCH  17  19
HETATM   19  C6  UNL     1       3.819  -1.687  -0.082  1.00  0.00     0.065 C 
BRANCH  19  20
HETATM   20  C7  UNL     1       4.674  -0.981   0.894  1.00  0.00     0.028 C 
HETATM   21  C8  UNL     1       4.057  -0.015   1.847  1.00  0.00     0.036 C 
HETATM   22  C9  UNL     1       3.388   1.156   1.142  1.00  0.00     0.168 C 
HETATM   23  O3  UNL     1       3.949   1.398  -0.092  1.00  0.00    -0.391 OA
HETATM   24  C10 UNL     1       5.307   1.207  -0.172  1.00  0.00     0.168 C 
HETATM   25  C11 UNL     1       5.781  -0.180   0.170  1.00  0.00     0.036 C 
ENDBRANCH  19  20
ENDBRANCH  17  19
ENDBRANCH  16  17
ENDBRANCH  14  16
ENDBRANCH   1  14
TORSDOF 6
