REMARK  8 active torsions:
REMARK  status: ('A' for Active; 'I' for Inactive)
REMARK    1  A    between atoms: C2_2  and  C4_4 
REMARK    2  A    between atoms: C4_4  and  C5_5 
REMARK    3  A    between atoms: C5_5  and  O1_6 
REMARK    4  A    between atoms: O1_6  and  C6_7 
REMARK    5  A    between atoms: C7_8  and  C8_9 
REMARK    6  A    between atoms: C8_9  and  N1_10 
REMARK    7  A    between atoms: C11_13  and  N2_14 
REMARK    8  A    between atoms: C15_18  and  C16_19 
ROOT
HETATM    1  N1  UNL     1       0.053   0.792  -0.834  1.00  0.00    -0.406 N 
HETATM    2  C9  UNL     1       0.594  -0.247   0.117  1.00  0.00     0.119 C 
HETATM    3  C10 UNL     1       1.992  -0.538  -0.368  1.00  0.00     0.044 C 
HETATM    4  C11 UNL     1       2.789   0.743  -0.448  1.00  0.00     0.082 C 
HETATM    5  C18 UNL     1       1.964   1.826   0.171  1.00  0.00     0.044 C 
HETATM    6  C19 UNL     1       0.688   1.992  -0.687  1.00  0.00     0.119 C 
ENDROOT
BRANCH   1   7
HETATM    7  C8  UNL     1      -1.344   0.525  -0.911  1.00  0.00     0.185 C 
BRANCH   7   8
HETATM    8  C7  UNL     1      -2.184   1.491  -0.149  1.00  0.00     0.107 A 
HETATM    9  C6  UNL     1      -3.069   1.267   0.818  1.00  0.00     0.125 A 
HETATM   10  C21 UNL     1      -3.668   2.500   1.152  1.00  0.00     0.115 A 
HETATM   11  C20 UNL     1      -3.041   3.385   0.320  1.00  0.00     0.169 A 
HETATM   12 CL2  UNL     1      -4.968   2.698   2.297  1.00  0.00    -0.077 Cl
HETATM   13  O4  UNL     1      -2.182   2.763  -0.419  1.00  0.00    -0.296 OA
HETATM   14 CL1  UNL     1      -3.351   5.129   0.252  1.00  0.00    -0.054 Cl
BRANCH   9  15
HETATM   15  O1  UNL     1      -3.487   0.106   1.511  1.00  0.00    -0.347 OA
BRANCH  15  16
HETATM   16  C5  UNL     1      -4.623  -0.581   1.199  1.00  0.00     0.176 C 
BRANCH  16  17
HETATM   17  C4  UNL     1      -4.701  -1.257  -0.099  1.00  0.00     0.030 C 
BRANCH  17  18
HETATM   18  C2  UNL     1      -6.158  -1.618  -0.444  1.00  0.00    -0.021 C 
HETATM   19  C1  UNL     1      -6.840  -2.507   0.509  1.00  0.00     0.009 C 
HETATM   20  C3  UNL     1      -6.942  -0.291  -0.525  1.00  0.00     0.009 C 
ENDBRANCH  17  18
ENDBRANCH  16  17
ENDBRANCH  15  16
ENDBRANCH   9  15
ENDBRANCH   7   8
ENDBRANCH   1   7
BRANCH   4  21
HETATM   21  N2  UNL     1       4.131   0.601  -0.031  1.00  0.00    -0.407 N 
HETATM   22  C12 UNL     1       4.357   0.191   1.311  1.00  0.00     0.117 C 
HETATM   23  C13 UNL     1       4.864  -1.193   1.475  1.00  0.00     0.020 C 
HETATM   24  C14 UNL     1       5.458  -1.843   0.292  1.00  0.00     0.019 C 
HETATM   25  C15 UNL     1       5.948  -0.908  -0.783  1.00  0.00     0.104 C 
HETATM   26  C17 UNL     1       5.109   0.285  -1.010  1.00  0.00     0.132 C 
BRANCH  25  27
HETATM   27  C16 UNL     1       7.406  -0.610  -0.608  1.00  0.00     0.178 C 
HETATM   28  O2  UNL     1       8.208  -0.751  -1.553  1.00  0.00    -0.648 OA
HETATM   29  O3  UNL     1       7.913  -0.172   0.603  1.00  0.00    -0.648 OA
ENDBRANCH  25  27
ENDBRANCH   4  21
TORSDOF 8
