REMARK  9 active torsions:
REMARK  status: ('A' for Active; 'I' for Inactive)
REMARK    1  A    between atoms: C2_2  and  C3_3 
REMARK    2  A    between atoms: C2_2  and  C17_28 
REMARK       I    between atoms: C3_3  and  N1_5 
REMARK    3  A    between atoms: N1_5  and  C4_6 
REMARK    4  A    between atoms: N1_5  and  C14_25 
REMARK    5  A    between atoms: C4_6  and  C5_7 
REMARK    6  A    between atoms: C5_7  and  O2_8 
REMARK    7  A    between atoms: O2_8  and  C6_9 
REMARK    8  A    between atoms: C6_9  and  C7_13 
REMARK    9  A    between atoms: C8_16  and  N4_17 
ROOT
HETATM    1  O2  UNL     1       1.580   0.009  -0.671  1.00  0.00    -0.333 OA
ENDROOT
BRANCH   1   2
HETATM    2  C5  UNL     1       0.364   0.742  -0.443  1.00  0.00     0.197 C 
BRANCH   2   3
HETATM    3  C4  UNL     1      -0.603   0.278  -1.538  1.00  0.00     0.153 C 
BRANCH   3   4
HETATM    4  N1  UNL     1      -1.885   0.923  -1.453  1.00  0.00    -0.345 N 
HETATM    5  C3  UNL     1      -2.933   0.370  -0.705  1.00  0.00     0.224 C 
HETATM    6  O1  UNL     1      -4.020   1.037  -0.673  1.00  0.00    -0.273 OA
BRANCH   5   7
HETATM    7  C2  UNL     1      -2.915  -0.901   0.047  1.00  0.00     0.078 C 
HETATM    8  C1  UNL     1      -2.805  -2.116  -0.845  1.00  0.00     0.020 C 
BRANCH   7   9
HETATM    9  C17 UNL     1      -4.096  -1.045   1.009  1.00  0.00    -0.002 C 
HETATM   10  C18 UNL     1      -5.398  -1.196   0.321  1.00  0.00     0.005 C 
HETATM   11  C19 UNL     1      -6.537  -0.413   0.924  1.00  0.00     0.000 C 
HETATM   12  C20 UNL     1      -6.440  -0.650   2.433  1.00  0.00     0.000 C 
HETATM   13  C21 UNL     1      -5.274   0.171   2.894  1.00  0.00     0.000 C 
HETATM   14  C22 UNL     1      -4.034  -0.054   2.118  1.00  0.00     0.005 C 
ENDBRANCH   7   9
ENDBRANCH   5   7
BRANCH   4  15
HETATM   15  C14 UNL     1      -2.079   2.170  -2.159  1.00  0.00     0.087 A 
HETATM   16  C15 UNL     1      -1.714   2.078  -3.664  1.00  0.00     0.027 A 
HETATM   17  C16 UNL     1      -0.996   2.981  -2.705  1.00  0.00     0.027 A 
ENDBRANCH   4  15
ENDBRANCH   3   4
ENDBRANCH   2   3
ENDBRANCH   1   2
BRANCH   1  18
HETATM   18  C6  UNL     1       2.681   0.160   0.121  1.00  0.00     0.165 C 
HETATM   19  N2  UNL     1       2.557   0.752   1.254  1.00  0.00    -0.378 N 
ATOM     20  H22 UNL     1       1.644   1.100   1.546  1.00  0.00     0.158 HD
ATOM     21  H21 UNL     1       3.380   0.865   1.846  1.00  0.00     0.158 HD
BRANCH  18  22
HETATM   22  C7  UNL     1       4.007  -0.345  -0.303  1.00  0.00     0.106 A 
HETATM   23  N3  UNL     1       5.063  -0.177   0.503  1.00  0.00    -0.336 N 
HETATM   24  C8  UNL     1       6.328  -0.600   0.214  1.00  0.00     0.125 A 
ATOM     25  H3  UNL     1       4.912   0.299   1.392  1.00  0.00     0.168 HD
HETATM   26  C11 UNL     1       6.464  -1.230  -0.993  1.00  0.00     0.079 A 
HETATM   27 CL1  UNL     1       8.019  -1.828  -1.506  1.00  0.00    -0.080 Cl
HETATM   28  C12 UNL     1       5.412  -1.438  -1.876  1.00  0.00     0.054 A 
HETATM   29  C13 UNL     1       4.172  -0.974  -1.495  1.00  0.00     0.066 A 
HETATM   30 CL2  UNL     1       2.830  -1.226  -2.594  1.00  0.00    -0.082 Cl
BRANCH  24  31
HETATM   31  N4  UNL     1       7.387  -0.385   1.118  1.00  0.00    -0.375 N 
HETATM   32  C9  UNL     1       7.040   0.326   2.365  1.00  0.00     0.150 C 
HETATM   33  C10 UNL     1       8.753  -0.771   0.979  1.00  0.00     0.150 C 
ENDBRANCH  24  31
ENDBRANCH  18  22
ENDBRANCH   1  18
TORSDOF 9
