REMARK  9 active torsions:
REMARK  status: ('A' for Active; 'I' for Inactive)
REMARK    1  A    between atoms: C1_2  and  O2_3 
REMARK       I    between atoms: C1_2  and  N1_13 
REMARK    2  A    between atoms: O2_3  and  C2_4 
REMARK    3  A    between atoms: C2_4  and  C3_5 
REMARK    4  A    between atoms: N1_13  and  C9_14 
REMARK    5  A    between atoms: N1_13  and  C17_25 
REMARK    6  A    between atoms: C9_14  and  C10_15 
REMARK    7  A    between atoms: C10_15  and  C11_16 
REMARK    8  A    between atoms: C11_16  and  C12_17 
REMARK    9  A    between atoms: C12_17  and  N2_18 
ROOT
HETATM    1  O1  UNL     1      -3.279  -0.662   1.012  1.00  0.00    -0.238 OA
HETATM    2  C1  UNL     1      -2.107  -0.221   1.154  1.00  0.00     0.363 C 
HETATM    3  N1  UNL     1      -0.978  -0.945   0.619  1.00  0.00    -0.323 N 
ENDROOT
BRANCH   3   4
HETATM    4  C9  UNL     1       0.336  -0.398   0.809  1.00  0.00     0.129 C 
BRANCH   4   5
HETATM    5  C10 UNL     1       0.695   0.504  -0.335  1.00  0.00     0.022 C 
BRANCH   5   6
HETATM    6  C11 UNL     1       2.045   1.121  -0.184  1.00  0.00     0.032 C 
BRANCH   6   7
HETATM    7  C12 UNL     1       3.186   0.160  -0.081  1.00  0.00     0.272 C 
BRANCH   7   8
HETATM    8  N2  UNL     1       4.394   0.941   0.058  1.00  0.00     0.091 N 
HETATM    9  C13 UNL     1       4.729   1.664  -1.119  1.00  0.00     0.291 C 
HETATM   10  C14 UNL     1       6.186   1.633  -1.486  1.00  0.00     0.144 C 
HETATM   11  N3  UNL     1       7.095   1.735  -0.396  1.00  0.00    -0.418 N 
HETATM   12  C15 UNL     1       6.582   1.296   0.873  1.00  0.00     0.144 C 
ATOM     13  H3  UNL     1       8.043   2.094  -0.507  1.00  0.00     0.153 HD
HETATM   14  C16 UNL     1       5.477   0.272   0.706  1.00  0.00     0.291 C 
ENDBRANCH   7   8
ENDBRANCH   6   7
ENDBRANCH   5   6
ENDBRANCH   4   5
ENDBRANCH   3   4
BRANCH   3  15
HETATM   15  C17 UNL     1      -1.145  -2.186  -0.091  1.00  0.00     0.089 C 
HETATM   16  C18 UNL     1      -1.917  -1.986  -1.345  1.00  0.00     0.025 C 
HETATM   17  C19 UNL     1      -2.462  -3.255  -1.945  1.00  0.00     0.002 C 
HETATM   18  C20 UNL     1      -1.988  -4.484  -1.197  1.00  0.00     0.000 C 
HETATM   19  C21 UNL     1      -2.465  -4.319   0.231  1.00  0.00     0.002 C 
HETATM   20  C22 UNL     1      -1.696  -3.212   0.862  1.00  0.00     0.025 C 
ENDBRANCH   3  15
BRANCH   2  21
HETATM   21  O2  UNL     1      -1.929   0.960   1.827  1.00  0.00    -0.299 OA
BRANCH  21  22
HETATM   22  C2  UNL     1      -2.981   1.718   2.367  1.00  0.00     0.219 C 
BRANCH  22  23
HETATM   23  C3  UNL     1      -3.951   2.175   1.346  1.00  0.00    -0.032 A 
HETATM   24  C4  UNL     1      -3.531   3.149   0.457  1.00  0.00     0.011 A 
HETATM   25  C5  UNL     1      -4.422   3.603  -0.510  1.00  0.00     0.026 A 
HETATM   26  C6  UNL     1      -5.703   3.091  -0.583  1.00  0.00     0.055 A 
HETATM   27 CL1  UNL     1      -6.834   3.668  -1.815  1.00  0.00    -0.083 Cl
HETATM   28  C7  UNL     1      -6.141   2.118   0.294  1.00  0.00     0.056 A 
HETATM   29 CL2  UNL     1      -7.760   1.500   0.170  1.00  0.00    -0.083 Cl
HETATM   30  C8  UNL     1      -5.231   1.682   1.251  1.00  0.00     0.035 A 
ENDBRANCH  22  23
ENDBRANCH  21  22
ENDBRANCH   2  21
TORSDOF 9
