REMARK  9 active torsions:
REMARK  status: ('A' for Active; 'I' for Inactive)
REMARK    1  A    between atoms: C2_2  and  C3_3 
REMARK    2  A    between atoms: C3_3  and  N1_4 
REMARK    3  A    between atoms: N1_4  and  C4_6 
REMARK    4  A    between atoms: N4_18  and  C10_19 
REMARK    5  A    between atoms: N5_22  and  C13_23 
REMARK    6  A    between atoms: C13_23  and  C14_24 
REMARK    7  A    between atoms: C14_24  and  O1_25 
REMARK    8  A    between atoms: O1_25  and  C15_26 
REMARK    9  A    between atoms: C15_26  and  C16_27 
ROOT
HETATM    1  C4  UNL     1       5.775  -0.192   0.273  1.00  0.00     0.117 A 
HETATM    2  N2  UNL     1       5.916  -1.417  -0.247  1.00  0.00    -0.338 N 
ATOM      3  H2  UNL     1       6.835  -1.852  -0.326  1.00  0.00     0.168 HD
HETATM    4  C5  UNL     1       4.797  -2.064  -0.667  1.00  0.00     0.183 A 
HETATM    5  N3  UNL     1       3.577  -1.509  -0.572  1.00  0.00    -0.338 N 
ATOM      6  H3  UNL     1       2.768  -2.036  -0.901  1.00  0.00     0.168 HD
HETATM    7  C6  UNL     1       3.389  -0.285  -0.059  1.00  0.00     0.126 A 
HETATM    8  C7  UNL     1       4.524   0.390   0.376  1.00  0.00     0.077 A 
HETATM    9  C8  UNL     1       4.049   1.595   0.846  1.00  0.00     0.090 A 
HETATM   10 CL1  UNL     1       5.051   2.856   1.521  1.00  0.00    -0.080 Cl
HETATM   11  C9  UNL     1       2.680   1.658   0.707  1.00  0.00     0.130 A 
HETATM   12 CL2  UNL     1       1.614   2.970   1.153  1.00  0.00    -0.062 Cl
HETATM   13  N4  UNL     1       2.295   0.506   0.155  1.00  0.00    -0.316 N 
ENDROOT
BRANCH  13  14
HETATM   14  C10 UNL     1       0.947   0.110  -0.181  1.00  0.00     0.096 C 
HETATM   15  C11 UNL     1       0.071  -0.032   1.047  1.00  0.00     0.045 C 
HETATM   16  C12 UNL     1      -1.399   0.100   0.702  1.00  0.00     0.124 C 
HETATM   17  N5  UNL     1      -1.667  -0.374  -0.602  1.00  0.00    -0.391 N 
HETATM   18  C21 UNL     1      -0.980   0.320  -1.656  1.00  0.00     0.124 C 
HETATM   19  C22 UNL     1       0.261   1.022  -1.151  1.00  0.00     0.045 C 
BRANCH  17  20
HETATM   20  C13 UNL     1      -2.972  -0.802  -0.919  1.00  0.00     0.084 C 
BRANCH  20  21
HETATM   21  C14 UNL     1      -4.037   0.263  -0.969  1.00  0.00     0.211 C 
BRANCH  21  22
HETATM   22  O1  UNL     1      -4.323   0.948   0.115  1.00  0.00    -0.386 OA
BRANCH  22  23
HETATM   23  C15 UNL     1      -4.856   0.572   1.255  1.00  0.00     0.172 C 
BRANCH  23  24
HETATM   24  C16 UNL     1      -6.252   0.080   1.363  1.00  0.00     0.009 C 
HETATM   25  C17 UNL     1      -6.571  -1.138   0.598  1.00  0.00     0.007 C 
HETATM   26  C18 UNL     1      -7.688  -0.781  -0.375  1.00  0.00     0.000 C 
HETATM   27  C19 UNL     1      -8.368   0.385   0.324  1.00  0.00     0.000 C 
HETATM   28  C20 UNL     1      -7.279   1.141   1.024  1.00  0.00     0.007 C 
ENDBRANCH  23  24
ENDBRANCH  22  23
ENDBRANCH  21  22
ENDBRANCH  20  21
ENDBRANCH  17  20
ENDBRANCH  13  14
BRANCH   1  29
HETATM   29  N1  UNL     1       6.806   0.442   0.679  1.00  0.00    -0.375 N 
ATOM     30  H1  UNL     1       6.697   1.376   1.075  1.00  0.00     0.161 HD
BRANCH  29  31
HETATM   31  C3  UNL     1       8.120  -0.138   0.588  1.00  0.00     0.121 C 
BRANCH  31  32
HETATM   32  C2  UNL     1       8.764   0.081  -0.768  1.00  0.00     0.015 C 
HETATM   33  C1  UNL     1       8.888   1.575  -1.018  1.00  0.00     0.006 C 
ENDBRANCH  31  32
ENDBRANCH  29  31
ENDBRANCH   1  29
TORSDOF 9
