REMARK  11 active torsions:
REMARK  status: ('A' for Active; 'I' for Inactive)
REMARK    1  A    between atoms: C2_2  and  C3_3 
REMARK    2  A    between atoms: C4_4  and  O1_5 
REMARK    3  A    between atoms: C6_8  and  O2_9 
REMARK    4  A    between atoms: O2_9  and  C7_10 
REMARK    5  A    between atoms: C7_10  and  C8_11 
REMARK    6  A    between atoms: C8_11  and  N1_12 
REMARK    7  A    between atoms: N1_12  and  C10_14 
REMARK    8  A    between atoms: C10_14  and  C11_15 
REMARK    9  A    between atoms: C11_15  and  O4_17 
REMARK   10  A    between atoms: O4_17  and  C12_18 
REMARK   11  A    between atoms: C21_28  and  C22_29 
ROOT
HETATM    1  C7  UNL     1      -0.046   0.332   0.289  1.00  0.00     0.220 C 
ENDROOT
BRANCH   1   2
HETATM    2  O2  UNL     1      -1.206  -0.387   0.472  1.00  0.00    -0.346 OA
BRANCH   2   3
HETATM    3  C6  UNL     1      -2.461  -0.188  -0.040  1.00  0.00     0.072 A 
HETATM    4  C5  UNL     1      -2.728   0.828  -0.914  1.00  0.00     0.073 A 
HETATM    5  C4  UNL     1      -4.030   0.966  -1.384  1.00  0.00     0.075 A 
HETATM    6  C3  UNL     1      -5.063   0.092  -0.984  1.00  0.00    -0.016 A 
HETATM    7  C21 UNL     1      -4.806  -0.924  -0.114  1.00  0.00    -0.008 A 
HETATM    8  C20 UNL     1      -3.493  -1.032   0.336  1.00  0.00     0.048 A 
BRANCH   5   9
HETATM    9  O1  UNL     1      -4.265   2.007  -2.270  1.00  0.00    -0.360 OA
ATOM     10  H1  UNL     1      -3.570   2.595  -2.539  1.00  0.00     0.217 HD
ENDBRANCH   5   9
BRANCH   6  11
HETATM   11  C2  UNL     1      -6.383   0.305  -1.546  1.00  0.00     0.037 C 
HETATM   12  C1  UNL     1      -6.507  -0.134  -2.994  1.00  0.00     0.010 C 
ENDBRANCH   6  11
BRANCH   7  13
HETATM   13  C22 UNL     1      -5.831  -1.834   0.353  1.00  0.00     0.124 C 
HETATM   14  C23 UNL     1      -6.988  -1.335   1.118  1.00  0.00     0.057 C 
HETATM   15  C24 UNL     1      -6.285  -2.809  -0.760  1.00  0.00     0.057 C 
HETATM   16  F1  UNL     1      -5.194  -2.720   1.258  1.00  0.00    -0.238 F 
ENDBRANCH   7  13
ENDBRANCH   2   3
ENDBRANCH   1   2
BRANCH   1  17
HETATM   17  C8  UNL     1      -0.071   1.719   0.836  1.00  0.00     0.089 C 
BRANCH  17  18
HETATM   18  N1  UNL     1       1.076   2.485   0.658  1.00  0.00    -0.367 N 
HETATM   19  C9  UNL     1       1.491   2.920  -0.601  1.00  0.00     0.154 C 
BRANCH  18  20
HETATM   20  C10 UNL     1       1.991   2.717   1.691  1.00  0.00     0.172 C 
BRANCH  20  21
HETATM   21  C11 UNL     1       2.758   1.544   2.121  1.00  0.00     0.299 C 
HETATM   22  O3  UNL     1       2.342   0.792   2.998  1.00  0.00    -0.259 OA
BRANCH  21  23
HETATM   23  O4  UNL     1       3.964   1.115   1.665  1.00  0.00    -0.310 OA
BRANCH  23  24
HETATM   24  C12 UNL     1       4.768   0.095   1.952  1.00  0.00     0.155 C 
HETATM   25  C13 UNL     1       4.652  -0.797   0.690  1.00  0.00     0.017 C 
HETATM   26  C14 UNL     1       5.604  -1.932   0.717  1.00  0.00     0.012 C 
HETATM   27  C18 UNL     1       5.403   0.191  -0.230  1.00  0.00     0.014 C 
HETATM   28  C15 UNL     1       6.977  -1.389   0.271  1.00  0.00    -0.013 C 
HETATM   29  C16 UNL     1       7.237  -1.610  -1.172  1.00  0.00     0.010 C 
HETATM   30  C17 UNL     1       6.704   0.092   0.591  1.00  0.00     0.011 C 
HETATM   31  C19 UNL     1       6.232   0.170   2.006  1.00  0.00     0.116 C 
HETATM   32 CL1  UNL     1       6.970   1.440   2.955  1.00  0.00    -0.122 Cl
ENDBRANCH  23  24
ENDBRANCH  21  23
ENDBRANCH  20  21
ENDBRANCH  18  20
ENDBRANCH  17  18
ENDBRANCH   1  17
TORSDOF 11
