REMARK  1 active torsions:
REMARK  status: ('A' for Active; 'I' for Inactive)
REMARK    1  A    between atoms: O1_1  and  C1_3 
ROOT
HETATM    1  C1  UNL     1      -0.324   1.908   0.145  1.00  0.00     0.122 C 
HETATM    2  C2  UNL     1      -1.205   3.102   0.304  1.00  0.00     0.032 C 
HETATM    3  C3  UNL     1      -2.321   3.212  -0.668  1.00  0.00     0.002 C 
HETATM    4  C4  UNL     1      -3.367   2.159  -0.602  1.00  0.00     0.000 C 
HETATM    5  C5  UNL     1      -3.749   1.721   0.788  1.00  0.00     0.000 C 
HETATM    6  C6  UNL     1      -4.462   0.391   0.687  1.00  0.00     0.000 C 
HETATM    7  C7  UNL     1      -3.612  -0.683   1.304  1.00  0.00     0.000 C 
HETATM    8  C8  UNL     1      -3.799  -2.038   0.672  1.00  0.00     0.000 C 
HETATM    9  C9  UNL     1      -3.503  -2.095  -0.774  1.00  0.00     0.002 C 
HETATM   10  C10 UNL     1      -2.441  -3.004  -1.225  1.00  0.00     0.030 C 
HETATM   11  C11 UNL     1      -1.277  -3.194  -0.321  1.00  0.00     0.272 C 
HETATM   12  N1  UNL     1      -0.477  -1.988  -0.229  1.00  0.00     0.090 N 
HETATM   13  C12 UNL     1       0.177  -1.690  -1.479  1.00  0.00     0.272 C 
HETATM   14  C13 UNL     1      -0.146  -0.291  -1.964  1.00  0.00     0.031 C 
HETATM   15  C14 UNL     1       0.961   0.638  -1.602  1.00  0.00     0.009 C 
HETATM   16  C15 UNL     1       0.503   1.981  -1.100  1.00  0.00     0.016 C 
HETATM   17  C16 UNL     1       1.678   2.893  -0.974  1.00  0.00     0.033 C 
HETATM   18  C17 UNL     1       2.794   2.391  -0.132  1.00  0.00     0.168 C 
HETATM   19  O2  UNL     1       4.037   2.418  -0.783  1.00  0.00    -0.389 OA
HETATM   20  C18 UNL     1       4.960   1.925   0.166  1.00  0.00     0.193 C 
HETATM   21  C19 UNL     1       5.008   0.430   0.191  1.00  0.00     0.193 C 
HETATM   22  O3  UNL     1       4.360  -0.088   1.315  1.00  0.00    -0.387 OA
HETATM   23  C20 UNL     1       4.693  -1.399   1.551  1.00  0.00     0.193 C 
HETATM   24  C21 UNL     1       3.493  -2.300   1.755  1.00  0.00     0.193 C 
HETATM   25  O4  UNL     1       2.787  -2.412   0.561  1.00  0.00    -0.387 OA
HETATM   26  C22 UNL     1       1.549  -3.000   0.738  1.00  0.00     0.198 C 
HETATM   27  C23 UNL     1       0.433  -2.016   0.889  1.00  0.00     0.298 C 
ENDROOT
BRANCH   1  28
HETATM   28  O1  UNL     1       0.484   1.850   1.306  1.00  0.00    -0.395 OA
ATOM     29  H1  UNL     1       1.045   1.090   1.205  1.00  0.00     0.210 HD
ENDBRANCH   1  28
TORSDOF 1
