REMARK  2 active torsions:
REMARK  status: ('A' for Active; 'I' for Inactive)
REMARK    1  A    between atoms: C18_21  and  O4_23 
REMARK    2  A    between atoms: C21_25  and  O5_26 
ROOT
HETATM    1  C1  UNL     1      -4.861   1.143  -0.558  1.00  0.00     0.015 C 
HETATM    2  C2  UNL     1      -3.886   0.475  -0.033  1.00  0.00    -0.080 C 
HETATM    3  C3  UNL     1      -3.936  -0.922   0.494  1.00  0.00     0.039 C 
HETATM    4  C4  UNL     1      -2.817  -1.701  -0.100  1.00  0.00    -0.006 C 
HETATM    5  C5  UNL     1      -1.572  -1.833   0.791  1.00  0.00     0.016 C 
HETATM    6  C6  UNL     1      -0.633  -0.707   0.515  1.00  0.00    -0.022 C 
HETATM    7  C7  UNL     1      -0.284  -0.197   1.884  1.00  0.00     0.021 C 
HETATM    8  C8  UNL     1       0.936   0.611   1.687  1.00  0.00     0.049 C 
HETATM    9  C9  UNL     1       0.919   1.651   0.597  1.00  0.00     0.267 C 
HETATM   10  O1  UNL     1      -0.249   2.273   0.492  1.00  0.00    -0.361 OA
HETATM   11  C10 UNL     1      -0.839   2.688  -0.623  1.00  0.00     0.172 C 
HETATM   12  C11 UNL     1      -2.338   2.334  -0.751  1.00  0.00     0.040 C 
HETATM   13  C12 UNL     1      -2.476   1.065   0.132  1.00  0.00    -0.015 C 
HETATM   14  C13 UNL     1      -2.731   1.609   1.452  1.00  0.00     0.020 C 
HETATM   15  C14 UNL     1      -1.518   0.113  -0.356  1.00  0.00     0.011 C 
HETATM   16  C15 UNL     1      -2.263  -0.906  -1.235  1.00  0.00    -0.008 C 
HETATM   17  C16 UNL     1      -1.664  -1.782  -2.176  1.00  0.00     0.011 C 
HETATM   18  O2  UNL     1       1.521   1.246  -0.576  1.00  0.00    -0.330 OA
HETATM   19  C17 UNL     1       1.306  -0.009  -1.012  1.00  0.00     0.276 C 
HETATM   20  O3  UNL     1       2.556  -0.601  -1.384  1.00  0.00    -0.322 OA
HETATM   21  C18 UNL     1       3.588  -0.206  -0.558  1.00  0.00     0.189 C 
HETATM   22  C19 UNL     1       4.716  -1.224  -0.796  1.00  0.00     0.082 C 
HETATM   23  C21 UNL     1       3.086  -0.225   0.828  1.00  0.00     0.185 C 
HETATM   24  C22 UNL     1       1.741  -0.590   1.143  1.00  0.00     0.042 C 
HETATM   25  C23 UNL     1       0.751  -0.970   0.010  1.00  0.00     0.021 C 
HETATM   26  C24 UNL     1       1.145  -2.337  -0.353  1.00  0.00     0.022 C 
ENDROOT
BRANCH  21  27
HETATM   27  O4  UNL     1       4.035   1.012  -1.042  1.00  0.00    -0.358 OA
HETATM   28  C20 UNL     1       5.072   1.597  -0.384  1.00  0.00     0.205 C 
ENDBRANCH  21  27
BRANCH  23  29
HETATM   29  O5  UNL     1       3.973  -1.056   1.567  1.00  0.00    -0.390 OA
ATOM     30  H5  UNL     1       3.650  -1.068   2.460  1.00  0.00     0.210 HD
ENDBRANCH  23  29
TORSDOF 2
