REMARK  2 active torsions:
REMARK  status: ('A' for Active; 'I' for Inactive)
REMARK    1  A    between atoms: N1_1  and  N2_4 
REMARK    2  A    between atoms: N4_9  and  C2_10 
ROOT
HETATM    1  N2  UNL     1       2.720   0.333  -0.135  1.00  0.00    -0.182 N 
HETATM    2  C1  UNL     1       2.262   1.577  -0.340  1.00  0.00     0.216 A 
HETATM    3  S1  UNL     1       3.224   2.863  -0.603  1.00  0.00    -0.037 SA
HETATM    4  N3  UNL     1       0.928   1.520  -0.282  1.00  0.00    -0.263 N 
ATOM      5  H3  UNL     1       0.310   2.323  -0.402  1.00  0.00     0.190 HD
HETATM    6  N4  UNL     1       0.516   0.291  -0.049  1.00  0.00    -0.196 N 
HETATM    7  C7  UNL     1       1.636  -0.442   0.041  1.00  0.00     0.369 A 
HETATM    8  O2  UNL     1       1.671  -1.687   0.261  1.00  0.00    -0.242 OA
ENDROOT
BRANCH   6   9
HETATM    9  C2  UNL     1      -0.844  -0.094   0.068  1.00  0.00     0.129 A 
HETATM   10  C3  UNL     1      -1.714   0.451   0.993  1.00  0.00     0.039 A 
HETATM   11  C4  UNL     1      -3.028   0.048   1.072  1.00  0.00     0.020 A 
HETATM   12  C5  UNL     1      -3.525  -0.920   0.226  1.00  0.00     0.091 A 
HETATM   13  N5  UNL     1      -2.678  -1.445  -0.669  1.00  0.00    -0.332 N 
HETATM   14  C6  UNL     1      -1.400  -1.061  -0.754  1.00  0.00     0.274 A 
ATOM     15  H5  UNL     1      -3.020  -2.163  -1.308  1.00  0.00     0.168 HD
HETATM   16  O1  UNL     1      -0.596  -1.565  -1.609  1.00  0.00    -0.266 OA
ENDBRANCH   6   9
BRANCH   1  17
HETATM   17  N1  UNL     1       4.067  -0.095  -0.107  1.00  0.00    -0.332 N 
ATOM     18  H12 UNL     1       4.890   0.493  -0.241  1.00  0.00     0.177 HD
ATOM     19  H11 UNL     1       4.415  -1.041   0.049  1.00  0.00     0.177 HD
ENDBRANCH   1  17
TORSDOF 2
