REMARK  4 active torsions:
REMARK  status: ('A' for Active; 'I' for Inactive)
REMARK       I    between atoms: N1_2  and  C2_4 
REMARK       I    between atoms: C2_4  and  N2_6 
REMARK    1  A    between atoms: N2_6  and  N3_8 
REMARK    2  A    between atoms: N3_8  and  C3_10 
REMARK    3  A    between atoms: C3_10  and  O2_12 
REMARK    4  A    between atoms: O2_12  and  N4_13 
ROOT
HETATM    1  N4  UNL     1       3.225   0.168   1.000  1.00  0.00    -0.238 N 
ATOM      2  H4  UNL     1       2.813   0.188   1.933  1.00  0.00     0.196 HD
HETATM    3  C4  UNL     1       4.450   0.519   0.805  1.00  0.00     0.215 C 
HETATM    4  C5  UNL     1       5.279   0.953   1.905  1.00  0.00     0.131 C 
HETATM    5  N5  UNL     1       5.932   1.314   2.794  1.00  0.00    -0.189 NA
HETATM    6  C6  UNL     1       5.048   0.498  -0.498  1.00  0.00     0.131 C 
HETATM    7  N6  UNL     1       5.554   0.478  -1.554  1.00  0.00    -0.189 NA
ENDROOT
BRANCH   1   8
HETATM    8  O2  UNL     1       2.495  -0.233  -0.087  1.00  0.00    -0.204 OA
BRANCH   8   9
HETATM    9  C3  UNL     1       1.219  -0.738   0.022  1.00  0.00     0.254 C 
HETATM   10  S1  UNL     1       1.000  -2.276   0.459  1.00  0.00    -0.029 SA
BRANCH   9  11
HETATM   11  N3  UNL     1       0.119   0.095  -0.250  1.00  0.00    -0.265 N 
ATOM     12  H3  UNL     1       0.253   1.068  -0.527  1.00  0.00     0.190 HD
BRANCH  11  13
HETATM   13  N2  UNL     1      -1.175  -0.454  -0.129  1.00  0.00    -0.249 N 
HETATM   14  C2  UNL     1      -2.326   0.312  -0.431  1.00  0.00     0.334 C 
HETATM   15  N1  UNL     1      -3.631  -0.249  -0.306  1.00  0.00    -0.346 N 
HETATM   16  O1  UNL     1      -2.153   1.502  -0.812  1.00  0.00    -0.246 OA
HETATM   17  C1  UNL     1      -4.807   0.523  -0.612  1.00  0.00     0.151 C 
ATOM     18  H1  UNL     1      -3.733  -1.215   0.006  1.00  0.00     0.163 HD
ATOM     19  H2  UNL     1      -1.283  -1.420   0.181  1.00  0.00     0.192 HD
ENDBRANCH  11  13
ENDBRANCH   9  11
ENDBRANCH   8   9
ENDBRANCH   1   8
TORSDOF 4
