REMARK  12 active torsions:
REMARK  status: ('A' for Active; 'I' for Inactive)
REMARK    1  A    between atoms: C2_2  and  C4_4 
REMARK    2  A    between atoms: C4_4  and  N1_5 
REMARK    3  A    between atoms: C4_4  and  C10_14 
REMARK       I    between atoms: N1_5  and  C5_7 
REMARK    4  A    between atoms: C5_7  and  O2_9 
REMARK    5  A    between atoms: O2_9  and  C6_10 
REMARK       I    between atoms: C10_14  and  N2_16 
REMARK    6  A    between atoms: N2_16  and  C11_18 
REMARK    7  A    between atoms: C11_18  and  C12_19 
REMARK    8  A    between atoms: C11_18  and  C22_35 
REMARK    9  A    between atoms: C12_19  and  O4_20 
REMARK   10  A    between atoms: C12_19  and  N3_22 
REMARK   11  A    between atoms: C15_25  and  C16_26 
REMARK       I    between atoms: C16_26  and  N4_28 
REMARK   12  A    between atoms: N4_28  and  C17_30 
ROOT
HETATM    1  C11 UNL     1       0.646   1.635  -1.181  1.00  0.00     0.162 C 
ENDROOT
BRANCH   1   2
HETATM    2  N2  UNL     1      -0.690   1.492  -1.743  1.00  0.00    -0.347 N 
HETATM    3  C10 UNL     1      -1.910   1.148  -1.205  1.00  0.00     0.241 C 
HETATM    4  O3  UNL     1      -2.102   0.845  -0.019  1.00  0.00    -0.271 OA
ATOM      5  H2  UNL     1      -0.730   1.687  -2.743  1.00  0.00     0.163 HD
BRANCH   3   6
HETATM    6  C4  UNL     1      -3.131   1.118  -2.089  1.00  0.00     0.182 C 
BRANCH   6   7
HETATM    7  C2  UNL     1      -3.612   2.451  -2.513  1.00  0.00     0.009 C 
HETATM    8  C1  UNL     1      -3.944   3.354  -1.344  1.00  0.00     0.012 C 
HETATM    9  C3  UNL     1      -2.688   3.192  -3.413  1.00  0.00     0.012 C 
ENDBRANCH   6   7
BRANCH   6  10
HETATM   10  N1  UNL     1      -4.200   0.461  -1.300  1.00  0.00    -0.323 N 
HETATM   11  C5  UNL     1      -4.452  -0.914  -1.397  1.00  0.00     0.362 C 
HETATM   12  O1  UNL     1      -3.737  -1.611  -2.161  1.00  0.00    -0.238 OA
ATOM     13  H1  UNL     1      -4.768   1.026  -0.669  1.00  0.00     0.165 HD
BRANCH  11  14
HETATM   14  O2  UNL     1      -5.451  -1.549  -0.692  1.00  0.00    -0.294 OA
BRANCH  14  15
HETATM   15  C6  UNL     1      -5.712  -2.919  -0.749  1.00  0.00     0.061 C 
HETATM   16  C7  UNL     1      -6.939  -3.197   0.124  1.00  0.00     0.046 C 
HETATM   17  C8  UNL     1      -4.587  -3.729  -0.099  1.00  0.00     0.046 C 
HETATM   18  C9  UNL     1      -5.987  -3.379  -2.134  1.00  0.00     0.046 C 
ENDBRANCH  14  15
ENDBRANCH  11  14
ENDBRANCH   6  10
ENDBRANCH   3   6
ENDBRANCH   1   2
BRANCH   1  19
HETATM   19  C12 UNL     1       0.599   2.188   0.153  1.00  0.00     0.138 C 
BRANCH  19  20
HETATM   20  O4  UNL     1      -0.537   2.722   0.497  1.00  0.00    -0.348 OA
ATOM     21  H4  UNL     1      -0.568   3.086   1.374  1.00  0.00     0.219 HD
ENDBRANCH  19  20
BRANCH  19  22
HETATM   22  N3  UNL     1       1.568   2.260   1.168  1.00  0.00    -0.350 N 
HETATM   23  C13 UNL     1       1.517   2.804   2.538  1.00  0.00     0.128 C 
HETATM   24  C14 UNL     1       2.992   3.033   2.472  1.00  0.00     0.055 C 
HETATM   25  C15 UNL     1       2.928   1.924   1.395  1.00  0.00     0.179 C 
BRANCH  25  26
HETATM   26  C16 UNL     1       3.229   0.645   2.096  1.00  0.00     0.241 C 
HETATM   27  O5  UNL     1       2.410  -0.020   2.726  1.00  0.00    -0.271 OA
HETATM   28  N4  UNL     1       4.565   0.171   2.017  1.00  0.00    -0.355 N 
ATOM     29  H4  UNL     1       5.234   0.731   1.489  1.00  0.00     0.162 HD
BRANCH  28  30
HETATM   30  C17 UNL     1       5.050  -1.048   2.630  1.00  0.00     0.084 C 
HETATM   31  C18 UNL     1       5.364  -2.006   1.477  1.00  0.00     0.025 C 
HETATM   32  C19 UNL     1       6.839  -2.232   1.523  1.00  0.00     0.002 C 
HETATM   33  C20 UNL     1       7.258  -1.927   2.922  1.00  0.00     0.002 C 
HETATM   34  C21 UNL     1       6.322  -0.851   3.383  1.00  0.00     0.025 C 
ENDBRANCH  28  30
ENDBRANCH  25  26
ENDBRANCH  19  22
ENDBRANCH   1  19
BRANCH   1  35
HETATM   35  C22 UNL     1       1.365   0.379  -1.481  1.00  0.00     0.008 C 
HETATM   36  C23 UNL     1       0.819  -0.878  -0.860  1.00  0.00     0.012 C 
HETATM   37  C24 UNL     1       2.839   0.432  -1.667  1.00  0.00     0.012 C 
ENDBRANCH   1  35
TORSDOF 12
