REMARK  8 active torsions:
REMARK  status: ('A' for Active; 'I' for Inactive)
REMARK    1  A    between atoms: C2_2  and  C3_3 
REMARK    2  A    between atoms: C2_2  and  C9_9 
REMARK    3  A    between atoms: C9_9  and  C10_10 
REMARK    4  A    between atoms: C10_10  and  N1_11 
REMARK    5  A    between atoms: N1_11  and  C11_14 
REMARK    6  A    between atoms: C16_19  and  C17_20 
REMARK       I    between atoms: C17_20  and  N2_22 
REMARK    7  A    between atoms: N3_27  and  C21_28 
REMARK    8  A    between atoms: C22_30  and  O4_32 
ROOT
HETATM    1  C9  UNL     1      -1.927   0.900   0.742  1.00  0.00    -0.013 C 
HETATM    2  C14 UNL     1      -0.689   1.791   0.426  1.00  0.00     0.012 C 
HETATM    3  C15 UNL     1       0.553   0.943   0.309  1.00  0.00     0.015 C 
HETATM    4  C16 UNL     1       0.991   0.473   1.691  1.00  0.00     0.078 C 
HETATM    5  C26 UNL     1      -0.202   0.580   2.587  1.00  0.00     0.015 C 
HETATM    6  C27 UNL     1      -1.470   0.114   1.940  1.00  0.00     0.012 C 
ENDROOT
BRANCH   4   7
HETATM    7  C17 UNL     1       1.502  -0.916   1.644  1.00  0.00     0.224 C 
HETATM    8  O1  UNL     1       0.852  -1.838   2.260  1.00  0.00    -0.273 OA
HETATM    9  N2  UNL     1       2.685  -1.230   0.933  1.00  0.00    -0.349 N 
HETATM   10  C18 UNL     1       3.261  -2.546   0.788  1.00  0.00     0.142 C 
HETATM   11  C25 UNL     1       3.532  -0.307   0.243  1.00  0.00     0.152 C 
HETATM   12  C19 UNL     1       4.723  -2.313   0.594  1.00  0.00     0.120 C 
HETATM   13  C20 UNL     1       5.166  -2.187  -0.819  1.00  0.00     0.230 C 
HETATM   14  C24 UNL     1       4.931  -0.818   0.595  1.00  0.00     0.122 C 
HETATM   15  O2  UNL     1       5.040  -2.864  -1.861  1.00  0.00    -0.273 OA
HETATM   16  N3  UNL     1       5.807  -0.963  -0.521  1.00  0.00    -0.313 N 
BRANCH  16  17
HETATM   17  C21 UNL     1       6.881  -0.213  -1.107  1.00  0.00     0.292 A 
HETATM   18  O3  UNL     1       6.930  -0.183  -2.491  1.00  0.00    -0.321 OA
HETATM   19  C22 UNL     1       7.909  -0.933  -1.889  1.00  0.00     0.205 A 
HETATM   20  C23 UNL     1       9.322  -0.346  -1.793  1.00  0.00     0.084 C 
BRANCH  19  21
HETATM   21  O4  UNL     1       7.860  -2.302  -1.949  1.00  0.00    -0.362 OA
ATOM     22  H4  UNL     1       8.520  -2.765  -2.451  1.00  0.00     0.213 HD
ENDBRANCH  19  21
ENDBRANCH  16  17
ENDBRANCH   4   7
BRANCH   1  23
HETATM   23  C2  UNL     1      -2.253   0.088  -0.440  1.00  0.00    -0.004 C 
HETATM   24  C1  UNL     1      -2.448   0.940  -1.721  1.00  0.00     0.011 C 
BRANCH  23  25
HETATM   25  C3  UNL     1      -3.484  -0.793  -0.389  1.00  0.00    -0.010 C 
HETATM   26  C4  UNL     1      -3.615  -1.748   0.724  1.00  0.00     0.005 C 
HETATM   27  C5  UNL     1      -4.957  -2.481   0.638  1.00  0.00     0.000 C 
HETATM   28  C6  UNL     1      -5.218  -3.086  -0.689  1.00  0.00     0.000 C 
HETATM   29  C7  UNL     1      -4.951  -2.122  -1.830  1.00  0.00     0.000 C 
HETATM   30  C8  UNL     1      -3.530  -1.624  -1.698  1.00  0.00     0.005 C 
ENDBRANCH  23  25
ENDBRANCH   1  23
BRANCH   1  31
HETATM   31  C10 UNL     1      -2.970   1.883   1.183  1.00  0.00     0.242 C 
BRANCH  31  32
HETATM   32  N1  UNL     1      -3.339   2.881   0.239  1.00  0.00    -0.070 N 
ATOM     33  H12 UNL     1      -2.530   3.406  -0.092  1.00  0.00     0.277 HD
ATOM     34  H11 UNL     1      -3.630   2.472  -0.649  1.00  0.00     0.277 HD
BRANCH  32  35
HETATM   35  C11 UNL     1      -4.360   3.755   0.790  1.00  0.00     0.186 A 
HETATM   36  C12 UNL     1      -4.855   4.877  -0.143  1.00  0.00     0.035 A 
HETATM   37  C13 UNL     1      -4.049   5.182   1.078  1.00  0.00     0.035 A 
ENDBRANCH  32  35
ENDBRANCH  31  32
ENDBRANCH   1  31
TORSDOF 8
