REMARK  12 active torsions:
REMARK  status: ('A' for Active; 'I' for Inactive)
REMARK    1  A    between atoms: C2_2  and  O1_3 
REMARK    2  A    between atoms: O1_3  and  C3_4 
REMARK    3  A    between atoms: C3_4  and  C4_6 
REMARK    4  A    between atoms: C4_6  and  C28_34 
REMARK    5  A    between atoms: C10_12  and  C29_37 
REMARK    6  A    between atoms: C13_15  and  C14_16 
REMARK    7  A    between atoms: C13_15  and  C26_32 
REMARK    8  A    between atoms: C14_16  and  C15_17 
REMARK       I    between atoms: C15_17  and  N1_19 
REMARK    9  A    between atoms: N1_19  and  C16_21 
REMARK   10  A    between atoms: N2_24  and  C19_25 
REMARK   11  A    between atoms: C19_25  and  C20_26 
REMARK   12  A    between atoms: C28_34  and  O4_35 
ROOT
HETATM    1  C4  UNL     1      -4.632  -0.122  -0.703  1.00  0.00     0.080 C 
HETATM    2  C5  UNL     1      -3.784  -1.085   0.137  1.00  0.00     0.023 C 
HETATM    3  C6  UNL     1      -2.328  -0.970  -0.138  1.00  0.00     0.007 C 
HETATM    4  C7  UNL     1      -1.901   0.080  -1.104  1.00  0.00    -0.001 C 
HETATM    5  C8  UNL     1      -2.837   0.289  -2.258  1.00  0.00    -0.004 C 
HETATM    6  C9  UNL     1      -4.173  -0.388  -2.122  1.00  0.00     0.028 C 
HETATM    7  C10 UNL     1      -3.166   1.769  -2.376  1.00  0.00    -0.003 C 
HETATM    8  C11 UNL     1      -1.885   2.476  -2.731  1.00  0.00     0.006 C 
HETATM    9  C12 UNL     1      -0.883   2.218  -1.607  1.00  0.00     0.011 C 
HETATM   10  C13 UNL     1      -1.496   1.382  -0.500  1.00  0.00    -0.024 C 
ENDROOT
BRANCH  10  11
HETATM   11  C14 UNL     1      -0.569   1.324   0.645  1.00  0.00     0.113 C 
BRANCH  11  12
HETATM   12  C15 UNL     1       0.752   0.711   0.474  1.00  0.00     0.218 C 
HETATM   13  O3  UNL     1       1.113   0.277  -0.649  1.00  0.00    -0.274 OA
HETATM   14  N1  UNL     1       1.670   0.591   1.591  1.00  0.00    -0.356 N 
ATOM     15  H1  UNL     1       1.371   0.945   2.500  1.00  0.00     0.162 HD
BRANCH  14  16
HETATM   16  C16 UNL     1       2.954   0.012   1.491  1.00  0.00     0.087 C 
HETATM   17  C17 UNL     1       3.129  -1.300   2.219  1.00  0.00     0.055 C 
HETATM   18  C18 UNL     1       4.422  -1.892   1.626  1.00  0.00     0.275 C 
HETATM   19  N2  UNL     1       5.560  -1.055   2.052  1.00  0.00     0.091 N 
HETATM   20  C24 UNL     1       5.380   0.249   1.399  1.00  0.00     0.275 C 
HETATM   21  C25 UNL     1       4.098   0.923   1.848  1.00  0.00     0.055 C 
BRANCH  19  22
HETATM   22  C19 UNL     1       6.748  -1.677   1.509  1.00  0.00     0.300 C 
BRANCH  22  23
HETATM   23  C20 UNL     1       6.850  -1.600   0.038  1.00  0.00     0.005 C 
HETATM   24  C21 UNL     1       7.879  -1.006  -0.523  1.00  0.00    -0.090 C 
HETATM   25  C22 UNL     1       8.942  -0.412   0.311  1.00  0.00     0.042 C 
HETATM   26  C23 UNL     1       7.977  -0.927  -2.001  1.00  0.00     0.042 C 
ENDBRANCH  22  23
ENDBRANCH  19  22
ENDBRANCH  14  16
ENDBRANCH  11  12
ENDBRANCH  10  11
BRANCH  10  27
HETATM   27  C26 UNL     1      -2.690   2.228  -0.061  1.00  0.00     0.005 C 
HETATM   28  C27 UNL     1      -3.653   1.637   0.891  1.00  0.00     0.045 C 
HETATM   29  C28 UNL     1      -4.538   1.284  -0.284  1.00  0.00     0.079 C 
HETATM   30  C29 UNL     1      -3.757   2.228  -1.104  1.00  0.00     0.031 C 
BRANCH  29  31
HETATM   31  O4  UNL     1      -5.831   1.817  -0.051  1.00  0.00    -0.388 OA
ATOM     32  H4  UNL     1      -5.770   2.726   0.220  1.00  0.00     0.210 HD
ENDBRANCH  29  31
ENDBRANCH  10  27
BRANCH   1  33
HETATM   33  C3  UNL     1      -6.024  -0.633  -0.590  1.00  0.00     0.270 C 
HETATM   34  O2  UNL     1      -6.649  -0.972  -1.621  1.00  0.00    -0.264 OA
BRANCH  33  35
HETATM   35  O1  UNL     1      -6.665  -0.749   0.636  1.00  0.00    -0.321 OA
BRANCH  35  36
HETATM   36  C2  UNL     1      -7.989  -1.232   0.756  1.00  0.00     0.174 C 
HETATM   37  C1  UNL     1      -8.054  -2.618   0.215  1.00  0.00     0.034 C 
ENDBRANCH  35  36
ENDBRANCH  33  35
ENDBRANCH   1  33
TORSDOF 12
