REMARK  9 active torsions:
REMARK  status: ('A' for Active; 'I' for Inactive)
REMARK    1  A    between atoms: C2_2  and  C3_3 
REMARK    2  A    between atoms: C3_3  and  N1_5 
REMARK    3  A    between atoms: C7_8  and  N2_9 
REMARK    4  A    between atoms: C10_14  and  N4_15 
REMARK       I    between atoms: N4_15  and  C11_16 
REMARK    5  A    between atoms: C11_16  and  C12_18 
REMARK    6  A    between atoms: C15_21  and  C16_22 
REMARK    7  A    between atoms: C16_22  and  O2_23 
REMARK    8  A    between atoms: N5_26  and  C18_27 
REMARK    9  A    between atoms: C18_27  and  C19_28 
ROOT
HETATM    1  N4  UNL     1       0.556   0.105   0.072  1.00  0.00    -0.350 NA
HETATM    2  C11 UNL     1      -0.060  -1.021  -0.189  1.00  0.00     0.299 C 
HETATM    3  O1  UNL     1       0.573  -2.144  -0.268  1.00  0.00    -0.257 OA
ENDROOT
BRANCH   2   4
HETATM    4  C12 UNL     1      -1.538  -1.192  -0.425  1.00  0.00     0.121 C 
HETATM    5  C13 UNL     1      -1.793  -2.577  -0.951  1.00  0.00     0.017 C 
HETATM    6  C14 UNL     1      -2.992  -2.510  -1.842  1.00  0.00     0.009 C 
HETATM    7  C15 UNL     1      -4.302  -2.652  -1.160  1.00  0.00     0.037 C 
HETATM    8  C17 UNL     1      -4.420  -2.080   0.210  1.00  0.00     0.279 C 
HETATM    9  N5  UNL     1      -3.702  -0.893   0.472  1.00  0.00     0.090 N 
HETATM   10  C25 UNL     1      -2.305  -1.108   0.885  1.00  0.00     0.287 C 
BRANCH   7  11
HETATM   11  C16 UNL     1      -4.743  -4.128  -1.131  1.00  0.00     0.170 C 
BRANCH  11  12
HETATM   12  O2  UNL     1      -4.837  -4.542  -2.454  1.00  0.00    -0.400 OA
ATOM     13  H2  UNL     1      -5.109  -5.452  -2.436  1.00  0.00     0.209 HD
ENDBRANCH  11  12
ENDBRANCH   7  11
BRANCH   9  14
HETATM   14  C18 UNL     1      -4.335   0.090   1.284  1.00  0.00     0.277 C 
BRANCH  14  15
HETATM   15  C19 UNL     1      -5.503   0.786   0.670  1.00  0.00     0.014 C 
HETATM   16  C20 UNL     1      -5.131   1.519  -0.603  1.00  0.00     0.006 C 
HETATM   17  C21 UNL     1      -6.356   2.162  -1.179  1.00  0.00     0.000 C 
HETATM   18  C22 UNL     1      -7.515   2.191  -0.223  1.00  0.00     0.000 C 
HETATM   19  C23 UNL     1      -7.110   2.602   1.171  1.00  0.00     0.000 C 
HETATM   20  C24 UNL     1      -5.886   1.901   1.663  1.00  0.00     0.006 C 
ENDBRANCH  14  15
ENDBRANCH   9  14
ENDBRANCH   2   4
BRANCH   1  21
HETATM   21  C10 UNL     1       1.139   1.135   0.302  1.00  0.00     0.201 A 
HETATM   22  N2  UNL     1       2.357   1.529  -0.101  1.00  0.00    -0.260 N 
HETATM   23  N3  UNL     1       2.580   2.752   0.325  1.00  0.00    -0.307 N 
HETATM   24  C8  UNL     1       1.540   3.218   1.020  1.00  0.00     0.112 A 
ATOM     25  H3  UNL     1       3.436   3.277   0.148  1.00  0.00     0.186 HD
HETATM   26  C9  UNL     1       0.617   2.243   1.033  1.00  0.00     0.084 A 
BRANCH  22  27
HETATM   27  C7  UNL     1       3.356   0.779  -0.863  1.00  0.00     0.117 C 
HETATM   28  C6  UNL     1       4.593   1.627  -0.945  1.00  0.00     0.071 C 
HETATM   29  C5  UNL     1       5.728   0.803  -1.435  1.00  0.00     0.060 C 
HETATM   30  N1  UNL     1       6.099  -0.191  -0.525  1.00  0.00    -0.389 N 
HETATM   31  C27 UNL     1       5.044  -0.770   0.247  1.00  0.00     0.124 C 
HETATM   32  C26 UNL     1       3.681  -0.512  -0.218  1.00  0.00     0.047 C 
BRANCH  30  33
HETATM   33  C3  UNL     1       7.364  -0.180   0.085  1.00  0.00     0.079 C 
HETATM   34  C4  UNL     1       7.673   1.056   0.922  1.00  0.00     0.032 C 
BRANCH  33  35
HETATM   35  C2  UNL     1       8.512  -0.345  -0.896  1.00  0.00     0.020 C 
HETATM   36  C1  UNL     1       9.820  -0.538  -0.137  1.00  0.00     0.007 C 
ENDBRANCH  33  35
ENDBRANCH  30  33
ENDBRANCH  22  27
ENDBRANCH   1  21
TORSDOF 9
