REMARK  13 active torsions:
REMARK  status: ('A' for Active; 'I' for Inactive)
REMARK    1  A    between atoms: C2_2  and  C3_3 
REMARK    2  A    between atoms: C3_3  and  C4_4 
REMARK       I    between atoms: C4_4  and  N1_6 
REMARK    3  A    between atoms: N1_6  and  C5_8 
REMARK    4  A    between atoms: C8_13  and  C9_14 
REMARK    5  A    between atoms: C9_14  and  C10_15 
REMARK    6  A    between atoms: C10_15  and  C11_16 
REMARK    7  A    between atoms: C11_16  and  C12_17 
REMARK    8  A    between atoms: C12_17  and  C13_18 
REMARK    9  A    between atoms: C14_23  and  N5_24 
REMARK       I    between atoms: N5_24  and  C15_26 
REMARK   10  A    between atoms: C15_26  and  C16_28 
REMARK   11  A    between atoms: C16_28  and  C17_29 
REMARK   12  A    between atoms: C16_28  and  C24_36 
REMARK   13  A    between atoms: C28_42  and  C29_43 
ROOT
HETATM    1  C13 UNL     1      -0.210  -0.074   0.428  1.00  0.00     0.058 A 
HETATM    2  N3  UNL     1      -1.090  -0.898  -0.236  1.00  0.00    -0.288 N 
ATOM      3  H3  UNL     1      -0.776  -1.832  -0.499  1.00  0.00     0.187 HD
HETATM    4  N4  UNL     1      -2.318  -0.538  -0.548  1.00  0.00    -0.132 N 
ATOM      5  H4  UNL     1      -2.917  -1.200  -1.041  1.00  0.00     0.205 HD
HETATM    6  C14 UNL     1      -2.802   0.668  -0.238  1.00  0.00     0.700 A 
HETATM    7  N6  UNL     1      -1.938   1.476   0.416  1.00  0.00    -0.183 N 
ATOM      8  H6  UNL     1      -2.273   2.405   0.670  1.00  0.00     0.184 HD
HETATM    9  C28 UNL     1      -0.663   1.161   0.765  1.00  0.00     0.138 A 
ENDROOT
BRANCH   1  10
HETATM   10  C12 UNL     1       1.166  -0.558   0.672  1.00  0.00     0.061 C 
BRANCH  10  11
HETATM   11  C11 UNL     1       2.069  -0.027  -0.412  1.00  0.00     0.006 C 
BRANCH  11  12
HETATM   12  C10 UNL     1       3.497  -0.441  -0.230  1.00  0.00     0.006 C 
BRANCH  12  13
HETATM   13  C9  UNL     1       4.294   0.146  -1.402  1.00  0.00     0.048 C 
BRANCH  13  14
HETATM   14  C8  UNL     1       5.723  -0.285  -1.165  1.00  0.00     0.008 A 
HETATM   15  C6  UNL     1       6.621   0.242  -0.272  1.00  0.00     0.020 A 
HETATM   16  N2  UNL     1       7.810  -0.289  -0.225  1.00  0.00    -0.339 N 
HETATM   17  C7  UNL     1       6.194   1.412   0.606  1.00  0.00     0.069 C 
HETATM   18  C5  UNL     1       8.090  -1.305  -1.036  1.00  0.00     0.151 A 
ATOM     19  H2  UNL     1       8.513   0.068   0.422  1.00  0.00     0.168 HD
HETATM   20  S1  UNL     1       6.635  -1.525  -1.898  1.00  0.00    -0.057 SA
BRANCH  18  21
HETATM   21  N1  UNL     1       9.227  -1.970  -1.131  1.00  0.00    -0.307 N 
HETATM   22  C4  UNL     1      10.287  -1.592  -0.295  1.00  0.00     0.223 C 
HETATM   23  O1  UNL     1      10.197  -1.816   0.934  1.00  0.00    -0.273 OA
ATOM     24  H1  UNL     1       9.331  -2.738  -1.795  1.00  0.00     0.171 HD
BRANCH  22  25
HETATM   25  C3  UNL     1      11.481  -0.940  -0.874  1.00  0.00     0.103 C 
BRANCH  25  26
HETATM   26  C2  UNL     1      12.431  -0.595   0.253  1.00  0.00     0.005 C 
HETATM   27  C1  UNL     1      12.827  -1.866   0.961  1.00  0.00     0.005 C 
ENDBRANCH  25  26
ENDBRANCH  22  25
ENDBRANCH  18  21
ENDBRANCH  13  14
ENDBRANCH  12  13
ENDBRANCH  11  12
ENDBRANCH  10  11
ENDBRANCH   1  10
BRANCH   9  28
HETATM   28  C29 UNL     1       0.120   2.120   1.508  1.00  0.00     0.284 C 
HETATM   29  N7  UNL     1       1.343   1.921   2.121  1.00  0.00    -0.056 NA
HETATM   30  O3  UNL     1      -0.378   3.305   1.623  1.00  0.00    -0.269 OA
ENDBRANCH   9  28
BRANCH   6  31
HETATM   31  N5  UNL     1      -3.962   1.031  -0.546  1.00  0.00    -0.158 N 
HETATM   32  C15 UNL     1      -4.956   0.388  -1.208  1.00  0.00     0.241 C 
HETATM   33  O2  UNL     1      -4.751  -0.387  -2.216  1.00  0.00    -0.272 OA
ATOM     34  H5  UNL     1      -4.200   1.976  -0.246  1.00  0.00     0.187 HD
BRANCH  32  35
HETATM   35  C16 UNL     1      -6.434   0.499  -0.850  1.00  0.00     0.090 C 
BRANCH  35  36
HETATM   36  C17 UNL     1      -6.548  -0.179   0.471  1.00  0.00     0.003 C 
HETATM   37  C18 UNL     1      -7.838  -0.253   1.153  1.00  0.00     0.006 C 
HETATM   38  C19 UNL     1      -8.722  -1.437   0.763  1.00  0.00     0.005 C 
HETATM   39  C20 UNL     1      -7.852  -2.651   0.598  1.00  0.00    -0.014 C 
HETATM   40  C21 UNL     1      -7.023  -2.390  -0.668  1.00  0.00     0.010 C 
HETATM   41  C23 UNL     1      -6.522  -2.537   1.338  1.00  0.00     0.010 C 
HETATM   42  C22 UNL     1      -6.068  -1.625   0.220  1.00  0.00    -0.009 C 
ENDBRANCH  35  36
BRANCH  35  43
HETATM   43  C24 UNL     1      -6.731   1.969  -0.892  1.00  0.00    -0.039 C 
HETATM   44  C25 UNL     1      -6.365   2.394  -2.330  1.00  0.00     0.015 C 
HETATM   45  C26 UNL     1      -8.227   2.274  -0.829  1.00  0.00     0.015 C 
HETATM   46  C27 UNL     1      -5.942   2.824   0.035  1.00  0.00     0.015 C 
ENDBRANCH  35  43
ENDBRANCH  32  35
ENDBRANCH   6  31
TORSDOF 13
