REMARK  11 active torsions:
REMARK  status: ('A' for Active; 'I' for Inactive)
REMARK    1  A    between atoms: C3_3  and  C5_5 
REMARK    2  A    between atoms: C5_5  and  O2_7 
REMARK    3  A    between atoms: O2_7  and  C6_8 
REMARK    4  A    between atoms: C19_21  and  O3_22 
REMARK    5  A    between atoms: O3_22  and  C20_23 
REMARK       I    between atoms: C20_23  and  N1_25 
REMARK    6  A    between atoms: N1_25  and  C21_27 
REMARK    7  A    between atoms: C21_27  and  C23_29 
REMARK       I    between atoms: C23_29  and  N2_31 
REMARK    8  A    between atoms: N2_31  and  C24_33 
REMARK    9  A    between atoms: C24_33  and  C25_34 
REMARK   10  A    between atoms: C24_33  and  C32_41 
REMARK   11  A    between atoms: C25_34  and  C26_35 
REMARK       I    between atoms: C32_41  and  N3_43 
ROOT
HETATM    1  C20 UNL     1       0.392  -0.487   0.111  1.00  0.00     0.361 C 
HETATM    2  O4  UNL     1       0.164   0.746   0.029  1.00  0.00    -0.238 OA
HETATM    3  N1  UNL     1       1.691  -0.979   0.446  1.00  0.00    -0.324 N 
ATOM      4  H1  UNL     1       1.837  -1.987   0.503  1.00  0.00     0.165 HD
ENDROOT
BRANCH   1   5
HETATM    5  O3  UNL     1      -0.620  -1.353  -0.125  1.00  0.00    -0.298 OA
BRANCH   5   6
HETATM    6  C19 UNL     1      -1.979  -0.982  -0.467  1.00  0.00     0.142 C 
HETATM    7  C8  UNL     1      -2.800  -1.561   0.658  1.00  0.00     0.018 C 
HETATM    8  C7  UNL     1      -4.192  -1.094   0.768  1.00  0.00     0.040 C 
HETATM    9  C9  UNL     1      -2.638  -3.060   0.572  1.00  0.00     0.012 C 
HETATM   10  C6  UNL     1      -4.570   0.168   0.061  1.00  0.00     0.140 C 
HETATM   11  C14 UNL     1      -4.918   0.060  -1.370  1.00  0.00    -0.021 C 
HETATM   12  C13 UNL     1      -4.843  -1.307  -1.971  1.00  0.00     0.016 C 
HETATM   13  C15 UNL     1      -6.404   0.411  -1.504  1.00  0.00     0.017 C 
HETATM   14  C16 UNL     1      -4.226   1.101  -2.263  1.00  0.00     0.017 C 
HETATM   15  C12 UNL     1      -3.624  -2.030  -2.158  1.00  0.00    -0.007 C 
HETATM   16  C11 UNL     1      -3.816  -3.461  -1.615  1.00  0.00     0.010 C 
HETATM   17  C17 UNL     1      -2.278  -1.583  -1.766  1.00  0.00     0.020 C 
HETATM   18  C10 UNL     1      -2.575  -3.638  -0.780  1.00  0.00    -0.013 C 
HETATM   19  C18 UNL     1      -1.587  -2.968  -1.724  1.00  0.00     0.012 C 
BRANCH  10  20
HETATM   20  O2  UNL     1      -5.628   0.755   0.849  1.00  0.00    -0.311 OA
BRANCH  20  21
HETATM   21  C5  UNL     1      -5.541   1.938   1.510  1.00  0.00     0.289 C 
HETATM   22  O1  UNL     1      -4.408   2.540   1.380  1.00  0.00    -0.260 OA
BRANCH  21  23
HETATM   23  C3  UNL     1      -6.596   2.500   2.296  1.00  0.00     0.009 C 
HETATM   24  C2  UNL     1      -7.765   1.977   2.506  1.00  0.00    -0.018 C 
HETATM   25  C1  UNL     1      -8.187   0.673   1.957  1.00  0.00     0.036 C 
HETATM   26  C4  UNL     1      -6.360   3.847   2.950  1.00  0.00     0.054 C 
ENDBRANCH  21  23
ENDBRANCH  20  21
ENDBRANCH  10  20
ENDBRANCH   5   6
ENDBRANCH   1   5
BRANCH   3  27
HETATM   27  C21 UNL     1       2.800  -0.099   0.705  1.00  0.00     0.174 C 
HETATM   28  C22 UNL     1       3.221  -0.156   2.170  1.00  0.00     0.042 C 
BRANCH  27  29
HETATM   29  C23 UNL     1       3.959  -0.484  -0.120  1.00  0.00     0.240 C 
HETATM   30  O5  UNL     1       3.891  -1.476  -0.909  1.00  0.00    -0.271 OA
HETATM   31  N2  UNL     1       5.196   0.215  -0.085  1.00  0.00    -0.346 N 
ATOM     32  H2  UNL     1       5.284   1.018   0.538  1.00  0.00     0.163 HD
BRANCH  31  33
HETATM   33  C24 UNL     1       6.341  -0.161  -0.896  1.00  0.00     0.180 C 
BRANCH  33  34
HETATM   34  C25 UNL     1       7.495  -0.614  -0.038  1.00  0.00     0.073 C 
BRANCH  34  35
HETATM   35  C26 UNL     1       7.974   0.399   0.917  1.00  0.00    -0.056 A 
HETATM   36  C27 UNL     1       7.361   0.486   2.152  1.00  0.00     0.007 A 
HETATM   37  C28 UNL     1       7.739   1.390   3.123  1.00  0.00     0.001 A 
HETATM   38  C29 UNL     1       8.788   2.231   2.795  1.00  0.00     0.000 A 
HETATM   39  C30 UNL     1       9.415   2.166   1.575  1.00  0.00     0.001 A 
HETATM   40  C31 UNL     1       9.007   1.241   0.620  1.00  0.00     0.007 A 
ENDBRANCH  34  35
ENDBRANCH  33  34
BRANCH  33  41
HETATM   41  C32 UNL     1       6.760   0.907  -1.792  1.00  0.00     0.240 C 
HETATM   42  O6  UNL     1       6.175   2.029  -1.767  1.00  0.00    -0.271 OA
HETATM   43  N3  UNL     1       7.823   0.702  -2.702  1.00  0.00    -0.364 N 
HETATM   44  C33 UNL     1       8.279   1.723  -3.615  1.00  0.00     0.149 C 
ATOM     45  H3  UNL     1       8.287  -0.206  -2.714  1.00  0.00     0.161 HD
ENDBRANCH  33  41
ENDBRANCH  31  33
ENDBRANCH  27  29
ENDBRANCH   3  27
TORSDOF 11
