REMARK  4 active torsions:
REMARK  status: ('A' for Active; 'I' for Inactive)
REMARK    1  A    between atoms: N1_2  and  C2_4 
REMARK    2  A    between atoms: C3_7  and  N3_8 
REMARK    3  A    between atoms: N3_8  and  C4_10 
REMARK    4  A    between atoms: C7_13  and  C8_14 
ROOT
HETATM    1  C8  UNL     1       4.247  -0.549  -0.153  1.00  0.00    -0.005 A 
HETATM    2  C9  UNL     1       4.988  -1.720  -0.039  1.00  0.00     0.014 A 
HETATM    3  C10 UNL     1       6.322  -1.772  -0.388  1.00  0.00     0.001 A 
HETATM    4  C11 UNL     1       6.957  -0.647  -0.864  1.00  0.00     0.002 A 
HETATM    5  C12 UNL     1       6.228   0.526  -0.982  1.00  0.00     0.023 A 
HETATM    6  C13 UNL     1       4.875   0.580  -0.629  1.00  0.00     0.055 A 
HETATM    7  C14 UNL     1       4.220   1.843  -0.807  1.00  0.00     0.100 C 
HETATM    8  N4  UNL     1       3.696   2.844  -0.970  1.00  0.00    -0.191 NA
ENDROOT
BRANCH   1   9
HETATM    9  C7  UNL     1       2.850  -0.498   0.228  1.00  0.00    -0.024 A 
HETATM   10  C6  UNL     1       1.957  -1.437  -0.246  1.00  0.00     0.014 A 
HETATM   11  C5  UNL     1       0.616  -1.404   0.123  1.00  0.00     0.031 A 
HETATM   12  C4  UNL     1       0.128  -0.436   0.974  1.00  0.00     0.039 A 
HETATM   13  C16 UNL     1       1.045   0.483   1.428  1.00  0.00    -0.034 A 
HETATM   14  C15 UNL     1       2.372   0.471   1.077  1.00  0.00     0.021 A 
HETATM   15  C17 UNL     1       0.515   1.540   2.356  1.00  0.00     0.050 C 
BRANCH  12  16
HETATM   16  N3  UNL     1      -1.245  -0.451   1.315  1.00  0.00    -0.342 N 
ATOM     17  H3  UNL     1      -1.506  -0.788   2.242  1.00  0.00     0.167 HD
BRANCH  16  18
HETATM   18  C3  UNL     1      -2.184  -0.064   0.523  1.00  0.00     0.107 C 
HETATM   19  N2  UNL     1      -3.414  -0.163   1.050  1.00  0.00    -0.328 N 
HETATM   20  C2  UNL     1      -4.660  -0.003   0.457  1.00  0.00     0.123 C 
ATOM     21  H2  UNL     1      -3.438  -0.392   2.044  1.00  0.00     0.169 HD
HETATM   22  C21 UNL     1      -4.870  -0.111  -0.902  1.00  0.00     0.088 C 
HETATM   23  C20 UNL     1      -4.047   0.355  -1.919  1.00  0.00     0.027 C 
HETATM   24  C22 UNL     1      -6.063  -0.795  -1.305  1.00  0.00     0.103 C 
HETATM   25  C19 UNL     1      -2.676   0.584  -1.839  1.00  0.00     0.005 C 
HETATM   26  C18 UNL     1      -1.843   0.394  -0.728  1.00  0.00     0.048 C 
HETATM   27  N5  UNL     1      -7.006  -1.363  -1.635  1.00  0.00    -0.191 NA
BRANCH  20  28
HETATM   28  N1  UNL     1      -5.594   0.237   1.203  1.00  0.00    -0.379 N 
HETATM   29  C1  UNL     1      -6.957   0.468   1.091  1.00  0.00     0.147 C 
ATOM     30  H1  UNL     1      -5.290   0.280   2.176  1.00  0.00     0.160 HD
ENDBRANCH  20  28
ENDBRANCH  16  18
ENDBRANCH  12  16
ENDBRANCH   1   9
TORSDOF 4
