REMARK  3 active torsions:
REMARK  status: ('A' for Active; 'I' for Inactive)
REMARK    1  A    between atoms: C4_5  and  S1_6 
REMARK    2  A    between atoms: S1_6  and  N2_7 
REMARK    3  A    between atoms: C6_13  and  N3_14 
ROOT
HETATM    1  N3  UNL     1      -0.053  -1.308  -0.137  1.00  0.00    -0.353 N 
ATOM      2  H3  UNL     1      -0.326  -2.290  -0.103  1.00  0.00     0.166 HD
HETATM    3  C7  UNL     1      -1.021  -0.503  -0.023  1.00  0.00     0.055 A 
HETATM    4  C8  UNL     1      -1.120   0.943  -0.014  1.00  0.00     0.003 A 
HETATM    5  C9  UNL     1      -0.175   1.924  -0.129  1.00  0.00     0.014 A 
HETATM    6  C10 UNL     1      -0.553   3.256  -0.086  1.00  0.00     0.001 A 
HETATM    7  C11 UNL     1      -1.862   3.651   0.069  1.00  0.00     0.001 A 
HETATM    8  C12 UNL     1      -2.827   2.672   0.187  1.00  0.00     0.013 A 
HETATM    9  C13 UNL     1      -2.446   1.336   0.144  1.00  0.00    -0.013 A 
HETATM   10  C14 UNL     1      -3.247   0.107   0.242  1.00  0.00    -0.013 A 
HETATM   11  C15 UNL     1      -4.608  -0.071   0.405  1.00  0.00     0.013 A 
HETATM   12  C16 UNL     1      -5.137  -1.356   0.471  1.00  0.00     0.001 A 
HETATM   13  C17 UNL     1      -4.319  -2.462   0.375  1.00  0.00     0.001 A 
HETATM   14  C18 UNL     1      -2.964  -2.243   0.213  1.00  0.00     0.014 A 
HETATM   15  C19 UNL     1      -2.411  -0.984   0.144  1.00  0.00     0.003 A 
ENDROOT
BRANCH   1  16
HETATM   16  C6  UNL     1       1.304  -1.109  -0.299  1.00  0.00     0.058 A 
HETATM   17  C1  UNL     1       1.833  -1.021  -1.570  1.00  0.00     0.073 A 
HETATM   18  N1  UNL     1       0.993  -1.125  -2.736  1.00  0.00    -0.100 NA
HETATM   19  C2  UNL     1       3.191  -0.832  -1.689  1.00  0.00     0.030 A 
HETATM   20  C3  UNL     1       4.005  -0.732  -0.581  1.00  0.00     0.027 A 
HETATM   21  C4  UNL     1       3.499  -0.816   0.704  1.00  0.00     0.081 A 
HETATM   22  C5  UNL     1       2.138  -1.005   0.814  1.00  0.00     0.056 A 
BRANCH  21  23
HETATM   23  S1  UNL     1       4.536  -0.688   2.107  1.00  0.00     0.256 S 
HETATM   24  O1  UNL     1       3.982  -1.496   3.264  1.00  0.00    -0.201 OA
HETATM   25  O2  UNL     1       5.932  -1.156   1.803  1.00  0.00    -0.201 OA
BRANCH  23  26
HETATM   26  N2  UNL     1       4.651   0.984   2.586  1.00  0.00    -0.324 N 
ATOM     27  H22 UNL     1       4.181   1.755   2.112  1.00  0.00     0.169 HD
ATOM     28  H21 UNL     1       5.256   1.059   3.404  1.00  0.00     0.169 HD
ENDBRANCH  23  26
ENDBRANCH  21  23
ENDBRANCH   1  16
TORSDOF 3
