REMARK  2 active torsions:
REMARK  status: ('A' for Active; 'I' for Inactive)
REMARK    1  A    between atoms: N1_8  and  C8_9 
REMARK    2  A    between atoms: N4_20  and  C16_21 
ROOT
HETATM    1  C1  UNL     1      -4.052   4.182   1.171  1.00  0.00     0.048 C 
HETATM    2  C2  UNL     1      -2.963   3.286   0.687  1.00  0.00    -0.060 A 
HETATM    3  C3  UNL     1      -1.816   3.882   0.210  1.00  0.00     0.007 A 
HETATM    4  C4  UNL     1      -0.796   3.081  -0.243  1.00  0.00     0.015 A 
HETATM    5  C5  UNL     1      -0.935   1.720  -0.214  1.00  0.00     0.026 A 
HETATM    6  C6  UNL     1      -2.056   1.071   0.251  1.00  0.00     0.049 A 
HETATM    7  C7  UNL     1      -3.080   1.911   0.706  1.00  0.00     0.037 A 
HETATM    8  N1  UNL     1      -1.534  -0.226   0.001  1.00  0.00    -0.308 N 
HETATM    9  C14 UNL     1      -0.335   0.383  -0.501  1.00  0.00     0.204 A 
HETATM   10  N2  UNL     1       0.015   0.152  -1.847  1.00  0.00    -0.327 N 
ATOM     11  H2  UNL     1      -0.629   0.205  -2.636  1.00  0.00     0.165 HD
HETATM   12  C15 UNL     1       1.257  -0.133  -1.933  1.00  0.00     0.199 A 
HETATM   13  N3  UNL     1       1.890  -0.413  -3.171  1.00  0.00    -0.063 NA
HETATM   14  N4  UNL     1       1.896  -0.139  -0.666  1.00  0.00    -0.271 N 
HETATM   15  C22 UNL     1       0.885   0.183   0.269  1.00  0.00     0.140 A 
HETATM   16  N5  UNL     1       1.049   0.272   1.531  1.00  0.00    -0.384 N 
ATOM     17  H51 UNL     1       1.903   0.132   2.070  1.00  0.00     0.157 HD
ATOM     18  H52 UNL     1       0.320   0.504   2.205  1.00  0.00     0.157 HD
ENDROOT
BRANCH   8  19
HETATM   19  C8  UNL     1      -2.039  -1.541   0.192  1.00  0.00     0.038 A 
HETATM   20  C9  UNL     1      -3.308  -1.745   0.692  1.00  0.00     0.030 A 
HETATM   21  C10 UNL     1      -3.799  -3.021   0.879  1.00  0.00     0.002 A 
HETATM   22  C11 UNL     1      -3.017  -4.133   0.563  1.00  0.00     0.000 A 
HETATM   23  C12 UNL     1      -1.748  -3.934   0.062  1.00  0.00     0.002 A 
HETATM   24  C13 UNL     1      -1.251  -2.641  -0.126  1.00  0.00     0.030 A 
ENDBRANCH   8  19
BRANCH  14  25
HETATM   25  C16 UNL     1       3.270  -0.411  -0.364  1.00  0.00     0.043 A 
HETATM   26  C17 UNL     1       4.229   0.581  -0.328  1.00  0.00     0.030 A 
HETATM   27  C18 UNL     1       5.559   0.277  -0.029  1.00  0.00     0.002 A 
HETATM   28  C19 UNL     1       5.951  -1.020   0.238  1.00  0.00     0.000 A 
HETATM   29  C20 UNL     1       4.997  -2.015   0.204  1.00  0.00     0.002 A 
HETATM   30  C21 UNL     1       3.668  -1.703  -0.096  1.00  0.00     0.030 A 
ENDBRANCH  14  25
TORSDOF 2
