REMARK  13 active torsions:
REMARK  status: ('A' for Active; 'I' for Inactive)
REMARK    1  A    between atoms: N1_1  and  C1_5 
REMARK    2  A    between atoms: C1_5  and  C2_6 
REMARK    3  A    between atoms: C2_6  and  C3_7 
REMARK    4  A    between atoms: C2_6  and  N5_13 
REMARK    5  A    between atoms: C3_7  and  N2_8 
REMARK    6  A    between atoms: N5_13  and  C5_15 
REMARK    7  A    between atoms: C5_15  and  C6_16 
REMARK    8  A    between atoms: C6_16  and  O1_17 
REMARK    9  A    between atoms: O1_17  and  C7_18 
REMARK   10  A    between atoms: C8_22  and  C9_23 
REMARK   11  A    between atoms: C9_23  and  O2_24 
REMARK   12  A    between atoms: C10_26  and  N7_27 
REMARK   13  A    between atoms: C10_26  and  C11_31 
ROOT
HETATM    1  O1  UNL     1      -1.613   1.309  -1.473  1.00  0.00    -0.355 OA
ENDROOT
BRANCH   1   2
HETATM    2  C6  UNL     1      -0.322   1.759  -1.568  1.00  0.00     0.189 C 
BRANCH   2   3
HETATM    3  C5  UNL     1       0.693   1.133  -0.670  1.00  0.00     0.140 C 
BRANCH   3   4
HETATM    4  N5  UNL     1       0.789  -0.254  -0.919  1.00  0.00    -0.412 N 
ATOM      5  H5  UNL     1       0.196  -0.696  -1.621  1.00  0.00     0.153 HD
BRANCH   4   6
HETATM    6  C2  UNL     1       1.719  -1.022  -0.181  1.00  0.00     0.119 C 
BRANCH   6   7
HETATM    7  C1  UNL     1       1.533  -1.106   1.290  1.00  0.00     0.255 C 
BRANCH   7   8
HETATM    8  N1  UNL     1       1.857   0.090   2.027  1.00  0.00    -0.077 N 
ATOM      9  H13 UNL     1       2.810   0.385   1.812  1.00  0.00     0.274 HD
ATOM     10  H12 UNL     1       1.334   0.882   1.654  1.00  0.00     0.274 HD
ATOM     11  H11 UNL     1       1.729   0.032   3.037  1.00  0.00     0.274 HD
ENDBRANCH   7   8
ENDBRANCH   6   7
BRANCH   6  12
HETATM   12  C3  UNL     1       3.172  -0.701  -0.501  1.00  0.00     0.148 C 
BRANCH  12  13
HETATM   13  N2  UNL     1       4.065  -1.718   0.010  1.00  0.00    -0.365 N 
HETATM   14  C4  UNL     1       5.317  -1.430   0.196  1.00  0.00     0.197 C 
HETATM   15  N3  UNL     1       5.805  -0.131  -0.099  1.00  0.00    -0.067 NA
HETATM   16  N4  UNL     1       6.229  -2.398   0.695  1.00  0.00    -0.067 NA
ATOM     17  H2  UNL     1       3.714  -2.652   0.222  1.00  0.00     0.161 HD
ENDBRANCH  12  13
ENDBRANCH   6  12
ENDBRANCH   4   6
ENDBRANCH   3   4
ENDBRANCH   2   3
ENDBRANCH   1   2
BRANCH   1  18
HETATM   18  C7  UNL     1      -2.253   1.480  -0.282  1.00  0.00     0.369 C 
HETATM   19  N6  UNL     1      -3.473   2.311  -0.386  1.00  0.00    -0.036 N 
HETATM   20  C8  UNL     1      -4.295   1.128  -0.181  1.00  0.00     0.261 C 
ATOM     21  H62 UNL     1      -3.589   3.124   0.218  1.00  0.00     0.281 HD
ATOM     22  H61 UNL     1      -3.621   2.900  -1.206  1.00  0.00     0.281 HD
HETATM   23  C10 UNL     1      -3.122   0.383   0.259  1.00  0.00     0.281 C 
BRANCH  20  24
HETATM   24  C9  UNL     1      -5.110   0.815  -1.361  1.00  0.00     0.200 C 
BRANCH  24  25
HETATM   25  O2  UNL     1      -4.503   0.579  -2.551  1.00  0.00    -0.399 OA
ATOM     26  H2  UNL     1      -5.030   0.376  -3.315  1.00  0.00     0.209 HD
ENDBRANCH  24  25
ENDBRANCH  20  24
BRANCH  23  27
HETATM   27  N7  UNL     1      -3.043   0.354   1.744  1.00  0.00    -0.055 N 
ATOM     28  H73 UNL     1      -2.081   0.277   2.074  1.00  0.00     0.276 HD
ATOM     29  H72 UNL     1      -3.270   1.259   2.156  1.00  0.00     0.276 HD
ATOM     30  H71 UNL     1      -3.634  -0.392   2.112  1.00  0.00     0.276 HD
ENDBRANCH  23  27
BRANCH  23  31
HETATM   31  C11 UNL     1      -2.798  -0.938  -0.229  1.00  0.00     0.274 C 
HETATM   32  N8  UNL     1      -2.667  -2.064   0.618  1.00  0.00    -0.060 NA
HETATM   33  O3  UNL     1      -2.618  -1.134  -1.449  1.00  0.00    -0.274 OA
ENDBRANCH  23  31
ENDBRANCH   1  18
TORSDOF 13
