REMARK  11 active torsions:
REMARK  status: ('A' for Active; 'I' for Inactive)
REMARK    1  A    between atoms: O1_2  and  C2_3 
REMARK    2  A    between atoms: C2_3  and  C3_4 
REMARK    3  A    between atoms: C2_3  and  C9_26 
REMARK    4  A    between atoms: C3_4  and  N3_10 
REMARK    5  A    between atoms: N1_5  and  N2_7 
REMARK    6  A    between atoms: N3_10  and  C4_12 
REMARK    7  A    between atoms: C4_12  and  C5_13 
REMARK    8  A    between atoms: C5_13  and  N4_14 
REMARK    9  A    between atoms: C7_16  and  N5_17 
REMARK   10  A    between atoms: C9_26  and  N8_27 
REMARK   11  A    between atoms: C9_26  and  C10_31 
ROOT
HETATM    1  C3  UNL     1      -1.759  -0.247   0.018  1.00  0.00     0.123 C 
HETATM    2  N1  UNL     1      -1.903   0.045  -1.199  1.00  0.00    -0.294 N 
ATOM      3  H1  UNL     1      -2.879   0.074  -1.492  1.00  0.00     0.187 HD
ENDROOT
BRANCH   1   4
HETATM    4  C2  UNL     1      -2.886  -0.523   0.945  1.00  0.00     0.226 C 
BRANCH   4   5
HETATM    5  O1  UNL     1      -2.954   0.354   2.021  1.00  0.00    -0.381 OA
HETATM    6  C1  UNL     1      -2.779  -0.232   3.248  1.00  0.00     0.202 C 
ENDBRANCH   4   5
BRANCH   4   7
HETATM    7  C9  UNL     1      -4.226  -0.561   0.292  1.00  0.00     0.280 C 
BRANCH   7   8
HETATM    8  N8  UNL     1      -4.589   0.767  -0.172  1.00  0.00    -0.066 N 
ATOM      9  H83 UNL     1      -4.548   1.458   0.577  1.00  0.00     0.275 HD
ATOM     10  H82 UNL     1      -3.877   1.167  -0.783  1.00  0.00     0.275 HD
ATOM     11  H81 UNL     1      -5.506   0.741  -0.619  1.00  0.00     0.275 HD
ENDBRANCH   7   8
BRANCH   7  12
HETATM   12  C10 UNL     1      -4.374  -1.505  -0.809  1.00  0.00     0.267 C 
HETATM   13  O3  UNL     1      -4.147  -2.706  -0.730  1.00  0.00    -0.305 OA
ENDBRANCH   7  12
ENDBRANCH   4   7
ENDBRANCH   1   4
BRANCH   1  14
HETATM   14  N3  UNL     1      -0.446  -0.321   0.559  1.00  0.00    -0.375 N 
ATOM     15  H3  UNL     1      -0.361  -0.621   1.530  1.00  0.00     0.160 HD
BRANCH  14  16
HETATM   16  C4  UNL     1       0.770  -0.012  -0.136  1.00  0.00     0.143 C 
BRANCH  16  17
HETATM   17  C5  UNL     1       1.983  -0.188   0.756  1.00  0.00     0.168 C 
BRANCH  17  18
HETATM   18  N4  UNL     1       3.208   0.109   0.100  1.00  0.00    -0.294 N 
HETATM   19  C6  UNL     1       3.756   1.336   0.088  1.00  0.00     0.158 A 
HETATM   20  C7  UNL     1       4.946   1.553  -0.569  1.00  0.00     0.120 A 
HETATM   21  N6  UNL     1       5.553   0.530  -1.195  1.00  0.00    -0.293 N 
HETATM   22  C8  UNL     1       4.990  -0.699  -1.175  1.00  0.00     0.340 A 
ATOM     23  H6  UNL     1       6.436   0.680  -1.684  1.00  0.00     0.172 HD
HETATM   24  O2  UNL     1       5.610  -1.620  -1.784  1.00  0.00    -0.245 OA
HETATM   25  N7  UNL     1       3.829  -0.904  -0.533  1.00  0.00    -0.249 N 
ATOM     26  H7  UNL     1       3.414  -1.836  -0.525  1.00  0.00     0.192 HD
BRANCH  20  27
HETATM   27  N5  UNL     1       5.473   2.739  -0.579  1.00  0.00    -0.384 N 
ATOM     28  H52 UNL     1       5.012   3.515  -0.104  1.00  0.00     0.157 HD
ATOM     29  H51 UNL     1       6.355   2.900  -1.066  1.00  0.00     0.157 HD
ENDBRANCH  20  27
ENDBRANCH  17  18
ENDBRANCH  16  17
ENDBRANCH  14  16
ENDBRANCH   1  14
BRANCH   2  30
HETATM   30  N2  UNL     1      -1.039   0.328  -2.198  1.00  0.00    -0.344 N 
ATOM     31  H22 UNL     1      -0.069   0.294  -1.883  1.00  0.00     0.176 HD
ATOM     32  H21 UNL     1      -1.156   0.564  -3.183  1.00  0.00     0.176 HD
ENDBRANCH   2  30
TORSDOF 11
