REMARK  14 active torsions:
REMARK  status: ('A' for Active; 'I' for Inactive)
REMARK    1  A    between atoms: N1_2  and  C2_3 
REMARK       I    between atoms: N1_2  and  C7_24 
REMARK    2  A    between atoms: C2_3  and  C3_4 
REMARK    3  A    between atoms: C3_4  and  C4_5 
REMARK    4  A    between atoms: C4_5  and  N2_6 
REMARK    5  A    between atoms: N2_6  and  S1_8 
REMARK    6  A    between atoms: S1_8  and  N3_11 
REMARK    7  A    between atoms: N3_11  and  C5_13 
REMARK    8  A    between atoms: C5_13  and  C6_14 
REMARK    9  A    between atoms: C6_14  and  N4_15 
REMARK   10  A    between atoms: C6_14  and  N5_19 
REMARK   11  A    between atoms: N5_19  and  N6_20 
REMARK   12  A    between atoms: N6_20  and  N7_21 
REMARK   13  A    between atoms: C7_24  and  C8_26 
REMARK   14  A    between atoms: C8_26  and  N8_27 
ROOT
HETATM    1  S1  UNL     1       1.271  -2.418   0.233  1.00  0.00     0.315 S 
HETATM    2  O1  UNL     1       1.272  -2.508   1.753  1.00  0.00    -0.183 OA
HETATM    3  O2  UNL     1       1.171  -3.861  -0.236  1.00  0.00    -0.183 OA
ENDROOT
BRANCH   1   4
HETATM    4  N2  UNL     1      -0.151  -1.556  -0.216  1.00  0.00    -0.303 N 
ATOM      5  H2  UNL     1      -0.672  -1.671  -1.085  1.00  0.00     0.173 HD
BRANCH   4   6
HETATM    6  C4  UNL     1      -0.477  -0.641   0.856  1.00  0.00     0.135 C 
BRANCH   6   7
HETATM    7  C3  UNL     1      -1.719   0.166   0.556  1.00  0.00     0.040 C 
BRANCH   7   8
HETATM    8  C2  UNL     1      -2.928  -0.714   0.350  1.00  0.00     0.127 C 
BRANCH   8   9
HETATM    9  N1  UNL     1      -4.103   0.147   0.061  1.00  0.00    -0.355 N 
HETATM   10  C1  UNL     1      -4.414   0.495  -1.299  1.00  0.00     0.152 C 
HETATM   11  C7  UNL     1      -4.830   0.557   1.194  1.00  0.00     0.244 C 
HETATM   12  O3  UNL     1      -4.448   0.175   2.371  1.00  0.00    -0.272 OA
BRANCH  11  13
HETATM   13  C8  UNL     1      -6.017   1.403   1.152  1.00  0.00     0.332 C 
BRANCH  13  14
HETATM   14  N8  UNL     1      -6.464   1.841  -0.134  1.00  0.00    -0.071 N 
ATOM     15  H83 UNL     1      -5.697   2.309  -0.618  1.00  0.00     0.274 HD
ATOM     16  H82 UNL     1      -6.604   1.031  -0.738  1.00  0.00     0.274 HD
ATOM     17  H81 UNL     1      -7.294   2.433  -0.163  1.00  0.00     0.274 HD
ENDBRANCH  13  14
ENDBRANCH  11  13
ENDBRANCH   8   9
ENDBRANCH   7   8
ENDBRANCH   6   7
ENDBRANCH   4   6
ENDBRANCH   1   4
BRANCH   1  18
HETATM   18  N3  UNL     1       2.638  -1.687  -0.344  1.00  0.00    -0.300 N 
ATOM     19  H3  UNL     1       2.970  -1.920  -1.280  1.00  0.00     0.173 HD
BRANCH  18  20
HETATM   20  C5  UNL     1       3.348  -0.758   0.420  1.00  0.00     0.185 C 
BRANCH  20  21
HETATM   21  C6  UNL     1       4.556  -0.270  -0.392  1.00  0.00     0.311 C 
BRANCH  21  22
HETATM   22  N4  UNL     1       5.397  -1.399  -0.704  1.00  0.00    -0.058 N 
ATOM     23  H43 UNL     1       5.673  -1.920   0.128  1.00  0.00     0.276 HD
ATOM     24  H42 UNL     1       4.887  -2.145  -1.177  1.00  0.00     0.276 HD
ATOM     25  H41 UNL     1       6.200  -1.075  -1.244  1.00  0.00     0.276 HD
ENDBRANCH  21  22
BRANCH  21  26
HETATM   26  N5  UNL     1       5.232   0.709   0.430  1.00  0.00    -0.092 NA
BRANCH  26  27
HETATM   27  N6  UNL     1       6.353   1.243  -0.176  1.00  0.00    -0.037 NA
BRANCH  27  28
HETATM   28  N7  UNL     1       6.471   2.620   0.004  1.00  0.00    -0.332 N 
ATOM     29  H72 UNL     1       5.790   3.165   0.533  1.00  0.00     0.173 HD
ATOM     30  H71 UNL     1       7.299   3.014  -0.443  1.00  0.00     0.173 HD
ENDBRANCH  27  28
ENDBRANCH  26  27
ENDBRANCH  21  26
ENDBRANCH  20  21
ENDBRANCH  18  20
ENDBRANCH   1  18
TORSDOF 14
