REMARK  12 active torsions:
REMARK  status: ('A' for Active; 'I' for Inactive)
REMARK    1  A    between atoms: N1_1  and  C1_5 
REMARK    2  A    between atoms: C1_5  and  C2_6 
REMARK       I    between atoms: C2_6  and  N2_8 
REMARK    3  A    between atoms: N2_8  and  C3_10 
REMARK    4  A    between atoms: C3_10  and  C4_11 
REMARK       I    between atoms: C4_11  and  N3_13 
REMARK    5  A    between atoms: N3_13  and  C5_15 
REMARK    6  A    between atoms: C5_15  and  C6_16 
REMARK    7  A    between atoms: C6_16  and  N4_17 
REMARK    8  A    between atoms: N4_17  and  C7_20 
REMARK    9  A    between atoms: C7_20  and  C8_21 
REMARK   10  A    between atoms: C8_21  and  N5_22 
REMARK   11  A    between atoms: N5_22  and  C9_25 
REMARK   12  A    between atoms: C10_29  and  N7_30 
REMARK       I    between atoms: N7_30  and  C11_32 
ROOT
HETATM    1  N4  UNL     1       0.605  -0.327  -0.663  1.00  0.00    -0.072 N 
ATOM      2  H41 UNL     1       0.762   0.617  -0.311  1.00  0.00     0.277 HD
ATOM      3  H42 UNL     1      -0.112  -0.119  -1.358  1.00  0.00     0.277 HD
ENDROOT
BRANCH   1   4
HETATM    4  C6  UNL     1       0.110  -1.185   0.355  1.00  0.00     0.252 C 
BRANCH   4   5
HETATM    5  C5  UNL     1      -1.152  -0.613   0.993  1.00  0.00     0.150 C 
BRANCH   5   6
HETATM    6  N3  UNL     1      -2.166  -0.459  -0.031  1.00  0.00    -0.358 N 
HETATM    7  C4  UNL     1      -3.444   0.073   0.322  1.00  0.00     0.235 C 
HETATM    8  O2  UNL     1      -3.690   0.405   1.502  1.00  0.00    -0.272 OA
ATOM      9  H3  UNL     1      -1.969  -0.728  -0.995  1.00  0.00     0.162 HD
BRANCH   7  10
HETATM   10  C3  UNL     1      -4.486   0.236  -0.710  1.00  0.00     0.225 C 
BRANCH  10  11
HETATM   11  N2  UNL     1      -5.705   0.768  -0.162  1.00  0.00    -0.351 N 
HETATM   12  C2  UNL     1      -6.431   0.060   0.814  1.00  0.00     0.243 C 
HETATM   13  O1  UNL     1      -6.050  -1.067   1.239  1.00  0.00    -0.272 OA
ATOM     14  H2  UNL     1      -6.048   1.672  -0.486  1.00  0.00     0.163 HD
BRANCH  12  15
HETATM   15  C1  UNL     1      -7.684   0.680   1.348  1.00  0.00     0.332 C 
BRANCH  15  16
HETATM   16  N1  UNL     1      -8.270  -0.205   2.331  1.00  0.00    -0.071 N 
ATOM     17  H13 UNL     1      -8.428  -1.143   1.962  1.00  0.00     0.274 HD
ATOM     18  H12 UNL     1      -7.613  -0.451   3.072  1.00  0.00     0.274 HD
ATOM     19  H11 UNL     1      -9.124   0.218   2.695  1.00  0.00     0.274 HD
ENDBRANCH  15  16
ENDBRANCH  12  15
ENDBRANCH  10  11
ENDBRANCH   7  10
ENDBRANCH   5   6
ENDBRANCH   4   5
ENDBRANCH   1   4
BRANCH   1  20
HETATM   20  C7  UNL     1       1.785  -0.863  -1.272  1.00  0.00     0.260 C 
BRANCH  20  21
HETATM   21  C8  UNL     1       2.963  -0.850  -0.330  1.00  0.00     0.262 C 
BRANCH  21  22
HETATM   22  N5  UNL     1       4.161  -1.349  -0.928  1.00  0.00    -0.041 N 
ATOM     23  H52 UNL     1       4.840  -1.616  -0.215  1.00  0.00     0.279 HD
ATOM     24  H51 UNL     1       4.002  -2.261  -1.357  1.00  0.00     0.279 HD
BRANCH  22  25
HETATM   25  C9  UNL     1       4.737  -0.439  -1.865  1.00  0.00     0.434 A 
HETATM   26  N6  UNL     1       3.995   0.855  -1.863  1.00  0.00    -0.018 N 
HETATM   27  C10 UNL     1       5.359   0.867  -1.472  1.00  0.00     0.349 A 
ATOM     28  H62 UNL     1       3.456   1.362  -2.565  1.00  0.00     0.282 HD
ATOM     29  H61 UNL     1       3.131   1.174  -1.425  1.00  0.00     0.282 HD
BRANCH  27  30
HETATM   30  N7  UNL     1       5.818   0.966  -0.124  1.00  0.00    -0.314 N 
HETATM   31  C11 UNL     1       7.024   1.671   0.214  1.00  0.00     0.330 C 
HETATM   32  N8  UNL     1       7.443   1.746   1.554  1.00  0.00    -0.040 NA
HETATM   33  O3  UNL     1       7.706   2.220  -0.688  1.00  0.00    -0.251 OA
ATOM     34  H7  UNL     1       5.276   0.525   0.619  1.00  0.00     0.166 HD
ENDBRANCH  27  30
ENDBRANCH  22  25
ENDBRANCH  21  22
ENDBRANCH  20  21
ENDBRANCH   1  20
TORSDOF 12
