REMARK  13 active torsions:
REMARK  status: ('A' for Active; 'I' for Inactive)
REMARK    1  A    between atoms: C1_4  and  C2_6 
REMARK    2  A    between atoms: C2_6  and  N3_7 
REMARK    3  A    between atoms: N3_7  and  C3_9 
REMARK    4  A    between atoms: N5_14  and  C5_15 
REMARK    5  A    between atoms: C5_15  and  C6_16 
REMARK    6  A    between atoms: C6_16  and  C7_17 
REMARK    7  A    between atoms: C6_16  and  N8_25 
REMARK    8  A    between atoms: C7_17  and  N6_18 
REMARK    9  A    between atoms: N6_18  and  C8_21 
REMARK   10  A    between atoms: C8_21  and  C9_22 
REMARK   11  A    between atoms: N8_25  and  C10_28 
REMARK   12  A    between atoms: C10_28  and  C11_29 
REMARK   13  A    between atoms: C11_29  and  N9_30 
ROOT
HETATM    1  C6  UNL     1      -1.777  -0.584  -0.090  1.00  0.00     0.231 C 
ENDROOT
BRANCH   1   2
HETATM    2  C5  UNL     1      -0.930  -0.420  -1.296  1.00  0.00     0.189 C 
BRANCH   2   3
HETATM    3  N5  UNL     1       0.411   0.070  -1.053  1.00  0.00    -0.226 N 
HETATM    4  C4  UNL     1       0.891   1.315  -1.069  1.00  0.00     0.355 A 
HETATM    5  N4  UNL     1       2.224   1.290  -0.759  1.00  0.00    -0.139 N 
HETATM    6  O1  UNL     1       0.318   2.406  -1.314  1.00  0.00    -0.244 OA
HETATM    7  C3  UNL     1       2.564   0.014  -0.552  1.00  0.00     0.697 A 
ATOM      8  H4  UNL     1       2.844   2.097  -0.697  1.00  0.00     0.189 HD
HETATM    9  N10 UNL     1       1.459  -0.716  -0.732  1.00  0.00    -0.126 N 
ATOM     10  H10 UNL     1       1.414  -1.731  -0.639  1.00  0.00     0.206 HD
BRANCH   7  11
HETATM   11  N3  UNL     1       3.764  -0.406  -0.234  1.00  0.00    -0.218 N 
ATOM     12  H3  UNL     1       3.937  -1.401  -0.092  1.00  0.00     0.178 HD
BRANCH  11  13
HETATM   13  C2  UNL     1       4.854   0.557  -0.083  1.00  0.00     0.210 C 
BRANCH  13  14
HETATM   14  C1  UNL     1       6.129  -0.130   0.074  1.00  0.00     0.105 C 
HETATM   15  N1  UNL     1       7.065   0.044  -0.786  1.00  0.00    -0.390 N 
ATOM     16  H12 UNL     1       7.958  -0.437  -0.676  1.00  0.00     0.157 HD
ATOM     17  H11 UNL     1       6.912   0.667  -1.579  1.00  0.00     0.157 HD
HETATM   18  N2  UNL     1       6.342  -0.994   1.175  1.00  0.00    -0.086 NA
ENDBRANCH  13  14
ENDBRANCH  11  13
ENDBRANCH   7  11
ENDBRANCH   2   3
ENDBRANCH   1   2
BRANCH   1  19
HETATM   19  C7  UNL     1      -2.078   0.645   0.708  1.00  0.00     0.267 C 
BRANCH  19  20
HETATM   20  N6  UNL     1      -2.806   1.652   0.018  1.00  0.00    -0.065 N 
ATOM     21  H62 UNL     1      -2.351   1.909  -0.858  1.00  0.00     0.277 HD
ATOM     22  H61 UNL     1      -3.681   1.289  -0.360  1.00  0.00     0.277 HD
BRANCH  20  23
HETATM   23  C8  UNL     1      -3.029   2.800   0.853  1.00  0.00     0.331 C 
BRANCH  23  24
HETATM   24  C9  UNL     1      -3.802   3.805   0.096  1.00  0.00     0.256 C 
HETATM   25  N7  UNL     1      -4.188   5.058   0.643  1.00  0.00    -0.061 NA
HETATM   26  O2  UNL     1      -4.141   3.553  -1.083  1.00  0.00    -0.275 OA
ENDBRANCH  23  24
ENDBRANCH  20  23
ENDBRANCH  19  20
ENDBRANCH   1  19
BRANCH   1  27
HETATM   27  N8  UNL     1      -1.355  -1.628   0.778  1.00  0.00    -0.066 N 
ATOM     28  H82 UNL     1      -0.418  -1.437   1.133  1.00  0.00     0.277 HD
ATOM     29  H81 UNL     1      -1.883  -1.599   1.650  1.00  0.00     0.277 HD
BRANCH  27  30
HETATM   30  C10 UNL     1      -1.412  -2.924   0.211  1.00  0.00     0.260 C 
BRANCH  30  31
HETATM   31  C11 UNL     1      -2.814  -3.434  -0.065  1.00  0.00     0.257 C 
BRANCH  31  32
HETATM   32  N9  UNL     1      -2.670  -4.774  -0.636  1.00  0.00    -0.078 N 
ATOM     33  H93 UNL     1      -2.064  -4.799  -1.456  1.00  0.00     0.274 HD
ATOM     34  H92 UNL     1      -2.121  -5.404  -0.051  1.00  0.00     0.274 HD
ATOM     35  H91 UNL     1      -3.613  -5.117  -0.822  1.00  0.00     0.274 HD
ENDBRANCH  31  32
ENDBRANCH  30  31
ENDBRANCH  27  30
ENDBRANCH   1  27
TORSDOF 13
