REMARK  6 active torsions:
REMARK  status: ('A' for Active; 'I' for Inactive)
REMARK    1  A    between atoms: C2_2  and  C4_5 
REMARK    2  A    between atoms: C4_5  and  N2_6 
REMARK       I    between atoms: N2_6  and  C5_8 
REMARK    3  A    between atoms: C5_8  and  C6_10 
REMARK    4  A    between atoms: C6_10  and  O2_12 
REMARK    5  A    between atoms: O2_12  and  C8_13 
REMARK    6  A    between atoms: C8_13  and  C9_15 
ROOT
HETATM    1  C1  UNL     1      -6.225   0.483   1.406  1.00  0.00     0.027 C 
HETATM    2  C2  UNL     1      -4.931   0.378   0.606  1.00  0.00     0.106 C 
HETATM    3  C3  UNL     1      -5.274   0.727  -0.773  1.00  0.00     0.065 C 
HETATM    4  N1  UNL     1      -5.529   1.004  -1.884  1.00  0.00    -0.197 NA
ENDROOT
BRANCH   2   5
HETATM    5  C4  UNL     1      -4.413  -1.039   0.692  1.00  0.00     0.141 C 
BRANCH   5   6
HETATM    6  N2  UNL     1      -3.188  -1.257  -0.033  1.00  0.00    -0.358 N 
HETATM    7  C5  UNL     1      -1.971  -0.593   0.222  1.00  0.00     0.246 C 
HETATM    8  O1  UNL     1      -1.948   0.245   1.142  1.00  0.00    -0.271 OA
ATOM      9  H2  UNL     1      -3.202  -1.943  -0.788  1.00  0.00     0.162 HD
BRANCH   7  10
HETATM   10  C6  UNL     1      -0.792  -0.880  -0.564  1.00  0.00     0.219 C 
HETATM   11  C7  UNL     1      -1.094  -0.570  -2.038  1.00  0.00     0.050 C 
BRANCH  10  12
HETATM   12  O2  UNL     1       0.361  -0.171  -0.235  1.00  0.00    -0.306 OA
BRANCH  12  13
HETATM   13  C8  UNL     1       1.586  -0.752   0.022  1.00  0.00     0.263 C 
HETATM   14  O3  UNL     1       1.613  -2.009  -0.059  1.00  0.00    -0.265 OA
BRANCH  13  15
HETATM   15  C9  UNL     1       2.796   0.055   0.373  1.00  0.00     0.085 C 
HETATM   16  C10 UNL     1       3.996  -0.798   0.605  1.00  0.00     0.014 C 
HETATM   17  C11 UNL     1       5.196  -0.284  -0.155  1.00  0.00     0.001 C 
HETATM   18  C12 UNL     1       5.410   1.160   0.219  1.00  0.00     0.000 C 
HETATM   19  C13 UNL     1       4.219   1.957  -0.217  1.00  0.00     0.001 C 
HETATM   20  C14 UNL     1       3.081   1.087  -0.680  1.00  0.00     0.014 C 
ENDBRANCH  13  15
ENDBRANCH  12  13
ENDBRANCH  10  12
ENDBRANCH   7  10
ENDBRANCH   5   6
ENDBRANCH   2   5
TORSDOF 6
