REMARK  5 active torsions:
REMARK  status: ('A' for Active; 'I' for Inactive)
REMARK    1  A    between atoms: N1_2  and  N2_3 
REMARK    2  A    between atoms: C3_7  and  O1_8 
REMARK    3  A    between atoms: C3_7  and  N5_10 
REMARK    4  A    between atoms: C6_16  and  C7_17 
REMARK    5  A    between atoms: C9_19  and  N7_20 
ROOT
HETATM    1  C7  UNL     1       2.328   0.168  -0.260  1.00  0.00     0.034 A 
HETATM    2  C8  UNL     1       3.609  -0.342  -0.304  1.00  0.00     0.056 A 
HETATM    3  C9  UNL     1       4.602   0.468   0.106  1.00  0.00     0.131 A 
HETATM    4  C10 UNL     1       4.255   1.717   0.532  1.00  0.00     0.118 A 
HETATM    5  C11 UNL     1       5.154   2.769   0.991  1.00  0.00     0.109 C 
HETATM    6  N8  UNL     1       5.872   3.620   1.334  1.00  0.00    -0.191 NA
HETATM    7  S1  UNL     1       2.561   1.743   0.355  1.00  0.00    -0.078 SA
ENDROOT
BRANCH   3   8
HETATM    8  N7  UNL     1       5.998   0.062   0.093  1.00  0.00    -0.114 N 
HETATM    9  O2  UNL     1       6.326  -1.128   0.205  1.00  0.00    -0.532 OA
HETATM   10  O3  UNL     1       7.005   0.969  -0.046  1.00  0.00    -0.532 OA
ENDBRANCH   3   8
BRANCH   1  11
HETATM   11  C6  UNL     1       1.076  -0.528  -0.715  1.00  0.00     0.332 C 
HETATM   12  N6  UNL     1       1.124  -1.917  -0.317  1.00  0.00    -0.050 N 
HETATM   13  C5  UNL     1       0.068  -2.540  -1.141  1.00  0.00     0.250 C 
ATOM     14  H62 UNL     1       1.028  -2.075   0.686  1.00  0.00     0.279 HD
ATOM     15  H61 UNL     1       2.042  -2.352  -0.404  1.00  0.00     0.279 HD
HETATM   16  C4  UNL     1      -0.861  -1.512  -1.677  1.00  0.00     0.142 C 
HETATM   17  N5  UNL     1      -1.182  -0.405  -0.849  1.00  0.00    -0.180 NA
HETATM   18  N9  UNL     1      -0.090   0.052  -0.074  1.00  0.00    -0.122 NA
BRANCH  17  19
HETATM   19  C3  UNL     1      -2.376  -0.516  -0.109  1.00  0.00     0.235 C 
HETATM   20  N2  UNL     1      -3.306   0.556  -0.387  1.00  0.00    -0.078 NA
HETATM   21  N3  UNL     1      -4.242   0.466   0.609  1.00  0.00    -0.036 NA
HETATM   22  N4  UNL     1      -3.697  -0.142   1.715  1.00  0.00    -0.124 NA
HETATM   23  C2  UNL     1      -2.295  -0.486   1.381  1.00  0.00     0.208 C 
BRANCH  20  24
HETATM   24  N1  UNL     1      -2.595   1.734  -0.464  1.00  0.00    -0.148 NA
HETATM   25  C1  UNL     1      -3.133   2.780   0.372  1.00  0.00     0.154 C 
ENDBRANCH  20  24
BRANCH  19  26
HETATM   26  O1  UNL     1      -3.065  -1.703  -0.451  1.00  0.00    -0.358 OA
ATOM     27  H1  UNL     1      -2.454  -2.407  -0.268  1.00  0.00     0.213 HD
ENDBRANCH  19  26
ENDBRANCH  17  19
ENDBRANCH   1  11
TORSDOF 5
