REMARK  6 active torsions:
REMARK  status: ('A' for Active; 'I' for Inactive)
REMARK    1  A    between atoms: N1_1  and  C1_4 
REMARK    2  A    between atoms: C4_9  and  C5_10 
REMARK    3  A    between atoms: C7_12  and  N3_13 
REMARK       I    between atoms: N3_13  and  C8_15 
REMARK    4  A    between atoms: C8_15  and  C9_17 
REMARK    5  A    between atoms: C19_32  and  N5_33 
REMARK    6  A    between atoms: N5_33  and  C20_35 
ROOT
HETATM    1  C1  UNL     1      -2.542   2.489   0.661  1.00  0.00     0.676 A 
HETATM    2  N2  UNL     1      -1.265   2.413   1.024  1.00  0.00    -0.201 N 
ATOM      3  H2  UNL     1      -0.757   3.276   1.219  1.00  0.00     0.183 HD
HETATM    4  C2  UNL     1      -0.618   1.240   1.144  1.00  0.00     0.121 A 
HETATM    5  C3  UNL     1      -1.320   0.069   0.874  1.00  0.00     0.023 A 
HETATM    6  C4  UNL     1      -0.735  -1.143   0.987  1.00  0.00     0.005 A 
HETATM    7  C18 UNL     1      -1.514  -2.280   0.716  1.00  0.00     0.103 A 
HETATM    8  N4  UNL     1      -2.779  -2.180   0.360  1.00  0.00    -0.350 N 
ATOM      9  H4  UNL     1      -3.298  -3.039   0.176  1.00  0.00     0.166 HD
HETATM   10  C19 UNL     1      -3.442  -0.973   0.222  1.00  0.00     0.134 A 
HETATM   11  C26 UNL     1      -2.670   0.150   0.491  1.00  0.00     0.105 A 
HETATM   12  N6  UNL     1      -3.228   1.364   0.400  1.00  0.00    -0.187 N 
ATOM     13  H6  UNL     1      -4.207   1.437   0.123  1.00  0.00     0.184 HD
ENDROOT
BRANCH   6  14
HETATM   14  C5  UNL     1       0.669  -1.317   1.311  1.00  0.00     0.000 A 
HETATM   15  C6  UNL     1       1.706  -0.774   0.615  1.00  0.00     0.043 A 
HETATM   16  C7  UNL     1       3.064  -0.997   0.896  1.00  0.00     0.035 A 
HETATM   17  C15 UNL     1       3.307  -1.829   1.956  1.00  0.00     0.031 A 
HETATM   18  C16 UNL     1       2.280  -2.419   2.711  1.00  0.00     0.027 A 
HETATM   19  C17 UNL     1       0.973  -2.154   2.377  1.00  0.00     0.045 A 
HETATM   20 CL1  UNL     1      -0.281  -2.901   3.350  1.00  0.00    -0.083 Cl
BRANCH  16  21
HETATM   21  N3  UNL     1       4.052  -0.344   0.112  1.00  0.00    -0.323 N 
HETATM   22  C8  UNL     1       5.337  -0.818  -0.106  1.00  0.00     0.259 C 
HETATM   23  O1  UNL     1       5.673  -1.929   0.406  1.00  0.00    -0.267 OA
ATOM     24  H3  UNL     1       3.797   0.542  -0.324  1.00  0.00     0.169 HD
BRANCH  22  25
HETATM   25  C9  UNL     1       6.340  -0.125  -0.895  1.00  0.00     0.071 A 
HETATM   26  C10 UNL     1       7.338  -0.940  -1.449  1.00  0.00     0.023 A 
HETATM   27  C11 UNL     1       8.291  -0.349  -2.231  1.00  0.00     0.043 A 
HETATM   28  C12 UNL     1       8.305   0.996  -2.489  1.00  0.00     0.119 A 
HETATM   29  F1  UNL     1       9.274   1.563  -3.278  1.00  0.00    -0.206 F 
HETATM   30  C13 UNL     1       7.318   1.785  -1.937  1.00  0.00     0.085 A 
HETATM   31  C14 UNL     1       6.333   1.221  -1.138  1.00  0.00     0.135 A 
HETATM   32  F2  UNL     1       5.425   2.068  -0.619  1.00  0.00    -0.205 F 
ENDBRANCH  22  25
ENDBRANCH  16  21
ENDBRANCH   6  14
BRANCH  10  33
HETATM   33  N5  UNL     1      -4.605  -0.997  -0.112  1.00  0.00    -0.338 N 
ATOM     34  H5  UNL     1      -4.762  -2.001  -0.200  1.00  0.00     0.167 HD
BRANCH  33  35
HETATM   35  C20 UNL     1      -5.800  -0.526  -0.434  1.00  0.00     0.072 A 
HETATM   36  C21 UNL     1      -6.153  -0.179  -1.749  1.00  0.00     0.034 A 
HETATM   37  C22 UNL     1      -7.391   0.301  -2.082  1.00  0.00     0.021 A 
HETATM   38  C23 UNL     1      -8.322   0.446  -1.080  1.00  0.00     0.014 A 
HETATM   39 BR1  UNL     1     -10.065   1.113  -1.494  1.00  0.00    -0.051 Br
HETATM   40  C24 UNL     1      -8.027   0.120   0.229  1.00  0.00     0.063 A 
HETATM   41  C25 UNL     1      -6.782  -0.356   0.522  1.00  0.00     0.144 A 
HETATM   42  F3  UNL     1      -6.539  -0.666   1.833  1.00  0.00    -0.204 F 
ENDBRANCH  33  35
ENDBRANCH  10  33
BRANCH   1  43
HETATM   43  N1  UNL     1      -3.170   3.630   0.546  1.00  0.00    -0.234 N 
ATOM     44  H12 UNL     1      -2.649   4.484   0.744  1.00  0.00     0.174 HD
ATOM     45  H11 UNL     1      -4.150   3.688   0.268  1.00  0.00     0.174 HD
ENDBRANCH   1  43
TORSDOF 6
