REMARK  5 active torsions:
REMARK  status: ('A' for Active; 'I' for Inactive)
REMARK    1  A    between atoms: C2_3  and  C3_4 
REMARK       I    between atoms: C3_4  and  N2_6 
REMARK    2  A    between atoms: N2_6  and  C4_8 
REMARK    3  A    between atoms: C8_13  and  C9_14 
REMARK       I    between atoms: C9_14  and  N3_16 
REMARK    4  A    between atoms: N3_16  and  C10_18 
REMARK    5  A    between atoms: C19_31  and  O3_32 
ROOT
HETATM    1  C4  UNL     1      -0.637  -0.966  -0.631  1.00  0.00     0.036 A 
HETATM    2  C5  UNL     1      -0.631  -1.766  -1.721  1.00  0.00     0.031 A 
HETATM    3  C6  UNL     1       0.545  -2.332  -2.247  1.00  0.00     0.027 A 
HETATM    4  C7  UNL     1       1.742  -2.054  -1.615  1.00  0.00     0.050 A 
HETATM    5 CL1  UNL     1       3.241  -2.745  -2.242  1.00  0.00    -0.083 Cl
HETATM    6  C8  UNL     1       1.769  -1.252  -0.516  1.00  0.00     0.056 A 
HETATM    7  C16 UNL     1       0.610  -0.712  -0.023  1.00  0.00     0.048 A 
ENDROOT
BRANCH   1   8
HETATM    8  N2  UNL     1      -1.786  -0.394  -0.071  1.00  0.00    -0.323 N 
HETATM    9  C3  UNL     1      -3.124  -0.678  -0.392  1.00  0.00     0.258 C 
HETATM   10  O1  UNL     1      -3.459  -1.526  -1.261  1.00  0.00    -0.267 OA
ATOM     11  H2  UNL     1      -1.634   0.309   0.652  1.00  0.00     0.169 HD
BRANCH   9  12
HETATM   12  C2  UNL     1      -4.255   0.009   0.280  1.00  0.00     0.059 A 
HETATM   13  C1  UNL     1      -5.562  -0.291  -0.056  1.00  0.00     0.082 A 
HETATM   14  N1  UNL     1      -5.802  -1.270  -1.056  1.00  0.00    -0.100 NA
HETATM   15  C20 UNL     1      -6.629   0.324   0.543  1.00  0.00     0.070 A 
HETATM   16  C19 UNL     1      -6.440   1.274   1.513  1.00  0.00     0.102 A 
HETATM   17 BR2  UNL     1      -8.407  -0.164   0.006  1.00  0.00    -0.046 Br
HETATM   18  C18 UNL     1      -5.151   1.593   1.867  1.00  0.00     0.046 A 
HETATM   19  C17 UNL     1      -4.076   0.960   1.250  1.00  0.00     0.041 A 
HETATM   20 BR1  UNL     1      -4.879   2.907   3.210  1.00  0.00    -0.048 Br
BRANCH  16  21
HETATM   21  O3  UNL     1      -7.549   1.872   2.095  1.00  0.00    -0.358 OA
ATOM     22  H3  UNL     1      -8.440   1.651   1.850  1.00  0.00     0.217 HD
ENDBRANCH  16  21
ENDBRANCH   9  12
ENDBRANCH   1   8
BRANCH   6  23
HETATM   23  C9  UNL     1       3.082  -0.984   0.126  1.00  0.00     0.258 C 
HETATM   24  O2  UNL     1       3.463  -1.763   1.028  1.00  0.00    -0.267 OA
HETATM   25  N3  UNL     1       3.807   0.117  -0.315  1.00  0.00    -0.320 N 
ATOM     26  H3  UNL     1       3.364   0.658  -1.058  1.00  0.00     0.169 HD
BRANCH  25  27
HETATM   27  C10 UNL     1       5.059   0.597   0.109  1.00  0.00     0.075 A 
HETATM   28  C11 UNL     1       5.813   0.014   1.092  1.00  0.00     0.036 A 
HETATM   29  C12 UNL     1       7.060   0.552   1.465  1.00  0.00     0.046 A 
HETATM   30  C13 UNL     1       7.575   1.673   0.868  1.00  0.00     0.141 A 
HETATM   31  F1  UNL     1       8.778   2.154   1.260  1.00  0.00    -0.204 F 
HETATM   32  C14 UNL     1       6.826   2.268  -0.122  1.00  0.00     0.113 A 
HETATM   33 CL2  UNL     1       7.451   3.704  -0.910  1.00  0.00    -0.078 Cl
HETATM   34  C15 UNL     1       5.608   1.741  -0.484  1.00  0.00     0.167 A 
HETATM   35  F2  UNL     1       4.883   2.334  -1.457  1.00  0.00    -0.202 F 
ENDBRANCH  25  27
ENDBRANCH   6  23
TORSDOF 5
