REMARK  8 active torsions:
REMARK  status: ('A' for Active; 'I' for Inactive)
REMARK    1  A    between atoms: O1_2  and  C2_3 
REMARK    2  A    between atoms: C4_5  and  O2_6 
REMARK    3  A    between atoms: C6_8  and  C7_9 
REMARK    4  A    between atoms: C7_9  and  N1_10 
REMARK       I    between atoms: N1_10  and  C8_12 
REMARK    5  A    between atoms: C8_12  and  C9_14 
REMARK    6  A    between atoms: C10_17  and  C11_18 
REMARK    7  A    between atoms: C11_18  and  C12_20 
REMARK    8  A    between atoms: C13_21  and  C14_22 
ROOT
HETATM    1  C2  UNL     1      -1.840  -2.785   0.223  1.00  0.00     0.093 A 
HETATM    2  C3  UNL     1      -2.823  -1.837   0.120  1.00  0.00     0.076 A 
HETATM    3  C4  UNL     1      -2.587  -0.668  -0.573  1.00  0.00     0.079 A 
HETATM    4  C6  UNL     1      -1.382  -0.405  -1.178  1.00  0.00     0.009 A 
HETATM    5  C10 UNL     1      -0.395  -1.376  -1.066  1.00  0.00     0.049 A 
HETATM    6  C19 UNL     1      -0.634  -2.559  -0.364  1.00  0.00     0.082 A 
HETATM    7 CL4  UNL     1       0.630  -3.780  -0.232  1.00  0.00    -0.080 Cl
ENDROOT
BRANCH   5   8
HETATM    8  C11 UNL     1       0.888  -1.218  -1.671  1.00  0.00     0.184 C 
HETATM    9  O4  UNL     1       1.033  -1.587  -2.866  1.00  0.00    -0.287 OA
BRANCH   8  10
HETATM   10  C12 UNL     1       2.017  -0.657  -0.958  1.00  0.00     0.057 C 
HETATM   11  C13 UNL     1       1.985  -0.265   0.285  1.00  0.00     0.023 C 
BRANCH  11  12
HETATM   12  C14 UNL     1       3.171   0.290   0.924  1.00  0.00     0.007 A 
HETATM   13  C15 UNL     1       4.421   0.492   0.400  1.00  0.00     0.027 A 
HETATM   14  C16 UNL     1       5.353   1.023   1.203  1.00  0.00    -0.032 A 
HETATM   15  C17 UNL     1       6.782   1.301   0.745  1.00  0.00     0.050 C 
HETATM   16  C18 UNL     1       4.981   1.321   2.488  1.00  0.00     0.081 A 
HETATM   17 CL3  UNL     1       5.994   2.028   3.764  1.00  0.00    -0.076 Cl
HETATM   18  S1  UNL     1       3.346   0.854   2.536  1.00  0.00    -0.078 SA
ENDBRANCH  11  12
ENDBRANCH   8  10
ENDBRANCH   5   8
BRANCH   4  19
HETATM   19  C7  UNL     1      -1.130   0.800  -1.985  1.00  0.00     0.165 C 
BRANCH  19  20
HETATM   20  N1  UNL     1      -1.619   2.032  -1.484  1.00  0.00    -0.354 N 
HETATM   21  C8  UNL     1      -1.357   2.671  -0.258  1.00  0.00     0.251 C 
HETATM   22  O3  UNL     1      -0.596   2.124   0.567  1.00  0.00    -0.271 OA
ATOM     23  H1  UNL     1      -2.256   2.530  -2.105  1.00  0.00     0.162 HD
BRANCH  21  24
HETATM   24  C9  UNL     1      -1.952   3.987   0.110  1.00  0.00     0.269 C 
HETATM   25 CL1  UNL     1      -1.473   5.252  -1.046  1.00  0.00    -0.098 Cl
HETATM   26 CL2  UNL     1      -3.696   3.817   0.201  1.00  0.00    -0.098 Cl
ENDBRANCH  21  24
ENDBRANCH  19  20
ENDBRANCH   4  19
BRANCH   3  27
HETATM   27  O2  UNL     1      -3.595   0.269  -0.662  1.00  0.00    -0.355 OA
HETATM   28  C5  UNL     1      -4.870   0.094  -0.074  1.00  0.00     0.210 C 
ENDBRANCH   3  27
BRANCH   1  29
HETATM   29  O1  UNL     1      -2.028  -3.987   0.915  1.00  0.00    -0.354 OA
HETATM   30  C1  UNL     1      -3.238  -4.309   1.553  1.00  0.00     0.210 C 
ENDBRANCH   1  29
TORSDOF 8
