REMARK  20 active torsions:
REMARK  status: ('A' for Active; 'I' for Inactive)
REMARK    1  A    between atoms: C3_3  and  O1_4 
REMARK    2  A    between atoms: C5_8  and  O3_9 
REMARK    3  A    between atoms: C9_14  and  C11_16 
REMARK    4  A    between atoms: C11_16  and  C12_17 
REMARK    5  A    between atoms: C12_17  and  O4_18 
REMARK    6  A    between atoms: C12_17  and  C13_20 
REMARK    7  A    between atoms: C13_20  and  C15_22 
REMARK    8  A    between atoms: C15_22  and  C16_23 
REMARK    9  A    between atoms: C16_23  and  C17_24 
REMARK   10  A    between atoms: C17_24  and  C18_25 
REMARK   11  A    between atoms: C17_24  and  C25_34 
REMARK   12  A    between atoms: C18_25  and  O5_26 
REMARK   13  A    between atoms: C18_25  and  C19_28 
REMARK   14  A    between atoms: C20_29  and  C21_30 
REMARK   15  A    between atoms: C21_30  and  C22_31 
REMARK   16  A    between atoms: C22_31  and  C23_32 
REMARK   17  A    between atoms: C25_34  and  C27_36 
REMARK   18  A    between atoms: C27_36  and  C28_37 
REMARK   19  A    between atoms: C28_37  and  O6_38 
REMARK   20  A    between atoms: C29_40  and  O7_41 
ROOT
HETATM    1  C12 UNL     1      -2.089  -0.393  -0.896  1.00  0.00     0.044 C 
ENDROOT
BRANCH   1   2
HETATM    2  C11 UNL     1      -3.398   0.175  -1.218  1.00  0.00     0.018 C 
BRANCH   2   3
HETATM    3  C9  UNL     1      -4.212   0.905  -0.257  1.00  0.00     0.012 C 
HETATM    4  C8  UNL     1      -5.490   1.395  -1.010  1.00  0.00     0.025 C 
HETATM    5  C7  UNL     1      -6.267   1.204   0.275  1.00  0.00     0.038 C 
HETATM    6  C6  UNL     1      -7.587   0.634   0.001  1.00  0.00     0.080 C 
HETATM    7  C29 UNL     1      -5.170   0.239   0.676  1.00  0.00     0.098 C 
HETATM    8  C4  UNL     1      -7.663  -0.644  -0.710  1.00  0.00     0.167 C 
HETATM    9  C5  UNL     1      -8.350  -0.106   1.028  1.00  0.00     0.264 C 
HETATM   10  C3  UNL     1      -6.560  -1.626  -0.452  1.00  0.00     0.179 C 
HETATM   11  O2  UNL     1      -8.785  -0.991   0.041  1.00  0.00    -0.352 OA
HETATM   12  C2  UNL     1      -5.582  -1.141   0.551  1.00  0.00    -0.023 C 
HETATM   13  C1  UNL     1      -5.101  -2.064   1.400  1.00  0.00     0.020 C 
HETATM   14  C10 UNL     1      -3.616   2.136   0.387  1.00  0.00     0.023 C 
BRANCH  10  15
HETATM   15  O1  UNL     1      -7.063  -2.866  -0.032  1.00  0.00    -0.389 OA
ATOM     16  H1  UNL     1      -7.690  -3.177  -0.675  1.00  0.00     0.210 HD
ENDBRANCH  10  15
BRANCH   9  17
HETATM   17  O3  UNL     1      -9.495   0.595   1.484  1.00  0.00    -0.371 OA
ATOM     18  H3  UNL     1      -9.199   1.198   2.156  1.00  0.00     0.212 HD
ENDBRANCH   9  17
BRANCH   7  19
HETATM   19  O7  UNL     1      -4.853   0.515   2.032  1.00  0.00    -0.384 OA
ATOM     20  H7  UNL     1      -4.582   1.422   2.114  1.00  0.00     0.211 HD
ENDBRANCH   7  19
ENDBRANCH   2   3
ENDBRANCH   1   2
BRANCH   1  21
HETATM   21  O4  UNL     1      -1.965  -1.320   0.086  1.00  0.00    -0.365 OA
ATOM     22  H4  UNL     1      -1.115  -1.689   0.295  1.00  0.00     0.217 HD
ENDBRANCH   1  21
BRANCH   1  23
HETATM   23  C13 UNL     1      -0.952   0.655  -0.841  1.00  0.00     0.038 C 
HETATM   24  C14 UNL     1      -0.925   1.257  -2.221  1.00  0.00     0.017 C 
BRANCH  23  25
HETATM   25  C15 UNL     1       0.337  -0.084  -0.492  1.00  0.00     0.011 C 
BRANCH  25  26
HETATM   26  C16 UNL     1       1.488   0.830  -0.393  1.00  0.00     0.009 C 
BRANCH  26  27
HETATM   27  C17 UNL     1       2.821   0.171  -0.000  1.00  0.00     0.022 C 
BRANCH  27  28
HETATM   28  C18 UNL     1       3.782   1.351   0.029  1.00  0.00     0.145 C 
BRANCH  28  29
HETATM   29  O5  UNL     1       3.221   2.222   1.009  1.00  0.00    -0.391 OA
ATOM     30  H5  UNL     1       3.821   2.958   1.027  1.00  0.00     0.210 HD
ENDBRANCH  28  29
BRANCH  28  31
HETATM   31  C19 UNL     1       5.167   1.020   0.362  1.00  0.00     0.001 C 
HETATM   32  C20 UNL     1       5.637   0.857   1.580  1.00  0.00    -0.028 C 
BRANCH  32  33
HETATM   33  C21 UNL     1       7.050   0.524   1.838  1.00  0.00     0.027 C 
BRANCH  33  34
HETATM   34  C22 UNL     1       7.803   0.418   0.528  1.00  0.00     0.003 C 
BRANCH  34  35
HETATM   35  C23 UNL     1       9.266   0.070   0.788  1.00  0.00    -0.004 C 
HETATM   36  C24 UNL     1       9.938  -0.016  -0.563  1.00  0.00     0.005 C 
ENDBRANCH  34  35
ENDBRANCH  33  34
ENDBRANCH  32  33
ENDBRANCH  28  31
ENDBRANCH  27  28
BRANCH  27  37
HETATM   37  C25 UNL     1       3.153  -0.892  -0.966  1.00  0.00    -0.010 C 
HETATM   38  C26 UNL     1       3.312  -0.421  -2.385  1.00  0.00     0.010 C 
BRANCH  37  39
HETATM   39  C27 UNL     1       4.291  -1.803  -0.634  1.00  0.00     0.031 C 
BRANCH  39  40
HETATM   40  C28 UNL     1       4.118  -2.579   0.640  1.00  0.00     0.164 C 
BRANCH  40  41
HETATM   41  O6  UNL     1       2.986  -3.396   0.603  1.00  0.00    -0.401 OA
ATOM     42  H6  UNL     1       2.877  -3.887   1.409  1.00  0.00     0.209 HD
ENDBRANCH  40  41
ENDBRANCH  39  40
ENDBRANCH  37  39
ENDBRANCH  27  37
ENDBRANCH  26  27
ENDBRANCH  25  26
ENDBRANCH  23  25
ENDBRANCH   1  23
TORSDOF 20
