REMARK  7 active torsions:
REMARK  status: ('A' for Active; 'I' for Inactive)
REMARK    1  A    between atoms: C2_2  and  C3_3 
REMARK    2  A    between atoms: C3_3  and  C4_4 
REMARK    3  A    between atoms: C4_4  and  C5_5 
REMARK    4  A    between atoms: C5_5  and  O2_7 
REMARK    5  A    between atoms: O2_7  and  C6_8 
REMARK    6  A    between atoms: C11_14  and  O4_15 
REMARK    7  A    between atoms: C16_20  and  O5_21 
ROOT
HETATM    1  C6  UNL     1       0.410  -0.800  -1.096  1.00  0.00     0.164 C 
HETATM    2  C7  UNL     1       0.262  -2.276  -1.253  1.00  0.00     0.036 C 
HETATM    3  C8  UNL     1      -0.630  -2.889  -0.228  1.00  0.00     0.015 C 
HETATM    4  C9  UNL     1      -1.839  -2.087   0.116  1.00  0.00     0.079 C 
HETATM    5  C10 UNL     1      -1.462  -1.195   1.310  1.00  0.00     0.270 C 
HETATM    6  O3  UNL     1      -2.693  -0.697   1.786  1.00  0.00    -0.330 OA
HETATM    7  C11 UNL     1      -3.179   0.306   0.959  1.00  0.00     0.273 C 
HETATM    8  C13 UNL     1      -3.300  -0.225  -0.441  1.00  0.00     0.036 C 
HETATM    9  C14 UNL     1      -4.445  -1.243  -0.431  1.00  0.00     0.023 C 
HETATM   10  C15 UNL     1      -3.672   0.833  -1.437  1.00  0.00     0.023 C 
HETATM   11  C16 UNL     1      -2.071  -0.949  -0.890  1.00  0.00     0.106 C 
HETATM   12  C17 UNL     1      -0.844  -0.125  -0.566  1.00  0.00     0.190 C 
HETATM   13  O6  UNL     1      -0.765  -0.131   0.808  1.00  0.00    -0.350 OA
ENDROOT
BRANCH   1  14
HETATM   14  O2  UNL     1       1.454  -0.560  -0.144  1.00  0.00    -0.313 OA
BRANCH  14  15
HETATM   15  C5  UNL     1       2.571   0.185  -0.436  1.00  0.00     0.259 C 
HETATM   16  O1  UNL     1       2.672   0.674  -1.592  1.00  0.00    -0.265 OA
BRANCH  15  17
HETATM   17  C4  UNL     1       3.663   0.445   0.534  1.00  0.00     0.111 C 
BRANCH  17  18
HETATM   18  C3  UNL     1       4.758   1.297  -0.077  1.00  0.00     0.009 C 
BRANCH  18  19
HETATM   19  C2  UNL     1       5.827   1.515   0.971  1.00  0.00    -0.004 C 
HETATM   20  C1  UNL     1       6.964   2.348   0.471  1.00  0.00     0.005 C 
ENDBRANCH  18  19
ENDBRANCH  17  18
ENDBRANCH  15  17
ENDBRANCH  14  15
ENDBRANCH   1  14
BRANCH  11  21
HETATM   21  O5  UNL     1      -2.150  -1.374  -2.175  1.00  0.00    -0.386 OA
ATOM     22  H5  UNL     1      -2.293  -0.670  -2.797  1.00  0.00     0.210 HD
ENDBRANCH  11  21
BRANCH   7  23
HETATM   23  O4  UNL     1      -2.493   1.487   1.049  1.00  0.00    -0.365 OA
HETATM   24  C12 UNL     1      -3.284   2.533   1.535  1.00  0.00     0.204 C 
ENDBRANCH   7  23
TORSDOF 7
