REMARK  8 active torsions:
REMARK  status: ('A' for Active; 'I' for Inactive)
REMARK    1  A    between atoms: C2_2  and  C5_5 
REMARK    2  A    between atoms: C5_5  and  C8_8 
REMARK    3  A    between atoms: C8_8  and  C9_10 
REMARK    4  A    between atoms: C9_10  and  O2_11 
REMARK    5  A    between atoms: O2_11  and  C10_12 
REMARK    6  A    between atoms: C10_12  and  C11_14 
REMARK    7  A    between atoms: C11_14  and  N1_15 
REMARK       I    between atoms: N1_15  and  C12_17 
REMARK    8  A    between atoms: C12_17  and  C13_19 
ROOT
HETATM    1  C10 UNL     1       1.455  -0.227   1.448  1.00  0.00     0.277 C 
HETATM    2  O3  UNL     1       1.698  -1.352   0.958  1.00  0.00    -0.263 OA
ENDROOT
BRANCH   1   3
HETATM    3  O2  UNL     1       0.195   0.359   1.449  1.00  0.00    -0.313 OA
BRANCH   3   4
HETATM    4  C9  UNL     1      -0.845  -0.396   0.854  1.00  0.00     0.258 C 
BRANCH   4   5
HETATM    5  C8  UNL     1      -2.114   0.366   0.812  1.00  0.00     0.159 C 
HETATM    6  O1  UNL     1      -2.186   1.509   1.260  1.00  0.00    -0.295 OA
BRANCH   5   7
HETATM    7  C5  UNL     1      -3.291  -0.328   0.200  1.00  0.00     0.022 C 
HETATM    8  C6  UNL     1      -3.692  -1.392   1.217  1.00  0.00     0.024 C 
HETATM    9  C7  UNL     1      -2.838  -0.927  -1.088  1.00  0.00     0.024 C 
BRANCH   7  10
HETATM   10  C2  UNL     1      -4.479   0.591   0.050  1.00  0.00    -0.037 C 
HETATM   11  C1  UNL     1      -4.186   1.686  -0.960  1.00  0.00     0.015 C 
HETATM   12  C3  UNL     1      -5.658  -0.248  -0.381  1.00  0.00     0.015 C 
HETATM   13  C4  UNL     1      -4.804   1.256   1.348  1.00  0.00     0.015 C 
ENDBRANCH   7  10
ENDBRANCH   5   7
ENDBRANCH   4   5
ENDBRANCH   3   4
ENDBRANCH   1   3
BRANCH   1  14
HETATM   14  C11 UNL     1       2.639   0.490   2.050  1.00  0.00     0.234 C 
BRANCH  14  15
HETATM   15  N1  UNL     1       3.852   0.084   1.404  1.00  0.00    -0.346 N 
HETATM   16  C12 UNL     1       3.958   0.319  -0.008  1.00  0.00     0.277 C 
HETATM   17  O4  UNL     1       2.973   0.860  -0.573  1.00  0.00    -0.265 OA
ATOM     18  H1  UNL     1       4.610  -0.355   1.927  1.00  0.00     0.163 HD
BRANCH  16  19
HETATM   19  C13 UNL     1       5.110  -0.021  -0.810  1.00  0.00     0.158 C 
HETATM   20  C14 UNL     1       5.086   0.244  -2.109  1.00  0.00     0.177 C 
HETATM   21  O5  UNL     1       6.187  -0.069  -2.924  1.00  0.00    -0.358 OA
HETATM   22  C15 UNL     1       7.502  -0.027  -2.328  1.00  0.00     0.201 C 
HETATM   23  C16 UNL     1       7.441  -0.761  -1.023  1.00  0.00     0.202 C 
HETATM   24  O6  UNL     1       6.252  -0.614  -0.307  1.00  0.00    -0.342 OA
ENDBRANCH  16  19
ENDBRANCH  14  15
ENDBRANCH   1  14
TORSDOF 8
