REMARK  8 active torsions:
REMARK  status: ('A' for Active; 'I' for Inactive)
REMARK    1  A    between atoms: C1_2  and  C2_4 
REMARK    2  A    between atoms: C2_4  and  C3_5 
REMARK    3  A    between atoms: C3_5  and  N1_6 
REMARK    4  A    between atoms: N2_9  and  C6_10 
REMARK    5  A    between atoms: C8_14  and  C9_15 
REMARK    6  A    between atoms: C12_20  and  N5_21 
REMARK    7  A    between atoms: N5_21  and  C13_23 
REMARK    8  A    between atoms: C13_23  and  C14_24 
ROOT
HETATM    1  C6  UNL     1      -1.239  -0.163  -0.918  1.00  0.00     0.090 A 
HETATM    2  C7  UNL     1      -1.457  -0.346  -2.276  1.00  0.00     0.122 A 
HETATM    3  N3  UNL     1      -2.692  -0.494  -2.745  1.00  0.00    -0.353 N 
ATOM      4  H3  UNL     1      -2.809  -0.627  -3.749  1.00  0.00     0.166 HD
HETATM    5  C8  UNL     1      -3.790  -0.479  -1.982  1.00  0.00     0.086 A 
HETATM    6  N4  UNL     1      -3.626  -0.303  -0.654  1.00  0.00    -0.330 N 
ATOM      7  H4  UNL     1      -4.445  -0.287  -0.046  1.00  0.00     0.168 HD
HETATM    8  C12 UNL     1      -2.399  -0.148  -0.117  1.00  0.00     0.135 A 
ENDROOT
BRANCH   1   9
HETATM    9  N2  UNL     1       0.044  -0.009  -0.381  1.00  0.00    -0.375 N 
HETATM   10  C5  UNL     1       0.941  -1.171  -0.487  1.00  0.00     0.143 C 
HETATM   11  C4  UNL     1       2.244  -0.758  -1.061  1.00  0.00     0.142 C 
HETATM   12  N1  UNL     1       3.240  -0.266  -0.143  1.00  0.00    -0.382 N 
HETATM   13  C17 UNL     1       2.959   0.996   0.430  1.00  0.00     0.033 A 
HETATM   14  C16 UNL     1       1.609   0.994   1.167  1.00  0.00     0.051 C 
HETATM   15  C18 UNL     1       3.035   2.173  -0.558  1.00  0.00     0.033 A 
HETATM   16  C19 UNL     1       3.899   2.093   0.647  1.00  0.00     0.033 A 
HETATM   17  C15 UNL     1       0.451   1.231   0.230  1.00  0.00     0.125 C 
BRANCH  12  18
HETATM   18  C3  UNL     1       3.692  -1.324   0.648  1.00  0.00     0.069 C 
BRANCH  18  19
HETATM   19  C2  UNL     1       4.822  -1.188   1.568  1.00  0.00     0.157 C 
BRANCH  19  20
HETATM   20  C1  UNL     1       6.089  -0.842   0.824  1.00  0.00     0.177 C 
HETATM   21  O1  UNL     1       7.186  -0.680   1.418  1.00  0.00    -0.648 OA
HETATM   22  O2  UNL     1       6.075  -0.691  -0.550  1.00  0.00    -0.648 OA
ENDBRANCH  19  20
ENDBRANCH  18  19
ENDBRANCH  12  18
ENDBRANCH   1   9
BRANCH   8  23
HETATM   23  N5  UNL     1      -2.197   0.027   1.137  1.00  0.00    -0.346 N 
ATOM     24  H5  UNL     1      -1.219   0.134   1.404  1.00  0.00     0.166 HD
BRANCH  23  25
HETATM   25  C13 UNL     1      -3.115   0.094   2.203  1.00  0.00     0.178 C 
BRANCH  25  26
HETATM   26  C14 UNL     1      -3.049   1.426   2.941  1.00  0.00     0.422 C 
HETATM   27  F1  UNL     1      -3.332   2.464   2.073  1.00  0.00    -0.166 F 
HETATM   28  F2  UNL     1      -4.037   1.474   3.922  1.00  0.00    -0.166 F 
HETATM   29  F3  UNL     1      -1.788   1.549   3.494  1.00  0.00    -0.166 F 
ENDBRANCH  25  26
ENDBRANCH  23  25
ENDBRANCH   8  23
BRANCH   5  30
HETATM   30  C9  UNL     1      -5.160  -0.659  -2.573  1.00  0.00     0.053 A 
HETATM   31  C10 UNL     1      -6.336  -0.013  -1.910  1.00  0.00     0.013 A 
HETATM   32  C11 UNL     1      -6.114  -1.520  -1.830  1.00  0.00     0.013 A 
ENDBRANCH   5  30
TORSDOF 8
