REMARK  11 active torsions:
REMARK  status: ('A' for Active; 'I' for Inactive)
REMARK    1  A    between atoms: O1_1  and  C1_3 
REMARK    2  A    between atoms: N1_5  and  C3_6 
REMARK    3  A    between atoms: C3_6  and  C4_7 
REMARK    4  A    between atoms: C4_7  and  C5_8 
REMARK    5  A    between atoms: C5_8  and  C6_9 
REMARK    6  A    between atoms: C6_9  and  C7_10 
REMARK    7  A    between atoms: C8_11  and  C9_12 
REMARK    8  A    between atoms: C11_16  and  N3_17 
REMARK    9  A    between atoms: N3_17  and  C12_19 
REMARK   10  A    between atoms: C12_19  and  C13_20 
REMARK   11  A    between atoms: C18_28  and  C19_29 
ROOT
HETATM    1  C9  UNL     1       0.097  -1.304  -1.029  1.00  0.00     0.065 A 
HETATM    2  C10 UNL     1      -0.492  -0.261  -1.700  1.00  0.00     0.129 A 
HETATM    3  N2  UNL     1      -1.741   0.140  -1.415  1.00  0.00    -0.201 N 
ATOM      4  H2  UNL     1      -2.136   0.921  -1.940  1.00  0.00     0.183 HD
HETATM    5  C11 UNL     1      -2.492  -0.444  -0.468  1.00  0.00     0.678 A 
HETATM    6  N4  UNL     1      -1.906  -1.483   0.202  1.00  0.00    -0.185 N 
ATOM      7  H4  UNL     1      -2.447  -1.951   0.929  1.00  0.00     0.184 HD
HETATM    8  C18 UNL     1      -0.673  -1.920  -0.038  1.00  0.00     0.152 A 
ENDROOT
BRANCH   1   9
HETATM    9  C8  UNL     1       1.422  -1.785  -1.299  1.00  0.00    -0.063 C 
HETATM   10  C7  UNL     1       2.511  -2.215  -1.529  1.00  0.00    -0.101 C 
BRANCH  10  11
HETATM   11  C6  UNL     1       3.822  -2.773  -1.815  1.00  0.00     0.094 C 
BRANCH  11  12
HETATM   12  C5  UNL     1       4.883  -1.853  -1.310  1.00  0.00     0.014 C 
BRANCH  12  13
HETATM   13  C4  UNL     1       4.827  -1.598   0.179  1.00  0.00     0.031 C 
BRANCH  13  14
HETATM   14  C3  UNL     1       5.996  -0.666   0.520  1.00  0.00     0.272 C 
BRANCH  14  15
HETATM   15  N1  UNL     1       5.856   0.574  -0.201  1.00  0.00     0.093 N 
HETATM   16  C2  UNL     1       4.773   1.381   0.269  1.00  0.00     0.305 C 
HETATM   17  C1  UNL     1       5.806   2.206   1.045  1.00  0.00     0.174 C 
HETATM   18  C20 UNL     1       6.803   1.606   0.047  1.00  0.00     0.305 C 
BRANCH  17  19
HETATM   19  O1  UNL     1       5.682   3.574   0.919  1.00  0.00    -0.392 OA
ATOM     20  H1  UNL     1       6.322   4.085   1.400  1.00  0.00     0.210 HD
ENDBRANCH  17  19
ENDBRANCH  14  15
ENDBRANCH  13  14
ENDBRANCH  12  13
ENDBRANCH  11  12
ENDBRANCH  10  11
ENDBRANCH   1   9
BRANCH   8  21
HETATM   21  C19 UNL     1      -0.048  -3.049   0.706  1.00  0.00     0.434 C 
HETATM   22  F1  UNL     1       0.257  -4.021  -0.252  1.00  0.00    -0.165 F 
HETATM   23  F2  UNL     1       1.136  -2.659   1.303  1.00  0.00    -0.165 F 
HETATM   24  F3  UNL     1      -0.943  -3.586   1.577  1.00  0.00    -0.165 F 
ENDBRANCH   8  21
BRANCH   5  25
HETATM   25  N3  UNL     1      -3.686  -0.110  -0.152  1.00  0.00    -0.226 N 
ATOM     26  H3  UNL     1      -4.168  -0.622   0.587  1.00  0.00     0.177 HD
BRANCH  25  27
HETATM   27  C12 UNL     1      -4.366   0.973  -0.816  1.00  0.00     0.142 C 
BRANCH  27  28
HETATM   28  C13 UNL     1      -5.551   1.328   0.061  1.00  0.00     0.008 C 
HETATM   29  C14 UNL     1      -6.403   0.076   0.156  1.00  0.00     0.032 C 
HETATM   30  C15 UNL     1      -7.489   0.388   1.194  1.00  0.00     0.168 C 
HETATM   31  O2  UNL     1      -8.267   1.393   0.630  1.00  0.00    -0.391 OA
HETATM   32  C16 UNL     1      -7.589   2.577   0.459  1.00  0.00     0.168 C 
HETATM   33  C17 UNL     1      -6.378   2.460  -0.448  1.00  0.00     0.032 C 
ENDBRANCH  27  28
ENDBRANCH  25  27
ENDBRANCH   5  25
TORSDOF 11
