REMARK  8 active torsions:
REMARK  status: ('A' for Active; 'I' for Inactive)
REMARK    1  A    between atoms: O1_2  and  C2_3 
REMARK    2  A    between atoms: C5_6  and  C6_7 
REMARK    3  A    between atoms: C6_7  and  N1_8 
REMARK    4  A    between atoms: C9_11  and  O2_12 
REMARK    5  A    between atoms: C9_11  and  C10_14 
REMARK    6  A    between atoms: C10_14  and  N2_15 
REMARK       I    between atoms: N2_15  and  C11_17 
REMARK    7  A    between atoms: C11_17  and  C12_19 
REMARK    8  A    between atoms: C12_19  and  C13_20 
ROOT
HETATM    1  N1  UNL     1       1.298  -0.337  -0.525  1.00  0.00    -0.370 N 
HETATM    2  C7  UNL     1       0.900   0.898  -0.080  1.00  0.00     0.066 C 
HETATM    3  C8  UNL     1      -0.619   0.955  -0.191  1.00  0.00     0.090 C 
HETATM    4  C9  UNL     1      -0.997  -0.352  -0.730  1.00  0.00     0.110 C 
HETATM    5  C17 UNL     1       0.336  -0.837  -1.432  1.00  0.00     0.170 C 
ENDROOT
BRANCH   4   6
HETATM    6  O2  UNL     1      -1.211  -1.381   0.185  1.00  0.00    -0.382 OA
ATOM      7  H2  UNL     1      -1.456  -2.229  -0.165  1.00  0.00     0.211 HD
ENDBRANCH   4   6
BRANCH   4   8
HETATM    8  C10 UNL     1      -2.058  -0.307  -1.765  1.00  0.00     0.103 C 
BRANCH   8   9
HETATM    9  N2  UNL     1      -3.386  -0.204  -1.305  1.00  0.00    -0.335 N 
HETATM   10  C11 UNL     1      -4.064   0.773  -0.582  1.00  0.00     0.265 C 
HETATM   11  O3  UNL     1      -3.566   1.831  -0.184  1.00  0.00    -0.269 OA
ATOM     12  H2  UNL     1      -3.966  -1.006  -1.551  1.00  0.00     0.168 HD
BRANCH  10  13
HETATM   13  C12 UNL     1      -5.526   0.586  -0.223  1.00  0.00     0.239 C 
HETATM   14  C14 UNL     1      -5.733   0.563   1.263  1.00  0.00     0.060 C 
HETATM   15  C15 UNL     1      -6.891  -0.401   1.399  1.00  0.00     0.030 C 
HETATM   16  C16 UNL     1      -6.728  -1.256   0.172  1.00  0.00     0.170 C 
HETATM   17  O4  UNL     1      -5.954  -0.598  -0.741  1.00  0.00    -0.362 OA
BRANCH  13  18
HETATM   18  C13 UNL     1      -6.299   1.721  -0.838  1.00  0.00     0.427 C 
HETATM   19  F1  UNL     1      -5.868   2.953  -0.364  1.00  0.00    -0.167 F 
HETATM   20  F2  UNL     1      -7.654   1.616  -0.606  1.00  0.00    -0.167 F 
HETATM   21  F3  UNL     1      -6.099   1.767  -2.220  1.00  0.00    -0.167 F 
ENDBRANCH  13  18
ENDBRANCH  10  13
ENDBRANCH   8   9
ENDBRANCH   4   8
BRANCH   1  22
HETATM   22  C6  UNL     1       1.968  -1.284   0.245  1.00  0.00     0.068 C 
BRANCH  22  23
HETATM   23  C5  UNL     1       3.380  -1.020   0.631  1.00  0.00     0.024 C 
HETATM   24  C4  UNL     1       3.633   0.207   1.439  1.00  0.00     0.012 C 
HETATM   25  C3  UNL     1       5.086   0.154   1.932  1.00  0.00     0.032 C 
HETATM   26  C2  UNL     1       5.944   0.140   0.685  1.00  0.00     0.120 C 
HETATM   27  C19 UNL     1       5.706  -1.193   0.011  1.00  0.00     0.032 C 
HETATM   28  C18 UNL     1       4.301  -1.084  -0.598  1.00  0.00     0.012 C 
BRANCH  26  29
HETATM   29  O1  UNL     1       7.260   0.409   0.919  1.00  0.00    -0.391 OA
HETATM   30  C1  UNL     1       7.622   1.558   0.222  1.00  0.00     0.202 C 
ENDBRANCH  26  29
ENDBRANCH  22  23
ENDBRANCH   1  22
TORSDOF 8
