REMARK  6 active torsions:
REMARK  status: ('A' for Active; 'I' for Inactive)
REMARK       I    between atoms: C1_2  and  N1_3 
REMARK    1  A    between atoms: C1_2  and  C6_11 
REMARK    2  A    between atoms: N1_3  and  C2_5 
REMARK    3  A    between atoms: C8_13  and  O3_14 
REMARK    4  A    between atoms: O3_14  and  C9_15 
REMARK    5  A    between atoms: C9_15  and  C10_16 
REMARK       I    between atoms: N2_20  and  C12_21 
REMARK       I    between atoms: C12_21  and  N3_23 
REMARK    6  A    between atoms: N3_23  and  C13_25 
ROOT
HETATM    1  C6  UNL     1      -0.533   0.846   0.086  1.00  0.00     0.183 C 
HETATM    2  C7  UNL     1      -1.525   1.901  -0.314  1.00  0.00     0.068 C 
HETATM    3  C8  UNL     1      -0.712   3.166  -0.341  1.00  0.00     0.142 C 
HETATM    4  C11 UNL     1       0.542   2.633  -1.039  1.00  0.00     0.160 C 
HETATM    5  N2  UNL     1       0.747   1.358  -0.326  1.00  0.00    -0.318 N 
HETATM    6  C12 UNL     1       2.048   0.824  -0.118  1.00  0.00     0.319 C 
HETATM    7  O4  UNL     1       3.052   1.417  -0.579  1.00  0.00    -0.247 OA
HETATM    8  N3  UNL     1       2.274  -0.377   0.604  1.00  0.00    -0.338 N 
ATOM      9  H3  UNL     1       1.482  -0.886   0.995  1.00  0.00     0.164 HD
ENDROOT
BRANCH   1  10
HETATM   10  C1  UNL     1      -0.843  -0.462  -0.539  1.00  0.00     0.242 C 
HETATM   11  O1  UNL     1      -0.069  -0.966  -1.371  1.00  0.00    -0.271 OA
HETATM   12  N1  UNL     1      -2.025  -1.126  -0.179  1.00  0.00    -0.332 N 
ATOM     13  H1  UNL     1      -2.636  -0.682   0.507  1.00  0.00     0.165 HD
BRANCH  12  14
HETATM   14  C2  UNL     1      -2.429  -2.408  -0.726  1.00  0.00     0.241 C 
HETATM   15  O2  UNL     1      -2.571  -3.353   0.304  1.00  0.00    -0.365 OA
HETATM   16  C3  UNL     1      -3.327  -4.366  -0.264  1.00  0.00     0.172 C 
HETATM   17  C4  UNL     1      -4.378  -3.713  -1.125  1.00  0.00     0.051 C 
HETATM   18  C5  UNL     1      -3.846  -2.288  -1.223  1.00  0.00     0.133 C 
HETATM   19 CL1  UNL     1      -3.785  -1.751  -2.916  1.00  0.00    -0.120 Cl
ENDBRANCH  12  14
ENDBRANCH   1  10
BRANCH   3  20
HETATM   20  O3  UNL     1      -1.301   4.181  -1.060  1.00  0.00    -0.379 OA
BRANCH  20  21
HETATM   21  C9  UNL     1      -1.415   5.300  -0.239  1.00  0.00     0.239 C 
BRANCH  21  22
HETATM   22  C10 UNL     1      -2.061   6.461  -0.977  1.00  0.00     0.376 C 
HETATM   23  F1  UNL     1      -1.295   6.801  -2.074  1.00  0.00    -0.212 F 
HETATM   24  F2  UNL     1      -3.360   6.156  -1.366  1.00  0.00    -0.212 F 
ENDBRANCH  21  22
ENDBRANCH  20  21
ENDBRANCH   3  20
BRANCH   8  25
HETATM   25  C13 UNL     1       3.614  -0.887   0.792  1.00  0.00     0.086 C 
HETATM   26  C14 UNL     1       3.841  -1.057   2.272  1.00  0.00     0.025 C 
HETATM   27  C15 UNL     1       4.887  -2.124   2.344  1.00  0.00     0.002 C 
HETATM   28  C16 UNL     1       4.448  -3.098   1.271  1.00  0.00     0.002 C 
HETATM   29  C17 UNL     1       3.665  -2.300   0.258  1.00  0.00     0.025 C 
ENDBRANCH   8  25
TORSDOF 6
