REMARK  6 active torsions:
REMARK  status: ('A' for Active; 'I' for Inactive)
REMARK    1  A    between atoms: C5_6  and  C6_7 
REMARK    2  A    between atoms: C6_7  and  N1_8 
REMARK    3  A    between atoms: C6_7  and  C11_20 
REMARK    4  A    between atoms: N1_8  and  C7_10 
REMARK    5  A    between atoms: C7_10  and  N2_12 
REMARK    6  A    between atoms: N2_12  and  C8_14 
ROOT
HETATM    1  C6  UNL     1      -1.365  -1.419   0.406  1.00  0.00     0.076 C 
ENDROOT
BRANCH   1   2
HETATM    2  C5  UNL     1      -1.960  -0.077   0.371  1.00  0.00    -0.006 A 
HETATM    3  C4  UNL     1      -3.122   0.212   1.104  1.00  0.00     0.014 A 
HETATM    4  C3  UNL     1      -3.697   1.459   1.087  1.00  0.00     0.004 A 
HETATM    5  C2  UNL     1      -3.126   2.458   0.333  1.00  0.00     0.042 A 
HETATM    6  C1  UNL     1      -1.997   2.226  -0.397  1.00  0.00     0.117 A 
HETATM    7  F1  UNL     1      -1.439   3.205  -1.134  1.00  0.00    -0.206 F 
HETATM    8  C12 UNL     1      -1.427   0.945  -0.364  1.00  0.00     0.055 A 
ENDBRANCH   1   2
BRANCH   1   9
HETATM    9  N1  UNL     1       0.027  -1.419   0.586  1.00  0.00    -0.332 N 
ATOM     10  H1  UNL     1       0.297  -1.358   1.568  1.00  0.00     0.168 HD
BRANCH   9  11
HETATM   11  C7  UNL     1       1.123  -1.483  -0.270  1.00  0.00     0.178 C 
HETATM   12  S1  UNL     1       1.028  -1.647  -1.873  1.00  0.00    -0.040 SA
BRANCH  11  13
HETATM   13  N2  UNL     1       2.470  -1.440   0.261  1.00  0.00    -0.313 N 
ATOM     14  H2  UNL     1       2.809  -2.169   0.889  1.00  0.00     0.170 HD
BRANCH  13  15
HETATM   15  C8  UNL     1       3.245  -0.436  -0.088  1.00  0.00     0.150 A 
HETATM   16  N3  UNL     1       4.505  -0.238   0.304  1.00  0.00    -0.346 N 
HETATM   17  C9  UNL     1       5.132   0.812  -0.138  1.00  0.00     0.097 A 
ATOM     18  H3  UNL     1       4.965  -0.894   0.935  1.00  0.00     0.167 HD
HETATM   19  C10 UNL     1       4.465   1.658  -0.982  1.00  0.00     0.070 A 
HETATM   20  S2  UNL     1       2.940   0.897  -1.107  1.00  0.00    -0.064 SA
ENDBRANCH  13  15
ENDBRANCH  11  13
ENDBRANCH   9  11
ENDBRANCH   1   9
BRANCH   1  21
HETATM   21  C11 UNL     1      -1.983  -2.310  -0.604  1.00  0.00     0.231 C 
HETATM   22 CL1  UNL     1      -1.247  -3.937  -0.622  1.00  0.00    -0.077 Cl
HETATM   23 CL2  UNL     1      -3.691  -2.609  -0.027  1.00  0.00    -0.077 Cl
HETATM   24 CL3  UNL     1      -2.171  -1.658  -2.220  1.00  0.00    -0.077 Cl
ENDBRANCH   1  21
TORSDOF 6
