REMARK  6 active torsions:
REMARK  status: ('A' for Active; 'I' for Inactive)
REMARK    1  A    between atoms: N2_4  and  N3_5 
REMARK    2  A    between atoms: N2_4  and  C12_25 
REMARK    3  A    between atoms: N3_5  and  C1_7 
REMARK    4  A    between atoms: C4_14  and  N6_15 
REMARK    5  A    between atoms: N6_15  and  C5_17 
REMARK    6  A    between atoms: C5_17  and  C6_18 
ROOT
HETATM    1  C1  UNL     1       2.014  -0.334  -0.206  1.00  0.00     0.166 A 
HETATM    2  N4  UNL     1       3.190  -0.979  -0.312  1.00  0.00    -0.347 N 
ATOM      3  H4  UNL     1       4.060  -0.466  -0.167  1.00  0.00     0.167 HD
HETATM    4  C2  UNL     1       3.234  -2.291  -0.607  1.00  0.00     0.107 A 
HETATM    5  C3  UNL     1       2.034  -2.941  -0.792  1.00  0.00     0.107 A 
HETATM    6  N5  UNL     1       0.855  -2.287  -0.684  1.00  0.00    -0.348 N 
ATOM      7  H5  UNL     1      -0.015  -2.799  -0.828  1.00  0.00     0.167 HD
HETATM    8  C4  UNL     1       0.807  -0.975  -0.390  1.00  0.00     0.147 A 
ENDROOT
BRANCH   1   9
HETATM    9  N3  UNL     1       1.989   0.926   0.078  1.00  0.00    -0.258 N 
ATOM     10  H3  UNL     1       1.080   1.383   0.152  1.00  0.00     0.190 HD
BRANCH   9  11
HETATM   11  N2  UNL     1       3.119   1.692   0.287  1.00  0.00    -0.137 N 
HETATM   12  N1  UNL     1       3.842   2.024  -0.697  1.00  0.00    -0.321 N 
ATOM     13  H12 UNL     1       3.571   1.714  -1.630  1.00  0.00     0.178 HD
ATOM     14  H11 UNL     1       4.677   2.590  -0.543  1.00  0.00     0.178 HD
BRANCH  11  15
HETATM   15  C12 UNL     1       3.503   2.131   1.608  1.00  0.00     0.519 C 
HETATM   16  F1  UNL     1       3.729   1.034   2.450  1.00  0.00    -0.148 F 
HETATM   17  F2  UNL     1       4.627   2.909   1.573  1.00  0.00    -0.148 F 
HETATM   18  F3  UNL     1       2.485   2.874   2.200  1.00  0.00    -0.148 F 
ENDBRANCH  11  15
ENDBRANCH   9  11
ENDBRANCH   1   9
BRANCH   8  19
HETATM   19  N6  UNL     1      -0.309  -0.336  -0.283  1.00  0.00    -0.369 N 
ATOM     20  H6  UNL     1      -0.304   0.659  -0.059  1.00  0.00     0.161 HD
BRANCH  19  21
HETATM   21  C5  UNL     1      -1.577  -1.027  -0.480  1.00  0.00     0.160 C 
BRANCH  21  22
HETATM   22  C6  UNL     1      -2.725  -0.158  -0.147  1.00  0.00    -0.039 A 
HETATM   23  C7  UNL     1      -3.237  -0.127   1.127  1.00  0.00     0.009 A 
HETATM   24  C8  UNL     1      -4.318   0.687   1.450  1.00  0.00     0.002 A 
HETATM   25  C9  UNL     1      -4.885   1.477   0.474  1.00  0.00     0.019 A 
HETATM   26  C10 UNL     1      -4.393   1.462  -0.799  1.00  0.00     0.011 A 
HETATM   27 BR1  UNL     1      -5.220   2.574  -2.099  1.00  0.00    -0.051 Br
HETATM   28  C11 UNL     1      -3.312   0.641  -1.102  1.00  0.00     0.027 A 
ENDBRANCH  21  22
ENDBRANCH  19  21
ENDBRANCH   8  19
TORSDOF 6
