REMARK  6 active torsions:
REMARK  status: ('A' for Active; 'I' for Inactive)
REMARK    1  A    between atoms: N1_4  and  C4_5 
REMARK    2  A    between atoms: C4_5  and  C5_6 
REMARK    3  A    between atoms: C9_10  and  C10_11 
REMARK    4  A    between atoms: C10_11  and  N2_12 
REMARK    5  A    between atoms: N2_12  and  C11_14 
REMARK    6  A    between atoms: C11_14  and  C12_18 
ROOT
HETATM    1  C1  UNL     1      -0.293   3.664   0.807  1.00  0.00     0.042 C 
HETATM    2  C2  UNL     1       0.019   2.696  -0.327  1.00  0.00     0.210 C 
HETATM    3  C3  UNL     1      -1.047   1.756  -0.629  1.00  0.00     0.305 C 
HETATM    4  N1  UNL     1      -0.907   0.350  -0.330  1.00  0.00     0.099 N 
HETATM    5  C9  UNL     1       0.320  -0.002   0.264  1.00  0.00     0.266 C 
HETATM    6  C13 UNL     1       0.946   1.155   1.077  1.00  0.00     0.270 C 
HETATM    7  N4  UNL     1       1.301   2.112   0.013  1.00  0.00    -0.068 N 
ATOM      8  H41 UNL     1       2.025   2.785   0.266  1.00  0.00     0.277 HD
ATOM      9  H42 UNL     1       1.810   1.709  -0.774  1.00  0.00     0.277 HD
ENDROOT
BRANCH   5  10
HETATM   10  C10 UNL     1       1.365  -0.243  -0.843  1.00  0.00     0.158 C 
BRANCH  10  11
HETATM   11  N2  UNL     1       2.598  -0.610  -0.254  1.00  0.00    -0.373 N 
ATOM     12  H2  UNL     1       2.685  -0.664   0.761  1.00  0.00     0.161 HD
BRANCH  11  13
HETATM   13  C11 UNL     1       3.728  -0.906  -1.094  1.00  0.00     0.143 C 
HETATM   14  N3  UNL     1       3.544  -1.389  -2.246  1.00  0.00    -0.284 N 
HETATM   15 CL1  UNL     1       4.721  -1.810  -3.397  1.00  0.00     0.012 Cl
ATOM     16  H3  UNL     1       2.573  -1.545  -2.518  1.00  0.00     0.182 HD
BRANCH  13  17
HETATM   17  C12 UNL     1       5.094  -0.621  -0.589  1.00  0.00     0.247 C 
HETATM   18 CL2  UNL     1       6.280  -1.772  -1.200  1.00  0.00    -0.075 Cl
HETATM   19 CL3  UNL     1       5.559   1.034  -1.107  1.00  0.00    -0.075 Cl
HETATM   20 CL4  UNL     1       5.069  -0.648   1.195  1.00  0.00    -0.075 Cl
ENDBRANCH  13  17
ENDBRANCH  11  13
ENDBRANCH  10  11
ENDBRANCH   5  10
BRANCH   4  21
HETATM   21  C4  UNL     1      -2.120  -0.109   0.227  1.00  0.00     0.281 C 
BRANCH  21  22
HETATM   22  C5  UNL     1      -2.459  -1.523   0.353  1.00  0.00    -0.025 C 
HETATM   23  C6  UNL     1      -1.625  -2.453   1.134  1.00  0.00     0.016 C 
HETATM   24  C7  UNL     1      -3.882  -1.563   0.989  1.00  0.00     0.016 C 
HETATM   25  C8  UNL     1      -2.693  -2.179  -1.023  1.00  0.00     0.016 C 
ENDBRANCH  21  22
ENDBRANCH   4  21
TORSDOF 6
