REMARK  6 active torsions:
REMARK  status: ('A' for Active; 'I' for Inactive)
REMARK    1  A    between atoms: C6_6  and  N1_7 
REMARK    2  A    between atoms: N1_7  and  C7_9 
REMARK    3  A    between atoms: N3_12  and  C8_13 
REMARK    4  A    between atoms: C8_13  and  C9_14 
REMARK    5  A    between atoms: C9_14  and  O1_16 
REMARK    6  A    between atoms: C9_14  and  C11_18 
ROOT
HETATM    1  C7  UNL     1       0.187   1.442   1.367  1.00  0.00     0.139 A 
HETATM    2  N2  UNL     1      -0.362   0.281   1.015  1.00  0.00    -0.282 N 
ATOM      3  H2  UNL     1       0.165  -0.504   0.631  1.00  0.00     0.189 HD
HETATM    4  N3  UNL     1      -1.666   0.262   1.220  1.00  0.00    -0.297 N 
HETATM    5  C12 UNL     1      -1.974   1.466   1.727  1.00  0.00     0.133 A 
HETATM    6  C13 UNL     1      -0.841   2.233   1.834  1.00  0.00     0.073 A 
HETATM    7 BR1  UNL     1      -0.671   4.028   2.488  1.00  0.00    -0.045 Br
ENDROOT
BRANCH   1   8
HETATM    8  N1  UNL     1       1.428   1.823   1.310  1.00  0.00    -0.340 N 
ATOM      9  H1  UNL     1       1.718   2.752   1.615  1.00  0.00     0.167 HD
BRANCH   8  10
HETATM   10  C6  UNL     1       2.371   0.869   0.795  1.00  0.00     0.034 A 
HETATM   11  C5  UNL     1       2.873  -0.081   1.675  1.00  0.00     0.029 A 
HETATM   12  C4  UNL     1       3.788  -1.018   1.205  1.00  0.00     0.003 A 
HETATM   13  C3  UNL     1       4.160  -0.966  -0.120  1.00  0.00     0.007 A 
HETATM   14  C2  UNL     1       3.667  -0.028  -0.998  1.00  0.00    -0.060 A 
HETATM   15  C1  UNL     1       4.127  -0.050  -2.411  1.00  0.00     0.048 C 
HETATM   16  C14 UNL     1       2.758   0.903  -0.529  1.00  0.00     0.036 A 
ENDBRANCH   8  10
ENDBRANCH   1   8
BRANCH   4  17
HETATM   17  C8  UNL     1      -2.529  -0.833   0.944  1.00  0.00     0.195 C 
BRANCH  17  18
HETATM   18  C9  UNL     1      -3.135  -0.874  -0.413  1.00  0.00     0.169 C 
HETATM   19  C10 UNL     1      -3.983   0.375  -0.669  1.00  0.00     0.057 C 
BRANCH  18  20
HETATM   20  O1  UNL     1      -4.039  -1.949  -0.504  1.00  0.00    -0.379 OA
ATOM     21  H1  UNL     1      -4.426  -1.975  -1.371  1.00  0.00     0.211 HD
ENDBRANCH  18  20
BRANCH  18  22
HETATM   22  C11 UNL     1      -2.186  -1.001  -1.556  1.00  0.00     0.419 C 
HETATM   23  F1  UNL     1      -1.421  -2.148  -1.499  1.00  0.00    -0.168 F 
HETATM   24  F2  UNL     1      -1.444   0.136  -1.811  1.00  0.00    -0.168 F 
HETATM   25  F3  UNL     1      -2.984  -1.164  -2.702  1.00  0.00    -0.168 F 
ENDBRANCH  18  22
ENDBRANCH  17  18
ENDBRANCH   4  17
TORSDOF 6
