REMARK  4 active torsions:
REMARK  status: ('A' for Active; 'I' for Inactive)
REMARK    1  A    between atoms: N1_5  and  C5_6 
REMARK    2  A    between atoms: C5_6  and  C7_8 
REMARK    3  A    between atoms: C7_8  and  N2_9 
REMARK    4  A    between atoms: N2_9  and  C8_11 
ROOT
HETATM    1  C5  UNL     1      -0.003  -1.229   0.619  1.00  0.00     0.236 C 
HETATM    2  C6  UNL     1       0.335  -2.601   0.073  1.00  0.00     0.044 C 
ENDROOT
BRANCH   1   3
HETATM    3  N1  UNL     1      -1.135  -0.683  -0.002  1.00  0.00     0.094 N 
HETATM    4  C4  UNL     1      -2.319  -1.426   0.326  1.00  0.00     0.273 C 
HETATM    5  C3  UNL     1      -3.518  -1.045  -0.486  1.00  0.00     0.034 C 
HETATM    6  C2  UNL     1      -3.703   0.436  -0.511  1.00  0.00    -0.015 C 
HETATM    7  C1  UNL     1      -5.108   0.868  -0.159  1.00  0.00     0.010 C 
HETATM    8  C13 UNL     1      -2.779   1.062   0.502  1.00  0.00     0.034 C 
HETATM    9  C12 UNL     1      -1.364   0.710   0.078  1.00  0.00     0.273 C 
ENDBRANCH   1   3
BRANCH   1  10
HETATM   10  C7  UNL     1       1.255  -0.414   0.630  1.00  0.00     0.151 C 
BRANCH  10  11
HETATM   11  N2  UNL     1       1.688  -0.040  -0.695  1.00  0.00    -0.395 N 
ATOM     12  H2  UNL     1       1.064  -0.068  -1.501  1.00  0.00     0.155 HD
BRANCH  11  13
HETATM   13  C8  UNL     1       3.040   0.368  -0.797  1.00  0.00     0.216 C 
HETATM   14  C9  UNL     1       3.278   1.637  -0.029  1.00  0.00     0.055 C 
HETATM   15  C10 UNL     1       4.817   1.647  -0.079  1.00  0.00     0.030 C 
HETATM   16  C11 UNL     1       5.128   0.179  -0.149  1.00  0.00     0.170 C 
HETATM   17  O1  UNL     1       3.931  -0.506  -0.176  1.00  0.00    -0.367 OA
ENDBRANCH  11  13
ENDBRANCH  10  11
ENDBRANCH   1  10
TORSDOF 4
