REMARK  5 active torsions:
REMARK  status: ('A' for Active; 'I' for Inactive)
REMARK    1  A    between atoms: N1_4  and  C4_5 
REMARK    2  A    between atoms: C4_5  and  C5_6 
REMARK    3  A    between atoms: C6_7  and  C7_8 
REMARK    4  A    between atoms: C7_8  and  O1_9 
REMARK    5  A    between atoms: C7_8  and  C8_11 
ROOT
HETATM    1  C5  UNL     1       0.141   0.987  -0.185  1.00  0.00     0.002 C 
HETATM    2  C6  UNL     1       1.384   0.823  -0.578  1.00  0.00     0.003 C 
ENDROOT
BRANCH   1   3
HETATM    3  C4  UNL     1      -0.670   0.071   0.622  1.00  0.00     0.299 C 
BRANCH   3   4
HETATM    4  N1  UNL     1      -1.854  -0.334  -0.116  1.00  0.00     0.096 N 
HETATM    5  C3  UNL     1      -2.734   0.801  -0.275  1.00  0.00     0.304 C 
HETATM    6  C2  UNL     1      -4.133   0.513  -0.615  1.00  0.00     0.145 C 
HETATM    7  C1  UNL     1      -5.035   1.501   0.138  1.00  0.00     0.041 C 
HETATM    8  O2  UNL     1      -4.624  -0.725  -0.419  1.00  0.00    -0.383 OA
HETATM    9  C13 UNL     1      -3.738  -1.737  -0.192  1.00  0.00     0.198 C 
HETATM   10  C12 UNL     1      -2.606  -1.296   0.715  1.00  0.00     0.299 C 
ENDBRANCH   3   4
ENDBRANCH   1   3
BRANCH   2  11
HETATM   11  C7  UNL     1       2.149  -0.380  -0.231  1.00  0.00     0.148 C 
BRANCH  11  12
HETATM   12  O1  UNL     1       1.876  -1.356  -1.192  1.00  0.00    -0.391 OA
ATOM     13  H1  UNL     1       2.371  -2.135  -0.967  1.00  0.00     0.210 HD
ENDBRANCH  11  12
BRANCH  11  14
HETATM   14  C8  UNL     1       3.646  -0.136  -0.237  1.00  0.00    -0.022 C 
HETATM   15  C9  UNL     1       4.000   0.937   0.772  1.00  0.00     0.017 C 
HETATM   16  C10 UNL     1       4.069   0.259  -1.627  1.00  0.00     0.017 C 
HETATM   17  C11 UNL     1       4.367  -1.396   0.147  1.00  0.00     0.017 C 
ENDBRANCH  11  14
ENDBRANCH   2  11
TORSDOF 5
