REMARK  6 active torsions:
REMARK  status: ('A' for Active; 'I' for Inactive)
REMARK    1  A    between atoms: C2_2  and  C4_4 
REMARK    2  A    between atoms: C4_4  and  C5_5 
REMARK    3  A    between atoms: C6_8  and  O1_9 
REMARK    4  A    between atoms: O1_9  and  C7_10 
REMARK    5  A    between atoms: C7_10  and  C8_11 
REMARK    6  A    between atoms: C16_27  and  O3_28 
ROOT
HETATM    1  C5  UNL     1      -0.088  -0.379   0.837  1.00  0.00     0.133 C 
HETATM    2  N1  UNL     1      -1.173   0.345   0.255  1.00  0.00    -0.345 N 
ATOM      3  H1  UNL     1      -2.004  -0.197   0.019  1.00  0.00     0.163 HD
HETATM    4  C6  UNL     1      -1.218   1.603  -0.004  1.00  0.00     0.188 C 
HETATM    5  C9  UNL     1      -0.076   2.468   0.297  1.00  0.00     0.213 C 
HETATM    6  O2  UNL     1      -0.154   3.677   0.108  1.00  0.00    -0.287 OA
HETATM    7  C10 UNL     1       1.201   1.891   0.838  1.00  0.00     0.138 C 
HETATM    8  S1  UNL     1       0.589   0.767   2.143  1.00  0.00    -0.119 SA
HETATM    9  C11 UNL     1       1.706   0.964  -0.184  1.00  0.00     0.082 C 
HETATM   10  C12 UNL     1       3.161   0.677  -0.204  1.00  0.00     0.032 C 
HETATM   11  C13 UNL     1       4.052   1.835   0.090  1.00  0.00     0.025 C 
HETATM   12  C14 UNL     1       3.526   0.107  -1.570  1.00  0.00     0.025 C 
HETATM   13  C15 UNL     1       3.295  -0.442   0.748  1.00  0.00     0.171 C 
HETATM   14  F4  UNL     1       4.446  -0.797   1.432  1.00  0.00    -0.191 F 
HETATM   15  N2  UNL     1       2.169  -1.029   0.834  1.00  0.00    -0.335 N 
ATOM     16  H2  UNL     1       1.998  -1.840   1.429  1.00  0.00     0.164 HD
HETATM   17  C16 UNL     1       1.165  -0.426   0.003  1.00  0.00     0.175 C 
ENDROOT
BRANCH   4  18
HETATM   18  O1  UNL     1      -2.382   2.126  -0.580  1.00  0.00    -0.324 OA
BRANCH  18  19
HETATM   19  C7  UNL     1      -3.643   1.622  -0.203  1.00  0.00     0.294 C 
BRANCH  19  20
HETATM   20  C8  UNL     1      -4.754   2.337  -0.945  1.00  0.00     0.408 C 
HETATM   21  F1  UNL     1      -5.970   1.818  -0.551  1.00  0.00    -0.169 F 
HETATM   22  F2  UNL     1      -4.603   2.053  -2.289  1.00  0.00    -0.169 F 
HETATM   23  F3  UNL     1      -4.760   3.676  -0.697  1.00  0.00    -0.169 F 
ENDBRANCH  19  20
ENDBRANCH  18  19
ENDBRANCH   4  18
BRANCH   1  24
HETATM   24  C4  UNL     1      -0.419  -1.685   1.445  1.00  0.00     0.051 C 
BRANCH  24  25
HETATM   25  C2  UNL     1      -0.998  -2.634   0.441  1.00  0.00    -0.019 C 
HETATM   26  C1  UNL     1      -1.298  -3.952   1.198  1.00  0.00     0.009 C 
HETATM   27  C3  UNL     1      -2.290  -2.216  -0.167  1.00  0.00     0.009 C 
ENDBRANCH  24  25
ENDBRANCH   1  24
BRANCH  17  28
HETATM   28  O3  UNL     1       1.025  -1.058  -1.215  1.00  0.00    -0.367 OA
ATOM     29  H3  UNL     1       1.815  -1.088  -1.741  1.00  0.00     0.212 HD
ENDBRANCH  17  28
TORSDOF 6
