REMARK  5 active torsions:
REMARK  status: ('A' for Active; 'I' for Inactive)
REMARK    1  A    between atoms: C2_2  and  N1_3 
REMARK    2  A    between atoms: C8_10  and  C9_11 
REMARK    3  A    between atoms: C9_11  and  O1_12 
REMARK    4  A    between atoms: C9_11  and  C10_14 
REMARK    5  A    between atoms: N3_20  and  C11_21 
ROOT
HETATM    1  N1  UNL     1       3.258   0.075  -0.062  1.00  0.00    -0.302 N 
HETATM    2  C3  UNL     1       3.094  -0.289  -1.320  1.00  0.00     0.131 A 
HETATM    3  C4  UNL     1       1.728  -0.359  -1.627  1.00  0.00     0.058 A 
HETATM    4 BR1  UNL     1       0.987  -0.784  -3.340  1.00  0.00    -0.047 Br
HETATM    5  C5  UNL     1       1.084  -0.015  -0.467  1.00  0.00     0.095 A 
HETATM    6  C6  UNL     1      -0.307   0.162  -0.136  1.00  0.00     0.083 A 
HETATM    7  C7  UNL     1      -0.774   1.432   0.258  1.00  0.00     0.063 A 
HETATM    8  C8  UNL     1      -2.099   1.251   0.548  1.00  0.00     0.066 A 
HETATM    9  N2  UNL     1      -2.382  -0.013   0.342  1.00  0.00    -0.299 N 
ATOM     10  H2  UNL     1      -3.304  -0.427   0.480  1.00  0.00     0.187 HD
HETATM   11  N3  UNL     1      -1.290  -0.698  -0.078  1.00  0.00    -0.281 N 
HETATM   12  N4  UNL     1       2.077   0.239   0.450  1.00  0.00    -0.295 N 
ATOM     13  H4  UNL     1       1.906   0.522   1.415  1.00  0.00     0.187 HD
ENDROOT
BRANCH  11  14
HETATM   14  C11 UNL     1      -1.361  -2.109  -0.319  1.00  0.00     0.043 C 
HETATM   15  C12 UNL     1      -2.122  -2.462  -1.595  1.00  0.00     0.039 C 
HETATM   16  C13 UNL     1      -2.296  -2.711   0.795  1.00  0.00     0.039 C 
HETATM   17  C14 UNL     1      -0.116  -2.883  -0.118  1.00  0.00     0.039 C 
ENDBRANCH  11  14
BRANCH   8  18
HETATM   18  C9  UNL     1      -3.022   2.325   1.014  1.00  0.00     0.276 C 
BRANCH  18  19
HETATM   19  O1  UNL     1      -4.234   2.314   0.362  1.00  0.00    -0.381 OA
ATOM     20  H1  UNL     1      -4.822   2.998   0.659  1.00  0.00     0.210 HD
ENDBRANCH  18  19
BRANCH  18  21
HETATM   21  C10 UNL     1      -2.403   3.698   0.884  1.00  0.00     0.418 C 
HETATM   22  F1  UNL     1      -2.073   3.983  -0.426  1.00  0.00    -0.168 F 
HETATM   23  F2  UNL     1      -3.418   4.597   1.239  1.00  0.00    -0.168 F 
HETATM   24  F3  UNL     1      -1.383   3.922   1.770  1.00  0.00    -0.168 F 
ENDBRANCH  18  21
ENDBRANCH   8  18
BRANCH   1  25
HETATM   25  C2  UNL     1       4.496   0.279   0.698  1.00  0.00     0.143 C 
HETATM   26  C1  UNL     1       4.951   1.712   0.571  1.00  0.00     0.028 C 
ENDBRANCH   1  25
TORSDOF 5
