REMARK  10 active torsions:
REMARK  status: ('A' for Active; 'I' for Inactive)
REMARK    1  A    between atoms: C2_2  and  C3_3 
REMARK    2  A    between atoms: C2_2  and  N7_32 
REMARK    3  A    between atoms: C3_3  and  N1_4 
REMARK    4  A    between atoms: N1_4  and  C4_6 
REMARK    5  A    between atoms: C4_6  and  O1_7 
REMARK    6  A    between atoms: C4_6  and  C5_9 
REMARK    7  A    between atoms: C6_10  and  C7_11 
REMARK    8  A    between atoms: C8_17  and  N3_18 
REMARK    9  A    between atoms: N3_18  and  N4_20 
REMARK       I    between atoms: N4_20  and  C9_22 
REMARK   10  A    between atoms: C9_22  and  C10_24 
ROOT
HETATM    1  C5  UNL     1       0.229   1.860   0.144  1.00  0.00     0.088 A 
HETATM    2  C6  UNL     1       1.117   0.836   0.336  1.00  0.00     0.150 A 
HETATM    3  N2  UNL     1       2.469   1.098   0.365  1.00  0.00    -0.184 N 
ATOM      4  H2  UNL     1       3.101   0.311   0.512  1.00  0.00     0.184 HD
HETATM    5  C8  UNL     1       3.005   2.293   0.216  1.00  0.00     0.698 A 
HETATM    6  N5  UNL     1       2.152   3.311   0.024  1.00  0.00    -0.176 N 
ATOM      7  H5  UNL     1       2.525   4.253  -0.097  1.00  0.00     0.185 HD
HETATM    8  C14 UNL     1       0.841   3.130  -0.013  1.00  0.00     0.148 A 
HETATM    9  N6  UNL     1       0.009   4.260  -0.206  1.00  0.00    -0.081 NA
ENDROOT
BRANCH   1  10
HETATM   10  C4  UNL     1      -1.185   1.786   0.042  1.00  0.00     0.151 C 
BRANCH  10  11
HETATM   11  N1  UNL     1      -2.130   0.822   0.268  1.00  0.00    -0.368 N 
ATOM     12  H1  UNL     1      -1.879  -0.111   0.594  1.00  0.00     0.161 HD
BRANCH  11  13
HETATM   13  C3  UNL     1      -3.545   1.210   0.012  1.00  0.00     0.146 C 
BRANCH  13  14
HETATM   14  C2  UNL     1      -4.421   0.047   0.339  1.00  0.00     0.092 C 
HETATM   15  C1  UNL     1      -5.874   0.379   0.101  1.00  0.00     0.033 C 
BRANCH  14  16
HETATM   16  N7  UNL     1      -3.983  -1.130  -0.318  1.00  0.00    -0.407 N 
HETATM   17  C15 UNL     1      -4.648  -2.330   0.094  1.00  0.00     0.117 C 
HETATM   18  C16 UNL     1      -5.687  -2.856  -0.828  1.00  0.00     0.019 C 
HETATM   19  C17 UNL     1      -5.383  -2.641  -2.292  1.00  0.00     0.003 C 
HETATM   20  C18 UNL     1      -3.905  -2.343  -2.395  1.00  0.00     0.019 C 
HETATM   21  C19 UNL     1      -3.696  -1.006  -1.705  1.00  0.00     0.117 C 
ENDBRANCH  14  16
ENDBRANCH  13  14
ENDBRANCH  11  13
ENDBRANCH  10  11
BRANCH  10  22
HETATM   22  O1  UNL     1      -1.734   2.922  -0.362  1.00  0.00    -0.346 OA
ATOM     23  H1  UNL     1      -1.078   3.591  -0.519  1.00  0.00     0.219 HD
ENDBRANCH  10  22
ENDBRANCH   1  10
BRANCH   2  24
HETATM   24  C7  UNL     1       0.708  -0.578   0.467  1.00  0.00     0.434 C 
HETATM   25  F1  UNL     1       0.054  -1.019  -0.654  1.00  0.00    -0.165 F 
HETATM   26  F2  UNL     1       0.185  -0.924   1.673  1.00  0.00    -0.165 F 
HETATM   27  F3  UNL     1       1.944  -1.321   0.411  1.00  0.00    -0.165 F 
ENDBRANCH   2  24
BRANCH   5  28
HETATM   28  N3  UNL     1       4.273   2.475   0.244  1.00  0.00    -0.129 N 
ATOM     29  H3  UNL     1       4.669   3.408   0.127  1.00  0.00     0.205 HD
BRANCH  28  30
HETATM   30  N4  UNL     1       5.103   1.363   0.439  1.00  0.00    -0.255 N 
HETATM   31  C9  UNL     1       5.365   0.829   1.711  1.00  0.00     0.244 C 
HETATM   32  O2  UNL     1       4.844   1.337   2.726  1.00  0.00    -0.271 OA
ATOM     33  H4  UNL     1       5.534   0.924  -0.375  1.00  0.00     0.190 HD
BRANCH  31  34
HETATM   34  C10 UNL     1       6.270  -0.335   1.806  1.00  0.00     0.032 C 
HETATM   35  C11 UNL     1       7.679   0.158   1.525  1.00  0.00     0.025 C 
HETATM   36  C12 UNL     1       5.860  -1.314   0.705  1.00  0.00     0.025 C 
HETATM   37  C13 UNL     1       6.199  -0.992   3.146  1.00  0.00     0.025 C 
ENDBRANCH  31  34
ENDBRANCH  28  30
ENDBRANCH   5  28
TORSDOF 10
