REMARK  8 active torsions:
REMARK  status: ('A' for Active; 'I' for Inactive)
REMARK    1  A    between atoms: C2_2  and  C3_4 
REMARK    2  A    between atoms: C3_4  and  N1_5 
REMARK    3  A    between atoms: N2_8  and  C6_9 
REMARK    4  A    between atoms: C6_9  and  C7_10 
REMARK    5  A    between atoms: C7_10  and  O1_11 
REMARK    6  A    between atoms: C7_10  and  C8_13 
REMARK    7  A    between atoms: C8_13  and  N3_14 
REMARK    8  A    between atoms: C11_19  and  N5_20 
ROOT
HETATM    1  N3  UNL     1      -3.020   0.792   1.571  1.00  0.00    -0.324 N 
HETATM    2  C9  UNL     1      -3.147   1.077   2.876  1.00  0.00     0.185 A 
HETATM    3  N4  UNL     1      -4.052   0.274   3.452  1.00  0.00    -0.346 N 
ATOM      4  H4  UNL     1      -4.333   0.285   4.433  1.00  0.00     0.167 HD
HETATM    5  C10 UNL     1      -4.520  -0.546   2.502  1.00  0.00     0.122 A 
HETATM    6  C11 UNL     1      -5.458  -1.570   2.516  1.00  0.00     0.132 A 
HETATM    7  N6  UNL     1      -5.759  -2.256   1.419  1.00  0.00    -0.317 N 
ATOM      8  H6  UNL     1      -6.449  -3.007   1.436  1.00  0.00     0.170 HD
HETATM    9  C12 UNL     1      -5.109  -1.917   0.270  1.00  0.00     0.182 A 
HETATM   10 CL1  UNL     1      -5.502  -2.818  -1.177  1.00  0.00    -0.045 Cl
HETATM   11  N7  UNL     1      -4.197  -0.933   0.221  1.00  0.00    -0.317 N 
ATOM     12  H7  UNL     1      -3.739  -0.718  -0.665  1.00  0.00     0.170 HD
HETATM   13  C13 UNL     1      -3.873  -0.217   1.333  1.00  0.00     0.141 A 
ENDROOT
BRANCH   1  14
HETATM   14  C8  UNL     1      -2.170   1.409   0.588  1.00  0.00     0.168 C 
BRANCH  14  15
HETATM   15  C7  UNL     1      -0.812   0.694   0.507  1.00  0.00     0.175 C 
BRANCH  15  16
HETATM   16  C6  UNL     1      -0.001   1.396  -0.525  1.00  0.00     0.096 C 
BRANCH  16  17
HETATM   17  N2  UNL     1       1.307   0.944  -0.764  1.00  0.00    -0.365 N 
HETATM   18  C5  UNL     1       2.299   1.110   0.218  1.00  0.00     0.093 C 
HETATM   19  C4  UNL     1       3.665   0.606  -0.194  1.00  0.00     0.321 C 
HETATM   20  N1  UNL     1       3.614  -0.593  -0.960  1.00  0.00     0.133 N 
HETATM   21  C15 UNL     1       2.340  -1.221  -1.019  1.00  0.00     0.423 C 
HETATM   22  C14 UNL     1       1.324  -0.251  -1.542  1.00  0.00     0.196 C 
HETATM   23  F1  UNL     1       2.025  -1.713   0.229  1.00  0.00    -0.214 F 
BRANCH  20  24
HETATM   24  C3  UNL     1       4.104  -0.359  -2.299  1.00  0.00     0.322 C 
BRANCH  24  25
HETATM   25  C2  UNL     1       5.575  -0.083  -2.275  1.00  0.00     0.007 C 
HETATM   26  C1  UNL     1       6.052   1.053  -2.716  1.00  0.00     0.029 C 
HETATM   27 BR1  UNL     1       6.754  -1.411  -1.598  1.00  0.00    -0.055 Br
ENDBRANCH  24  25
ENDBRANCH  20  24
ENDBRANCH  16  17
ENDBRANCH  15  16
BRANCH  15  28
HETATM   28  O1  UNL     1      -0.285   0.725   1.790  1.00  0.00    -0.389 OA
ATOM     29  H1  UNL     1      -0.803   0.277   2.449  1.00  0.00     0.210 HD
ENDBRANCH  15  28
ENDBRANCH  14  15
ENDBRANCH   1  14
BRANCH   6  30
HETATM   30  N5  UNL     1      -6.012  -1.806   3.655  1.00  0.00    -0.383 N 
ATOM     31  H52 UNL     1      -5.781  -1.279   4.497  1.00  0.00     0.157 HD
ATOM     32  H51 UNL     1      -6.701  -2.558   3.665  1.00  0.00     0.157 HD
ENDBRANCH   6  30
TORSDOF 8
