REMARK  8 active torsions:
REMARK  status: ('A' for Active; 'I' for Inactive)
REMARK    1  A    between atoms: N1_1  and  N2_4 
REMARK    2  A    between atoms: N3_6  and  C1_8 
REMARK    3  A    between atoms: C4_11  and  C5_12 
REMARK    4  A    between atoms: N4_14  and  C7_15 
REMARK    5  A    between atoms: C10_20  and  C11_21 
REMARK    6  A    between atoms: C12_24  and  O3_25 
REMARK    7  A    between atoms: C12_24  and  C13_27 
REMARK    8  A    between atoms: N5_28  and  N6_30 
ROOT
HETATM    1  C7  UNL     1      -1.809  -0.482  -1.523  1.00  0.00     0.192 C 
HETATM    2  C8  UNL     1      -1.658  -1.973  -1.351  1.00  0.00     0.058 C 
HETATM    3 CL1  UNL     1      -0.242  -2.850  -1.898  1.00  0.00    -0.085 Cl
HETATM    4  C9  UNL     1      -2.742  -2.459  -0.741  1.00  0.00     0.049 C 
HETATM    5 CL2  UNL     1      -2.941  -4.158  -0.364  1.00  0.00    -0.086 Cl
HETATM    6  C10 UNL     1      -3.688  -1.315  -0.467  1.00  0.00     0.175 C 
HETATM    7  C12 UNL     1      -2.700  -0.188  -0.280  1.00  0.00     0.136 C 
ENDROOT
BRANCH   1   8
HETATM    8  N4  UNL     1      -0.563   0.209  -1.438  1.00  0.00    -0.271 N 
HETATM    9  C6  UNL     1       0.530  -0.141  -0.748  1.00  0.00     0.140 A 
HETATM   10  C5  UNL     1       1.506   0.803  -0.942  1.00  0.00     0.073 A 
HETATM   11  N9  UNL     1       0.976   1.722  -1.758  1.00  0.00    -0.282 N 
HETATM   12  N8  UNL     1      -0.280   1.348  -2.051  1.00  0.00    -0.019 NA
ATOM     13  H9  UNL     1       1.445   2.561  -2.098  1.00  0.00     0.184 HD
BRANCH  10  14
HETATM   14  C4  UNL     1       2.848   0.816  -0.379  1.00  0.00    -0.007 A 
HETATM   15  C3  UNL     1       3.271  -0.205   0.458  1.00  0.00     0.016 A 
HETATM   16  C2  UNL     1       4.539  -0.180   0.981  1.00  0.00     0.032 A 
HETATM   17  C1  UNL     1       5.412   0.838   0.696  1.00  0.00     0.049 A 
HETATM   18  C15 UNL     1       5.008   1.859  -0.132  1.00  0.00     0.032 A 
HETATM   19  C14 UNL     1       3.737   1.821  -0.648  1.00  0.00     0.016 A 
BRANCH  17  20
HETATM   20  N3  UNL     1       6.715   0.816   1.264  1.00  0.00    -0.287 N 
HETATM   21  N2  UNL     1       7.697   0.420   0.637  1.00  0.00    -0.249 N 
ATOM     22  H2  UNL     1       7.925   1.233   0.065  1.00  0.00     0.207 HD
ATOM     23  H3  UNL     1       6.840   1.139   2.223  1.00  0.00     0.188 HD
BRANCH  21  24
HETATM   24  N1  UNL     1       8.575  -0.392   0.292  1.00  0.00    -0.331 N 
ATOM     25  H12 UNL     1       8.311  -1.181   0.882  1.00  0.00     0.178 HD
ATOM     26  H11 UNL     1       9.389  -0.720  -0.228  1.00  0.00     0.178 HD
ENDBRANCH  21  24
ENDBRANCH  17  20
ENDBRANCH  10  14
ENDBRANCH   1   8
BRANCH   7  27
HETATM   27  O3  UNL     1      -1.883  -0.360   0.804  1.00  0.00    -0.380 OA
ATOM     28  H3  UNL     1      -2.427  -0.181   1.562  1.00  0.00     0.211 HD
ENDBRANCH   7  27
BRANCH   7  29
HETATM   29  C13 UNL     1      -3.307   1.135  -0.400  1.00  0.00     0.123 C 
HETATM   30  N5  UNL     1      -3.710   1.910   0.518  1.00  0.00    -0.299 N 
ATOM     31  H5  UNL     1      -4.102   2.791   0.184  1.00  0.00     0.187 HD
BRANCH  30  32
HETATM   32  N6  UNL     1      -3.711   1.771   1.871  1.00  0.00    -0.250 N 
HETATM   33  N7  UNL     1      -2.969   2.474   2.621  1.00  0.00    -0.331 N 
ATOM     34  H72 UNL     1      -2.358   3.161   2.180  1.00  0.00     0.178 HD
ATOM     35  H71 UNL     1      -2.970   2.370   3.636  1.00  0.00     0.178 HD
ATOM     36  H6  UNL     1      -4.328   1.079   2.296  1.00  0.00     0.207 HD
ENDBRANCH  30  32
ENDBRANCH   7  29
BRANCH   6  37
HETATM   37  C11 UNL     1      -4.603  -1.555   0.631  1.00  0.00     0.186 C 
HETATM   38  O1  UNL     1      -5.842  -1.469   0.442  1.00  0.00    -0.647 OA
HETATM   39  O2  UNL     1      -4.162  -1.878   1.897  1.00  0.00    -0.647 OA
ENDBRANCH   6  37
TORSDOF 8
