REMARK  3 active torsions:
REMARK  status: ('A' for Active; 'I' for Inactive)
REMARK       I    between atoms: C1_4  and  N3_6 
REMARK    1  A    between atoms: N3_6  and  N4_8 
REMARK    2  A    between atoms: N4_8  and  C2_10 
REMARK    3  A    between atoms: N6_17  and  N7_18 
ROOT
HETATM    1  C2  UNL     1      -0.718   0.430   0.514  1.00  0.00     0.720 A 
HETATM    2  N5  UNL     1      -1.668   1.357   0.823  1.00  0.00    -0.199 N 
ATOM      3  H5  UNL     1      -1.430   2.168   1.394  1.00  0.00     0.183 HD
HETATM    4  C3  UNL     1      -2.919   1.193   0.369  1.00  0.00     0.112 A 
HETATM    5  C4  UNL     1      -3.282   0.117  -0.403  1.00  0.00     0.094 A 
HETATM    6  C5  UNL     1      -2.307  -0.803  -0.702  1.00  0.00     0.283 A 
HETATM    7  O1  UNL     1      -2.533  -1.832  -1.406  1.00  0.00    -0.266 OA
HETATM    8  N6  UNL     1      -1.052  -0.631  -0.241  1.00  0.00    -0.053 N 
ENDROOT
BRANCH   1   9
HETATM    9  N4  UNL     1       0.449   0.652   0.980  1.00  0.00    -0.128 N 
ATOM     10  H4  UNL     1       0.547   1.501   1.536  1.00  0.00     0.205 HD
BRANCH   9  11
HETATM   11  N3  UNL     1       1.586  -0.095   0.835  1.00  0.00    -0.259 N 
HETATM   12  C1  UNL     1       2.689   0.314   0.040  1.00  0.00     0.201 C 
HETATM   13  N1  UNL     1       2.627   1.426  -0.637  1.00  0.00    -0.372 N 
HETATM   14  N2  UNL     1       3.885  -0.427  -0.070  1.00  0.00    -0.062 NA
ATOM     15  H12 UNL     1       3.419   1.720  -1.208  1.00  0.00     0.158 HD
ATOM     16  H11 UNL     1       1.763   1.962  -0.557  1.00  0.00     0.158 HD
ATOM     17  H3  UNL     1       1.644  -0.989   1.322  1.00  0.00     0.190 HD
ENDBRANCH   9  11
ENDBRANCH   1   9
BRANCH   8  18
HETATM   18  N7  UNL     1      -0.050  -1.568  -0.542  1.00  0.00    -0.321 N 
ATOM     19  H72 UNL     1       0.900  -1.438  -0.193  1.00  0.00     0.178 HD
ATOM     20  H71 UNL     1      -0.303  -2.373  -1.115  1.00  0.00     0.178 HD
ENDBRANCH   8  18
TORSDOF 3
