REMARK  9 active torsions:
REMARK  status: ('A' for Active; 'I' for Inactive)
REMARK       I    between atoms: N1_2  and  C3_4 
REMARK    1  A    between atoms: C3_4  and  C4_6 
REMARK    2  A    between atoms: C4_6  and  O2_7 
REMARK    3  A    between atoms: N2_10  and  C6_12 
REMARK    4  A    between atoms: C6_12  and  O3_13 
REMARK    5  A    between atoms: C6_12  and  C7_15 
REMARK    6  A    between atoms: C7_15  and  N3_16 
REMARK    7  A    between atoms: C7_15  and  O4_20 
REMARK    8  A    between atoms: C9_27  and  N6_28 
REMARK    9  A    between atoms: C13_36  and  C14_37 
ROOT
HETATM    1  C4  UNL     1      -0.656  -0.805   0.439  1.00  0.00     0.227 C 
HETATM    2  C5  UNL     1      -1.017   0.660   0.342  1.00  0.00     0.131 C 
HETATM    3  N2  UNL     1      -2.204   0.998   0.607  1.00  0.00    -0.347 N 
ATOM      4  H2  UNL     1      -2.839   0.245   0.871  1.00  0.00     0.163 HD
HETATM    5  N4  UNL     1      -0.002   1.558  -0.043  1.00  0.00    -0.328 N 
ATOM      6  H4  UNL     1      -0.227   2.484  -0.408  1.00  0.00     0.169 HD
HETATM    7  C8  UNL     1       1.342   1.130   0.095  1.00  0.00     0.139 A 
HETATM    8  N5  UNL     1       2.302   1.924  -0.451  1.00  0.00    -0.176 N 
ATOM      9  H5  UNL     1       2.031   2.838  -0.813  1.00  0.00     0.186 HD
HETATM   10  C9  UNL     1       3.586   1.559  -0.534  1.00  0.00     0.682 A 
HETATM   11  N7  UNL     1       3.947   0.358  -0.061  1.00  0.00    -0.151 N 
HETATM   12  C10 UNL     1       5.309  -0.134  -0.107  1.00  0.00     0.179 C 
HETATM   13  C11 UNL     1       3.022  -0.488   0.505  1.00  0.00     0.276 A 
HETATM   14  O5  UNL     1       3.396  -1.589   0.922  1.00  0.00    -0.266 OA
HETATM   15  C12 UNL     1       1.707  -0.140   0.608  1.00  0.00     0.088 A 
HETATM   16  C13 UNL     1       0.668  -0.855   1.276  1.00  0.00     0.026 C 
ENDROOT
BRANCH   1  17
HETATM   17  C3  UNL     1      -0.577  -1.470  -0.828  1.00  0.00     0.266 C 
HETATM   18  N1  UNL     1      -1.361  -2.595  -1.229  1.00  0.00    -0.358 N 
HETATM   19  C1  UNL     1      -1.134  -3.130  -2.557  1.00  0.00     0.152 C 
HETATM   20  C2  UNL     1      -2.350  -3.213  -0.388  1.00  0.00     0.152 C 
HETATM   21  O1  UNL     1       0.260  -1.039  -1.693  1.00  0.00    -0.269 OA
ENDBRANCH   1  17
BRANCH   1  22
HETATM   22  O2  UNL     1      -1.610  -1.390   1.260  1.00  0.00    -0.369 OA
ATOM     23  H2  UNL     1      -1.662  -0.949   2.100  1.00  0.00     0.212 HD
ENDBRANCH   1  22
BRANCH   3  24
HETATM   24  C6  UNL     1      -2.764   2.322   0.580  1.00  0.00     0.275 C 
BRANCH  24  25
HETATM   25  O3  UNL     1      -1.892   3.223   1.184  1.00  0.00    -0.372 OA
ATOM     26  H3  UNL     1      -2.262   4.098   1.166  1.00  0.00     0.212 HD
ENDBRANCH  24  25
BRANCH  24  27
HETATM   27  C7  UNL     1      -3.146   2.780  -0.815  1.00  0.00     0.365 C 
BRANCH  27  28
HETATM   28  N3  UNL     1      -3.789   4.070  -0.695  1.00  0.00    -0.049 N 
ATOM     29  H33 UNL     1      -4.580   4.060  -0.051  1.00  0.00     0.277 HD
ATOM     30  H32 UNL     1      -3.218   4.752  -0.197  1.00  0.00     0.277 HD
ATOM     31  H31 UNL     1      -4.046   4.378  -1.633  1.00  0.00     0.277 HD
ENDBRANCH  27  28
BRANCH  27  32
HETATM   32  O4  UNL     1      -4.042   1.829  -1.349  1.00  0.00    -0.367 OA
ATOM     33  H4  UNL     1      -4.281   2.116  -2.223  1.00  0.00     0.212 HD
ENDBRANCH  27  32
ENDBRANCH  24  27
ENDBRANCH   3  24
BRANCH  16  34
HETATM   34  C14 UNL     1       0.718  -2.146   1.901  1.00  0.00     0.112 C 
HETATM   35  N8  UNL     1       1.803  -2.418   2.801  1.00  0.00    -0.114 NA
ENDBRANCH  16  34
BRANCH  10  36
HETATM   36  N6  UNL     1       4.508   2.302  -1.049  1.00  0.00    -0.234 N 
ATOM     37  H62 UNL     1       4.233   3.216  -1.409  1.00  0.00     0.174 HD
ATOM     38  H61 UNL     1       5.487   2.024  -1.112  1.00  0.00     0.174 HD
ENDBRANCH  10  36
TORSDOF 9
