REMARK  14 active torsions:
REMARK  status: ('A' for Active; 'I' for Inactive)
REMARK    1  A    between atoms: C2_2  and  O1_3 
REMARK    2  A    between atoms: C3_6  and  N1_7 
REMARK    3  A    between atoms: C5_11  and  N3_12 
REMARK       I    between atoms: N3_12  and  C6_14 
REMARK    4  A    between atoms: C6_14  and  C7_16 
REMARK    5  A    between atoms: C7_16  and  N4_17 
REMARK    6  A    between atoms: C7_16  and  C8_21 
REMARK    7  A    between atoms: C8_21  and  C9_22 
REMARK    8  A    between atoms: C9_22  and  C10_23 
REMARK    9  A    between atoms: C10_23  and  N5_24 
REMARK   10  A    between atoms: C11_31  and  O5_32 
REMARK   11  A    between atoms: C11_31  and  C12_34 
REMARK   12  A    between atoms: C12_34  and  N9_40 
REMARK   13  A    between atoms: N7_35  and  N8_37 
REMARK   14  A    between atoms: N9_40  and  N10_42 
ROOT
HETATM    1  N1  UNL     1      -0.569  -1.741  -0.437  1.00  0.00    -0.220 N 
HETATM    2  C4  UNL     1      -0.090  -2.594  -1.360  1.00  0.00     0.223 A 
HETATM    3  N2  UNL     1       1.209  -2.307  -1.601  1.00  0.00    -0.185 N 
ATOM      4  H2  UNL     1       1.824  -2.792  -2.255  1.00  0.00     0.185 HD
HETATM    5  C5  UNL     1       1.541  -1.265  -0.820  1.00  0.00     0.700 A 
HETATM    6  N6  UNL     1       0.442  -0.947  -0.129  1.00  0.00    -0.125 N 
ATOM      7  H6  UNL     1       0.390  -0.188   0.550  1.00  0.00     0.206 HD
ENDROOT
BRANCH   1   8
HETATM    8  C3  UNL     1      -1.922  -1.749   0.066  1.00  0.00     0.400 C 
HETATM    9  O2  UNL     1      -2.014  -1.210   1.346  1.00  0.00    -0.300 OA
HETATM   10  C2  UNL     1      -3.150  -0.389   1.354  1.00  0.00     0.228 C 
HETATM   11  C1  UNL     1      -2.690   1.019   1.270  1.00  0.00     0.085 C 
HETATM   12  C11 UNL     1      -3.890  -0.907   0.153  1.00  0.00     0.287 C 
HETATM   13  O4  UNL     1      -2.797  -1.032  -0.749  1.00  0.00    -0.294 OA
BRANCH  10  14
HETATM   14  O1  UNL     1      -3.895  -0.594   2.495  1.00  0.00    -0.361 OA
ATOM     15  H1  UNL     1      -4.190  -1.496   2.549  1.00  0.00     0.213 HD
ENDBRANCH  10  14
BRANCH  12  16
HETATM   16  O5  UNL     1      -4.321  -2.182   0.429  1.00  0.00    -0.355 OA
ATOM     17  H5  UNL     1      -4.789  -2.509  -0.330  1.00  0.00     0.213 HD
ENDBRANCH  12  16
BRANCH  12  18
HETATM   18  C12 UNL     1      -4.928  -0.034  -0.355  1.00  0.00     0.179 C 
HETATM   19  N7  UNL     1      -6.171  -0.345  -0.377  1.00  0.00    -0.290 N 
ATOM     20  H7  UNL     1      -6.850   0.319  -0.749  1.00  0.00     0.188 HD
BRANCH  19  21
HETATM   21  N8  UNL     1      -6.603  -1.568   0.097  1.00  0.00    -0.344 N 
ATOM     22  H82 UNL     1      -5.911  -2.220   0.466  1.00  0.00     0.176 HD
ATOM     23  H81 UNL     1      -7.592  -1.816   0.079  1.00  0.00     0.176 HD
ENDBRANCH  19  21
BRANCH  18  24
HETATM   24  N9  UNL     1      -4.651   1.271  -0.877  1.00  0.00    -0.290 N 
ATOM     25  H9  UNL     1      -3.883   1.400  -1.536  1.00  0.00     0.188 HD
BRANCH  24  26
HETATM   26  N10 UNL     1      -5.418   2.361  -0.494  1.00  0.00    -0.344 N 
ATOM     27 2H10 UNL     1      -6.182   2.215   0.166  1.00  0.00     0.176 HD
ATOM     28 1H10 UNL     1      -5.221   3.290  -0.866  1.00  0.00     0.176 HD
ENDBRANCH  24  26
ENDBRANCH  18  24
ENDBRANCH  12  18
ENDBRANCH   1   8
BRANCH   5  29
HETATM   29  N3  UNL     1       2.727  -0.712  -0.786  1.00  0.00    -0.156 N 
HETATM   30  C6  UNL     1       2.982   0.400   0.084  1.00  0.00     0.266 C 
HETATM   31  O3  UNL     1       2.666   0.325   1.292  1.00  0.00    -0.270 OA
ATOM     32  H3  UNL     1       3.473  -1.073  -1.381  1.00  0.00     0.187 HD
BRANCH  30  33
HETATM   33  C7  UNL     1       3.604   1.588  -0.506  1.00  0.00     0.275 C 
BRANCH  33  34
HETATM   34  N4  UNL     1       2.598   2.672  -0.253  1.00  0.00    -0.066 N 
ATOM     35  H43 UNL     1       1.661   2.469  -0.601  1.00  0.00     0.275 HD
ATOM     36  H42 UNL     1       2.328   2.778   0.725  1.00  0.00     0.275 HD
ATOM     37  H41 UNL     1       3.031   3.499  -0.664  1.00  0.00     0.275 HD
ENDBRANCH  33  34
BRANCH  33  38
HETATM   38  C8  UNL     1       4.885   2.001   0.083  1.00  0.00     0.044 C 
BRANCH  38  39
HETATM   39  C9  UNL     1       6.032   1.086   0.062  1.00  0.00     0.030 C 
BRANCH  39  40
HETATM   40  C10 UNL     1       5.999  -0.183   0.807  1.00  0.00     0.230 C 
BRANCH  40  41
HETATM   41  N5  UNL     1       7.318  -0.836   0.590  1.00  0.00    -0.079 N 
ATOM     42  H53 UNL     1       7.553  -0.953  -0.396  1.00  0.00     0.274 HD
ATOM     43  H52 UNL     1       8.108  -0.242   0.840  1.00  0.00     0.274 HD
ATOM     44  H51 UNL     1       7.295  -1.715   1.106  1.00  0.00     0.274 HD
ENDBRANCH  40  41
ENDBRANCH  39  40
ENDBRANCH  38  39
ENDBRANCH  33  38
ENDBRANCH  30  33
ENDBRANCH   5  29
TORSDOF 14
