REMARK  5 active torsions:
REMARK  status: ('A' for Active; 'I' for Inactive)
REMARK    1  A    between atoms: C2_2  and  C4_4 
REMARK    2  A    between atoms: C15_17  and  C16_18 
REMARK    3  A    between atoms: C17_20  and  C18_21 
REMARK    4  A    between atoms: C18_21  and  C19_22 
REMARK    5  A    between atoms: N1_24  and  N2_26 
REMARK       I    between atoms: N2_26  and  C21_28 
ROOT
HETATM    1  C4  UNL     1      -2.034   1.712   0.122  1.00  0.00     0.030 C 
HETATM    2  C5  UNL     1      -3.228   1.905  -0.758  1.00  0.00     0.037 C 
HETATM    3  C6  UNL     1      -4.187   0.809  -0.811  1.00  0.00    -0.020 C 
HETATM    4  C7  UNL     1      -4.073  -0.295  -0.128  1.00  0.00    -0.049 C 
HETATM    5  C8  UNL     1      -5.138  -1.352  -0.272  1.00  0.00     0.046 C 
HETATM    6  C9  UNL     1      -2.975  -0.560   0.763  1.00  0.00     0.131 A 
HETATM    7  O1  UNL     1      -2.781  -1.683   1.499  1.00  0.00    -0.351 OA
HETATM    8  C10 UNL     1      -2.007  -1.688   0.365  1.00  0.00     0.135 A 
HETATM    9  C11 UNL     1      -2.444  -2.456  -0.824  1.00  0.00     0.026 C 
HETATM   10  C12 UNL     1      -2.019  -1.798  -1.888  1.00  0.00    -0.016 C 
HETATM   11  C13 UNL     1      -2.288  -2.295  -3.291  1.00  0.00     0.052 C 
HETATM   12  C14 UNL     1      -1.285  -0.597  -1.534  1.00  0.00     0.170 C 
HETATM   13  O2  UNL     1      -0.928   0.272  -2.357  1.00  0.00    -0.292 OA
HETATM   14  C15 UNL     1      -1.069  -0.637  -0.058  1.00  0.00     0.101 C 
HETATM   15  C25 UNL     1      -1.837   0.401   0.738  1.00  0.00     0.023 C 
HETATM   16  C26 UNL     1      -1.296   0.512   2.163  1.00  0.00     0.021 C 
ENDROOT
BRANCH  14  17
HETATM   17  C16 UNL     1       0.395  -0.780   0.267  1.00  0.00     0.154 C 
HETATM   18  O3  UNL     1       1.022   0.341  -0.254  1.00  0.00    -0.365 OA
HETATM   19  C17 UNL     1       2.161  -0.058  -0.943  1.00  0.00     0.238 C 
HETATM   20  C22 UNL     1       1.896  -1.412  -1.420  1.00  0.00     0.167 C 
HETATM   21  O5  UNL     1       2.263  -2.032  -2.403  1.00  0.00    -0.294 OA
HETATM   22  C23 UNL     1       0.980  -2.006  -0.379  1.00  0.00     0.085 C 
HETATM   23  C24 UNL     1       1.804  -2.826   0.558  1.00  0.00     0.020 C 
BRANCH  19  24
HETATM   24  C18 UNL     1       3.392   0.166  -0.190  1.00  0.00     0.039 C 
HETATM   25  N1  UNL     1       3.266   0.530   1.047  1.00  0.00    -0.302 N 
ATOM     26  H1  UNL     1       2.324   0.639   1.422  1.00  0.00     0.186 HD
BRANCH  24  27
HETATM   27  C19 UNL     1       4.742   0.006  -0.741  1.00  0.00     0.053 C 
HETATM   28  C20 UNL     1       5.109  -1.361  -1.197  1.00  0.00     0.011 C 
ENDBRANCH  24  27
BRANCH  25  29
HETATM   29  N2  UNL     1       4.330   0.778   1.886  1.00  0.00    -0.254 N 
HETATM   30  C21 UNL     1       4.959   2.039   2.028  1.00  0.00     0.347 C 
HETATM   31  N3  UNL     1       6.052   2.216   2.916  1.00  0.00    -0.038 NA
HETATM   32  O4  UNL     1       4.538   2.995   1.360  1.00  0.00    -0.249 OA
ATOM     33  H2  UNL     1       4.689   0.002   2.442  1.00  0.00     0.191 HD
ENDBRANCH  25  29
ENDBRANCH  19  24
ENDBRANCH  14  17
BRANCH   1  34
HETATM   34  C2  UNL     1      -1.991   2.853   1.099  1.00  0.00    -0.088 C 
HETATM   35  C1  UNL     1      -1.064   3.798   1.004  1.00  0.00     0.014 C 
HETATM   36  C3  UNL     1      -3.007   2.969   2.168  1.00  0.00     0.043 C 
ENDBRANCH   1  34
TORSDOF 5
