REMARK  7 active torsions:
REMARK  status: ('A' for Active; 'I' for Inactive)
REMARK    1  A    between atoms: C2_2  and  C4_4 
REMARK    2  A    between atoms: C2_2  and  C11_13 
REMARK    3  A    between atoms: C4_4  and  C5_5 
REMARK    4  A    between atoms: C5_5  and  C6_6 
REMARK    5  A    between atoms: C15_17  and  O1_18 
REMARK    6  A    between atoms: C16_20  and  O2_21 
REMARK    7  A    between atoms: C26_33  and  O4_34 
ROOT
HETATM    1  C11 UNL     1       1.172  -0.321  -0.524  1.00  0.00     0.129 C 
HETATM    2  C12 UNL     1       1.133   1.068   0.088  1.00  0.00     0.033 C 
HETATM    3  C13 UNL     1       0.276   2.036  -0.680  1.00  0.00     0.010 C 
HETATM    4  C14 UNL     1      -0.772   2.736   0.085  1.00  0.00     0.026 A 
HETATM    5  C15 UNL     1      -0.295   3.588   1.227  1.00  0.00     0.152 A 
HETATM    6  C16 UNL     1      -1.258   2.876   2.116  1.00  0.00     0.154 A 
HETATM    7  C17 UNL     1      -1.660   1.943   0.958  1.00  0.00     0.055 A 
HETATM    8  C18 UNL     1      -3.105   2.040   0.724  1.00  0.00     0.158 A 
HETATM    9  O3  UNL     1      -3.697   1.010   1.654  1.00  0.00    -0.374 OA
HETATM   10  C19 UNL     1      -3.926   0.993   0.321  1.00  0.00     0.159 A 
HETATM   11  C20 UNL     1      -3.481  -0.032  -0.642  1.00  0.00     0.057 A 
HETATM   12  C21 UNL     1      -4.548  -0.826  -1.347  1.00  0.00     0.011 A 
HETATM   13  C22 UNL     1      -3.880  -2.065  -0.940  1.00  0.00     0.034 A 
HETATM   14  C23 UNL     1      -5.324  -1.890  -0.731  1.00  0.00    -0.036 A 
HETATM   15  C24 UNL     1      -6.194  -2.703  -1.702  1.00  0.00     0.015 C 
HETATM   16  C25 UNL     1      -5.902  -1.881   0.631  1.00  0.00     0.015 C 
HETATM   17  C26 UNL     1      -2.856  -1.262  -0.165  1.00  0.00     0.071 A 
HETATM   18  C27 UNL     1      -1.473  -1.489  -0.801  1.00  0.00     0.065 C 
HETATM   19  C28 UNL     1      -0.441  -1.908   0.160  1.00  0.00     0.171 C 
HETATM   20  O5  UNL     1       0.650  -1.179   0.381  1.00  0.00    -0.385 OA
ENDROOT
BRANCH   1  21
HETATM   21  C2  UNL     1       2.609  -0.771  -0.873  1.00  0.00    -0.021 C 
HETATM   22  C1  UNL     1       3.299   0.107  -1.827  1.00  0.00     0.017 C 
HETATM   23  C3  UNL     1       2.317  -2.046  -1.782  1.00  0.00     0.017 C 
BRANCH  21  24
HETATM   24  C4  UNL     1       3.336  -1.380   0.244  1.00  0.00     0.016 C 
BRANCH  24  25
HETATM   25  C5  UNL     1       4.042  -0.638   1.281  1.00  0.00     0.041 C 
BRANCH  25  26
HETATM   26  C6  UNL     1       5.176   0.176   0.824  1.00  0.00    -0.043 A 
HETATM   27  C7  UNL     1       6.380  -0.520   0.618  1.00  0.00     0.010 A 
HETATM   28  C8  UNL     1       7.526   0.138   0.230  1.00  0.00     0.018 A 
HETATM   29  C9  UNL     1       7.524   1.503   0.033  1.00  0.00     0.087 A 
HETATM   30  N1  UNL     1       6.369   2.154   0.234  1.00  0.00    -0.375 N 
HETATM   31  C10 UNL     1       5.225   1.517   0.618  1.00  0.00     0.094 A 
ATOM     32  H1  UNL     1       6.345   3.164   0.094  1.00  0.00     0.164 HD
ENDBRANCH  25  26
ENDBRANCH  24  25
ENDBRANCH  21  24
ENDBRANCH   1  21
BRANCH   5  33
HETATM   33  O1  UNL     1       1.032   3.438   1.596  1.00  0.00    -0.393 OA
ATOM     34  H1  UNL     1       1.334   3.977   2.318  1.00  0.00     0.210 HD
ENDBRANCH   5  33
BRANCH  17  35
HETATM   35  O4  UNL     1      -2.944  -1.581   1.177  1.00  0.00    -0.389 OA
ATOM     36  H4  UNL     1      -2.537  -2.381   1.487  1.00  0.00     0.210 HD
ENDBRANCH  17  35
BRANCH   6  37
HETATM   37  O2  UNL     1      -0.785   2.257   3.235  1.00  0.00    -0.393 OA
ATOM     38  H2  UNL     1      -1.398   1.804   3.801  1.00  0.00     0.210 HD
ENDBRANCH   6  37
TORSDOF 7
