REMARK  11 active torsions:
REMARK  status: ('A' for Active; 'I' for Inactive)
REMARK    1  A    between atoms: N1_1  and  N2_4 
REMARK    2  A    between atoms: C1_6  and  N3_7 
REMARK    3  A    between atoms: C1_6  and  C2_12 
REMARK    4  A    between atoms: N3_7  and  N4_9 
REMARK    5  A    between atoms: C2_12  and  N5_13 
REMARK    6  A    between atoms: C2_12  and  C4_17 
REMARK    7  A    between atoms: N5_13  and  C3_15 
REMARK       I    between atoms: C4_17  and  N6_19 
REMARK       I    between atoms: N6_19  and  C5_21 
REMARK    8  A    between atoms: C5_21  and  C6_23 
REMARK    9  A    between atoms: C6_23  and  N7_24 
REMARK   10  A    between atoms: C6_23  and  C7_28 
REMARK   11  A    between atoms: C7_28  and  C8_29 
ROOT
HETATM    1  C4  UNL     1      -1.484  -1.750  -0.912  1.00  0.00     0.254 C 
HETATM    2  O2  UNL     1      -2.311  -2.317  -1.710  1.00  0.00    -0.270 OA
HETATM    3  N6  UNL     1      -0.128  -1.755  -1.259  1.00  0.00    -0.294 N 
ATOM      4  H6  UNL     1       0.113  -2.151  -2.167  1.00  0.00     0.171 HD
HETATM    5  C5  UNL     1       0.954  -1.258  -0.463  1.00  0.00     0.255 C 
HETATM    6  O3  UNL     1       0.765  -0.763   0.653  1.00  0.00    -0.271 OA
ENDROOT
BRANCH   1   7
HETATM    7  C2  UNL     1      -2.078  -1.150   0.302  1.00  0.00     0.247 C 
BRANCH   7   8
HETATM    8  C1  UNL     1      -2.077   0.354   0.146  1.00  0.00     0.142 C 
HETATM    9  N2  UNL     1      -1.757   0.951  -0.944  1.00  0.00    -0.292 N 
ATOM     10  H2  UNL     1      -1.469   0.396  -1.750  1.00  0.00     0.187 HD
BRANCH   9  11
HETATM   11  N1  UNL     1      -1.794   2.341  -1.051  1.00  0.00    -0.344 N 
ATOM     12  H12 UNL     1      -2.084   2.880  -0.235  1.00  0.00     0.176 HD
ATOM     13  H11 UNL     1      -1.540   2.816  -1.917  1.00  0.00     0.176 HD
ENDBRANCH   9  11
BRANCH   8  14
HETATM   14  N3  UNL     1      -2.475   1.150   1.249  1.00  0.00    -0.292 N 
ATOM     15  H3  UNL     1      -1.759   1.638   1.787  1.00  0.00     0.187 HD
BRANCH  14  16
HETATM   16  N4  UNL     1      -3.820   1.291   1.628  1.00  0.00    -0.344 N 
ATOM     17  H42 UNL     1      -4.523   0.796   1.079  1.00  0.00     0.176 HD
ATOM     18  H41 UNL     1      -4.106   1.864   2.422  1.00  0.00     0.176 HD
ENDBRANCH  14  16
ENDBRANCH   8  14
ENDBRANCH   7   8
BRANCH   7  19
HETATM   19  N5  UNL     1      -3.488  -1.578   0.401  1.00  0.00    -0.349 N 
ATOM     20  H5  UNL     1      -4.118  -1.455  -0.392  1.00  0.00     0.163 HD
BRANCH  19  21
HETATM   21  C3  UNL     1      -3.960  -2.158   1.598  1.00  0.00     0.349 C 
HETATM   22  O1  UNL     1      -3.194  -2.323   2.602  1.00  0.00    -0.284 OA
ENDBRANCH  19  21
ENDBRANCH   7  19
ENDBRANCH   1   7
BRANCH   5  23
HETATM   23  C6  UNL     1       2.312  -1.354  -1.018  1.00  0.00     0.280 C 
BRANCH  23  24
HETATM   24  N7  UNL     1       2.308  -2.071  -2.297  1.00  0.00    -0.066 N 
ATOM     25  H73 UNL     1       1.871  -2.989  -2.212  1.00  0.00     0.275 HD
ATOM     26  H72 UNL     1       1.659  -1.650  -2.962  1.00  0.00     0.275 HD
ATOM     27  H71 UNL     1       3.250  -2.138  -2.682  1.00  0.00     0.275 HD
ENDBRANCH  23  24
BRANCH  23  28
HETATM   28  C7  UNL     1       2.929  -0.032  -1.240  1.00  0.00     0.101 C 
BRANCH  28  29
HETATM   29  C8  UNL     1       3.177   0.822  -0.078  1.00  0.00     0.028 A 
HETATM   30  C9  UNL     1       3.611   2.147  -0.193  1.00  0.00     0.114 A 
HETATM   31  N8  UNL     1       3.798   2.660   1.036  1.00  0.00    -0.360 N 
HETATM   32  C10 UNL     1       3.490   1.684   1.917  1.00  0.00     0.180 A 
ATOM     33  H8  UNL     1       4.112   3.604   1.260  1.00  0.00     0.166 HD
HETATM   34  N9  UNL     1       3.120   0.592   1.226  1.00  0.00    -0.355 N 
ATOM     35  H9  UNL     1       2.835  -0.292   1.647  1.00  0.00     0.166 HD
ENDBRANCH  28  29
ENDBRANCH  23  28
ENDBRANCH   5  23
TORSDOF 11
