REMARK  9 active torsions:
REMARK  status: ('A' for Active; 'I' for Inactive)
REMARK    1  A    between atoms: N1_2  and  C4_5 
REMARK    2  A    between atoms: C4_5  and  C5_6 
REMARK    3  A    between atoms: C5_6  and  C6_7 
REMARK    4  A    between atoms: C5_6  and  N2_10 
REMARK    5  A    between atoms: C6_7  and  O1_8 
REMARK    6  A    between atoms: N2_10  and  N3_11 
REMARK       I    between atoms: N3_11  and  C7_13 
REMARK       I    between atoms: C7_13  and  N10_27 
REMARK    7  A    between atoms: N4_14  and  N5_16 
REMARK       I    between atoms: C8_18  and  N7_20 
REMARK    8  A    between atoms: N7_20  and  N8_22 
REMARK    9  A    between atoms: N10_27  and  N11_29 
ROOT
HETATM    1  N3  UNL     1       0.462  -0.792   0.164  1.00  0.00    -0.133 N 
ATOM      2  H3  UNL     1       0.041  -1.033   1.061  1.00  0.00     0.201 HD
HETATM    3  C7  UNL     1       1.876  -0.485   0.090  1.00  0.00     0.727 C 
HETATM    4  N4  UNL     1       2.727  -1.322   0.455  1.00  0.00    -0.127 N 
ATOM      5  H4  UNL     1       2.245  -2.162   0.774  1.00  0.00     0.205 HD
HETATM    6  N10 UNL     1       2.234   0.785  -0.410  1.00  0.00    -0.070 N 
ATOM      7  H10 UNL     1       2.538   1.520   0.228  1.00  0.00     0.212 HD
ENDROOT
BRANCH   1   8
HETATM    8  N2  UNL     1      -0.316  -0.760  -0.972  1.00  0.00    -0.117 NA
BRANCH   8   9
HETATM    9  C5  UNL     1      -1.741  -0.633  -0.728  1.00  0.00     0.149 C 
BRANCH   9  10
HETATM   10  C4  UNL     1      -2.075   0.582   0.064  1.00  0.00     0.261 C 
BRANCH  10  11
HETATM   11  N1  UNL     1      -3.460   0.848   0.286  1.00  0.00    -0.077 N 
HETATM   12  C1  UNL     1      -3.557   2.296   0.585  1.00  0.00     0.271 C 
HETATM   13  C2  UNL     1      -4.254   0.712  -0.946  1.00  0.00     0.271 C 
HETATM   14  C3  UNL     1      -4.064   0.145   1.374  1.00  0.00     0.271 C 
ENDBRANCH  10  11
ENDBRANCH   9  10
BRANCH   9  15
HETATM   15  C6  UNL     1      -2.211  -1.927  -0.122  1.00  0.00     0.188 C 
BRANCH  15  16
HETATM   16  O1  UNL     1      -1.937  -2.973  -1.018  1.00  0.00    -0.399 OA
ATOM     17  H1  UNL     1      -2.234  -3.790  -0.635  1.00  0.00     0.209 HD
ENDBRANCH  15  16
ENDBRANCH   9  15
ENDBRANCH   8   9
ENDBRANCH   1   8
BRANCH   4  18
HETATM   18  N5  UNL     1       4.012  -1.506   0.574  1.00  0.00    -0.258 N 
HETATM   19  C8  UNL     1       5.117  -0.969   0.444  1.00  0.00     0.223 C 
HETATM   20  N6  UNL     1       6.289  -1.764   0.762  1.00  0.00    -0.061 NA
HETATM   21  N7  UNL     1       5.320   0.378   0.003  1.00  0.00    -0.258 N 
ATOM     22  H7  UNL     1       5.216   0.584  -0.991  1.00  0.00     0.191 HD
ATOM     23  H5  UNL     1       4.163  -2.461   0.900  1.00  0.00     0.190 HD
BRANCH  21  24
HETATM   24  N8  UNL     1       5.649   1.410   0.856  1.00  0.00    -0.247 N 
HETATM   25  N9  UNL     1       6.139   2.487   0.415  1.00  0.00    -0.331 N 
ATOM     26  H92 UNL     1       6.287   2.579  -0.590  1.00  0.00     0.178 HD
ATOM     27  H91 UNL     1       6.382   3.250   1.046  1.00  0.00     0.178 HD
ATOM     28  H8  UNL     1       5.494   1.302   1.858  1.00  0.00     0.207 HD
ENDBRANCH  21  24
ENDBRANCH   4  18
BRANCH   6  29
HETATM   29  N11 UNL     1       2.171   1.028  -1.771  1.00  0.00    -0.024 N 
HETATM   30  O2  UNL     1       2.436   0.144  -2.631  1.00  0.00    -0.516 OA
HETATM   31  O3  UNL     1       1.812   2.258  -2.299  1.00  0.00    -0.516 OA
ENDBRANCH   6  29
TORSDOF 9
