REMARK  11 active torsions:
REMARK  status: ('A' for Active; 'I' for Inactive)
REMARK       I    between atoms: N1_2  and  C2_4 
REMARK    1  A    between atoms: C2_4  and  C3_6 
REMARK    2  A    between atoms: C3_6  and  O2_7 
REMARK    3  A    between atoms: C3_6  and  C4_9 
REMARK    4  A    between atoms: C4_9  and  C5_10 
REMARK    5  A    between atoms: C4_9  and  C8_18 
REMARK    6  A    between atoms: C8_18  and  O4_19 
REMARK    7  A    between atoms: C8_18  and  C9_21 
REMARK    8  A    between atoms: C9_21  and  O5_22 
REMARK    9  A    between atoms: C9_21  and  C10_24 
REMARK   10  A    between atoms: C10_24  and  N4_25 
REMARK   11  A    between atoms: C10_24  and  C11_29 
ROOT
HETATM    1  C4  UNL     1       0.011   0.337  -0.066  1.00  0.00     0.106 C 
ENDROOT
BRANCH   1   2
HETATM    2  C3  UNL     1       1.081  -0.357  -0.810  1.00  0.00     0.222 C 
BRANCH   2   3
HETATM    3  C2  UNL     1       2.250  -0.581   0.078  1.00  0.00     0.246 C 
HETATM    4  N1  UNL     1       2.933  -1.812   0.138  1.00  0.00    -0.363 N 
HETATM    5  C1  UNL     1       4.066  -2.014   1.008  1.00  0.00     0.149 C 
ATOM      6  H1  UNL     1       2.617  -2.583  -0.451  1.00  0.00     0.162 HD
HETATM    7  O1  UNL     1       2.723   0.319   0.848  1.00  0.00    -0.271 OA
ENDBRANCH   2   3
BRANCH   2   8
HETATM    8  O2  UNL     1       0.788  -1.543  -1.421  1.00  0.00    -0.385 OA
ATOM      9  H2  UNL     1       0.040  -1.400  -1.989  1.00  0.00     0.210 HD
ENDBRANCH   2   8
ENDBRANCH   1   2
BRANCH   1  10
HETATM   10  C5  UNL     1       0.535   1.652   0.388  1.00  0.00     0.039 A 
HETATM   11  C6  UNL     1       1.083   2.588  -0.450  1.00  0.00     0.118 A 
HETATM   12  N2  UNL     1       1.415   3.667   0.276  1.00  0.00    -0.317 N 
HETATM   13  C7  UNL     1       1.083   3.425   1.565  1.00  0.00     0.324 A 
ATOM     14  H2  UNL     1       1.843   4.521  -0.082  1.00  0.00     0.170 HD
HETATM   15  O3  UNL     1       1.237   4.195   2.547  1.00  0.00    -0.247 OA
HETATM   16  N3  UNL     1       0.539   2.169   1.616  1.00  0.00    -0.310 N 
ATOM     17  H3  UNL     1       0.194   1.705   2.456  1.00  0.00     0.170 HD
ENDBRANCH   1  10
BRANCH   1  18
HETATM   18  C8  UNL     1      -1.321   0.499  -0.677  1.00  0.00     0.162 C 
BRANCH  18  19
HETATM   19  O4  UNL     1      -2.118   1.259   0.240  1.00  0.00    -0.392 OA
ATOM     20  H4  UNL     1      -2.976   1.363  -0.154  1.00  0.00     0.210 HD
ENDBRANCH  18  19
BRANCH  18  21
HETATM   21  C9  UNL     1      -2.070  -0.604  -1.259  1.00  0.00     0.184 C 
BRANCH  21  22
HETATM   22  O5  UNL     1      -3.119  -0.001  -2.068  1.00  0.00    -0.390 OA
ATOM     23  H5  UNL     1      -3.608  -0.721  -2.448  1.00  0.00     0.210 HD
ENDBRANCH  21  22
BRANCH  21  24
HETATM   24  C10 UNL     1      -2.871  -1.467  -0.329  1.00  0.00     0.275 C 
BRANCH  24  25
HETATM   25  N4  UNL     1      -3.779  -0.575   0.442  1.00  0.00    -0.066 N 
ATOM     26  H43 UNL     1      -3.284   0.175   0.924  1.00  0.00     0.275 HD
ATOM     27  H42 UNL     1      -4.361   0.012  -0.156  1.00  0.00     0.275 HD
ATOM     28  H41 UNL     1      -4.324  -1.162   1.074  1.00  0.00     0.275 HD
ENDBRANCH  24  25
BRANCH  24  29
HETATM   29  C11 UNL     1      -2.203  -2.285   0.651  1.00  0.00     0.266 C 
HETATM   30  O6  UNL     1      -1.559  -3.275   0.316  1.00  0.00    -0.305 OA
ENDBRANCH  24  29
ENDBRANCH  21  24
ENDBRANCH  18  21
ENDBRANCH   1  18
TORSDOF 11
