REMARK  12 active torsions:
REMARK  status: ('A' for Active; 'I' for Inactive)
REMARK    1  A    between atoms: N1_1  and  C1_5 
REMARK    2  A    between atoms: C1_5  and  C2_6 
REMARK    3  A    between atoms: C2_6  and  O1_7 
REMARK    4  A    between atoms: O1_7  and  C3_8 
REMARK    5  A    between atoms: C3_8  and  C4_9 
REMARK    6  A    between atoms: C5_14  and  C6_15 
REMARK    7  A    between atoms: C6_15  and  N5_20 
REMARK    8  A    between atoms: N4_16  and  O2_18 
REMARK    9  A    between atoms: N5_20  and  N6_22 
REMARK   10  A    between atoms: N7_25  and  C7_26 
REMARK   11  A    between atoms: C7_26  and  S1_27 
REMARK   12  A    between atoms: S1_27  and  N8_28 
ROOT
HETATM    1  C4  UNL     1       0.272  -0.523  -1.326  1.00  0.00     0.147 A 
HETATM    2  N2  UNL     1      -0.388  -0.973  -2.437  1.00  0.00    -0.282 N 
ATOM      3  H2  UNL     1       0.045  -1.264  -3.313  1.00  0.00     0.188 HD
HETATM    4  N3  UNL     1      -1.679  -0.966  -2.179  1.00  0.00    -0.280 N 
ATOM      5  H3  UNL     1      -2.404  -1.254  -2.836  1.00  0.00     0.188 HD
HETATM    6  C5  UNL     1      -1.910  -0.522  -0.916  1.00  0.00     0.173 A 
HETATM    7  N7  UNL     1      -0.659  -0.257  -0.425  1.00  0.00    -0.297 N 
ENDROOT
BRANCH   6   8
HETATM    8  C6  UNL     1      -3.196  -0.375  -0.301  1.00  0.00     0.186 C 
HETATM    9  N4  UNL     1      -4.176   0.107  -0.969  1.00  0.00    -0.249 N 
ATOM     10  H4  UNL     1      -5.094   0.214  -0.538  1.00  0.00     0.196 HD
BRANCH   9  11
HETATM   11  O2  UNL     1      -3.973   0.475  -2.265  1.00  0.00    -0.288 OA
ATOM     12  H2  UNL     1      -4.700   0.833  -2.761  1.00  0.00     0.244 HD
ENDBRANCH   9  11
BRANCH   8  13
HETATM   13  N5  UNL     1      -3.551  -0.722   1.028  1.00  0.00    -0.288 N 
ATOM     14  H5  UNL     1      -3.773   0.024   1.687  1.00  0.00     0.188 HD
BRANCH  13  15
HETATM   15  N6  UNL     1      -3.608  -2.038   1.467  1.00  0.00    -0.343 N 
ATOM     16  H62 UNL     1      -3.383  -2.772   0.795  1.00  0.00     0.176 HD
ATOM     17  H61 UNL     1      -3.863  -2.287   2.423  1.00  0.00     0.176 HD
ENDBRANCH  13  15
ENDBRANCH   8  13
ENDBRANCH   6   8
BRANCH   7  18
HETATM   18  C7  UNL     1      -0.400   0.251   0.885  1.00  0.00     0.295 C 
BRANCH  18  19
HETATM   19  S1  UNL     1      -0.411   2.049   0.943  1.00  0.00     0.241 S 
HETATM   20  O3  UNL     1      -0.175   2.433   2.377  1.00  0.00    -0.204 OA
HETATM   21  O4  UNL     1       0.640   2.668   0.116  1.00  0.00    -0.204 OA
BRANCH  19  22
HETATM   22  N8  UNL     1      -1.938   2.678   0.456  1.00  0.00    -0.327 N 
ATOM     23  H82 UNL     1      -2.725   2.094   0.174  1.00  0.00     0.168 HD
ATOM     24  H81 UNL     1      -1.944   3.697   0.489  1.00  0.00     0.168 HD
ENDBRANCH  19  22
ENDBRANCH  18  19
ENDBRANCH   7  18
BRANCH   1  25
HETATM   25  C3  UNL     1       1.715  -0.428  -1.326  1.00  0.00     0.184 C 
BRANCH  25  26
HETATM   26  O1  UNL     1       2.373  -0.214  -0.173  1.00  0.00    -0.358 OA
BRANCH  26  27
HETATM   27  C2  UNL     1       3.746  -0.168  -0.443  1.00  0.00     0.202 C 
BRANCH  27  28
HETATM   28  C1  UNL     1       4.538   0.072   0.828  1.00  0.00     0.256 C 
BRANCH  28  29
HETATM   29  N1  UNL     1       4.333  -0.956   1.804  1.00  0.00    -0.077 N 
ATOM     30  H13 UNL     1       3.341  -1.077   2.007  1.00  0.00     0.274 HD
ATOM     31  H12 UNL     1       4.534  -1.877   1.415  1.00  0.00     0.274 HD
ATOM     32  H11 UNL     1       4.866  -0.795   2.659  1.00  0.00     0.274 HD
ENDBRANCH  28  29
ENDBRANCH  27  28
ENDBRANCH  26  27
ENDBRANCH  25  26
ENDBRANCH   1  25
TORSDOF 12
