REMARK  12 active torsions:
REMARK  status: ('A' for Active; 'I' for Inactive)
REMARK    1  A    between atoms: C2_2  and  O1_3 
REMARK    2  A    between atoms: C2_2  and  C3_5 
REMARK    3  A    between atoms: C3_5  and  O2_6 
REMARK    4  A    between atoms: C3_5  and  C4_8 
REMARK    5  A    between atoms: C4_8  and  O3_9 
REMARK    6  A    between atoms: C4_8  and  C5_11 
REMARK    7  A    between atoms: C5_11  and  N1_12 
REMARK    8  A    between atoms: N1_12  and  O4_13 
REMARK    9  A    between atoms: N1_12  and  C6_15 
REMARK   10  A    between atoms: C6_15  and  C7_16 
REMARK   11  A    between atoms: C10_22  and  N3_23 
REMARK   12  A    between atoms: N3_23  and  N4_25 
ROOT
HETATM    1  C7  UNL     1       2.141  -0.830  -0.321  1.00  0.00     0.047 A 
HETATM    2  C8  UNL     1       2.402  -1.456   0.877  1.00  0.00     0.101 A 
HETATM    3  C9  UNL     1       3.623  -1.348   1.517  1.00  0.00     0.261 A 
HETATM    4  O5  UNL     1       3.887  -1.907   2.608  1.00  0.00    -0.268 OA
HETATM    5  N2  UNL     1       4.584  -0.593   0.924  1.00  0.00    -0.155 N 
ATOM      6  H2  UNL     1       5.497  -0.490   1.366  1.00  0.00     0.187 HD
HETATM    7  C10 UNL     1       4.332   0.015  -0.239  1.00  0.00     0.701 A 
HETATM    8  N6  UNL     1       3.127  -0.096  -0.863  1.00  0.00    -0.193 N 
ATOM      9  H6  UNL     1       2.971   0.383  -1.750  1.00  0.00     0.184 HD
ENDROOT
BRANCH   1  10
HETATM   10  C6  UNL     1       0.852  -0.914  -1.046  1.00  0.00     0.178 C 
BRANCH  10  11
HETATM   11  N1  UNL     1      -0.042   0.183  -0.641  1.00  0.00    -0.192 NA
BRANCH  11  12
HETATM   12  C5  UNL     1      -1.264   0.062  -1.365  1.00  0.00     0.155 C 
BRANCH  12  13
HETATM   13  C4  UNL     1      -2.311   1.069  -1.125  1.00  0.00     0.164 C 
BRANCH  13  14
HETATM   14  C3  UNL     1      -2.903   1.160   0.238  1.00  0.00     0.176 C 
BRANCH  14  15
HETATM   15  C2  UNL     1      -3.885   0.011   0.506  1.00  0.00     0.145 C 
HETATM   16  C1  UNL     1      -4.664   0.258   1.772  1.00  0.00     0.042 C 
BRANCH  15  17
HETATM   17  O1  UNL     1      -3.291  -1.225   0.599  1.00  0.00    -0.393 OA
ATOM     18  H1  UNL     1      -2.800  -1.381  -0.199  1.00  0.00     0.210 HD
ENDBRANCH  15  17
ENDBRANCH  14  15
BRANCH  14  19
HETATM   19  O2  UNL     1      -3.767   2.306   0.178  1.00  0.00    -0.390 OA
ATOM     20  H2  UNL     1      -3.159   3.017   0.012  1.00  0.00     0.210 HD
ENDBRANCH  14  19
ENDBRANCH  13  14
BRANCH  13  21
HETATM   21  O3  UNL     1      -3.399   0.812  -1.996  1.00  0.00    -0.392 OA
ATOM     22  H3  UNL     1      -3.021   0.754  -2.866  1.00  0.00     0.210 HD
ENDBRANCH  13  21
ENDBRANCH  12  13
ENDBRANCH  11  12
BRANCH  11  23
HETATM   23  O4  UNL     1      -0.243   0.036   0.670  1.00  0.00    -0.313 OA
ATOM     24  H4  UNL     1       0.571   0.117   1.152  1.00  0.00     0.237 HD
ENDBRANCH  11  23
ENDBRANCH  10  11
ENDBRANCH   1  10
BRANCH   7  25
HETATM   25  N3  UNL     1       5.269   0.726  -0.775  1.00  0.00    -0.118 N 
ATOM     26  H3  UNL     1       5.093   1.196  -1.663  1.00  0.00     0.207 HD
BRANCH  25  27
HETATM   27  N4  UNL     1       6.517   0.864  -0.165  1.00  0.00    -0.235 N 
HETATM   28  N5  UNL     1       6.746   1.668   0.789  1.00  0.00    -0.330 N 
ATOM     29  H52 UNL     1       5.965   2.237   1.116  1.00  0.00     0.178 HD
ATOM     30  H51 UNL     1       7.658   1.769   1.235  1.00  0.00     0.178 HD
ATOM     31  H4  UNL     1       7.286   0.287  -0.505  1.00  0.00     0.208 HD
ENDBRANCH  25  27
ENDBRANCH   7  25
TORSDOF 12
