REMARK  2 active torsions:
REMARK  status: ('A' for Active; 'I' for Inactive)
REMARK    1  A    between atoms: C5_5  and  C6_6 
REMARK    2  A    between atoms: C10_12  and  C11_13 
ROOT
HETATM    1  C6  UNL     1       1.754   1.686   0.283  1.00  0.00    -0.010 A 
HETATM    2  C7  UNL     1       3.141   2.087   0.311  1.00  0.00     0.030 A 
HETATM    3  C8  UNL     1       4.126   1.172   0.092  1.00  0.00     0.089 A 
HETATM    4  N1  UNL     1       3.852  -0.104  -0.151  1.00  0.00    -0.364 N 
ATOM      5  H1  UNL     1       4.609  -0.768  -0.314  1.00  0.00     0.165 HD
HETATM    6  C9  UNL     1       2.577  -0.518  -0.182  1.00  0.00     0.056 A 
HETATM    7  C10 UNL     1       2.381  -1.851  -0.455  1.00  0.00     0.002 A 
HETATM    8  C17 UNL     1       1.108  -2.321  -0.504  1.00  0.00     0.024 A 
HETATM    9  C18 UNL     1       0.058  -1.464  -0.278  1.00  0.00    -0.025 A 
HETATM   10  C19 UNL     1       0.211  -0.101   0.005  1.00  0.00     0.053 A 
HETATM   11  C20 UNL     1       1.532   0.380   0.041  1.00  0.00     0.030 A 
HETATM   12  N2  UNL     1      -0.870   0.710   0.327  1.00  0.00    -0.350 N 
ATOM     13  H2  UNL     1      -0.713   1.695   0.542  1.00  0.00     0.166 HD
HETATM   14  C21 UNL     1      -2.212   0.179   0.362  1.00  0.00     0.109 A 
HETATM   15  C22 UNL     1      -2.378  -1.143   0.062  1.00  0.00    -0.009 A 
HETATM   16  C23 UNL     1      -3.670  -1.650   0.116  1.00  0.00    -0.000 A 
HETATM   17  C24 UNL     1      -3.856  -2.981  -0.186  1.00  0.00     0.014 A 
HETATM   18  C25 UNL     1      -5.123  -3.531  -0.149  1.00  0.00     0.001 A 
HETATM   19  C26 UNL     1      -6.198  -2.738   0.192  1.00  0.00     0.002 A 
HETATM   20  C27 UNL     1      -6.017  -1.396   0.497  1.00  0.00     0.030 A 
HETATM   21  C28 UNL     1      -4.748  -0.862   0.456  1.00  0.00     0.046 A 
HETATM   22  N3  UNL     1      -4.557   0.446   0.749  1.00  0.00    -0.321 N 
ATOM     23  H3  UNL     1      -5.343   1.045   1.003  1.00  0.00     0.169 HD
HETATM   24  C29 UNL     1      -3.311   0.934   0.697  1.00  0.00     0.273 A 
HETATM   25  O1  UNL     1      -3.150   2.168   0.976  1.00  0.00    -0.266 OA
HETATM   26  C30 UNL     1      -1.303  -2.028  -0.327  1.00  0.00     0.083 A 
ENDROOT
BRANCH   1  27
HETATM   27  C5  UNL     1       0.867   2.795   0.313  1.00  0.00    -0.025 A 
HETATM   28  C4  UNL     1       0.767   3.508   1.524  1.00  0.00     0.013 A 
HETATM   29  C3  UNL     1       0.106   4.690   1.650  1.00  0.00     0.007 A 
HETATM   30  C2  UNL     1      -0.504   5.232   0.544  1.00  0.00    -0.062 A 
HETATM   31  C1  UNL     1      -1.249   6.536   0.623  1.00  0.00     0.048 C 
HETATM   32  C32 UNL     1      -0.450   4.593  -0.675  1.00  0.00     0.007 A 
HETATM   33  C31 UNL     1       0.226   3.403  -0.766  1.00  0.00     0.013 A 
ENDBRANCH   1  27
BRANCH   7  34
HETATM   34  C11 UNL     1       3.527  -2.744  -0.701  1.00  0.00    -0.024 A 
HETATM   35  C12 UNL     1       3.617  -3.917  -0.007  1.00  0.00     0.012 A 
HETATM   36  C13 UNL     1       4.689  -4.782  -0.239  1.00  0.00     0.001 A 
HETATM   37  C14 UNL     1       5.652  -4.438  -1.175  1.00  0.00     0.000 A 
HETATM   38  C15 UNL     1       5.539  -3.256  -1.857  1.00  0.00     0.001 A 
HETATM   39  C16 UNL     1       4.465  -2.409  -1.613  1.00  0.00     0.012 A 
ENDBRANCH   7  34
TORSDOF 2
