REMARK  3 active torsions:
REMARK  status: ('A' for Active; 'I' for Inactive)
REMARK    1  A    between atoms: C13_16  and  C14_17 
REMARK    2  A    between atoms: C17_20  and  O2_21 
REMARK    3  A    between atoms: C26_31  and  C27_32 
ROOT
HETATM    1  C1  UNL     1      -4.605   2.008   0.734  1.00  0.00     0.049 C 
HETATM    2  C2  UNL     1      -4.562   0.533   0.719  1.00  0.00    -0.049 A 
HETATM    3  C3  UNL     1      -5.755  -0.193   0.763  1.00  0.00     0.007 A 
HETATM    4  C4  UNL     1      -5.692  -1.565   0.748  1.00  0.00     0.003 A 
HETATM    5  C5  UNL     1      -4.475  -2.210   0.691  1.00  0.00     0.030 A 
HETATM    6  C6  UNL     1      -3.297  -1.498   0.648  1.00  0.00     0.044 A 
HETATM    7  N1  UNL     1      -1.999  -1.924   0.589  1.00  0.00    -0.354 N 
ATOM      8  H1  UNL     1      -1.682  -2.893   0.567  1.00  0.00     0.166 HD
HETATM    9  C7  UNL     1      -1.221  -0.836   0.566  1.00  0.00     0.056 A 
HETATM   10  C8  UNL     1      -2.015   0.280   0.610  1.00  0.00     0.055 A 
HETATM   11  C9  UNL     1      -3.351  -0.123   0.662  1.00  0.00     0.013 A 
HETATM   12  C10 UNL     1      -1.153   1.422   0.590  1.00  0.00     0.193 A 
HETATM   13  O1  UNL     1      -1.511   2.629   0.619  1.00  0.00    -0.287 OA
HETATM   14  C11 UNL     1       0.237   0.916   0.529  1.00  0.00     0.015 A 
HETATM   15  C12 UNL     1       0.200  -0.399   0.515  1.00  0.00    -0.006 A 
HETATM   16  C13 UNL     1       1.442  -1.165   0.471  1.00  0.00     0.088 C 
HETATM   17  C20 UNL     1       2.471  -0.426  -0.312  1.00  0.00    -0.038 A 
HETATM   18  C21 UNL     1       3.405  -1.142  -1.065  1.00  0.00     0.009 A 
HETATM   19  C22 UNL     1       4.347  -0.442  -1.779  1.00  0.00     0.001 A 
HETATM   20  C23 UNL     1       4.368   0.936  -1.753  1.00  0.00     0.001 A 
HETATM   21  C24 UNL     1       3.470   1.640  -1.029  1.00  0.00     0.009 A 
HETATM   22  C25 UNL     1       2.501   0.939  -0.293  1.00  0.00    -0.038 A 
HETATM   23  C26 UNL     1       1.505   1.676   0.507  1.00  0.00     0.089 C 
ENDROOT
BRANCH  16  24
HETATM   24  C14 UNL     1       1.322  -2.559   0.006  1.00  0.00    -0.045 A 
HETATM   25  C15 UNL     1       0.776  -2.901  -1.218  1.00  0.00     0.011 A 
HETATM   26  C16 UNL     1       0.706  -4.232  -1.565  1.00  0.00     0.037 A 
HETATM   27  C17 UNL     1       1.155  -5.254  -0.754  1.00  0.00     0.065 A 
HETATM   28  C18 UNL     1       1.694  -4.906   0.456  1.00  0.00     0.037 A 
HETATM   29  C19 UNL     1       1.772  -3.569   0.824  1.00  0.00     0.011 A 
BRANCH  27  30
HETATM   30  O2  UNL     1       1.067  -6.589  -1.140  1.00  0.00    -0.361 OA
ATOM     31  H2  UNL     1       1.376  -7.293  -0.582  1.00  0.00     0.217 HD
ENDBRANCH  27  30
ENDBRANCH  16  24
BRANCH  23  32
HETATM   32  C27 UNL     1       1.358   3.074   0.089  1.00  0.00    -0.045 A 
HETATM   33  C28 UNL     1       1.802   4.082   0.926  1.00  0.00     0.008 A 
HETATM   34  C29 UNL     1       1.711   5.413   0.580  1.00  0.00     0.001 A 
HETATM   35  C30 UNL     1       1.166   5.791  -0.628  1.00  0.00     0.000 A 
HETATM   36  C31 UNL     1       0.719   4.803  -1.475  1.00  0.00     0.001 A 
HETATM   37  C32 UNL     1       0.820   3.481  -1.109  1.00  0.00     0.008 A 
ENDBRANCH  23  32
TORSDOF 3
