REMARK  4 active torsions:
REMARK  status: ('A' for Active; 'I' for Inactive)
REMARK    1  A    between atoms: C2_2  and  N1_3 
REMARK    2  A    between atoms: N1_3  and  C3_4 
REMARK    3  A    between atoms: N1_3  and  C6_7 
REMARK    4  A    between atoms: C9_13  and  O1_14 
ROOT
HETATM    1  C6  UNL     1       0.415  -0.512   0.163  1.00  0.00     0.140 C 
HETATM    2  C7  UNL     1       0.940  -0.589   1.579  1.00  0.00     0.260 C 
HETATM    3  N2  UNL     1       2.179   0.129   1.650  1.00  0.00    -0.071 N 
ATOM      4  H21 UNL     1       3.011  -0.461   1.612  1.00  0.00     0.277 HD
ATOM      5  H22 UNL     1       2.378   0.537   2.563  1.00  0.00     0.277 HD
HETATM    6  C8  UNL     1       2.079   1.088   0.578  1.00  0.00     0.266 C 
HETATM    7  C9  UNL     1       1.545   0.154  -0.521  1.00  0.00     0.170 C 
ENDROOT
BRANCH   1   8
HETATM    8  N1  UNL     1      -0.824   0.114   0.092  1.00  0.00    -0.381 N 
BRANCH   8   9
HETATM    9  C2  UNL     1      -1.051   1.357  -0.432  1.00  0.00     0.055 C 
HETATM   10  C1  UNL     1      -1.849   2.377   0.308  1.00  0.00     0.054 C 
ENDBRANCH   8   9
BRANCH   8  11
HETATM   11  C3  UNL     1      -1.983  -0.724   0.126  1.00  0.00     0.075 C 
HETATM   12  C4  UNL     1      -2.122  -1.602   1.324  1.00  0.00     0.032 C 
HETATM   13  C5  UNL     1      -1.981  -1.554  -1.184  1.00  0.00     0.032 C 
ENDBRANCH   8  11
ENDBRANCH   1   8
BRANCH   7  14
HETATM   14  O1  UNL     1       2.549  -0.770  -0.765  1.00  0.00    -0.387 OA
HETATM   15  C10 UNL     1       3.195  -0.413  -1.946  1.00  0.00     0.202 C 
ENDBRANCH   7  14
TORSDOF 4
