REMARK  4 active torsions:
REMARK  status: ('A' for Active; 'I' for Inactive)
REMARK    1  A    between atoms: S1_2  and  C2_3 
REMARK    2  A    between atoms: C2_3  and  C3_4 
REMARK    3  A    between atoms: C3_4  and  C4_5 
REMARK    4  A    between atoms: C4_5  and  N1_6 
ROOT
HETATM    1  N1  UNL     1       0.646  -0.174   0.399  1.00  0.00    -0.370 N 
HETATM    2  C5  UNL     1       1.540  -1.099  -0.177  1.00  0.00     0.096 C 
HETATM    3  C6  UNL     1       2.975  -0.604  -0.059  1.00  0.00     0.227 C 
HETATM    4  C7  UNL     1       3.050   0.616  -0.962  1.00  0.00     0.077 C 
HETATM    5  C8  UNL     1       2.514   1.335   0.234  1.00  0.00     0.227 C 
HETATM    6  C9  UNL     1       1.013   1.176   0.407  1.00  0.00     0.096 C 
HETATM    7  N2  UNL     1       3.131   0.300   1.060  1.00  0.00    -0.058 N 
ATOM      8  H21 UNL     1       4.043   0.447   1.493  1.00  0.00     0.278 HD
ATOM      9  H22 UNL     1       2.755   0.068   1.979  1.00  0.00     0.278 HD
ENDROOT
BRANCH   1  10
HETATM   10  C4  UNL     1      -0.616  -0.593   0.815  1.00  0.00     0.128 C 
BRANCH  10  11
HETATM   11  C3  UNL     1      -1.445  -0.932  -0.436  1.00  0.00     0.030 C 
BRANCH  11  12
HETATM   12  C2  UNL     1      -2.810  -1.436  -0.007  1.00  0.00     0.075 C 
BRANCH  12  13
HETATM   13  S1  UNL     1      -3.721  -0.227   0.965  1.00  0.00    -0.173 SA
HETATM   14  C1  UNL     1      -4.223   1.222   0.020  1.00  0.00     0.089 C 
ENDBRANCH  12  13
ENDBRANCH  11  12
ENDBRANCH  10  11
ENDBRANCH   1  10
TORSDOF 4
