REMARK  5 active torsions:
REMARK  status: ('A' for Active; 'I' for Inactive)
REMARK    1  A    between atoms: C2_2  and  C5_6 
REMARK    2  A    between atoms: C5_6  and  C6_7 
REMARK    3  A    between atoms: C6_7  and  N2_8 
REMARK    4  A    between atoms: N2_8  and  C7_10 
REMARK    5  A    between atoms: C7_10  and  C8_11 
ROOT
HETATM    1  C1  UNL     1      -3.741  -0.102  -1.436  1.00  0.00     0.031 C 
HETATM    2  C2  UNL     1      -3.175  -0.242  -0.043  1.00  0.00     0.043 C 
HETATM    3  C3  UNL     1      -3.302   1.051   0.712  1.00  0.00     0.031 C 
HETATM    4  C4  UNL     1      -3.920  -1.291   0.645  1.00  0.00     0.068 C 
HETATM    5  N1  UNL     1      -4.514  -2.129   1.218  1.00  0.00    -0.196 NA
ENDROOT
BRANCH   2   6
HETATM    6  C5  UNL     1      -1.717  -0.630  -0.052  1.00  0.00     0.043 C 
BRANCH   6   7
HETATM    7  C6  UNL     1      -0.859   0.381  -0.757  1.00  0.00     0.115 C 
BRANCH   7   8
HETATM    8  N2  UNL     1       0.492  -0.056  -0.739  1.00  0.00    -0.421 N 
ATOM      9  H2  UNL     1       0.967  -0.343  -1.595  1.00  0.00     0.153 HD
BRANCH   8  10
HETATM   10  C7  UNL     1       1.157  -0.078   0.514  1.00  0.00     0.120 C 
BRANCH  10  11
HETATM   11  C8  UNL     1       2.574  -0.559   0.240  1.00  0.00     0.029 C 
HETATM   12  C9  UNL     1       3.173   0.462  -0.730  1.00  0.00     0.034 C 
HETATM   13  C10 UNL     1       4.557   0.637  -0.107  1.00  0.00     0.168 C 
HETATM   14  O1  UNL     1       4.221   0.704   1.253  1.00  0.00    -0.391 OA
HETATM   15  C11 UNL     1       3.480  -0.481   1.417  1.00  0.00     0.173 C 
ENDBRANCH  10  11
ENDBRANCH   8  10
ENDBRANCH   7   8
ENDBRANCH   6   7
ENDBRANCH   2   6
TORSDOF 5
