REMARK  0 active torsions:
REMARK  status: ('A' for Active; 'I' for Inactive)
ROOT
HETATM    1  C1  UNL     1      -2.367   0.616   0.078  1.00  0.00     0.059 C 
HETATM    2  C2  UNL     1      -1.088   0.064  -0.454  1.00  0.00     0.228 C 
HETATM    3  N1  UNL     1      -0.742  -1.186   0.202  1.00  0.00    -0.114 NA
HETATM    4  N2  UNL     1       0.658  -1.298   0.081  1.00  0.00    -0.114 NA
HETATM    5  C3  UNL     1       1.063  -0.021  -0.497  1.00  0.00     0.228 C 
HETATM    6  C4  UNL     1       2.400   0.440  -0.001  1.00  0.00     0.059 C 
HETATM    7  O1  UNL     1       0.030   0.853  -0.101  1.00  0.00    -0.346 OA
ENDROOT
TORSDOF 0
