REMARK  10 active torsions:
REMARK  status: ('A' for Active; 'I' for Inactive)
REMARK    1  A    between atoms: N1_1  and  C1_4 
REMARK    2  A    between atoms: N5_14  and  C5_16 
REMARK    3  A    between atoms: C5_16  and  C6_17 
REMARK    4  A    between atoms: C6_17  and  C7_18 
REMARK    5  A    between atoms: C7_18  and  N6_19 
REMARK    6  A    between atoms: N7_23  and  C8_24 
REMARK    7  A    between atoms: C8_24  and  C9_25 
REMARK    8  A    between atoms: C9_25  and  N8_26 
REMARK    9  A    between atoms: N8_26  and  C10_28 
REMARK   10  A    between atoms: C10_28  and  C11_29 
ROOT
HETATM    1  C1  UNL     1      -0.118  -2.980   0.646  1.00  0.00     0.131 A 
HETATM    2  N2  UNL     1      -0.444  -3.778   1.685  1.00  0.00    -0.337 N 
ATOM      3  H2  UNL     1       0.260  -4.421   2.047  1.00  0.00     0.168 HD
HETATM    4  C2  UNL     1      -1.655  -3.761   2.262  1.00  0.00     0.183 A 
HETATM    5  N3  UNL     1      -2.538  -2.892   1.737  1.00  0.00    -0.336 N 
ATOM      6  H3  UNL     1      -3.471  -2.852   2.148  1.00  0.00     0.168 HD
HETATM    7  C3  UNL     1      -2.272  -2.085   0.720  1.00  0.00     0.153 A 
HETATM    8  N4  UNL     1      -2.991  -1.177   0.037  1.00  0.00    -0.174 N 
ATOM      9  H4  UNL     1      -3.962  -0.925   0.221  1.00  0.00     0.186 HD
HETATM   10  C4  UNL     1      -2.220  -0.662  -0.921  1.00  0.00     0.682 A 
HETATM   11  N5  UNL     1      -2.604   0.245  -1.785  1.00  0.00    -0.226 N 
ATOM     12  H5  UNL     1      -1.957   0.594  -2.493  1.00  0.00     0.177 HD
HETATM   13  N7  UNL     1      -0.958  -1.225  -0.893  1.00  0.00    -0.171 N 
HETATM   14  C15 UNL     1      -1.024  -2.090   0.115  1.00  0.00     0.140 A 
ENDROOT
BRANCH  13  15
HETATM   15  C8  UNL     1       0.056  -0.863  -1.832  1.00  0.00     0.192 C 
BRANCH  15  16
HETATM   16  C9  UNL     1       0.803   0.400  -1.546  1.00  0.00     0.076 C 
BRANCH  16  17
HETATM   17  N8  UNL     1       1.624   0.578  -0.458  1.00  0.00    -0.399 N 
ATOM     18  H8  UNL     1       1.303   1.141   0.330  1.00  0.00     0.158 HD
BRANCH  17  19
HETATM   19  C10 UNL     1       2.912  -0.013  -0.419  1.00  0.00     0.151 C 
BRANCH  19  20
HETATM   20  C11 UNL     1       3.655   0.152   0.888  1.00  0.00     0.203 C 
HETATM   21  C12 UNL     1       3.906   1.571   1.280  1.00  0.00     0.036 C 
HETATM   22  C13 UNL     1       5.293   1.911   0.801  1.00  0.00     0.029 C 
HETATM   23  C14 UNL     1       5.847   0.618   0.296  1.00  0.00     0.233 C 
HETATM   24  N9  UNL     1       4.973  -0.429   0.784  1.00  0.00    -0.069 N 
ATOM     25  H92 UNL     1       5.297  -0.853   1.653  1.00  0.00     0.277 HD
ATOM     26  H91 UNL     1       4.998  -1.274   0.214  1.00  0.00     0.277 HD
ENDBRANCH  19  20
ENDBRANCH  17  19
ENDBRANCH  16  17
ENDBRANCH  15  16
ENDBRANCH  13  15
BRANCH  11  27
HETATM   27  C5  UNL     1      -3.969   0.747  -1.718  1.00  0.00     0.139 C 
BRANCH  27  28
HETATM   28  C6  UNL     1      -4.107   1.802  -0.637  1.00  0.00     0.047 C 
BRANCH  28  29
HETATM   29  C7  UNL     1      -5.520   2.316  -0.569  1.00  0.00     0.231 C 
BRANCH  29  30
HETATM   30  N6  UNL     1      -5.647   3.326   0.464  1.00  0.00    -0.079 N 
ATOM     31  H63 UNL     1      -5.325   2.984   1.369  1.00  0.00     0.274 HD
ATOM     32  H62 UNL     1      -4.975   4.083   0.338  1.00  0.00     0.274 HD
ATOM     33  H61 UNL     1      -6.605   3.674   0.510  1.00  0.00     0.274 HD
ENDBRANCH  29  30
ENDBRANCH  28  29
ENDBRANCH  27  28
ENDBRANCH  11  27
BRANCH   1  34
HETATM   34  N1  UNL     1       1.025  -3.069   0.109  1.00  0.00    -0.383 N 
ATOM     35  H12 UNL     1       1.696  -3.728   0.502  1.00  0.00     0.157 HD
ATOM     36  H11 UNL     1       1.271  -2.466  -0.676  1.00  0.00     0.157 HD
ENDBRANCH   1  34
TORSDOF 10
