REMARK  11 active torsions:
REMARK  status: ('A' for Active; 'I' for Inactive)
REMARK    1  A    between atoms: C2_2  and  C3_3 
REMARK    2  A    between atoms: C3_3  and  C4_4 
REMARK    3  A    between atoms: C4_4  and  N1_5 
REMARK    4  A    between atoms: C5_6  and  N2_7 
REMARK    5  A    between atoms: N3_12  and  C8_13 
REMARK    6  A    between atoms: C8_13  and  C9_14 
REMARK    7  A    between atoms: C9_14  and  C10_15 
REMARK    8  A    between atoms: C10_15  and  C11_16 
REMARK    9  A    between atoms: C11_16  and  N4_17 
REMARK   10  A    between atoms: C13_24  and  N6_25 
REMARK   11  A    between atoms: C14_30  and  N8_31 
ROOT
HETATM    1  N1  UNL     1      -1.666  -0.706  -0.411  1.00  0.00    -0.323 N 
HETATM    2  C5  UNL     1      -1.163   0.021  -1.479  1.00  0.00     0.173 A 
HETATM    3  C7  UNL     1       0.167   0.091  -1.759  1.00  0.00     0.293 A 
HETATM    4  O1  UNL     1       0.602   0.760  -2.739  1.00  0.00    -0.264 OA
HETATM    5  N3  UNL     1       1.021  -0.587  -0.948  1.00  0.00    -0.295 N 
HETATM    6  C12 UNL     1       0.596  -1.307   0.101  1.00  0.00     0.157 A 
HETATM    7  N5  UNL     1       1.454  -1.974   0.894  1.00  0.00    -0.174 N 
ATOM      8  H5  UNL     1       2.450  -1.919   0.683  1.00  0.00     0.186 HD
HETATM    9  C13 UNL     1       1.067  -2.708   1.948  1.00  0.00     0.679 A 
HETATM   10  N7  UNL     1      -0.237  -2.755   2.190  1.00  0.00    -0.175 N 
ATOM     11  H7  UNL     1      -0.554  -3.307   2.987  1.00  0.00     0.186 HD
HETATM   12  C14 UNL     1      -1.179  -2.116   1.446  1.00  0.00     0.145 A 
HETATM   13  C15 UNL     1      -0.795  -1.360   0.366  1.00  0.00     0.126 A 
ENDROOT
BRANCH   5  14
HETATM   14  C8  UNL     1       2.415  -0.492  -1.267  1.00  0.00     0.134 C 
BRANCH  14  15
HETATM   15  C9  UNL     1       3.104   0.666  -0.531  1.00  0.00     0.022 C 
BRANCH  15  16
HETATM   16  C10 UNL     1       4.553   0.677  -0.934  1.00  0.00     0.029 C 
BRANCH  16  17
HETATM   17  C11 UNL     1       5.223   1.824  -0.201  1.00  0.00     0.229 C 
BRANCH  17  18
HETATM   18  N4  UNL     1       6.632   1.801  -0.620  1.00  0.00    -0.079 N 
ATOM     19  H43 UNL     1       7.087   0.900  -0.471  1.00  0.00     0.274 HD
ATOM     20  H42 UNL     1       6.757   1.835  -1.632  1.00  0.00     0.274 HD
ATOM     21  H41 UNL     1       7.082   2.572  -0.127  1.00  0.00     0.274 HD
ENDBRANCH  17  18
ENDBRANCH  16  17
ENDBRANCH  15  16
ENDBRANCH  14  15
ENDBRANCH   5  14
BRANCH   2  22
HETATM   22  N2  UNL     1      -2.042   0.627  -2.184  1.00  0.00    -0.376 N 
HETATM   23  C6  UNL     1      -1.828   1.446  -3.338  1.00  0.00     0.148 C 
ATOM     24  H2  UNL     1      -3.011   0.513  -1.888  1.00  0.00     0.160 HD
ENDBRANCH   2  22
BRANCH   1  25
HETATM   25  C4  UNL     1      -3.068  -0.701  -0.239  1.00  0.00     0.131 C 
BRANCH  25  26
HETATM   26  C3  UNL     1      -3.466   0.510   0.584  1.00  0.00     0.020 C 
BRANCH  26  27
HETATM   27  C2  UNL     1      -4.985   0.540   0.814  1.00  0.00    -0.003 C 
HETATM   28  C1  UNL     1      -5.355   1.756   1.636  1.00  0.00     0.005 C 
ENDBRANCH  26  27
ENDBRANCH  25  26
ENDBRANCH   1  25
BRANCH   9  29
HETATM   29  N6  UNL     1       1.948  -3.331   2.679  1.00  0.00    -0.234 N 
ATOM     30  H62 UNL     1       2.950  -3.295   2.493  1.00  0.00     0.174 HD
ATOM     31  H61 UNL     1       1.654  -3.889   3.480  1.00  0.00     0.174 HD
ENDBRANCH   9  29
BRANCH  12  32
HETATM   32  N8  UNL     1      -2.406  -2.235   1.755  1.00  0.00    -0.383 N 
ATOM     33  H82 UNL     1      -2.691  -2.797   2.557  1.00  0.00     0.157 HD
ATOM     34  H81 UNL     1      -3.113  -1.756   1.197  1.00  0.00     0.157 HD
ENDBRANCH  12  32
TORSDOF 11
