REMARK  12 active torsions:
REMARK  status: ('A' for Active; 'I' for Inactive)
REMARK    1  A    between atoms: N1_1  and  C1_5 
REMARK    2  A    between atoms: C1_5  and  C2_6 
REMARK    3  A    between atoms: C2_6  and  C3_7 
REMARK    4  A    between atoms: C3_7  and  C4_8 
REMARK    5  A    between atoms: C7_11  and  C8_12 
REMARK    6  A    between atoms: C8_12  and  N2_13 
REMARK    7  A    between atoms: C9_17  and  O1_18 
REMARK    8  A    between atoms: C10_20  and  O2_21 
REMARK    9  A    between atoms: O2_21  and  C11_22 
REMARK   10  A    between atoms: C14_28  and  C15_29 
REMARK   11  A    between atoms: C15_29  and  O3_30 
REMARK   12  A    between atoms: O3_30  and  N4_31 
ROOT
HETATM    1  C4  UNL     1      -1.903  -0.173   0.809  1.00  0.00     0.017 C 
HETATM    2  C5  UNL     1      -3.210   0.570   0.906  1.00  0.00     0.008 C 
HETATM    3  C6  UNL     1      -3.275   1.681  -0.183  1.00  0.00     0.009 C 
HETATM    4  C7  UNL     1      -2.002   2.388  -0.352  1.00  0.00     0.042 C 
HETATM    5  C9  UNL     1      -0.871   2.077   0.525  1.00  0.00     0.153 C 
HETATM    6  C10 UNL     1      -0.675   0.580   0.740  1.00  0.00     0.158 C 
ENDROOT
BRANCH   6   7
HETATM    7  O2  UNL     1       0.111  -0.007  -0.271  1.00  0.00    -0.353 OA
BRANCH   7   8
HETATM    8  C11 UNL     1       1.401  -0.193   0.111  1.00  0.00     0.264 C 
HETATM    9  C12 UNL     1       1.762  -1.609   0.533  1.00  0.00     0.088 C 
HETATM   10  C13 UNL     1       2.723  -2.315  -0.351  1.00  0.00     0.240 C 
HETATM   11  N3  UNL     1       3.828  -1.465  -0.784  1.00  0.00    -0.046 N 
HETATM   12  C14 UNL     1       3.537  -0.114  -0.396  1.00  0.00     0.349 C 
ATOM     13  H32 UNL     1       4.731  -1.787  -0.436  1.00  0.00     0.280 HD
ATOM     14  H31 UNL     1       4.024  -1.554  -1.781  1.00  0.00     0.280 HD
HETATM   15  O4  UNL     1       2.312   0.331  -0.802  1.00  0.00    -0.327 OA
BRANCH  12  16
HETATM   16  C15 UNL     1       4.708   0.753  -0.978  1.00  0.00     0.261 C 
BRANCH  16  17
HETATM   17  O3  UNL     1       5.725  -0.133  -0.590  1.00  0.00    -0.283 OA
BRANCH  17  18
HETATM   18  N4  UNL     1       6.719   0.434   0.124  1.00  0.00    -0.311 N 
ATOM     19  H42 UNL     1       6.717   1.428   0.355  1.00  0.00     0.184 HD
ATOM     20  H41 UNL     1       7.458  -0.210   0.406  1.00  0.00     0.184 HD
ENDBRANCH  17  18
ENDBRANCH  16  17
ENDBRANCH  12  16
ENDBRANCH   7   8
ENDBRANCH   6   7
BRANCH   1  21
HETATM   21  C3  UNL     1      -2.040  -1.359  -0.165  1.00  0.00     0.009 C 
BRANCH  21  22
HETATM   22  C2  UNL     1      -2.969  -2.409   0.415  1.00  0.00     0.028 C 
BRANCH  22  23
HETATM   23  C1  UNL     1      -3.323  -3.480  -0.555  1.00  0.00     0.229 C 
BRANCH  23  24
HETATM   24  N1  UNL     1      -2.293  -4.301  -1.071  1.00  0.00    -0.079 N 
ATOM     25  H13 UNL     1      -1.574  -3.707  -1.484  1.00  0.00     0.274 HD
ATOM     26  H12 UNL     1      -1.783  -4.717  -0.292  1.00  0.00     0.274 HD
ATOM     27  H11 UNL     1      -2.536  -5.035  -1.736  1.00  0.00     0.274 HD
ENDBRANCH  23  24
ENDBRANCH  22  23
ENDBRANCH  21  22
ENDBRANCH   1  21
BRANCH   5  28
HETATM   28  O1  UNL     1      -0.904   2.716   1.737  1.00  0.00    -0.393 OA
ATOM     29  H1  UNL     1      -0.170   2.514   2.306  1.00  0.00     0.210 HD
ENDBRANCH   5  28
BRANCH   4  30
HETATM   30  C8  UNL     1      -2.194   3.892  -0.414  1.00  0.00     0.236 C 
BRANCH  30  31
HETATM   31  N2  UNL     1      -0.972   4.605  -0.321  1.00  0.00    -0.079 N 
ATOM     32  H23 UNL     1      -0.455   4.337   0.516  1.00  0.00     0.274 HD
ATOM     33  H22 UNL     1      -0.311   4.291  -1.031  1.00  0.00     0.274 HD
ATOM     34  H21 UNL     1      -1.101   5.616  -0.363  1.00  0.00     0.274 HD
ENDBRANCH  30  31
ENDBRANCH   4  30
TORSDOF 12
