REMARK  11 active torsions:
REMARK  status: ('A' for Active; 'I' for Inactive)
REMARK    1  A    between atoms: C2_2  and  C3_3 
REMARK    2  A    between atoms: C4_4  and  C5_5 
REMARK    3  A    between atoms: C5_5  and  N1_6 
REMARK    4  A    between atoms: N1_6  and  C7_8 
REMARK    5  A    between atoms: C7_8  and  C8_9 
REMARK    6  A    between atoms: C8_9  and  N2_10 
REMARK    7  A    between atoms: N2_10  and  C10_12 
REMARK    8  A    between atoms: C10_12  and  C11_13 
REMARK    9  A    between atoms: C11_13  and  O1_14 
REMARK   10  A    between atoms: C13_23  and  N6_24 
REMARK   11  A    between atoms: C14_29  and  N8_30 
ROOT
HETATM    1  C3  UNL     1      -2.337   0.567   0.001  1.00  0.00    -0.015 A 
HETATM    2  C4  UNL     1      -1.204   0.240  -0.779  1.00  0.00     0.061 A 
HETATM    3  N3  UNL     1      -1.295  -0.534  -1.874  1.00  0.00    -0.301 N 
ATOM      4  H3  UNL     1      -0.450  -0.742  -2.405  1.00  0.00     0.186 HD
HETATM    5  N4  UNL     1      -2.436  -1.027  -2.277  1.00  0.00    -0.284 N 
ATOM      6  H4  UNL     1      -2.464  -1.610  -3.113  1.00  0.00     0.188 HD
HETATM    7  C12 UNL     1      -3.570  -0.777  -1.607  1.00  0.00     0.150 A 
HETATM    8  N5  UNL     1      -4.753  -1.281  -2.014  1.00  0.00    -0.175 N 
ATOM      9  H5  UNL     1      -4.771  -1.864  -2.851  1.00  0.00     0.186 HD
HETATM   10  C13 UNL     1      -5.904  -1.052  -1.370  1.00  0.00     0.679 A 
HETATM   11  N7  UNL     1      -5.907  -0.289  -0.273  1.00  0.00    -0.176 N 
ATOM     12  H7  UNL     1      -6.778  -0.105   0.224  1.00  0.00     0.186 HD
HETATM   13  C14 UNL     1      -4.726   0.245   0.178  1.00  0.00     0.129 A 
HETATM   14  C15 UNL     1      -3.528   0.030  -0.454  1.00  0.00     0.062 A 
ENDROOT
BRANCH   2  15
HETATM   15  C5  UNL     1       0.074   0.809  -0.303  1.00  0.00     0.330 C 
BRANCH  15  16
HETATM   16  N1  UNL     1       1.225   0.427  -1.140  1.00  0.00     0.091 N 
HETATM   17  C6  UNL     1       2.280   1.339  -0.625  1.00  0.00     0.310 C 
BRANCH  16  18
HETATM   18  C7  UNL     1       1.638  -0.930  -0.939  1.00  0.00     0.302 C 
BRANCH  18  19
HETATM   19  C8  UNL     1       2.318  -1.297   0.315  1.00  0.00     0.302 C 
BRANCH  19  20
HETATM   20  N2  UNL     1       3.628  -0.720   0.545  1.00  0.00     0.087 N 
HETATM   21  C9  UNL     1       4.098  -1.059   1.897  1.00  0.00     0.310 C 
BRANCH  20  22
HETATM   22  C10 UNL     1       4.590  -1.298  -0.417  1.00  0.00     0.297 C 
BRANCH  22  23
HETATM   23  C11 UNL     1       5.954  -0.732  -0.220  1.00  0.00     0.194 C 
BRANCH  23  24
HETATM   24  O1  UNL     1       5.985   0.660  -0.392  1.00  0.00    -0.399 OA
ATOM     25  H1  UNL     1       6.855   1.021  -0.266  1.00  0.00     0.209 HD
ENDBRANCH  23  24
ENDBRANCH  22  23
ENDBRANCH  20  22
ENDBRANCH  19  20
ENDBRANCH  18  19
ENDBRANCH  16  18
ENDBRANCH  15  16
ENDBRANCH   2  15
BRANCH   1  26
HETATM   26  C2  UNL     1      -2.286   1.411   1.170  1.00  0.00     0.037 C 
HETATM   27  C1  UNL     1      -2.276   2.902   0.940  1.00  0.00     0.010 C 
ENDBRANCH   1  26
BRANCH  13  28
HETATM   28  N8  UNL     1      -4.779   0.980   1.217  1.00  0.00    -0.384 N 
ATOM     29  H82 UNL     1      -5.670   1.140   1.687  1.00  0.00     0.157 HD
ATOM     30  H81 UNL     1      -3.901   1.377   1.552  1.00  0.00     0.157 HD
ENDBRANCH  13  28
BRANCH  10  31
HETATM   31  N6  UNL     1      -7.000  -1.578  -1.826  1.00  0.00    -0.234 N 
ATOM     32  H62 UNL     1      -6.998  -2.160  -2.663  1.00  0.00     0.174 HD
ATOM     33  H61 UNL     1      -7.877  -1.404  -1.335  1.00  0.00     0.174 HD
ENDBRANCH  10  31
TORSDOF 11
