REMARK  1 active torsions:
REMARK  status: ('A' for Active; 'I' for Inactive)
REMARK    1  A    between atoms: C14_14  and  O1_15 
ROOT
HETATM    1  C1  UNL     1       3.899  -0.535  -0.573  1.00  0.00     0.013 C 
HETATM    2  C2  UNL     1       2.456  -0.171  -0.720  1.00  0.00     0.017 C 
HETATM    3  C3  UNL     1       1.534  -1.341  -1.046  1.00  0.00     0.015 C 
HETATM    4  C4  UNL     1       0.680  -0.996   0.176  1.00  0.00     0.029 C 
HETATM    5  C5  UNL     1      -0.684  -0.527  -0.135  1.00  0.00    -0.034 C 
HETATM    6  C6  UNL     1      -1.133  -1.263  -1.408  1.00  0.00     0.016 C 
HETATM    7  C7  UNL     1      -1.625  -0.933   0.948  1.00  0.00     0.010 C 
HETATM    8  C8  UNL     1      -2.880  -0.174   1.043  1.00  0.00     0.001 C 
HETATM    9  C9  UNL     1      -3.222   0.719  -0.087  1.00  0.00     0.000 C 
HETATM   10  C10 UNL     1      -2.085   1.487  -0.667  1.00  0.00     0.005 C 
HETATM   11  C11 UNL     1      -0.741   0.957  -0.358  1.00  0.00    -0.006 C 
HETATM   12  C12 UNL     1      -0.192   1.602   0.922  1.00  0.00     0.008 C 
HETATM   13  C13 UNL     1       1.290   1.354   0.867  1.00  0.00     0.039 C 
HETATM   14  C14 UNL     1       1.686  -0.035   0.593  1.00  0.00     0.065 C 
ENDROOT
BRANCH  14  15
HETATM   15  O1  UNL     1       2.509  -0.531   1.631  1.00  0.00    -0.389 OA
ATOM     16  H1  UNL     1       2.030  -0.446   2.447  1.00  0.00     0.210 HD
ENDBRANCH  14  15
TORSDOF 1
