REMARK  4 active torsions:
REMARK  status: ('A' for Active; 'I' for Inactive)
REMARK    1  A    between atoms: C2_2  and  O1_3 
REMARK    2  A    between atoms: N1_7  and  C5_8 
REMARK    3  A    between atoms: C5_8  and  C6_9 
REMARK    4  A    between atoms: C6_9  and  N2_10 
ROOT
HETATM    1  C1  UNL     1      -4.745   0.186   0.675  1.00  0.00     0.045 C 
HETATM    2  C2  UNL     1      -3.353   0.756   0.468  1.00  0.00     0.057 C 
HETATM    3  C3  UNL     1      -2.914   0.492  -0.975  1.00  0.00     0.067 C 
HETATM    4  C4  UNL     1      -2.429  -0.917  -1.056  1.00  0.00     0.275 C 
HETATM    5  N1  UNL     1      -1.136  -1.061  -0.390  1.00  0.00     0.090 N 
HETATM    6  C12 UNL     1      -1.067  -0.112   0.668  1.00  0.00     0.275 C 
HETATM    7  C13 UNL     1      -2.413   0.001   1.362  1.00  0.00     0.067 C 
ENDROOT
BRANCH   5   8
HETATM    8  C5  UNL     1      -0.077  -1.006  -1.364  1.00  0.00     0.302 C 
BRANCH   8   9
HETATM    9  C6  UNL     1       1.274  -1.216  -0.843  1.00  0.00     0.302 C 
BRANCH   9  10
HETATM   10  N2  UNL     1       1.856  -0.349   0.087  1.00  0.00     0.090 N 
HETATM   11  C7  UNL     1       2.215   0.948  -0.353  1.00  0.00     0.272 C 
HETATM   12  C8  UNL     1       3.301   1.553   0.512  1.00  0.00     0.030 C 
HETATM   13  C9  UNL     1       4.560   0.724   0.492  1.00  0.00     0.003 C 
HETATM   14  C10 UNL     1       4.254  -0.749   0.508  1.00  0.00     0.030 C 
HETATM   15  C11 UNL     1       2.832  -1.051   0.858  1.00  0.00     0.272 C 
ENDBRANCH   9  10
ENDBRANCH   8   9
ENDBRANCH   5   8
BRANCH   2  16
HETATM   16  O1  UNL     1      -3.337   2.135   0.695  1.00  0.00    -0.390 OA
ATOM     17  H1  UNL     1      -2.466   2.492   0.565  1.00  0.00     0.210 HD
ENDBRANCH   2  16
TORSDOF 4
