REMARK  6 active torsions:
REMARK  status: ('A' for Active; 'I' for Inactive)
REMARK    1  A    between atoms: C2_2  and  C3_3 
REMARK    2  A    between atoms: C3_3  and  C4_4 
REMARK    3  A    between atoms: C4_4  and  C5_5 
REMARK    4  A    between atoms: C5_5  and  C6_6 
REMARK    5  A    between atoms: C7_7  and  C8_8 
REMARK    6  A    between atoms: N1_11  and  O2_12 
ROOT
HETATM    1  C8  UNL     1      -2.466   0.309   1.169  1.00  0.00     0.176 C 
HETATM    2  C9  UNL     1      -3.190  -0.950   1.473  1.00  0.00     0.267 C 
HETATM    3  O1  UNL     1      -3.637  -1.306   2.571  1.00  0.00    -0.269 OA
HETATM    4  N1  UNL     1      -3.264  -1.660   0.246  1.00  0.00    -0.155 N 
HETATM    5  C10 UNL     1      -2.932  -0.778  -0.835  1.00  0.00     0.260 C 
HETATM    6  O3  UNL     1      -2.680  -1.105  -2.042  1.00  0.00    -0.270 OA
HETATM    7  C11 UNL     1      -2.947   0.587  -0.245  1.00  0.00     0.059 C 
HETATM    8  C12 UNL     1      -2.014   1.523  -0.980  1.00  0.00     0.027 C 
HETATM    9  C13 UNL     1      -4.346   1.115  -0.246  1.00  0.00     0.027 C 
ENDROOT
BRANCH   1  10
HETATM   10  C7  UNL     1      -1.017   0.100   1.125  1.00  0.00    -0.091 C 
HETATM   11  C6  UNL     1       0.175  -0.050   1.091  1.00  0.00    -0.106 C 
BRANCH  11  12
HETATM   12  C5  UNL     1       1.654  -0.220   1.070  1.00  0.00     0.094 C 
BRANCH  12  13
HETATM   13  C4  UNL     1       2.012  -0.473  -0.355  1.00  0.00     0.012 C 
BRANCH  13  14
HETATM   14  C3  UNL     1       3.493  -0.667  -0.482  1.00  0.00     0.000 C 
BRANCH  14  15
HETATM   15  C2  UNL     1       4.249   0.538  -0.024  1.00  0.00    -0.005 C 
HETATM   16  C1  UNL     1       5.746   0.267  -0.190  1.00  0.00     0.005 C 
ENDBRANCH  14  15
ENDBRANCH  13  14
ENDBRANCH  12  13
ENDBRANCH  11  12
ENDBRANCH   1  10
BRANCH   4  17
HETATM   17  O2  UNL     1      -3.591  -2.972   0.055  1.00  0.00    -0.277 OA
ATOM     18  H2  UNL     1      -3.641  -3.447  -0.766  1.00  0.00     0.245 HD
ENDBRANCH   4  17
TORSDOF 6
