REMARK  4 active torsions:
REMARK  status: ('A' for Active; 'I' for Inactive)
REMARK    1  A    between atoms: N2_6  and  C4_8 
REMARK    2  A    between atoms: C4_8  and  C5_9 
REMARK    3  A    between atoms: C5_9  and  C6_10 
REMARK    4  A    between atoms: N3_14  and  O1_15 
ROOT
HETATM    1  C1  UNL     1      -2.356   1.576   1.219  1.00  0.00     0.070 C 
HETATM    2  C2  UNL     1      -2.358   0.431   0.237  1.00  0.00     0.033 A 
HETATM    3  N1  UNL     1      -1.151   0.075  -0.218  1.00  0.00    -0.338 N 
ATOM      4  H1  UNL     1      -0.351   0.601   0.134  1.00  0.00     0.168 HD
HETATM    5  C3  UNL     1      -0.896  -0.896  -1.082  1.00  0.00     0.163 A 
HETATM    6  N2  UNL     1       0.243  -1.249  -1.527  1.00  0.00    -0.369 N 
ATOM      7  H2  UNL     1       0.256  -2.022  -2.192  1.00  0.00     0.161 HD
HETATM    8  S1  UNL     1      -2.286  -1.730  -1.623  1.00  0.00     0.053 SA
HETATM    9  N3  UNL     1      -3.738  -1.153  -0.947  1.00  0.00    -0.193 N 
HETATM   10  C9  UNL     1      -3.549  -0.128  -0.092  1.00  0.00     0.066 A 
HETATM   11  C10 UNL     1      -4.809   0.417   0.532  1.00  0.00     0.074 C 
ENDROOT
BRANCH   6  12
HETATM   12  C4  UNL     1       1.504  -0.673  -1.190  1.00  0.00     0.122 C 
BRANCH  12  13
HETATM   13  C5  UNL     1       1.946  -0.947   0.218  1.00  0.00     0.023 C 
BRANCH  13  14
HETATM   14  C6  UNL     1       3.293  -0.271   0.415  1.00  0.00    -0.021 C 
HETATM   15  C7  UNL     1       4.330  -0.788  -0.533  1.00  0.00     0.009 C 
HETATM   16  C8  UNL     1       3.187   1.227   0.234  1.00  0.00     0.009 C 
ENDBRANCH  13  14
ENDBRANCH  12  13
ENDBRANCH   6  12
BRANCH   9  17
HETATM   17  O1  UNL     1      -4.983  -1.668  -1.233  1.00  0.00    -0.276 OA
ATOM     18  H1  UNL     1      -5.793  -1.346  -0.856  1.00  0.00     0.246 HD
ENDBRANCH   9  17
TORSDOF 4
