REMARK  3 active torsions:
REMARK  status: ('A' for Active; 'I' for Inactive)
REMARK    1  A    between atoms: C2_2  and  O1_3 
REMARK    2  A    between atoms: O1_3  and  C3_4 
REMARK    3  A    between atoms: C6_7  and  O2_8 
ROOT
HETATM    1  C3  UNL     1       0.421  -0.654  -0.412  1.00  0.00     0.169 C 
HETATM    2  C4  UNL     1       0.628  -2.111  -0.066  1.00  0.00     0.038 C 
HETATM    3  C5  UNL     1      -0.590  -2.563   0.669  1.00  0.00     0.038 C 
HETATM    4  C6  UNL     1      -1.670  -1.595   0.242  1.00  0.00     0.166 C 
HETATM    5  C7  UNL     1      -0.977  -0.298  -0.079  1.00  0.00     0.160 C 
HETATM    6  O3  UNL     1      -1.169   0.615   0.893  1.00  0.00    -0.363 OA
HETATM    7  C8  UNL     1      -1.429   1.846   0.532  1.00  0.00     0.180 C 
HETATM    8  C9  UNL     1      -2.162   2.003  -0.745  1.00  0.00     0.103 C 
HETATM    9  S1  UNL     1      -1.815   0.394  -1.560  1.00  0.00    -0.124 SA
ENDROOT
BRANCH   1  10
HETATM   10  O1  UNL     1       1.381   0.089   0.240  1.00  0.00    -0.382 OA
BRANCH  10  11
HETATM   11  C2  UNL     1       2.242   0.693  -0.659  1.00  0.00     0.164 C 
HETATM   12  C1  UNL     1       3.278   1.498   0.084  1.00  0.00     0.033 C 
ENDBRANCH  10  11
ENDBRANCH   1  10
BRANCH   4  13
HETATM   13  O2  UNL     1      -2.618  -1.488   1.234  1.00  0.00    -0.392 OA
ATOM     14  H2  UNL     1      -3.297  -0.880   0.966  1.00  0.00     0.210 HD
ENDBRANCH   4  13
TORSDOF 3
