REMARK  3 active torsions:
REMARK  status: ('A' for Active; 'I' for Inactive)
REMARK    1  A    between atoms: O1_2  and  C2_3 
REMARK    2  A    between atoms: C5_7  and  N1_8 
REMARK    3  A    between atoms: C9_12  and  O2_13 
ROOT
HETATM    1  C2  UNL     1      -1.893  -0.162  -0.444  1.00  0.00     0.130 C 
HETATM    2  C3  UNL     1      -2.365  -1.553  -0.076  1.00  0.00     0.061 C 
HETATM    3  S1  UNL     1      -0.685  -0.415  -1.812  1.00  0.00    -0.127 SA
HETATM    4  C4  UNL     1       0.751  -1.215  -1.024  1.00  0.00     0.113 C 
HETATM    5  C5  UNL     1       1.270  -0.206   0.002  1.00  0.00     0.233 C 
HETATM    6  C8  UNL     1       0.288   0.886   0.266  1.00  0.00     0.072 C 
HETATM    7  C9  UNL     1      -1.084   0.433   0.685  1.00  0.00     0.165 C 
ENDROOT
BRANCH   1   8
HETATM    8  O1  UNL     1      -2.856   0.661  -0.952  1.00  0.00    -0.372 OA
HETATM    9  C1  UNL     1      -3.938   0.926  -0.163  1.00  0.00     0.204 C 
ENDBRANCH   1   8
BRANCH   7  10
HETATM   10  O2  UNL     1      -1.035  -0.400   1.801  1.00  0.00    -0.392 OA
ATOM     11  H2  UNL     1      -0.526  -0.026   2.511  1.00  0.00     0.210 HD
ENDBRANCH   7  10
BRANCH   5  12
HETATM   12  N1  UNL     1       2.459   0.371  -0.566  1.00  0.00     0.085 N 
HETATM   13  C6  UNL     1       3.488  -0.656  -0.764  1.00  0.00     0.309 C 
HETATM   14  C7  UNL     1       3.043   1.416   0.208  1.00  0.00     0.309 C 
ENDBRANCH   5  12
TORSDOF 3
