REMARK  2 active torsions:
REMARK  status: ('A' for Active; 'I' for Inactive)
REMARK    1  A    between atoms: N1_2  and  C2_5 
REMARK    2  A    between atoms: C4_7  and  C5_8 
ROOT
HETATM    1  C5  UNL     1       2.425  -1.029  -0.344  1.00  0.00     0.205 C 
HETATM    2  C6  UNL     1       3.247  -0.348   0.678  1.00  0.00     0.079 C 
HETATM    3  N2  UNL     1       3.897   0.190   1.482  1.00  0.00    -0.196 NA
HETATM    4  C7  UNL     1       2.643  -2.468  -0.213  1.00  0.00     0.079 C 
HETATM    5  N3  UNL     1       2.816  -3.603  -0.106  1.00  0.00    -0.196 NA
ENDROOT
BRANCH   1   6
HETATM    6  C4  UNL     1       1.000  -0.652  -0.065  1.00  0.00     0.054 C 
HETATM    7  C3  UNL     1       0.004  -1.267  -1.025  1.00  0.00     0.074 C 
HETATM    8  C2  UNL     1      -1.109  -0.240  -0.966  1.00  0.00     0.420 C 
HETATM    9  N4  UNL     1      -0.410   1.002  -1.037  1.00  0.00     0.124 N 
HETATM   10  C8  UNL     1       0.842   0.831  -0.327  1.00  0.00     0.232 C 
HETATM   11  C11 UNL     1      -1.058   2.127  -0.446  1.00  0.00     0.276 C 
HETATM   12  C9  UNL     1       0.711   1.538   0.985  1.00  0.00     0.038 C 
HETATM   13  C10 UNL     1      -0.624   2.221   0.981  1.00  0.00     0.032 C 
BRANCH   8  14
HETATM   14  N1  UNL     1      -1.906  -0.379   0.232  1.00  0.00    -0.047 N 
HETATM   15  C1  UNL     1      -2.580  -1.635   0.323  1.00  0.00     0.269 C 
ATOM     16  H12 UNL     1      -2.567   0.393   0.318  1.00  0.00     0.279 HD
ATOM     17  H11 UNL     1      -1.340  -0.211   1.064  1.00  0.00     0.279 HD
ENDBRANCH   8  14
ENDBRANCH   1   6
TORSDOF 2
