REMARK  2 active torsions:
REMARK  status: ('A' for Active; 'I' for Inactive)
REMARK    1  A    between atoms: C2_2  and  C3_3 
REMARK    2  A    between atoms: C7_10  and  O2_11 
ROOT
HETATM    1  C3  UNL     1      -1.691   0.083   0.763  1.00  0.00     0.107 C 
HETATM    2  N1  UNL     1      -1.956  -1.319   0.734  1.00  0.00    -0.414 N 
ATOM      3  H1  UNL     1      -2.530  -1.776   1.442  1.00  0.00     0.153 HD
HETATM    4  C4  UNL     1      -1.373  -2.035  -0.338  1.00  0.00     0.117 C 
HETATM    5  C5  UNL     1       0.037  -1.552  -0.578  1.00  0.00     0.054 C 
HETATM    6  C6  UNL     1       0.526  -0.907   0.676  1.00  0.00     0.157 C 
HETATM    7  O1  UNL     1       1.861  -0.693   0.756  1.00  0.00    -0.351 OA
HETATM    8  C7  UNL     1       2.370   0.355   0.035  1.00  0.00     0.283 C 
HETATM    9  C9  UNL     1       1.371   1.337  -0.471  1.00  0.00     0.229 C 
HETATM   10  O3  UNL     1       0.199   1.430   0.185  1.00  0.00    -0.376 OA
HETATM   11  C10 UNL     1      -0.204   0.380   0.944  1.00  0.00     0.172 C 
ENDROOT
BRANCH   1  12
HETATM   12  C2  UNL     1      -2.273   0.839  -0.407  1.00  0.00     0.023 C 
HETATM   13  C1  UNL     1      -3.759   0.646  -0.388  1.00  0.00     0.007 C 
ENDBRANCH   1  12
BRANCH   8  14
HETATM   14  O2  UNL     1       3.338   0.975   0.823  1.00  0.00    -0.364 OA
HETATM   15  C8  UNL     1       4.598   0.847   0.254  1.00  0.00     0.204 C 
ENDBRANCH   8  14
TORSDOF 2
