REMARK  3 active torsions:
REMARK  status: ('A' for Active; 'I' for Inactive)
REMARK    1  A    between atoms: O1_1  and  C1_3 
REMARK    2  A    between atoms: C1_3  and  C2_4 
REMARK    3  A    between atoms: C2_4  and  N1_5 
ROOT
HETATM    1  N1  UNL     1       1.327  -0.645   0.044  1.00  0.00    -0.185 NA
HETATM    2  C3  UNL     1       1.406  -2.020  -0.485  1.00  0.00     0.194 C 
HETATM    3  S1  UNL     1      -0.183  -2.845  -0.489  1.00  0.00    -0.152 SA
HETATM    4  C4  UNL     1      -1.345  -1.990   0.608  1.00  0.00     0.082 C 
HETATM    5  C5  UNL     1      -1.767  -0.737  -0.094  1.00  0.00     0.026 C 
HETATM    6  C6  UNL     1      -2.892   0.008   0.563  1.00  0.00     0.008 C 
HETATM    7  C7  UNL     1      -2.655   1.492   0.251  1.00  0.00     0.003 C 
HETATM    8  C8  UNL     1      -1.448   1.486  -0.665  1.00  0.00     0.034 C 
HETATM    9  C9  UNL     1      -0.661   0.328  -0.029  1.00  0.00     0.150 C 
HETATM   10  O2  UNL     1       0.421  -0.012  -0.784  1.00  0.00    -0.297 OA
ENDROOT
BRANCH   1  11
HETATM   11  C2  UNL     1       2.626  -0.037  -0.316  1.00  0.00     0.147 C 
BRANCH  11  12
HETATM   12  C1  UNL     1       2.780   1.306   0.359  1.00  0.00     0.181 C 
BRANCH  12  13
HETATM   13  O1  UNL     1       3.980   1.896   0.010  1.00  0.00    -0.400 OA
ATOM     14  H1  UNL     1       4.077   2.740   0.434  1.00  0.00     0.209 HD
ENDBRANCH  12  13
ENDBRANCH  11  12
ENDBRANCH   1  11
TORSDOF 3
