REMARK  18 active torsions:
REMARK  status: ('A' for Active; 'I' for Inactive)
REMARK    1  A    between atoms: C4_9  and  C5_10 
REMARK    2  A    between atoms: C5_10  and  C6_11 
REMARK    3  A    between atoms: C6_11  and  C7_12 
REMARK    4  A    between atoms: C7_12  and  C8_13 
REMARK    5  A    between atoms: C8_13  and  C9_14 
REMARK    6  A    between atoms: C9_14  and  C10_15 
REMARK    7  A    between atoms: C10_15  and  C11_16 
REMARK    8  A    between atoms: C11_16  and  C12_17 
REMARK    9  A    between atoms: C12_17  and  C13_18 
REMARK   10  A    between atoms: C13_18  and  C14_19 
REMARK   11  A    between atoms: C14_19  and  O1_20 
REMARK   12  A    between atoms: O1_20  and  C15_21 
REMARK   13  A    between atoms: C15_21  and  C16_22 
REMARK   14  A    between atoms: C17_24  and  C18_25 
REMARK   15  A    between atoms: C18_25  and  O3_26 
REMARK   16  A    between atoms: C19_28  and  O4_29 
REMARK   17  A    between atoms: C20_31  and  O5_32 
REMARK   18  A    between atoms: C21_34  and  O6_35 
ROOT
HETATM    1  C12 UNL     1       0.761   1.941  -0.423  1.00  0.00     0.002 C 
ENDROOT
BRANCH   1   2
HETATM    2  C11 UNL     1       1.228   1.199   0.779  1.00  0.00     0.000 C 
BRANCH   2   3
HETATM    3  C10 UNL     1       1.409  -0.262   0.486  1.00  0.00     0.000 C 
BRANCH   3   4
HETATM    4  C9  UNL     1       2.442  -0.483  -0.604  1.00  0.00     0.001 C 
BRANCH   4   5
HETATM    5  C8  UNL     1       2.535  -1.986  -0.793  1.00  0.00     0.012 C 
BRANCH   5   6
HETATM    6  C7  UNL     1       3.566  -2.301  -1.887  1.00  0.00     0.094 C 
BRANCH   6   7
HETATM    7  C6  UNL     1       4.881  -1.784  -1.507  1.00  0.00    -0.098 C 
BRANCH   7   8
HETATM    8  C5  UNL     1       5.974  -1.366  -1.210  1.00  0.00    -0.030 C 
BRANCH   8   9
HETATM    9  C4  UNL     1       7.285  -0.846  -0.864  1.00  0.00     0.162 A 
HETATM   10  N2  UNL     1       8.399  -1.579  -1.064  1.00  0.00    -0.345 N 
HETATM   11  C3  UNL     1       9.626  -1.128  -0.755  1.00  0.00     0.094 A 
ATOM     12  H2  UNL     1       8.306  -2.512  -1.465  1.00  0.00     0.167 HD
HETATM   13  C2  UNL     1       9.735   0.132  -0.215  1.00  0.00     0.065 A 
HETATM   14  C1  UNL     1       8.625   0.909   0.004  1.00  0.00     0.101 A 
HETATM   15  N1  UNL     1       8.770   2.077   0.509  1.00  0.00    -0.385 N 
HETATM   16  N3  UNL     1       7.435   0.380  -0.333  1.00  0.00    -0.322 N 
ATOM     17  H12 UNL     1       9.672   2.478   0.765  1.00  0.00     0.157 HD
ATOM     18  H11 UNL     1       7.945   2.654   0.672  1.00  0.00     0.157 HD
ATOM     19  H3  UNL     1       6.598   0.942  -0.177  1.00  0.00     0.169 HD
ENDBRANCH   8   9
ENDBRANCH   7   8
ENDBRANCH   6   7
ENDBRANCH   5   6
ENDBRANCH   4   5
ENDBRANCH   3   4
ENDBRANCH   2   3
ENDBRANCH   1   2
BRANCH   1  20
HETATM   20  C13 UNL     1      -0.539   1.513  -1.001  1.00  0.00     0.026 C 
BRANCH  20  21
HETATM   21  C14 UNL     1      -1.733   1.650  -0.122  1.00  0.00     0.167 C 
BRANCH  21  22
HETATM   22  O1  UNL     1      -1.720   0.941   1.048  1.00  0.00    -0.389 OA
BRANCH  22  23
HETATM   23  C15 UNL     1      -2.839   1.107   1.818  1.00  0.00     0.202 C 
BRANCH  23  24
HETATM   24  C16 UNL     1      -4.125   0.696   1.163  1.00  0.00     0.177 C 
HETATM   25  O2  UNL     1      -4.042  -0.641   0.839  1.00  0.00    -0.371 OA
HETATM   26  C17 UNL     1      -5.129  -1.150   0.178  1.00  0.00     0.177 C 
HETATM   27  C19 UNL     1      -6.453  -0.814   0.780  1.00  0.00     0.180 C 
HETATM   28  C20 UNL     1      -6.547   0.587   1.314  1.00  0.00     0.180 C 
HETATM   29  C21 UNL     1      -5.287   0.813   2.159  1.00  0.00     0.180 C 
BRANCH  26  30
HETATM   30  C18 UNL     1      -5.033  -0.811  -1.294  1.00  0.00     0.198 C 
BRANCH  30  31
HETATM   31  O3  UNL     1      -6.097  -1.292  -2.031  1.00  0.00    -0.398 OA
ATOM     32  H3  UNL     1      -6.037  -1.079  -2.955  1.00  0.00     0.209 HD
ENDBRANCH  30  31
ENDBRANCH  26  30
BRANCH  27  33
HETATM   33  O4  UNL     1      -7.474  -1.127  -0.097  1.00  0.00    -0.390 OA
ATOM     34  H4  UNL     1      -8.317  -0.913   0.286  1.00  0.00     0.210 HD
ENDBRANCH  27  33
BRANCH  28  35
HETATM   35  O5  UNL     1      -6.501   1.523   0.284  1.00  0.00    -0.390 OA
ATOM     36  H5  UNL     1      -6.560   2.409   0.622  1.00  0.00     0.210 HD
ENDBRANCH  28  35
BRANCH  29  37
HETATM   37  O6  UNL     1      -5.301   2.026   2.802  1.00  0.00    -0.390 OA
ATOM     38  H6  UNL     1      -6.020   2.098   3.418  1.00  0.00     0.210 HD
ENDBRANCH  29  37
ENDBRANCH  23  24
ENDBRANCH  22  23
ENDBRANCH  21  22
ENDBRANCH  20  21
ENDBRANCH   1  20
TORSDOF 18
