REMARK  14 active torsions:
REMARK  status: ('A' for Active; 'I' for Inactive)
REMARK    1  A    between atoms: C2_3  and  N2_4 
REMARK    2  A    between atoms: N2_4  and  C3_6 
REMARK    3  A    between atoms: C3_6  and  C4_7 
REMARK    4  A    between atoms: C4_7  and  C5_8 
REMARK    5  A    between atoms: C5_8  and  C6_9 
REMARK    6  A    between atoms: C6_9  and  N3_10 
REMARK    7  A    between atoms: N3_10  and  C7_12 
REMARK    8  A    between atoms: C7_12  and  C8_13 
REMARK    9  A    between atoms: C8_13  and  O1_14 
REMARK   10  A    between atoms: O1_14  and  C9_15 
REMARK   11  A    between atoms: C9_15  and  C10_16 
REMARK   12  A    between atoms: C10_16  and  N4_17 
REMARK   13  A    between atoms: C18_29  and  N7_30 
REMARK   14  A    between atoms: C19_35  and  N9_36 
ROOT
HETATM    1  N2  UNL     1       4.449   0.015  -0.167  1.00  0.00    -0.226 N 
ATOM      2  H2  UNL     1       3.916  -0.854  -0.139  1.00  0.00     0.177 HD
ENDROOT
BRANCH   1   3
HETATM    3  C2  UNL     1       5.718  -0.046  -0.021  1.00  0.00     0.682 A 
HETATM    4  N1  UNL     1       6.436  -1.169   0.171  1.00  0.00    -0.180 N 
HETATM    5  C1  UNL     1       5.898  -2.499   0.247  1.00  0.00     0.176 C 
HETATM    6  C20 UNL     1       7.736  -0.783   0.274  1.00  0.00     0.140 A 
HETATM    7  C17 UNL     1       7.787   0.603   0.138  1.00  0.00     0.167 A 
HETATM    8  C19 UNL     1       8.924  -1.440   0.473  1.00  0.00     0.146 A 
HETATM    9  N5  UNL     1       6.526   1.003  -0.040  1.00  0.00    -0.174 N 
HETATM   10  N6  UNL     1       8.924   1.288   0.193  1.00  0.00    -0.174 N 
ATOM     11  H5  UNL     1       6.230   1.970  -0.171  1.00  0.00     0.186 HD
HETATM   12  C18 UNL     1      10.049   0.608   0.387  1.00  0.00     0.679 A 
ATOM     13  H6  UNL     1       8.933   2.303   0.090  1.00  0.00     0.186 HD
HETATM   14  N8  UNL     1      10.078  -0.708   0.525  1.00  0.00    -0.175 N 
ATOM     15  H8  UNL     1      10.970  -1.181   0.672  1.00  0.00     0.186 HD
BRANCH  12  16
HETATM   16  N7  UNL     1      11.163   1.276   0.439  1.00  0.00    -0.234 N 
ATOM     17  H72 UNL     1      11.141   2.290   0.333  1.00  0.00     0.174 HD
ATOM     18  H71 UNL     1      12.027   0.754   0.588  1.00  0.00     0.174 HD
ENDBRANCH  12  16
BRANCH   8  19
HETATM   19  N9  UNL     1       8.963  -2.689   0.607  1.00  0.00    -0.383 N 
ATOM     20  H92 UNL     1       9.846  -3.177   0.755  1.00  0.00     0.157 HD
ATOM     21  H91 UNL     1       8.102  -3.235   0.568  1.00  0.00     0.157 HD
ENDBRANCH   8  19
ENDBRANCH   1   3
BRANCH   1  22
HETATM   22  C3  UNL     1       3.738   1.242  -0.368  1.00  0.00     0.138 C 
BRANCH  22  23
HETATM   23  C4  UNL     1       2.253   0.832  -0.655  1.00  0.00     0.025 C 
BRANCH  23  24
HETATM   24  C5  UNL     1       1.838   0.081   0.556  1.00  0.00     0.046 C 
BRANCH  24  25
HETATM   25  C6  UNL     1       0.515  -0.550   0.645  1.00  0.00     0.055 C 
BRANCH  25  26
HETATM   26  N3  UNL     1      -0.609   0.255   0.535  1.00  0.00    -0.400 N 
ATOM     27  H3  UNL     1      -1.158   0.484   1.364  1.00  0.00     0.158 HD
BRANCH  26  28
HETATM   28  C7  UNL     1      -0.987   0.751  -0.717  1.00  0.00     0.145 C 
BRANCH  28  29
HETATM   29  C8  UNL     1      -2.284   1.586  -0.580  1.00  0.00     0.187 C 
BRANCH  29  30
HETATM   30  O1  UNL     1      -3.310   0.832  -0.076  1.00  0.00    -0.388 OA
BRANCH  30  31
HETATM   31  C9  UNL     1      -3.681  -0.248  -0.821  1.00  0.00     0.182 C 
BRANCH  31  32
HETATM   32  C10 UNL     1      -4.865  -0.989  -0.196  1.00  0.00     0.122 C 
BRANCH  32  33
HETATM   33  N4  UNL     1      -5.963  -0.093  -0.106  1.00  0.00    -0.281 NA
HETATM   34  C11 UNL     1      -6.509   0.272  -1.450  1.00  0.00     0.174 C 
HETATM   35  C12 UNL     1      -7.896   0.459  -1.306  1.00  0.00    -0.168 C 
HETATM   36  C13 UNL     1      -9.260   0.595  -1.015  1.00  0.00     0.085 C 
HETATM   37  C14 UNL     1      -9.439   0.173   0.486  1.00  0.00     0.039 C 
HETATM   38  C15 UNL     1      -8.114   0.136   1.226  1.00  0.00    -0.014 C 
HETATM   39  C16 UNL     1      -6.973  -0.625   0.791  1.00  0.00     0.056 C 
ENDBRANCH  32  33
ENDBRANCH  31  32
ENDBRANCH  30  31
ENDBRANCH  29  30
ENDBRANCH  28  29
ENDBRANCH  26  28
ENDBRANCH  25  26
ENDBRANCH  24  25
ENDBRANCH  23  24
ENDBRANCH  22  23
ENDBRANCH   1  22
TORSDOF 14
