REMARK  6 active torsions:
REMARK  status: ('A' for Active; 'I' for Inactive)
REMARK    1  A    between atoms: O1_2  and  C2_3 
REMARK    2  A    between atoms: C5_6  and  C6_7 
REMARK    3  A    between atoms: N1_8  and  N2_10 
REMARK    4  A    between atoms: N2_10  and  C7_12 
REMARK    5  A    between atoms: C11_21  and  O4_22 
REMARK    6  A    between atoms: O4_22  and  C12_23 
ROOT
HETATM    1  C7  UNL     1       1.260   0.514   1.553  1.00  0.00     0.129 C 
HETATM    2  N3  UNL     1       0.738   1.650   1.781  1.00  0.00    -0.265 N 
ATOM      3  H3  UNL     1       1.233   2.197   2.485  1.00  0.00     0.180 HD
HETATM    4  S1  UNL     1      -0.641   2.440   1.132  1.00  0.00     0.265 S 
HETATM    5  O2  UNL     1      -0.195   3.348   0.017  1.00  0.00    -0.200 OA
HETATM    6  O3  UNL     1      -1.336   3.267   2.177  1.00  0.00    -0.200 OA
HETATM    7  C8  UNL     1      -1.807   1.307   0.497  1.00  0.00     0.090 A 
HETATM    8  C9  UNL     1      -3.057   1.863   0.476  1.00  0.00     0.029 A 
HETATM    9  C10 UNL     1      -4.103   1.094  -0.001  1.00  0.00     0.039 A 
HETATM   10  C11 UNL     1      -3.878  -0.185  -0.437  1.00  0.00     0.076 A 
HETATM   11  C18 UNL     1      -2.600  -0.713  -0.402  1.00  0.00     0.050 A 
HETATM   12  C19 UNL     1      -1.535   0.027   0.068  1.00  0.00    -0.010 A 
HETATM   13  C20 UNL     1      -0.302  -0.726   0.012  1.00  0.00     0.017 C 
HETATM   14  C21 UNL     1       0.823  -0.499   0.632  1.00  0.00     0.051 C 
ENDROOT
BRANCH   1  15
HETATM   15  N2  UNL     1       2.441   0.248   2.341  1.00  0.00    -0.285 N 
ATOM     16  H2  UNL     1       2.988   1.003   2.755  1.00  0.00     0.188 HD
BRANCH  15  17
HETATM   17  N1  UNL     1       2.790  -1.061   2.506  1.00  0.00    -0.309 N 
HETATM   18  C6  UNL     1       3.708  -1.783   2.075  1.00  0.00     0.118 C 
ATOM     19  H1  UNL     1       2.153  -1.563   3.124  1.00  0.00     0.186 HD
BRANCH  18  20
HETATM   20  C5  UNL     1       4.807  -1.461   1.181  1.00  0.00    -0.019 A 
HETATM   21  C4  UNL     1       5.732  -2.454   0.832  1.00  0.00     0.015 A 
HETATM   22  C3  UNL     1       6.794  -2.216  -0.009  1.00  0.00     0.037 A 
HETATM   23  C2  UNL     1       7.012  -0.976  -0.561  1.00  0.00     0.068 A 
HETATM   24  C23 UNL     1       6.115   0.012  -0.230  1.00  0.00     0.037 A 
HETATM   25  C22 UNL     1       5.031  -0.223   0.625  1.00  0.00     0.015 A 
BRANCH  23  26
HETATM   26  O1  UNL     1       8.090  -0.738  -1.413  1.00  0.00    -0.356 OA
HETATM   27  C1  UNL     1       8.273   0.555  -1.957  1.00  0.00     0.210 C 
ENDBRANCH  23  26
ENDBRANCH  18  20
ENDBRANCH  15  17
ENDBRANCH   1  15
BRANCH  10  28
HETATM   28  O4  UNL     1      -4.928  -0.949  -0.914  1.00  0.00    -0.311 OA
BRANCH  28  29
HETATM   29  C12 UNL     1      -6.212  -0.430  -0.954  1.00  0.00     0.076 A 
HETATM   30  C13 UNL     1      -7.060  -0.576   0.118  1.00  0.00     0.037 A 
HETATM   31  C14 UNL     1      -8.338  -0.077   0.118  1.00  0.00     0.003 A 
HETATM   32  C15 UNL     1      -8.793   0.595  -0.997  1.00  0.00     0.000 A 
HETATM   33  C16 UNL     1      -7.965   0.754  -2.081  1.00  0.00     0.003 A 
HETATM   34  C17 UNL     1      -6.694   0.249  -2.060  1.00  0.00     0.037 A 
ENDBRANCH  28  29
ENDBRANCH  10  28
TORSDOF 6
