REMARK  5 active torsions:
REMARK  status: ('A' for Active; 'I' for Inactive)
REMARK    1  A    between atoms: C6_7  and  C7_8 
REMARK    2  A    between atoms: C11_12  and  N1_13 
REMARK    3  A    between atoms: N1_13  and  S1_15 
REMARK    4  A    between atoms: S1_15  and  C12_18 
REMARK    5  A    between atoms: C17_23  and  N2_24 
ROOT
HETATM    1  C7  UNL     1      -1.600  -1.062  -0.369  1.00  0.00    -0.024 A 
HETATM    2  C8  UNL     1      -1.247  -2.250  -0.994  1.00  0.00     0.012 A 
HETATM    3  C9  UNL     1       0.037  -2.589  -1.254  1.00  0.00     0.003 A 
HETATM    4  C10 UNL     1       1.066  -1.713  -0.883  1.00  0.00     0.030 A 
HETATM    5  C11 UNL     1       0.768  -0.534  -0.268  1.00  0.00     0.043 A 
HETATM    6  C18 UNL     1      -0.589  -0.225  -0.018  1.00  0.00     0.042 A 
ENDROOT
BRANCH   5   7
HETATM    7  N1  UNL     1       1.700   0.415   0.163  1.00  0.00    -0.281 N 
ATOM      8  H1  UNL     1       1.575   0.693   1.136  1.00  0.00     0.179 HD
BRANCH   7   9
HETATM    9  S1  UNL     1       2.991   1.196  -0.597  1.00  0.00     0.265 S 
HETATM   10  O2  UNL     1       2.718   2.714  -0.426  1.00  0.00    -0.200 OA
HETATM   11  O3  UNL     1       3.010   0.994  -2.090  1.00  0.00    -0.200 OA
BRANCH   9  12
HETATM   12  C12 UNL     1       4.563   0.929   0.093  1.00  0.00     0.112 A 
HETATM   13  C13 UNL     1       5.093   1.937   0.932  1.00  0.00     0.028 A 
HETATM   14  C14 UNL     1       6.263   1.803   1.632  1.00  0.00     0.002 A 
HETATM   15  C15 UNL     1       6.971   0.628   1.523  1.00  0.00     0.003 A 
HETATM   16  C16 UNL     1       6.506  -0.378   0.725  1.00  0.00     0.038 A 
HETATM   17  C17 UNL     1       5.295  -0.221   0.006  1.00  0.00     0.126 A 
BRANCH  17  18
HETATM   18  N2  UNL     1       4.979  -1.329  -0.808  1.00  0.00    -0.114 N 
HETATM   19  O4  UNL     1       4.515  -1.199  -1.929  1.00  0.00    -0.532 OA
HETATM   20  O5  UNL     1       5.284  -2.590  -0.365  1.00  0.00    -0.532 OA
ENDBRANCH  17  18
ENDBRANCH   9  12
ENDBRANCH   7   9
ENDBRANCH   5   7
BRANCH   1  21
HETATM   21  C6  UNL     1      -3.006  -0.769  -0.121  1.00  0.00    -0.025 A 
HETATM   22  C5  UNL     1      -3.501   0.513  -0.114  1.00  0.00     0.026 A 
HETATM   23  C4  UNL     1      -4.857   0.761   0.128  1.00  0.00    -0.001 A 
HETATM   24  C3  UNL     1      -5.354   2.040   0.135  1.00  0.00     0.020 A 
HETATM   25  C21 UNL     1      -5.723  -0.284   0.365  1.00  0.00     0.089 A 
HETATM   26  C2  UNL     1      -6.705   2.226   0.380  1.00  0.00     0.083 A 
HETATM   27  C1  UNL     1      -7.518   1.155   0.609  1.00  0.00     0.288 A 
HETATM   28  O1  UNL     1      -8.738   1.386   0.826  1.00  0.00    -0.260 OA
HETATM   29  O6  UNL     1      -7.018  -0.047   0.596  1.00  0.00    -0.275 OA
HETATM   30  C20 UNL     1      -5.235  -1.566   0.360  1.00  0.00     0.039 A 
HETATM   31  C19 UNL     1      -3.894  -1.786   0.119  1.00  0.00     0.015 A 
ENDBRANCH   1  21
TORSDOF 5
