REMARK  6 active torsions:
REMARK  status: ('A' for Active; 'I' for Inactive)
REMARK    1  A    between atoms: C2_2  and  C4_4 
REMARK    2  A    between atoms: C19_23  and  C20_24 
REMARK    3  A    between atoms: C20_24  and  C21_25 
REMARK    4  A    between atoms: C21_25  and  C22_26 
REMARK    5  A    between atoms: C22_26  and  C23_28 
REMARK    6  A    between atoms: C23_28  and  O6_31 
ROOT
HETATM    1  C4  UNL     1       0.427  -0.056   1.356  1.00  0.00    -0.036 C 
HETATM    2  C5  UNL     1      -0.893  -0.179   0.741  1.00  0.00     0.164 C 
HETATM    3  O1  UNL     1      -1.162   0.762  -0.257  1.00  0.00    -0.350 OA
HETATM    4  C6  UNL     1      -2.485   0.464  -0.575  1.00  0.00     0.270 C 
HETATM    5  O2  UNL     1      -3.283   0.918   0.438  1.00  0.00    -0.350 OA
HETATM    6  C7  UNL     1      -4.549   1.290   0.082  1.00  0.00     0.057 C 
HETATM    7  C8  UNL     1      -4.981   2.409   1.034  1.00  0.00     0.045 C 
HETATM    8  C9  UNL     1      -4.686   1.834  -1.309  1.00  0.00     0.045 C 
HETATM    9  C10 UNL     1      -5.566   0.186   0.243  1.00  0.00     0.037 C 
HETATM   10  C11 UNL     1      -5.085  -1.120  -0.345  1.00  0.00     0.004 C 
HETATM   11  C12 UNL     1      -3.759  -1.552   0.150  1.00  0.00     0.015 C 
HETATM   12  C13 UNL     1      -2.567  -1.049  -0.622  1.00  0.00     0.017 C 
HETATM   13  C14 UNL     1      -2.560  -1.509  -2.050  1.00  0.00     0.021 C 
HETATM   14  C15 UNL     1      -1.329  -1.446   0.140  1.00  0.00     0.087 C 
HETATM   15  C16 UNL     1      -0.302  -2.029  -0.797  1.00  0.00     0.275 A 
HETATM   16  O3  UNL     1       0.810  -2.362  -0.024  1.00  0.00    -0.324 OA
HETATM   17  C17 UNL     1       1.449  -1.237  -0.598  1.00  0.00     0.174 A 
HETATM   18  C18 UNL     1       2.663  -1.701  -1.321  1.00  0.00     0.080 C 
HETATM   19  O4  UNL     1       0.380  -1.022  -1.417  1.00  0.00    -0.324 OA
HETATM   20  C19 UNL     1       1.646  -0.223   0.468  1.00  0.00     0.080 C 
ENDROOT
BRANCH  20  21
HETATM   21  C20 UNL     1       2.020   1.111  -0.077  1.00  0.00     0.022 C 
BRANCH  21  22
HETATM   22  C21 UNL     1       3.168   1.314  -0.945  1.00  0.00     0.082 C 
BRANCH  22  23
HETATM   23  C22 UNL     1       4.507   0.961  -0.406  1.00  0.00     0.160 C 
HETATM   24  O5  UNL     1       4.652   0.538   0.728  1.00  0.00    -0.295 OA
BRANCH  23  25
HETATM   25  C23 UNL     1       5.725   1.109  -1.229  1.00  0.00     0.111 C 
HETATM   26  C24 UNL     1       6.438  -0.207  -1.464  1.00  0.00     0.053 C 
HETATM   27  C25 UNL     1       6.685   2.092  -0.603  1.00  0.00     0.053 C 
BRANCH  25  28
HETATM   28  O6  UNL     1       5.361   1.598  -2.478  1.00  0.00    -0.383 OA
ATOM     29  H6  UNL     1       6.144   1.693  -3.007  1.00  0.00     0.211 HD
ENDBRANCH  25  28
ENDBRANCH  23  25
ENDBRANCH  22  23
ENDBRANCH  21  22
ENDBRANCH  20  21
BRANCH   1  30
HETATM   30  C2  UNL     1       0.500  -0.685   2.683  1.00  0.00    -0.066 C 
HETATM   31  C1  UNL     1       0.373   0.133   3.757  1.00  0.00     0.019 C 
HETATM   32  C3  UNL     1       0.701  -2.114   2.994  1.00  0.00     0.047 C 
ENDBRANCH   1  30
TORSDOF 6
