REMARK  6 active torsions:
REMARK  status: ('A' for Active; 'I' for Inactive)
REMARK       I    between atoms: C1_4  and  N3_6 
REMARK    1  A    between atoms: N3_6  and  N4_8 
REMARK    2  A    between atoms: N4_8  and  C2_10 
REMARK    3  A    between atoms: C4_16  and  N7_17 
REMARK    4  A    between atoms: N7_17  and  C5_19 
REMARK    5  A    between atoms: C5_19  and  C6_20 
REMARK    6  A    between atoms: N10_30  and  O4_31 
ROOT
HETATM    1  C2  UNL     1       2.216   0.568  -0.493  1.00  0.00     0.728 A 
HETATM    2  N5  UNL     1       0.981   1.101  -0.339  1.00  0.00    -0.171 N 
ATOM      3  H5  UNL     1       0.859   2.111  -0.412  1.00  0.00     0.186 HD
HETATM    4  C3  UNL     1      -0.100   0.313  -0.089  1.00  0.00     0.158 A 
HETATM    5  N6  UNL     1      -1.318   0.860   0.061  1.00  0.00    -0.175 N 
ATOM      6  H6  UNL     1      -1.419   1.872  -0.015  1.00  0.00     0.186 HD
HETATM    7  C4  UNL     1      -2.413   0.107   0.310  1.00  0.00     0.683 A 
HETATM    8  N9  UNL     1      -2.240  -1.224   0.405  1.00  0.00    -0.155 N 
ATOM      9  H9  UNL     1      -3.057  -1.805   0.594  1.00  0.00     0.187 HD
HETATM   10  C7  UNL     1      -1.050  -1.829   0.265  1.00  0.00     0.279 A 
HETATM   11  O2  UNL     1      -0.900  -3.073   0.355  1.00  0.00    -0.266 OA
HETATM   12  C8  UNL     1       0.057  -1.053   0.011  1.00  0.00     0.148 A 
HETATM   13  C9  UNL     1       1.313  -1.594  -0.145  1.00  0.00     0.307 A 
HETATM   14  O3  UNL     1       1.503  -2.819  -0.063  1.00  0.00    -0.264 OA
HETATM   15  N10 UNL     1       2.369  -0.762  -0.395  1.00  0.00    -0.011 N 
ENDROOT
BRANCH   1  16
HETATM   16  N4  UNL     1       3.246   1.302  -0.730  1.00  0.00    -0.127 N 
ATOM     17  H4  UNL     1       3.079   2.306  -0.795  1.00  0.00     0.205 HD
BRANCH  16  18
HETATM   18  N3  UNL     1       4.540   0.892  -0.905  1.00  0.00    -0.259 N 
HETATM   19  C1  UNL     1       5.484   1.083   0.135  1.00  0.00     0.201 C 
HETATM   20  N1  UNL     1       6.620   0.491   0.098  1.00  0.00    -0.372 N 
HETATM   21  N2  UNL     1       5.160   1.952   1.241  1.00  0.00    -0.062 NA
ATOM     22  H12 UNL     1       7.299   0.628   0.846  1.00  0.00     0.158 HD
ATOM     23  H11 UNL     1       6.849  -0.123  -0.684  1.00  0.00     0.158 HD
ATOM     24  H3  UNL     1       4.824   0.451  -1.780  1.00  0.00     0.190 HD
ENDBRANCH  16  18
ENDBRANCH   1  16
BRANCH  15  25
HETATM   25  O4  UNL     1       3.619  -1.288  -0.553  1.00  0.00    -0.266 OA
ATOM     26  H4  UNL     1       3.727  -2.229  -0.484  1.00  0.00     0.246 HD
ENDBRANCH  15  25
BRANCH   7  27
HETATM   27  N7  UNL     1      -3.522   0.711   0.437  1.00  0.00    -0.217 N 
ATOM     28  H7  UNL     1      -3.495   1.726   0.339  1.00  0.00     0.178 HD
BRANCH  27  29
HETATM   29  C5  UNL     1      -4.798   0.139   0.700  1.00  0.00     0.237 C 
BRANCH  29  30
HETATM   30  C6  UNL     1      -5.645   0.142  -0.545  1.00  0.00     0.249 C 
HETATM   31  N8  UNL     1      -6.964  -0.396  -0.471  1.00  0.00    -0.061 NA
HETATM   32  O1  UNL     1      -5.170   0.610  -1.589  1.00  0.00    -0.275 OA
ENDBRANCH  29  30
ENDBRANCH  27  29
ENDBRANCH   7  27
TORSDOF 6
