REMARK  7 active torsions:
REMARK  status: ('A' for Active; 'I' for Inactive)
REMARK    1  A    between atoms: C3_9  and  C4_10 
REMARK       I    between atoms: C4_10  and  N3_12 
REMARK    2  A    between atoms: N3_12  and  N4_14 
REMARK    3  A    between atoms: N6_25  and  C9_26 
REMARK    4  A    between atoms: C9_26  and  C10_27 
REMARK    5  A    between atoms: C10_27  and  O5_28 
REMARK    6  A    between atoms: C10_27  and  C11_30 
REMARK    7  A    between atoms: C11_30  and  O6_31 
ROOT
HETATM    1  N1  UNL     1      -4.040   1.407  -0.740  1.00  0.00    -0.394 N 
ATOM      2  H11 UNL     1      -3.929   1.988  -1.571  1.00  0.00     0.156 HD
ATOM      3  H12 UNL     1      -4.997   1.339  -0.393  1.00  0.00     0.156 HD
HETATM    4  C1  UNL     1      -3.011   0.865  -0.256  1.00  0.00     0.112 C 
HETATM    5  C2  UNL     1      -3.174   0.014   0.960  1.00  0.00     0.269 C 
HETATM    6  O1  UNL     1      -4.340  -0.116   1.434  1.00  0.00    -0.266 OA
HETATM    7  N2  UNL     1      -2.043  -0.593   1.515  1.00  0.00    -0.337 N 
ATOM      8  H2  UNL     1      -2.090  -0.903   2.485  1.00  0.00     0.164 HD
HETATM    9  C3  UNL     1      -0.815  -0.804   0.791  1.00  0.00     0.230 C 
HETATM   10  C5  UNL     1      -0.563   0.296  -0.156  1.00  0.00     0.066 A 
HETATM   11  C6  UNL     1      -1.637   0.962  -0.755  1.00  0.00     0.089 A 
HETATM   12  C7  UNL     1      -1.387   1.875  -1.762  1.00  0.00     0.264 A 
HETATM   13  O3  UNL     1      -2.311   2.494  -2.335  1.00  0.00    -0.267 OA
HETATM   14  N5  UNL     1      -0.099   2.120  -2.155  1.00  0.00    -0.275 N 
ATOM     15  H5  UNL     1       0.092   2.792  -2.898  1.00  0.00     0.173 HD
HETATM   16  C8  UNL     1       0.902   1.476  -1.561  1.00  0.00     0.329 A 
HETATM   17  O4  UNL     1       2.088   1.744  -1.965  1.00  0.00    -0.246 OA
HETATM   18  N6  UNL     1       0.675   0.590  -0.588  1.00  0.00    -0.297 N 
ENDROOT
BRANCH   9  19
HETATM   19  C4  UNL     1      -1.040  -2.116   0.064  1.00  0.00     0.264 C 
HETATM   20  O2  UNL     1      -1.702  -3.030   0.626  1.00  0.00    -0.269 OA
HETATM   21  N3  UNL     1      -0.548  -2.377  -1.228  1.00  0.00    -0.275 N 
ATOM     22  H3  UNL     1      -0.014  -1.649  -1.703  1.00  0.00     0.189 HD
BRANCH  21  23
HETATM   23  N4  UNL     1      -0.760  -3.595  -1.891  1.00  0.00    -0.343 N 
ATOM     24  H42 UNL     1      -1.296  -4.312  -1.401  1.00  0.00     0.176 HD
ATOM     25  H41 UNL     1      -0.403  -3.784  -2.828  1.00  0.00     0.176 HD
ENDBRANCH  21  23
ENDBRANCH   9  19
BRANCH  18  26
HETATM   26  C9  UNL     1       1.845   0.017   0.026  1.00  0.00     0.167 C 
BRANCH  26  27
HETATM   27  C10 UNL     1       2.365   0.984   1.066  1.00  0.00     0.160 C 
BRANCH  27  28
HETATM   28  O5  UNL     1       1.466   1.277   2.073  1.00  0.00    -0.392 OA
ATOM     29  H5  UNL     1       1.793   1.884   2.726  1.00  0.00     0.210 HD
ENDBRANCH  27  28
BRANCH  27  30
HETATM   30  C11 UNL     1       3.667   0.444   1.637  1.00  0.00     0.197 C 
BRANCH  30  31
HETATM   31  O6  UNL     1       3.473  -0.707   2.364  1.00  0.00    -0.398 OA
ATOM     32  H6  UNL     1       4.286  -1.044   2.721  1.00  0.00     0.209 HD
ENDBRANCH  30  31
ENDBRANCH  27  30
ENDBRANCH  26  27
ENDBRANCH  18  26
TORSDOF 7
