REMARK  9 active torsions:
REMARK  status: ('A' for Active; 'I' for Inactive)
REMARK    1  A    between atoms: C2_2  and  O1_3 
REMARK    2  A    between atoms: C2_2  and  C3_5 
REMARK    3  A    between atoms: C2_2  and  C7_24 
REMARK       I    between atoms: C3_5  and  N1_7 
REMARK    4  A    between atoms: N1_7  and  C4_9 
REMARK    5  A    between atoms: C4_9  and  O3_10 
REMARK    6  A    between atoms: C6_18  and  N3_19 
REMARK    7  A    between atoms: N3_19  and  N4_21 
REMARK    8  A    between atoms: C7_24  and  N5_25 
REMARK    9  A    between atoms: C7_24  and  C8_29 
ROOT
HETATM    1  C3  UNL     1      -0.635  -0.666   0.090  1.00  0.00     0.257 C 
HETATM    2  O2  UNL     1      -0.388  -1.116   1.232  1.00  0.00    -0.270 OA
HETATM    3  N1  UNL     1       0.462  -0.352  -0.748  1.00  0.00    -0.320 N 
ATOM      4  H1  UNL     1       0.232   0.025  -1.668  1.00  0.00     0.166 HD
ENDROOT
BRANCH   3   5
HETATM    5  C4  UNL     1       1.832  -0.498  -0.462  1.00  0.00     0.211 C 
HETATM    6  C5  UNL     1       2.194  -1.950  -0.101  1.00  0.00     0.233 C 
HETATM    7  S1  UNL     1       3.919  -1.570   0.297  1.00  0.00     0.236 S 
HETATM    8  O4  UNL     1       4.480  -2.521   1.265  1.00  0.00    -0.205 OA
HETATM    9  O5  UNL     1       4.687  -1.404  -0.957  1.00  0.00    -0.205 OA
HETATM   10  N2  UNL     1       3.546  -0.022   1.007  1.00  0.00    -0.268 N 
HETATM   11  C6  UNL     1       2.438   0.401   0.513  1.00  0.00     0.163 C 
ATOM     12  H2  UNL     1       4.113   0.467   1.700  1.00  0.00     0.180 HD
BRANCH   5  13
HETATM   13  O3  UNL     1       2.584  -0.292  -1.654  1.00  0.00    -0.363 OA
ATOM     14  H3  UNL     1       3.509  -0.391  -1.461  1.00  0.00     0.213 HD
ENDBRANCH   5  13
BRANCH  11  15
HETATM   15  N3  UNL     1       1.930   1.676   0.934  1.00  0.00    -0.291 N 
ATOM     16  H3  UNL     1       1.455   2.278   0.262  1.00  0.00     0.188 HD
BRANCH  15  17
HETATM   17  N4  UNL     1       2.079   2.090   2.232  1.00  0.00    -0.344 N 
ATOM     18  H42 UNL     1       2.557   1.476   2.891  1.00  0.00     0.176 HD
ATOM     19  H41 UNL     1       1.718   2.996   2.531  1.00  0.00     0.176 HD
ENDBRANCH  15  17
ENDBRANCH  11  15
ENDBRANCH   3   5
BRANCH   1  20
HETATM   20  C2  UNL     1      -2.041  -0.504  -0.304  1.00  0.00     0.172 C 
HETATM   21  C1  UNL     1      -2.323  -1.188  -1.643  1.00  0.00     0.059 C 
BRANCH  20  22
HETATM   22  O1  UNL     1      -2.873  -1.099   0.640  1.00  0.00    -0.378 OA
ATOM     23  H1  UNL     1      -2.698  -0.674   1.472  1.00  0.00     0.211 HD
ENDBRANCH  20  22
BRANCH  20  24
HETATM   24  C7  UNL     1      -2.431   0.944  -0.357  1.00  0.00     0.326 C 
BRANCH  24  25
HETATM   25  N5  UNL     1      -3.814   1.093  -0.848  1.00  0.00    -0.062 N 
ATOM     26  H53 UNL     1      -3.948   0.632  -1.748  1.00  0.00     0.275 HD
ATOM     27  H52 UNL     1      -4.473   0.544  -0.296  1.00  0.00     0.275 HD
ATOM     28  H51 UNL     1      -4.079   2.077  -0.884  1.00  0.00     0.275 HD
ENDBRANCH  24  25
BRANCH  24  29
HETATM   29  C8  UNL     1      -2.476   1.539   1.028  1.00  0.00     0.208 C 
HETATM   30  O6  UNL     1      -3.518   2.099   1.486  1.00  0.00    -0.646 OA
HETATM   31  O7  UNL     1      -1.392   1.503   1.862  1.00  0.00    -0.646 OA
ENDBRANCH  24  29
ENDBRANCH  20  24
ENDBRANCH   1  20
TORSDOF 9
