REMARK  4 active torsions:
REMARK  status: ('A' for Active; 'I' for Inactive)
REMARK    1  A    between atoms: C2_2  and  C3_3 
REMARK    2  A    between atoms: C3_3  and  N1_4 
REMARK       I    between atoms: N1_4  and  C4_5 
REMARK    3  A    between atoms: N1_4  and  C8_10 
REMARK    4  A    between atoms: C4_5  and  C5_7 
ROOT
HETATM    1  C8  UNL     1       1.377  -0.248   0.337  1.00  0.00     0.687 A 
HETATM    2  N2  UNL     1       2.079  -1.349   0.651  1.00  0.00    -0.200 N 
ATOM      3  H2  UNL     1       1.597  -2.136   1.085  1.00  0.00     0.183 HD
HETATM    4  C9  UNL     1       3.412  -1.446   0.408  1.00  0.00     0.126 A 
HETATM    5  C10 UNL     1       4.073  -0.398  -0.174  1.00  0.00     0.042 A 
HETATM    6 BR1  UNL     1       5.941  -0.586  -0.493  1.00  0.00    -0.048 Br
HETATM    7  C11 UNL     1       3.361   0.724  -0.494  1.00  0.00     0.126 A 
HETATM    8  N3  UNL     1       2.055   0.761  -0.231  1.00  0.00    -0.200 N 
ATOM      9  H3  UNL     1       1.540   1.607  -0.476  1.00  0.00     0.183 HD
ENDROOT
BRANCH   1  10
HETATM   10  N1  UNL     1      -0.047  -0.161   0.596  1.00  0.00    -0.147 N 
HETATM   11  C4  UNL     1      -0.859  -1.058  -0.083  1.00  0.00     0.249 C 
HETATM   12  O1  UNL     1      -0.353  -1.893  -0.938  1.00  0.00    -0.271 OA
BRANCH  10  13
HETATM   13  C3  UNL     1      -0.592   0.806   1.488  1.00  0.00     0.177 C 
BRANCH  13  14
HETATM   14  C2  UNL     1      -0.937   2.096   0.867  1.00  0.00    -0.016 C 
HETATM   15  C1  UNL     1      -2.158   2.535   0.916  1.00  0.00     0.008 C 
ENDBRANCH  13  14
ENDBRANCH  10  13
BRANCH  11  16
HETATM   16  C5  UNL     1      -2.327  -1.104   0.134  1.00  0.00     0.123 A 
HETATM   17  C6  UNL     1      -3.109  -2.212  -0.382  1.00  0.00    -0.012 A 
HETATM   18  C7  UNL     1      -3.167  -1.126  -1.128  1.00  0.00    -0.012 A 
ENDBRANCH  11  16
ENDBRANCH   1  10
TORSDOF 4
