REMARK  4 active torsions:
REMARK  status: ('A' for Active; 'I' for Inactive)
REMARK    1  A    between atoms: C1_2  and  C2_3 
REMARK    2  A    between atoms: C2_3  and  N1_4 
REMARK    3  A    between atoms: C5_8  and  C6_9 
REMARK    4  A    between atoms: C6_9  and  N2_10 
ROOT
HETATM    1  N1  UNL     1       3.605   0.072  -0.208  1.00  0.00    -0.368 N 
HETATM    2  C3  UNL     1       3.249   1.305   0.346  1.00  0.00     0.089 C 
HETATM    3  C4  UNL     1       2.175   1.176   1.428  1.00  0.00     0.213 C 
HETATM    4  O1  UNL     1       1.275   0.185   1.124  1.00  0.00    -0.377 OA
HETATM    5  C5  UNL     1       1.198  -0.032  -0.264  1.00  0.00     0.168 C 
HETATM    6  C14 UNL     1       2.470  -0.698  -0.705  1.00  0.00     0.160 C 
ENDROOT
BRANCH   5   7
HETATM    7  C6  UNL     1       0.063  -0.993  -0.461  1.00  0.00     0.305 C 
BRANCH   7   8
HETATM    8  N2  UNL     1      -1.218  -0.511   0.014  1.00  0.00     0.090 N 
HETATM    9  C7  UNL     1      -2.135  -1.666  -0.160  1.00  0.00     0.272 C 
HETATM   10  C8  UNL     1      -3.429  -1.412   0.575  1.00  0.00     0.030 C 
HETATM   11  C9  UNL     1      -4.492  -0.808  -0.314  1.00  0.00     0.002 C 
HETATM   12  C10 UNL     1      -4.745   0.640  -0.040  1.00  0.00     0.000 C 
HETATM   13  C11 UNL     1      -3.849   1.584  -0.766  1.00  0.00     0.002 C 
HETATM   14  C12 UNL     1      -2.445   1.619  -0.204  1.00  0.00     0.030 C 
HETATM   15  C13 UNL     1      -1.648   0.557  -0.877  1.00  0.00     0.272 C 
ENDBRANCH   7   8
ENDBRANCH   5   7
BRANCH   1  16
HETATM   16  C2  UNL     1       4.614  -0.742   0.285  1.00  0.00     0.078 C 
BRANCH  16  17
HETATM   17  C1  UNL     1       6.036  -0.364   0.142  1.00  0.00     0.159 C 
HETATM   18 CL1  UNL     1       6.455   1.126   0.966  1.00  0.00    -0.125 Cl
ENDBRANCH  16  17
ENDBRANCH   1  16
TORSDOF 4
