REMARK  4 active torsions:
REMARK  status: ('A' for Active; 'I' for Inactive)
REMARK    1  A    between atoms: C2_2  and  C3_4 
REMARK       I    between atoms: C3_4  and  N1_6 
REMARK    2  A    between atoms: C6_10  and  C7_11 
REMARK    3  A    between atoms: C7_11  and  O2_12 
REMARK    4  A    between atoms: O2_12  and  C8_13 
ROOT
HETATM    1  C3  UNL     1      -2.036  -0.386  -0.748  1.00  0.00     0.239 C 
HETATM    2  O1  UNL     1      -1.085  -1.105  -1.136  1.00  0.00    -0.272 OA
HETATM    3  N1  UNL     1      -1.882   1.012  -0.693  1.00  0.00    -0.335 N 
HETATM    4  C4  UNL     1      -2.930   1.903  -0.262  1.00  0.00     0.137 C 
HETATM    5  C5  UNL     1      -2.390   2.600   1.001  1.00  0.00     0.096 C 
HETATM    6  S1  UNL     1      -0.719   2.964   0.379  1.00  0.00    -0.140 SA
HETATM    7  C6  UNL     1      -0.750   1.786  -1.044  1.00  0.00     0.172 C 
ENDROOT
BRANCH   7   8
HETATM    8  C7  UNL     1       0.565   1.080  -1.149  1.00  0.00     0.204 C 
BRANCH   8   9
HETATM    9  O2  UNL     1       0.991   0.490   0.008  1.00  0.00    -0.383 OA
BRANCH   9  10
HETATM   10  C8  UNL     1       2.227  -0.135  -0.115  1.00  0.00     0.121 C 
HETATM   11  C9  UNL     1       3.182   0.567   0.845  1.00  0.00     0.032 C 
HETATM   12  C10 UNL     1       4.010  -0.523   1.483  1.00  0.00     0.002 C 
HETATM   13  C11 UNL     1       3.655  -1.811   0.766  1.00  0.00     0.002 C 
HETATM   14  C12 UNL     1       2.222  -1.563   0.337  1.00  0.00     0.032 C 
ENDBRANCH   9  10
ENDBRANCH   8   9
ENDBRANCH   7   8
BRANCH   1  15
HETATM   15  C2  UNL     1      -3.289  -1.087  -0.364  1.00  0.00     0.170 C 
HETATM   16  C1  UNL     1      -3.041  -2.582  -0.418  1.00  0.00     0.036 C 
HETATM   17 CL1  UNL     1      -4.618  -0.696  -1.481  1.00  0.00    -0.115 Cl
ENDBRANCH   1  15
TORSDOF 4
