REMARK  4 active torsions:
REMARK  status: ('A' for Active; 'I' for Inactive)
REMARK    1  A    between atoms: N1_8  and  C7_9 
REMARK    2  A    between atoms: C7_9  and  C8_10 
REMARK    3  A    between atoms: C8_10  and  C9_11 
REMARK    4  A    between atoms: C9_11  and  N2_12 
ROOT
HETATM    1 CL1  UNL     1      -5.850  -1.526  -0.552  1.00  0.00    -0.125 Cl
HETATM    2  C1  UNL     1      -4.360  -1.173   0.395  1.00  0.00     0.084 C 
HETATM    3  C2  UNL     1      -4.293   0.259   0.793  1.00  0.00     0.026 C 
HETATM    4  C3  UNL     1      -3.412   1.112  -0.054  1.00  0.00     0.017 C 
HETATM    5  C4  UNL     1      -3.083   0.449  -1.375  1.00  0.00     0.042 C 
HETATM    6  C5  UNL     1      -2.209  -0.707  -0.848  1.00  0.00     0.224 C 
HETATM    7  C6  UNL     1      -3.196  -1.736  -0.320  1.00  0.00     0.056 C 
HETATM    8  N1  UNL     1      -1.536  -0.174   0.283  1.00  0.00     0.093 N 
HETATM    9  C14 UNL     1      -2.041   1.114   0.610  1.00  0.00     0.277 C 
ENDROOT
BRANCH   8  10
HETATM   10  C7  UNL     1      -0.094  -0.304   0.276  1.00  0.00     0.274 C 
BRANCH  10  11
HETATM   11  C8  UNL     1       0.570   0.518  -0.744  1.00  0.00     0.060 C 
BRANCH  11  12
HETATM   12  C9  UNL     1       2.043   0.487  -0.905  1.00  0.00     0.274 C 
BRANCH  12  13
HETATM   13  N2  UNL     1       2.860   0.839   0.208  1.00  0.00     0.092 N 
HETATM   14  C10 UNL     1       4.148   1.389  -0.237  1.00  0.00     0.298 C 
HETATM   15  C11 UNL     1       4.966   0.290  -0.832  1.00  0.00     0.198 C 
HETATM   16  O1  UNL     1       5.401  -0.484   0.273  1.00  0.00    -0.388 OA
HETATM   17  C12 UNL     1       4.289  -1.127   0.732  1.00  0.00     0.198 C 
HETATM   18  C13 UNL     1       3.127  -0.260   1.126  1.00  0.00     0.298 C 
ENDBRANCH  12  13
ENDBRANCH  11  12
ENDBRANCH  10  11
ENDBRANCH   8  10
TORSDOF 4
