REMARK  7 active torsions:
REMARK  status: ('A' for Active; 'I' for Inactive)
REMARK    1  A    between atoms: C2_2  and  C3_3 
REMARK    2  A    between atoms: C3_3  and  N1_4 
REMARK    3  A    between atoms: N1_4  and  C4_5 
REMARK    4  A    between atoms: N1_4  and  C12_17 
REMARK    5  A    between atoms: C4_5  and  C5_6 
REMARK    6  A    between atoms: C6_7  and  C7_8 
REMARK    7  A    between atoms: C12_17  and  C13_18 
ROOT
HETATM    1  C5  UNL     1       0.126   0.625   1.030  1.00  0.00    -0.087 C 
HETATM    2  C6  UNL     1       1.267   0.596   0.653  1.00  0.00    -0.045 C 
ENDROOT
BRANCH   2   3
HETATM    3  C7  UNL     1       2.659   0.527   0.240  1.00  0.00     0.345 C 
HETATM    4  O1  UNL     1       2.940   0.991  -1.001  1.00  0.00    -0.329 OA
HETATM    5  C8  UNL     1       4.188   0.640  -1.485  1.00  0.00     0.228 C 
HETATM    6 CL1  UNL     1       4.018   0.050  -3.177  1.00  0.00    -0.095 Cl
HETATM    7  C9  UNL     1       5.026  -0.258  -0.664  1.00  0.00     0.065 C 
HETATM    8  C10 UNL     1       6.418   0.310  -0.365  1.00  0.00     0.017 C 
HETATM    9  C11 UNL     1       4.412  -0.783   0.596  1.00  0.00     0.204 C 
HETATM   10 BR1  UNL     1       5.085  -2.512   1.130  1.00  0.00    -0.061 Br
HETATM   11  O2  UNL     1       3.038  -0.820   0.409  1.00  0.00    -0.334 OA
ENDBRANCH   2   3
BRANCH   1  12
HETATM   12  C4  UNL     1      -1.247   0.617   1.520  1.00  0.00     0.188 C 
BRANCH  12  13
HETATM   13  N1  UNL     1      -1.991  -0.256   0.556  1.00  0.00    -0.282 NA
BRANCH  13  14
HETATM   14  C3  UNL     1      -2.122   0.396  -0.665  1.00  0.00     0.056 C 
BRANCH  14  15
HETATM   15  C2  UNL     1      -2.535  -0.297  -1.894  1.00  0.00    -0.019 C 
HETATM   16  C1  UNL     1      -3.839  -0.940  -2.041  1.00  0.00     0.037 C 
ENDBRANCH  14  15
ENDBRANCH  13  14
BRANCH  13  17
HETATM   17  C12 UNL     1      -3.013  -0.900   1.264  1.00  0.00     0.095 C 
BRANCH  17  18
HETATM   18  C13 UNL     1      -4.072  -0.139   1.950  1.00  0.00     0.010 C 
HETATM   19  C14 UNL     1      -4.964   0.766   1.194  1.00  0.00     0.006 C 
ENDBRANCH  17  18
ENDBRANCH  13  17
ENDBRANCH  12  13
ENDBRANCH   1  12
TORSDOF 7
