REMARK  5 active torsions:
REMARK  status: ('A' for Active; 'I' for Inactive)
REMARK    1  A    between atoms: C4_5  and  C5_7 
REMARK    2  A    between atoms: C8_11  and  C9_12 
REMARK    3  A    between atoms: C12_15  and  C13_16 
REMARK    4  A    between atoms: C13_16  and  C14_17 
REMARK    5  A    between atoms: C14_17  and  N1_18 
ROOT
HETATM    1  C1  UNL     1      -1.263  -2.665  -0.055  1.00  0.00     0.023 C 
HETATM    2  C2  UNL     1      -0.206  -1.964  -0.349  1.00  0.00    -0.014 C 
HETATM    3  C3  UNL     1       1.079  -2.639  -0.540  1.00  0.00     0.182 C 
HETATM    4  O1  UNL     1       1.070  -3.812  -0.992  1.00  0.00    -0.290 OA
HETATM    5  C4  UNL     1       2.368  -1.962  -0.210  1.00  0.00     0.143 C 
HETATM    6 BR1  UNL     1       2.857  -2.398   1.600  1.00  0.00    -0.068 Br
HETATM    7  C7  UNL     1       2.119  -0.502  -0.305  1.00  0.00     0.162 C 
HETATM    8  O2  UNL     1       2.900   0.223  -0.878  1.00  0.00    -0.295 OA
HETATM    9  C8  UNL     1       0.844   0.025   0.346  1.00  0.00     0.088 C 
HETATM   10  C12 UNL     1      -0.259  -0.442  -0.510  1.00  0.00     0.038 C 
ENDROOT
BRANCH  10  11
HETATM   11  C13 UNL     1      -1.650  -0.021  -0.255  1.00  0.00     0.030 C 
BRANCH  11  12
HETATM   12  C14 UNL     1      -2.007   1.406  -0.395  1.00  0.00     0.116 C 
BRANCH  12  13
HETATM   13  N1  UNL     1      -3.412   1.674  -0.141  1.00  0.00    -0.421 N 
HETATM   14  C15 UNL     1      -4.308   1.141  -1.109  1.00  0.00     0.142 C 
HETATM   15  C16 UNL     1      -3.813   1.527   1.210  1.00  0.00     0.142 C 
ENDBRANCH  12  13
ENDBRANCH  11  12
ENDBRANCH  10  11
BRANCH   9  16
HETATM   16  C9  UNL     1       1.073   1.429   0.593  1.00  0.00    -0.018 C 
HETATM   17  C10 UNL     1       1.075   1.895   1.839  1.00  0.00    -0.034 C 
HETATM   18  C11 UNL     1       1.301   3.318   2.197  1.00  0.00     0.036 C 
ENDBRANCH   9  16
BRANCH   5  19
HETATM   19  C5  UNL     1       3.432  -2.380  -1.193  1.00  0.00     0.033 C 
HETATM   20  C6  UNL     1       4.759  -1.727  -0.908  1.00  0.00     0.007 C 
ENDBRANCH   5  19
TORSDOF 5
