REMARK  6 active torsions:
REMARK  status: ('A' for Active; 'I' for Inactive)
REMARK    1  A    between atoms: C2_2  and  C4_4 
REMARK    2  A    between atoms: C4_4  and  C5_6 
REMARK    3  A    between atoms: C5_6  and  N1_8 
REMARK    4  A    between atoms: N1_8  and  C7_9 
REMARK       I    between atoms: N1_8  and  C12_16 
REMARK    5  A    between atoms: C7_9  and  C8_10 
REMARK    6  A    between atoms: C12_16  and  C13_18 
ROOT
HETATM    1  N1  UNL     1       0.264   0.070  -0.111  1.00  0.00    -0.335 N 
HETATM    2  C12 UNL     1       0.585  -1.296  -0.161  1.00  0.00     0.224 C 
HETATM    3  O3  UNL     1      -0.250  -2.150   0.239  1.00  0.00    -0.273 OA
ENDROOT
BRANCH   1   4
HETATM    4  C5  UNL     1      -1.056   0.421   0.402  1.00  0.00     0.153 C 
HETATM    5  C6  UNL     1      -1.318  -0.136   1.767  1.00  0.00     0.040 C 
BRANCH   4   6
HETATM    6  C4  UNL     1      -2.139  -0.066  -0.489  1.00  0.00     0.152 C 
HETATM    7  O1  UNL     1      -1.904  -0.626  -1.520  1.00  0.00    -0.295 OA
BRANCH   6   8
HETATM    8  C2  UNL     1      -3.540   0.149  -0.089  1.00  0.00     0.049 C 
HETATM    9  C1  UNL     1      -4.481  -0.418  -1.128  1.00  0.00     0.017 C 
HETATM   10  C3  UNL     1      -3.878   1.609   0.100  1.00  0.00     0.017 C 
ENDBRANCH   6   8
ENDBRANCH   4   6
ENDBRANCH   1   4
BRANCH   1  11
HETATM   11  C7  UNL     1       1.162   1.072  -0.572  1.00  0.00     0.191 C 
BRANCH  11  12
HETATM   12  C8  UNL     1       2.099   1.633   0.406  1.00  0.00     0.072 A 
HETATM   13  C9  UNL     1       1.997   1.844   1.763  1.00  0.00     0.038 A 
HETATM   14  C10 UNL     1       3.202   2.403   2.145  1.00  0.00     0.048 A 
HETATM   15  C11 UNL     1       3.988   2.514   1.029  1.00  0.00     0.121 A 
HETATM   16 BR1  UNL     1       5.782   3.230   0.972  1.00  0.00    -0.023 Br
HETATM   17  O2  UNL     1       3.307   2.052   0.024  1.00  0.00    -0.306 OA
ENDBRANCH  11  12
ENDBRANCH   1  11
BRANCH   2  18
HETATM   18  C13 UNL     1       1.861  -1.793  -0.661  1.00  0.00     0.070 C 
HETATM   19  C14 UNL     1       3.042  -1.581   0.249  1.00  0.00     0.019 C 
HETATM   20  C15 UNL     1       1.798  -3.271  -1.024  1.00  0.00     0.019 C 
ENDBRANCH   2  18
TORSDOF 6
