REMARK  5 active torsions:
REMARK  status: ('A' for Active; 'I' for Inactive)
REMARK    1  A    between atoms: C7_8  and  C8_9 
REMARK    2  A    between atoms: C8_9  and  C9_10 
REMARK    3  A    between atoms: C9_10  and  N1_11 
REMARK    4  A    between atoms: C13_15  and  C14_16 
REMARK    5  A    between atoms: C14_16  and  N2_17 
ROOT
HETATM    1  N1  UNL     1      -0.318   0.413  -1.464  1.00  0.00     0.089 N 
HETATM    2  C10 UNL     1       0.129   1.780  -1.653  1.00  0.00     0.272 C 
HETATM    3  C11 UNL     1       0.741   2.284  -0.385  1.00  0.00     0.031 C 
HETATM    4  C12 UNL     1       2.087   1.560  -0.240  1.00  0.00     0.013 C 
HETATM    5  C13 UNL     1       1.912   0.099  -0.486  1.00  0.00     0.053 C 
HETATM    6  C20 UNL     1       0.403  -0.200  -0.396  1.00  0.00     0.282 C 
ENDROOT
BRANCH   1   7
HETATM    7  C9  UNL     1      -1.755   0.474  -1.193  1.00  0.00     0.273 C 
BRANCH   7   8
HETATM    8  C8  UNL     1      -2.344  -0.879  -0.992  1.00  0.00     0.036 C 
BRANCH   8   9
HETATM    9  C7  UNL     1      -3.801  -0.930  -0.721  1.00  0.00    -0.001 C 
HETATM   10  C2  UNL     1      -4.282  -0.216   0.493  1.00  0.00    -0.022 C 
HETATM   11  C1  UNL     1      -4.390   1.265   0.380  1.00  0.00     0.017 C 
HETATM   12  C3  UNL     1      -3.409  -0.524   1.706  1.00  0.00     0.017 C 
HETATM   13  C4  UNL     1      -5.668  -0.781   0.811  1.00  0.00     0.176 C 
HETATM   14  O1  UNL     1      -6.215  -1.326  -0.323  1.00  0.00    -0.390 OA
HETATM   15  C5  UNL     1      -6.088  -0.505  -1.429  1.00  0.00     0.168 C 
HETATM   16  C6  UNL     1      -4.647  -0.528  -1.907  1.00  0.00     0.032 C 
ENDBRANCH   8   9
ENDBRANCH   7   8
ENDBRANCH   1   7
BRANCH   5  17
HETATM   17  C14 UNL     1       2.595  -0.788   0.526  1.00  0.00     0.074 C 
BRANCH  17  18
HETATM   18  N2  UNL     1       3.981  -0.601   0.593  1.00  0.00    -0.354 N 
HETATM   19  C15 UNL     1       4.710  -1.379   1.507  1.00  0.00     0.070 C 
HETATM   20  C16 UNL     1       6.091  -0.942   1.813  1.00  0.00     0.082 C 
HETATM   21  C17 UNL     1       6.811  -0.202   0.744  1.00  0.00     0.179 C 
HETATM   22  F1  UNL     1       8.097  -0.719   0.529  1.00  0.00    -0.249 F 
HETATM   23  C18 UNL     1       6.104  -0.234  -0.568  1.00  0.00     0.082 C 
HETATM   24  C19 UNL     1       4.664   0.194  -0.329  1.00  0.00     0.070 C 
ENDBRANCH  17  18
ENDBRANCH   5  17
TORSDOF 5
