REMARK  5 active torsions:
REMARK  status: ('A' for Active; 'I' for Inactive)
REMARK    1  A    between atoms: C7_8  and  C8_9 
REMARK    2  A    between atoms: C8_9  and  C9_10 
REMARK    3  A    between atoms: C9_10  and  N1_11 
REMARK    4  A    between atoms: N1_11  and  C10_12 
REMARK    5  A    between atoms: N1_11  and  S1_18 
ROOT
HETATM    1  N1  UNL     1      -1.506  -0.622   0.353  1.00  0.00    -0.286 N 
ENDROOT
BRANCH   1   2
HETATM    2  C9  UNL     1      -0.232  -0.105   0.053  1.00  0.00     0.076 C 
BRANCH   2   3
HETATM    3  C8  UNL     1       0.854  -0.382   1.031  1.00  0.00     0.050 C 
BRANCH   3   4
HETATM    4  C7  UNL     1       2.143   0.239   0.556  1.00  0.00    -0.006 C 
HETATM    5  C2  UNL     1       2.645  -0.253  -0.760  1.00  0.00    -0.013 C 
HETATM    6  C1  UNL     1       2.436  -1.708  -1.024  1.00  0.00     0.010 C 
HETATM    7  C3  UNL     1       4.122   0.033  -0.878  1.00  0.00     0.024 C 
HETATM    8  C4  UNL     1       4.543   1.295  -0.192  1.00  0.00     0.082 C 
HETATM    9 CL1  UNL     1       3.783   2.695  -1.003  1.00  0.00    -0.125 Cl
HETATM   10  C5  UNL     1       4.199   1.315   1.267  1.00  0.00     0.020 C 
HETATM   11  C6  UNL     1       3.239   0.193   1.611  1.00  0.00     0.007 C 
ENDBRANCH   3   4
ENDBRANCH   2   3
ENDBRANCH   1   2
BRANCH   1  12
HETATM   12  C10 UNL     1      -2.497   0.366   0.412  1.00  0.00     0.104 C 
HETATM   13  C11 UNL     1      -3.063   0.782  -0.952  1.00  0.00     0.053 C 
HETATM   14  C12 UNL     1      -4.015   1.935  -0.651  1.00  0.00     0.169 C 
HETATM   15  O1  UNL     1      -3.912   2.396   0.639  1.00  0.00    -0.391 OA
HETATM   16  C13 UNL     1      -4.288   1.472   1.603  1.00  0.00     0.169 C 
HETATM   17  C14 UNL     1      -3.687   0.091   1.283  1.00  0.00     0.053 C 
ENDBRANCH   1  12
BRANCH   1  18
HETATM   18  S1  UNL     1      -1.897  -2.151  -0.196  1.00  0.00     0.228 S 
HETATM   19  C15 UNL     1      -1.870  -2.279  -1.983  1.00  0.00     0.186 C 
HETATM   20  O2  UNL     1      -1.037  -3.250   0.367  1.00  0.00    -0.206 OA
HETATM   21  O3  UNL     1      -3.309  -2.486   0.200  1.00  0.00    -0.206 OA
ENDBRANCH   1  18
TORSDOF 5
