REMARK  5 active torsions:
REMARK  status: ('A' for Active; 'I' for Inactive)
REMARK    1  A    between atoms: O1_2  and  C2_3 
REMARK    2  A    between atoms: C2_3  and  C3_5 
REMARK    3  A    between atoms: C3_5  and  N1_6 
REMARK    4  A    between atoms: C3_5  and  C5_11 
REMARK       I    between atoms: N1_6  and  C4_8 
REMARK    5  A    between atoms: C7_18  and  C8_19 
REMARK       I    between atoms: C8_19  and  N6_21 
REMARK       I    between atoms: N6_21  and  C9_23 
ROOT
HETATM    1  C5  UNL     1      -0.747   0.287  -0.421  1.00  0.00     0.118 A 
HETATM    2  N3  UNL     1      -1.115   0.338  -1.712  1.00  0.00    -0.318 N 
ATOM      3  H3  UNL     1      -2.092   0.517  -1.943  1.00  0.00     0.170 HD
HETATM    4  C6  UNL     1      -0.220   0.157  -2.719  1.00  0.00     0.195 A 
HETATM    5  N4  UNL     1      -0.615   0.213  -4.090  1.00  0.00    -0.063 NA
HETATM    6  N5  UNL     1       1.053  -0.077  -2.349  1.00  0.00    -0.312 N 
ATOM      7  H5  UNL     1       1.748  -0.217  -3.083  1.00  0.00     0.170 HD
HETATM    8  C7  UNL     1       1.463  -0.137  -1.070  1.00  0.00     0.178 A 
HETATM    9  N9  UNL     1       0.536   0.050  -0.113  1.00  0.00    -0.325 N 
ATOM     10  H9  UNL     1       0.815   0.011   0.867  1.00  0.00     0.169 HD
ENDROOT
BRANCH   1  11
HETATM   11  C3  UNL     1      -1.783   0.495   0.655  1.00  0.00     0.253 C 
BRANCH  11  12
HETATM   12  C2  UNL     1      -2.631  -0.722   0.639  1.00  0.00     0.289 C 
HETATM   13  O2  UNL     1      -3.822  -0.631   0.303  1.00  0.00    -0.262 OA
BRANCH  12  14
HETATM   14  O1  UNL     1      -2.076  -1.940   0.999  1.00  0.00    -0.325 OA
HETATM   15  C1  UNL     1      -2.843  -3.145   1.003  1.00  0.00     0.213 C 
ENDBRANCH  12  14
ENDBRANCH  11  12
BRANCH  11  16
HETATM   16  N1  UNL     1      -2.574   1.640   0.243  1.00  0.00    -0.325 N 
HETATM   17  C4  UNL     1      -2.692   2.793   1.054  1.00  0.00     0.329 C 
HETATM   18  N2  UNL     1      -3.462   3.916   0.663  1.00  0.00    -0.040 NA
HETATM   19  O3  UNL     1      -2.095   2.837   2.168  1.00  0.00    -0.251 OA
ATOM     20  H1  UNL     1      -3.057   1.613  -0.655  1.00  0.00     0.165 HD
ENDBRANCH  11  16
ENDBRANCH   1  11
BRANCH   8  21
HETATM   21  C8  UNL     1       2.856  -0.395  -0.794  1.00  0.00     0.292 C 
HETATM   22  O4  UNL     1       3.678  -0.562  -1.724  1.00  0.00    -0.264 OA
HETATM   23  N6  UNL     1       3.336  -0.467   0.541  1.00  0.00    -0.295 N 
HETATM   24  C9  UNL     1       4.709  -0.721   0.811  1.00  0.00     0.188 C 
ATOM     25  H6  UNL     1       2.687  -0.335   1.317  1.00  0.00     0.171 HD
HETATM   26  N7  UNL     1       5.120  -0.781   2.026  1.00  0.00    -0.373 N 
HETATM   27  N8  UNL     1       5.636  -0.909  -0.247  1.00  0.00    -0.064 NA
ATOM     28  H72 UNL     1       4.454  -0.646   2.786  1.00  0.00     0.158 HD
ATOM     29  H71 UNL     1       6.105  -0.963   2.220  1.00  0.00     0.158 HD
ENDBRANCH   8  21
TORSDOF 5
