REMARK  6 active torsions:
REMARK  status: ('A' for Active; 'I' for Inactive)
REMARK    1  A    between atoms: N1_1  and  C1_4 
REMARK    2  A    between atoms: N5_15  and  C5_16 
REMARK    3  A    between atoms: C5_16  and  C6_17 
REMARK       I    between atoms: C6_17  and  N6_19 
REMARK       I    between atoms: N6_19  and  C7_21 
REMARK    4  A    between atoms: C7_21  and  C8_23 
REMARK    5  A    between atoms: C8_23  and  N7_24 
REMARK    6  A    between atoms: C8_23  and  C9_28 
ROOT
HETATM    1  C1  UNL     1       4.713   0.174  -0.714  1.00  0.00     0.680 A 
HETATM    2  N2  UNL     1       3.889  -0.675  -1.358  1.00  0.00    -0.154 N 
ATOM      3  H2  UNL     1       4.184  -1.034  -2.266  1.00  0.00     0.187 HD
HETATM    4  C2  UNL     1       2.701  -1.077  -0.875  1.00  0.00     0.291 A 
HETATM    5  O1  UNL     1       1.952  -1.864  -1.485  1.00  0.00    -0.265 OA
HETATM    6  C3  UNL     1       2.305  -0.588   0.357  1.00  0.00     0.167 A 
HETATM    7  C4  UNL     1       3.188   0.292   0.999  1.00  0.00     0.171 A 
HETATM    8  N3  UNL     1       2.556   0.596   2.169  1.00  0.00    -0.268 N 
ATOM      9  H3  UNL     1       2.920   1.219   2.890  1.00  0.00     0.190 HD
HETATM   10  N4  UNL     1       1.406  -0.038   2.225  1.00  0.00    -0.238 N 
ATOM     11  H4  UNL     1       0.745   0.022   2.999  1.00  0.00     0.208 HD
HETATM   12  N5  UNL     1       1.226  -0.771   1.126  1.00  0.00    -0.260 N 
HETATM   13  N8  UNL     1       4.363   0.665   0.478  1.00  0.00    -0.173 N 
ATOM     14  H8  UNL     1       4.976   1.308   0.979  1.00  0.00     0.186 HD
ENDROOT
BRANCH  12  15
HETATM   15  C5  UNL     1       0.069  -1.577   0.824  1.00  0.00     0.254 C 
BRANCH  15  16
HETATM   16  C6  UNL     1      -1.010  -0.733   0.190  1.00  0.00     0.244 C 
HETATM   17  O2  UNL     1      -1.105  -0.669  -1.047  1.00  0.00    -0.271 OA
HETATM   18  N6  UNL     1      -1.889  -0.033   1.022  1.00  0.00    -0.294 N 
HETATM   19  C7  UNL     1      -2.957   0.812   0.688  1.00  0.00     0.265 C 
ATOM     20  H6  UNL     1      -1.729  -0.155   2.022  1.00  0.00     0.171 HD
HETATM   21  O3  UNL     1      -3.599   1.426   1.628  1.00  0.00    -0.270 OA
BRANCH  19  22
HETATM   22  C8  UNL     1      -3.441   1.087  -0.659  1.00  0.00     0.374 C 
BRANCH  22  23
HETATM   23  N7  UNL     1      -4.105   2.392  -0.751  1.00  0.00    -0.056 N 
ATOM     24  H73 UNL     1      -4.855   2.474  -0.065  1.00  0.00     0.275 HD
ATOM     25  H72 UNL     1      -3.498   3.140  -0.417  1.00  0.00     0.275 HD
ATOM     26  H71 UNL     1      -4.444   2.584  -1.694  1.00  0.00     0.275 HD
ENDBRANCH  22  23
BRANCH  22  27
HETATM   27  C9  UNL     1      -4.497   0.061  -0.993  1.00  0.00     0.214 C 
HETATM   28  O4  UNL     1      -5.638   0.452  -1.411  1.00  0.00    -0.646 OA
HETATM   29  O5  UNL     1      -4.324  -1.283  -0.876  1.00  0.00    -0.646 OA
ENDBRANCH  22  27
ENDBRANCH  19  22
ENDBRANCH  15  16
ENDBRANCH  12  15
BRANCH   1  30
HETATM   30  N1  UNL     1       5.832   0.500  -1.255  1.00  0.00    -0.234 N 
ATOM     31  H12 UNL     1       6.099   0.125  -2.165  1.00  0.00     0.174 HD
ATOM     32  H11 UNL     1       6.456   1.143  -0.767  1.00  0.00     0.174 HD
ENDBRANCH   1  30
TORSDOF 6
