REMARK  8 active torsions:
REMARK  status: ('A' for Active; 'I' for Inactive)
REMARK    1  A    between atoms: N1_1  and  C1_4 
REMARK    2  A    between atoms: C2_7  and  O1_8 
REMARK    3  A    between atoms: O1_8  and  C3_9 
REMARK    4  A    between atoms: C4_10  and  N3_11 
REMARK    5  A    between atoms: N5_18  and  C6_19 
REMARK    6  A    between atoms: C6_19  and  C7_20 
REMARK    7  A    between atoms: C7_20  and  N6_21 
REMARK    8  A    between atoms: C7_20  and  O5_25 
ROOT
HETATM    1  C3  UNL     1      -0.471  -0.711  -0.679  1.00  0.00     0.207 A 
HETATM    2  C4  UNL     1      -0.428  -1.957  -1.348  1.00  0.00     0.224 A 
HETATM    3  C5  UNL     1      -1.428  -2.688  -0.761  1.00  0.00     0.297 A 
HETATM    4  O4  UNL     1      -1.692  -3.879  -1.109  1.00  0.00    -0.264 OA
HETATM    5  N4  UNL     1      -2.003  -1.931   0.170  1.00  0.00    -0.260 N 
ATOM      6  H4  UNL     1      -2.779  -2.237   0.757  1.00  0.00     0.190 HD
HETATM    7  N5  UNL     1      -1.439  -0.717   0.242  1.00  0.00    -0.261 N 
ENDROOT
BRANCH   1   8
HETATM    8  O1  UNL     1       0.407   0.297  -1.012  1.00  0.00    -0.257 OA
BRANCH   8   9
HETATM    9  C2  UNL     1       1.624   0.551  -0.404  1.00  0.00     0.248 A 
HETATM   10  N2  UNL     1       2.750  -0.019  -0.962  1.00  0.00    -0.154 N 
HETATM   11  C1  UNL     1       3.940   0.211  -0.396  1.00  0.00     0.683 A 
ATOM     12  H2  UNL     1       2.676  -0.606  -1.793  1.00  0.00     0.188 HD
HETATM   13  N8  UNL     1       4.106   0.971   0.696  1.00  0.00    -0.141 N 
HETATM   14  C8  UNL     1       2.995   1.516   1.222  1.00  0.00     0.341 A 
ATOM     15  H8  UNL     1       5.027   1.128   1.106  1.00  0.00     0.189 HD
HETATM   16  N7  UNL     1       1.772   1.303   0.672  1.00  0.00    -0.273 N 
HETATM   17  O6  UNL     1       3.035   2.242   2.240  1.00  0.00    -0.246 OA
ATOM     18  H7  UNL     1       0.951   1.732   1.098  1.00  0.00     0.174 HD
BRANCH  11  19
HETATM   19  N1  UNL     1       4.963  -0.355  -0.971  1.00  0.00    -0.234 N 
ATOM     20  H12 UNL     1       4.837  -0.933  -1.802  1.00  0.00     0.174 HD
ATOM     21  H11 UNL     1       5.870  -0.180  -0.539  1.00  0.00     0.174 HD
ENDBRANCH  11  19
ENDBRANCH   8   9
ENDBRANCH   1   8
BRANCH   2  22
HETATM   22  N3  UNL     1       0.475  -2.317  -2.391  1.00  0.00    -0.105 N 
HETATM   23  O2  UNL     1       0.355  -1.859  -3.554  1.00  0.00    -0.531 OA
HETATM   24  O3  UNL     1       1.531  -3.183  -2.191  1.00  0.00    -0.531 OA
ENDBRANCH   2  22
BRANCH   7  25
HETATM   25  C6  UNL     1      -1.873   0.326   1.165  1.00  0.00     0.212 C 
BRANCH  25  26
HETATM   26  C7  UNL     1      -2.945   1.181   0.489  1.00  0.00     0.336 C 
BRANCH  26  27
HETATM   27  N6  UNL     1      -3.330   2.193   1.456  1.00  0.00    -0.051 N 
ATOM     28  H63 UNL     1      -3.627   1.805   2.352  1.00  0.00     0.277 HD
ATOM     29  H62 UNL     1      -2.542   2.736   1.809  1.00  0.00     0.277 HD
ATOM     30  H61 UNL     1      -4.045   2.763   1.005  1.00  0.00     0.277 HD
ENDBRANCH  26  27
BRANCH  26  31
HETATM   31  O5  UNL     1      -4.030   0.397   0.105  1.00  0.00    -0.369 OA
ATOM     32  H5  UNL     1      -4.696   0.928  -0.315  1.00  0.00     0.212 HD
ENDBRANCH  26  31
ENDBRANCH  25  26
ENDBRANCH   7  25
TORSDOF 8
