REMARK  17 active torsions:
REMARK  status: ('A' for Active; 'I' for Inactive)
REMARK    1  A    between atoms: C3_6  and  O2_7 
REMARK    2  A    between atoms: C3_6  and  C4_9 
REMARK    3  A    between atoms: C4_9  and  O3_10 
REMARK    4  A    between atoms: C4_9  and  C5_12 
REMARK    5  A    between atoms: C5_12  and  O4_13 
REMARK    6  A    between atoms: C5_12  and  O5_15 
REMARK    7  A    between atoms: C9_22  and  O8_23 
REMARK    8  A    between atoms: C10_25  and  O9_26 
REMARK    9  A    between atoms: C11_28  and  O10_29 
REMARK   10  A    between atoms: C12_31  and  C13_32 
REMARK   11  A    between atoms: C13_32  and  C14_33 
REMARK   12  A    between atoms: C13_32  and  N2_42 
REMARK   13  A    between atoms: C14_33  and  O11_34 
REMARK   14  A    between atoms: C14_33  and  C15_36 
REMARK   15  A    between atoms: C15_36  and  O12_37 
REMARK   16  A    between atoms: C15_36  and  C16_39 
REMARK   17  A    between atoms: C16_39  and  O13_40 
ROOT
HETATM    1  O1  UNL     1       0.999  -2.332   2.092  1.00  0.00    -0.273 OA
HETATM    2  C1  UNL     1       0.351  -1.372   1.511  1.00  0.00     0.228 C 
HETATM    3  N1  UNL     1      -0.905  -1.712   1.056  1.00  0.00    -0.355 N 
ATOM      4  H1  UNL     1      -1.490  -2.145   1.770  1.00  0.00     0.162 HD
HETATM    5  C2  UNL     1      -1.559  -1.583  -0.212  1.00  0.00     0.194 C 
HETATM    6  C3  UNL     1      -2.884  -0.832  -0.118  1.00  0.00     0.211 C 
HETATM    7  O6  UNL     1      -2.665   0.430  -0.554  1.00  0.00    -0.318 OA
HETATM    8  C6  UNL     1      -2.481   1.422   0.387  1.00  0.00     0.294 C 
HETATM    9  O7  UNL     1      -2.180   1.027   1.628  1.00  0.00    -0.358 OA
HETATM   10  C7  UNL     1      -0.937   0.990   2.114  1.00  0.00     0.179 C 
HETATM   11  C8  UNL     1       0.184   0.963   1.062  1.00  0.00     0.060 C 
HETATM   12  C9  UNL     1       0.632   2.362   0.958  1.00  0.00     0.157 C 
HETATM   13  C10 UNL     1      -0.666   3.160   0.672  1.00  0.00     0.180 C 
HETATM   14  C11 UNL     1      -1.606   2.475  -0.236  1.00  0.00     0.204 C 
HETATM   15  C12 UNL     1       1.122  -0.112   1.477  1.00  0.00     0.137 C 
ENDROOT
BRANCH  15  16
HETATM   16  C13 UNL     1       2.436  -0.234   0.873  1.00  0.00     0.058 C 
BRANCH  16  17
HETATM   17  C14 UNL     1       2.657  -0.625  -0.528  1.00  0.00     0.197 C 
BRANCH  17  18
HETATM   18  O11 UNL     1       4.088  -0.552  -0.795  1.00  0.00    -0.387 OA
ATOM     19  H11 UNL     1       4.231  -0.804  -1.700  1.00  0.00     0.210 HD
ENDBRANCH  17  18
BRANCH  17  20
HETATM   20  C15 UNL     1       2.360  -2.034  -0.947  1.00  0.00     0.176 C 
BRANCH  20  21
HETATM   21  O12 UNL     1       3.126  -2.996  -0.284  1.00  0.00    -0.390 OA
ATOM     22  H12 UNL     1       2.938  -3.889  -0.549  1.00  0.00     0.210 HD
ENDBRANCH  20  21
BRANCH  20  23
HETATM   23  C16 UNL     1       2.667  -2.242  -2.432  1.00  0.00     0.198 C 
BRANCH  23  24
HETATM   24  O13 UNL     1       2.314  -3.528  -2.832  1.00  0.00    -0.398 OA
ATOM     25  H13 UNL     1       2.505  -3.657  -3.754  1.00  0.00     0.209 HD
ENDBRANCH  23  24
ENDBRANCH  20  23
ENDBRANCH  17  20
ENDBRANCH  16  17
BRANCH  16  26
HETATM   26  N2  UNL     1       3.461   0.696   1.318  1.00  0.00    -0.256 N 
HETATM   27  C17 UNL     1       3.973   0.875   2.529  1.00  0.00     0.207 A 
HETATM   28  N3  UNL     1       4.918   1.839   2.477  1.00  0.00    -0.346 N 
HETATM   29  C18 UNL     1       4.978   2.252   1.201  1.00  0.00     0.198 A 
ATOM     30  H3  UNL     1       5.477   2.186   3.256  1.00  0.00     0.167 HD
HETATM   31  N4  UNL     1       4.084   1.540   0.525  1.00  0.00    -0.289 N 
ATOM     32  H4  UNL     1       3.905   1.635  -0.475  1.00  0.00     0.188 HD
ENDBRANCH  16  26
ENDBRANCH  15  16
BRANCH  12  33
HETATM   33  O8  UNL     1       1.060   2.940   2.167  1.00  0.00    -0.392 OA
ATOM     34  H8  UNL     1       1.349   3.842   2.100  1.00  0.00     0.210 HD
ENDBRANCH  12  33
BRANCH  13  35
HETATM   35  O9  UNL     1      -0.238   4.342   0.062  1.00  0.00    -0.390 OA
ATOM     36  H9  UNL     1      -1.033   4.831  -0.113  1.00  0.00     0.210 HD
ENDBRANCH  13  35
BRANCH   6  37
HETATM   37  O2  UNL     1      -3.379  -0.953   1.183  1.00  0.00    -0.362 OA
ATOM     38  H2  UNL     1      -4.204  -0.485   1.242  1.00  0.00     0.213 HD
ENDBRANCH   6  37
BRANCH   6  39
HETATM   39  C4  UNL     1      -3.877  -1.500  -1.045  1.00  0.00     0.236 C 
BRANCH  39  40
HETATM   40  O3  UNL     1      -5.130  -0.837  -0.869  1.00  0.00    -0.385 OA
ATOM     41  H3  UNL     1      -5.753  -1.256  -1.451  1.00  0.00     0.210 HD
ENDBRANCH  39  40
BRANCH  39  42
HETATM   42  C5  UNL     1      -3.506  -1.428  -2.500  1.00  0.00     0.287 C 
BRANCH  42  43
HETATM   43  O4  UNL     1      -2.315  -2.057  -2.816  1.00  0.00    -0.369 OA
ATOM     44  H4  UNL     1      -2.081  -2.011  -3.735  1.00  0.00     0.212 HD
ENDBRANCH  42  43
BRANCH  42  45
HETATM   45  O5  UNL     1      -4.497  -2.024  -3.282  1.00  0.00    -0.369 OA
ATOM     46  H5  UNL     1      -4.263  -1.978  -4.201  1.00  0.00     0.212 HD
ENDBRANCH  42  45
ENDBRANCH  39  42
ENDBRANCH   6  39
BRANCH  14  47
HETATM   47  O10 UNL     1      -2.395   3.506  -0.820  1.00  0.00    -0.388 OA
ATOM     48  H10 UNL     1      -1.842   4.171  -1.213  1.00  0.00     0.210 HD
ENDBRANCH  14  47
TORSDOF 17
