REMARK  14 active torsions:
REMARK  status: ('A' for Active; 'I' for Inactive)
REMARK    1  A    between atoms: C2_2  and  N1_3 
REMARK       I    between atoms: N1_3  and  C3_5 
REMARK    2  A    between atoms: C3_5  and  C4_7 
REMARK    3  A    between atoms: C5_9  and  N2_10 
REMARK    4  A    between atoms: N2_10  and  C6_12 
REMARK    5  A    between atoms: C8_15  and  O3_16 
REMARK    6  A    between atoms: O3_16  and  C9_17 
REMARK    7  A    between atoms: C9_17  and  C10_18 
REMARK    8  A    between atoms: C11_20  and  O5_21 
REMARK    9  A    between atoms: C13_23  and  N3_24 
REMARK   10  A    between atoms: N3_24  and  N4_26 
REMARK   11  A    between atoms: N4_26  and  N5_27 
REMARK   12  A    between atoms: C14_30  and  O6_31 
REMARK   13  A    between atoms: C15_33  and  O7_34 
REMARK   14  A    between atoms: C16_36  and  O8_37 
ROOT
HETATM    1  O3  UNL     1      -0.093   0.047   0.009  1.00  0.00    -0.376 OA
ENDROOT
BRANCH   1   2
HETATM    2  C8  UNL     1       1.163   0.161   0.597  1.00  0.00     0.202 C 
HETATM    3  C5  UNL     1       1.901  -1.134   0.663  1.00  0.00     0.254 C 
HETATM    4  O2  UNL     1       3.234  -0.844   0.349  1.00  0.00    -0.347 OA
HETATM    5  C4  UNL     1       3.193   0.104  -0.670  1.00  0.00     0.247 C 
HETATM    6  C16 UNL     1       2.028   0.995  -0.332  1.00  0.00     0.189 C 
BRANCH   3   7
HETATM    7  N2  UNL     1       1.321  -2.079  -0.259  1.00  0.00    -0.356 N 
ATOM      8  H2  UNL     1       0.523  -1.797  -0.828  1.00  0.00     0.162 HD
BRANCH   7   9
HETATM    9  C6  UNL     1       1.836  -3.388  -0.390  1.00  0.00     0.071 C 
HETATM   10  C7  UNL     1       2.999  -3.852   0.415  1.00  0.00     0.081 C 
HETATM   11  S1  UNL     1       1.150  -4.412  -1.439  1.00  0.00    -0.066 SA
ENDBRANCH   7   9
ENDBRANCH   3   7
BRANCH   5  12
HETATM   12  C3  UNL     1       4.473   0.842  -0.731  1.00  0.00     0.249 C 
HETATM   13  N1  UNL     1       5.533   0.549   0.166  1.00  0.00    -0.359 N 
ATOM     14  H1  UNL     1       5.404  -0.184   0.864  1.00  0.00     0.162 HD
HETATM   15  O1  UNL     1       4.656   1.746  -1.579  1.00  0.00    -0.271 OA
BRANCH  13  16
HETATM   16  C2  UNL     1       6.794   1.263   0.118  1.00  0.00     0.118 C 
HETATM   17  C1  UNL     1       6.550   2.742   0.352  1.00  0.00     0.026 C 
ENDBRANCH  13  16
ENDBRANCH   5  12
BRANCH   6  18
HETATM   18  O8  UNL     1       2.420   2.126   0.362  1.00  0.00    -0.390 OA
ATOM     19  H8  UNL     1       1.685   2.688   0.575  1.00  0.00     0.210 HD
ENDBRANCH   6  18
ENDBRANCH   1   2
BRANCH   1  20
HETATM   20  C9  UNL     1      -1.043   0.559   0.924  1.00  0.00     0.203 C 
BRANCH  20  21
HETATM   21  C10 UNL     1      -2.387   0.416   0.247  1.00  0.00     0.179 C 
HETATM   22  O4  UNL     1      -3.423   0.889   1.052  1.00  0.00    -0.349 OA
HETATM   23  C11 UNL     1      -4.521   1.072   0.245  1.00  0.00     0.287 C 
HETATM   24  C13 UNL     1      -4.946  -0.191  -0.439  1.00  0.00     0.200 C 
HETATM   25  C14 UNL     1      -4.101  -1.383  -0.077  1.00  0.00     0.179 C 
HETATM   26  C15 UNL     1      -2.636  -1.063   0.025  1.00  0.00     0.180 C 
BRANCH  23  27
HETATM   27  O5  UNL     1      -5.619   1.599   0.910  1.00  0.00    -0.364 OA
HETATM   28  C12 UNL     1      -5.993   2.848   0.445  1.00  0.00     0.204 C 
ENDBRANCH  23  27
BRANCH  24  29
HETATM   29  N3  UNL     1      -6.324  -0.530  -0.111  1.00  0.00    -0.240 N 
ATOM     30  H3  UNL     1      -6.492  -1.145   0.685  1.00  0.00     0.197 HD
BRANCH  29  31
HETATM   31  N4  UNL     1      -7.288  -0.120  -0.734  1.00  0.00    -0.248 NA
BRANCH  31  32
HETATM   32  N5  UNL     1      -8.114   0.364  -1.498  1.00  0.00    -0.261 N 
ATOM     33  H52 UNL     1      -7.344   0.667  -2.094  1.00  0.00     0.193 HD
ATOM     34  H51 UNL     1      -8.921   0.707  -2.019  1.00  0.00     0.193 HD
ENDBRANCH  31  32
ENDBRANCH  29  31
ENDBRANCH  24  29
BRANCH  25  35
HETATM   35  O6  UNL     1      -4.526  -1.964   1.101  1.00  0.00    -0.391 OA
ATOM     36  H6  UNL     1      -3.993  -2.716   1.329  1.00  0.00     0.210 HD
ENDBRANCH  25  35
BRANCH  26  37
HETATM   37  O7  UNL     1      -2.064  -1.734   1.113  1.00  0.00    -0.390 OA
ATOM     38  H7  UNL     1      -2.220  -2.661   0.974  1.00  0.00     0.210 HD
ENDBRANCH  26  37
ENDBRANCH  20  21
ENDBRANCH   1  20
TORSDOF 14
