REMARK  13 active torsions:
REMARK  status: ('A' for Active; 'I' for Inactive)
REMARK    1  A    between atoms: N1_1  and  N2_4 
REMARK    2  A    between atoms: N3_6  and  C1_8 
REMARK    3  A    between atoms: C2_9  and  C3_10 
REMARK    4  A    between atoms: C3_10  and  O1_11 
REMARK    5  A    between atoms: O1_11  and  C4_12 
REMARK    6  A    between atoms: C4_12  and  C5_14 
REMARK    7  A    between atoms: C11_21  and  O4_22 
REMARK    8  A    between atoms: O4_22  and  C12_23 
REMARK    9  A    between atoms: C13_24  and  O5_25 
REMARK   10  A    between atoms: C14_27  and  O6_28 
REMARK   11  A    between atoms: C15_30  and  N4_31 
REMARK   12  A    between atoms: C19_38  and  O7_39 
REMARK   13  A    between atoms: C20_41  and  O8_42 
ROOT
HETATM    1  C1  UNL     1       1.436   1.174  -2.300  1.00  0.00     0.163 C 
HETATM    2  C2  UNL     1       1.030  -0.159  -1.768  1.00  0.00     0.176 C 
HETATM    3  O3  UNL     1       0.335   0.024  -0.591  1.00  0.00    -0.349 OA
HETATM    4  C11 UNL     1      -0.954   0.467  -0.980  1.00  0.00     0.292 C 
HETATM    5  C19 UNL     1      -0.843   1.867  -1.485  1.00  0.00     0.204 C 
HETATM    6  C20 UNL     1       0.303   2.139  -2.381  1.00  0.00     0.178 C 
ENDROOT
BRANCH   4   7
HETATM    7  O4  UNL     1      -1.833   0.462   0.079  1.00  0.00    -0.350 OA
BRANCH   7   8
HETATM    8  C12 UNL     1      -2.879  -0.445  -0.068  1.00  0.00     0.160 C 
HETATM    9  C13 UNL     1      -4.221   0.207  -0.158  1.00  0.00     0.178 C 
HETATM   10  C14 UNL     1      -4.920   0.313   1.187  1.00  0.00     0.180 C 
HETATM   11  C15 UNL     1      -5.125  -1.090   1.671  1.00  0.00     0.219 C 
HETATM   12  C16 UNL     1      -3.801  -1.722   1.909  1.00  0.00     0.026 A 
HETATM   13  C17 UNL     1      -2.639  -0.962   2.429  1.00  0.00     0.015 A 
HETATM   14  C18 UNL     1      -2.740  -1.479   0.976  1.00  0.00     0.024 A 
BRANCH   9  15
HETATM   15  O5  UNL     1      -5.038  -0.617  -0.952  1.00  0.00    -0.390 OA
ATOM     16  H5  UNL     1      -5.891  -0.203  -1.009  1.00  0.00     0.210 HD
ENDBRANCH   9  15
BRANCH  10  17
HETATM   17  O6  UNL     1      -6.156   0.947   0.924  1.00  0.00    -0.391 OA
ATOM     18  H6  UNL     1      -6.593   1.013   1.765  1.00  0.00     0.210 HD
ENDBRANCH  10  17
BRANCH  11  19
HETATM   19  N4  UNL     1      -5.938  -1.088   2.870  1.00  0.00    -0.072 N 
ATOM     20  H43 UNL     1      -5.547  -0.487   3.596  1.00  0.00     0.274 HD
ATOM     21  H42 UNL     1      -6.822  -0.599   2.731  1.00  0.00     0.274 HD
ATOM     22  H41 UNL     1      -6.078  -2.043   3.200  1.00  0.00     0.274 HD
ENDBRANCH  11  19
ENDBRANCH   7   8
ENDBRANCH   4   7
BRANCH   5  23
HETATM   23  O7  UNL     1      -0.878   2.715  -0.354  1.00  0.00    -0.388 OA
ATOM     24  H7  UNL     1      -0.807   3.606  -0.675  1.00  0.00     0.210 HD
ENDBRANCH   5  23
BRANCH   2  25
HETATM   25  C3  UNL     1       2.186  -1.098  -1.663  1.00  0.00     0.213 C 
BRANCH  25  26
HETATM   26  O1  UNL     1       3.164  -0.708  -0.746  1.00  0.00    -0.315 OA
BRANCH  26  27
HETATM   27  C4  UNL     1       4.273  -1.566  -0.615  1.00  0.00     0.293 C 
HETATM   28  O2  UNL     1       4.347  -2.614  -1.299  1.00  0.00    -0.259 OA
BRANCH  27  29
HETATM   29  C5  UNL     1       5.348  -1.261   0.306  1.00  0.00     0.039 A 
HETATM   30  C6  UNL     1       5.295  -0.102   1.082  1.00  0.00     0.017 A 
HETATM   31  C7  UNL     1       6.315   0.196   1.962  1.00  0.00     0.001 A 
HETATM   32  C8  UNL     1       7.373  -0.688   2.040  1.00  0.00     0.000 A 
HETATM   33  C9  UNL     1       7.439  -1.832   1.284  1.00  0.00     0.001 A 
HETATM   34  C10 UNL     1       6.414  -2.118   0.409  1.00  0.00     0.017 A 
ENDBRANCH  27  29
ENDBRANCH  26  27
ENDBRANCH  25  26
ENDBRANCH   2  25
BRANCH   6  35
HETATM   35  O8  UNL     1      -0.157   2.311  -3.701  1.00  0.00    -0.391 OA
ATOM     36  H8  UNL     1      -0.879   2.926  -3.753  1.00  0.00     0.210 HD
ENDBRANCH   6  35
BRANCH   1  37
HETATM   37  N3  UNL     1       2.590   1.722  -1.600  1.00  0.00    -0.313 N 
HETATM   38  N2  UNL     1       2.361   2.328  -0.554  1.00  0.00    -0.253 N 
ATOM     39  H2  UNL     1       1.345   2.396  -0.607  1.00  0.00     0.207 HD
ATOM     40  H3  UNL     1       3.538   1.609  -1.958  1.00  0.00     0.182 HD
BRANCH  38  41
HETATM   41  N1  UNL     1       2.559   2.903   0.510  1.00  0.00    -0.331 N 
ATOM     42  H12 UNL     1       3.574   2.807   0.513  1.00  0.00     0.178 HD
ATOM     43  H11 UNL     1       2.369   3.405   1.377  1.00  0.00     0.178 HD
ENDBRANCH  38  41
ENDBRANCH   1  37
TORSDOF 13
