REMARK  12 active torsions:
REMARK  status: ('A' for Active; 'I' for Inactive)
REMARK    1  A    between atoms: C9_9  and  N1_10 
REMARK    2  A    between atoms: N1_10  and  C10_11 
REMARK    3  A    between atoms: N1_10  and  N2_13 
REMARK    4  A    between atoms: N2_13  and  O1_14 
REMARK    5  A    between atoms: C12_16  and  O2_17 
REMARK    6  A    between atoms: O2_17  and  C13_18 
REMARK    7  A    between atoms: C14_20  and  C15_21 
REMARK    8  A    between atoms: C15_21  and  O4_22 
REMARK    9  A    between atoms: C16_24  and  O5_25 
REMARK   10  A    between atoms: C17_27  and  O6_28 
REMARK   11  A    between atoms: C18_30  and  O7_31 
REMARK   12  A    between atoms: C20_34  and  O8_35 
ROOT
HETATM    1  C1  UNL     1      -0.234  -2.288  -3.144  1.00  0.00     0.015 C 
HETATM    2  C2  UNL     1      -1.020  -1.358  -2.599  1.00  0.00    -0.072 C 
HETATM    3  C3  UNL     1      -2.504  -1.307  -2.472  1.00  0.00     0.051 C 
HETATM    4  C4  UNL     1      -2.988  -2.383  -1.576  1.00  0.00     0.017 C 
HETATM    5  C5  UNL     1      -2.439  -1.954  -0.213  1.00  0.00    -0.005 C 
HETATM    6  C6  UNL     1      -3.205  -2.734   0.803  1.00  0.00     0.011 C 
HETATM    7  C7  UNL     1      -2.568  -0.499  -0.171  1.00  0.00     0.016 C 
HETATM    8  C8  UNL     1      -3.887   0.031   0.304  1.00  0.00     0.021 C 
HETATM    9  C9  UNL     1      -1.421   0.290   0.354  1.00  0.00     0.148 C 
HETATM   10  C12 UNL     1      -0.250  -0.016  -0.600  1.00  0.00     0.161 C 
HETATM   11  C19 UNL     1      -0.935  -0.058  -1.918  1.00  0.00     0.081 C 
HETATM   12  C20 UNL     1      -2.443  -0.096  -1.644  1.00  0.00     0.085 C 
ENDROOT
BRANCH  10  13
HETATM   13  O2  UNL     1       0.622   1.045  -0.442  1.00  0.00    -0.350 OA
BRANCH  13  14
HETATM   14  C13 UNL     1       1.856   0.725   0.029  1.00  0.00     0.292 C 
HETATM   15  O3  UNL     1       2.220   1.383   1.191  1.00  0.00    -0.348 OA
HETATM   16  C14 UNL     1       3.588   1.426   1.394  1.00  0.00     0.179 C 
HETATM   17  C16 UNL     1       4.307   0.266   0.740  1.00  0.00     0.180 C 
HETATM   18  C17 UNL     1       4.108   0.221  -0.748  1.00  0.00     0.183 C 
HETATM   19  C18 UNL     1       2.865   1.026  -1.067  1.00  0.00     0.204 C 
BRANCH  16  20
HETATM   20  C15 UNL     1       3.820   1.295   2.890  1.00  0.00     0.198 C 
BRANCH  20  21
HETATM   21  O4  UNL     1       3.228   2.299   3.618  1.00  0.00    -0.398 OA
ATOM     22  H4  UNL     1       3.373   2.217   4.553  1.00  0.00     0.209 HD
ENDBRANCH  20  21
ENDBRANCH  16  20
BRANCH  17  23
HETATM   23  O5  UNL     1       4.004  -0.943   1.370  1.00  0.00    -0.390 OA
ATOM     24  H5  UNL     1       4.455  -1.671   0.959  1.00  0.00     0.210 HD
ENDBRANCH  17  23
BRANCH  18  25
HETATM   25  O6  UNL     1       3.865  -1.124  -1.102  1.00  0.00    -0.390 OA
ATOM     26  H6  UNL     1       3.739  -1.152  -2.043  1.00  0.00     0.210 HD
ENDBRANCH  18  25
BRANCH  19  27
HETATM   27  O7  UNL     1       2.322   0.654  -2.285  1.00  0.00    -0.388 OA
ATOM     28  H7  UNL     1       2.953   0.842  -2.970  1.00  0.00     0.210 HD
ENDBRANCH  19  27
ENDBRANCH  13  14
ENDBRANCH  10  13
BRANCH   9  29
HETATM   29  N1  UNL     1      -1.069   0.137   1.706  1.00  0.00    -0.263 N 
BRANCH  29  30
HETATM   30  C10 UNL     1      -0.660  -1.056   2.351  1.00  0.00     0.189 C 
HETATM   31  S1  UNL     1      -1.172  -1.325   3.869  1.00  0.00    -0.073 SA
ENDBRANCH  29  30
BRANCH  29  32
HETATM   32  N2  UNL     1      -1.110   1.264   2.546  1.00  0.00     0.024 NA
BRANCH  32  33
HETATM   33  O1  UNL     1      -2.069   2.125   2.241  1.00  0.00    -0.272 OA
HETATM   34  C11 UNL     1      -1.586   3.452   2.184  1.00  0.00     0.234 C 
ENDBRANCH  32  33
ENDBRANCH  29  32
ENDBRANCH   9  29
BRANCH  12  35
HETATM   35  O8  UNL     1      -3.139   1.012  -2.017  1.00  0.00    -0.387 OA
ATOM     36  H8  UNL     1      -3.100   1.796  -1.481  1.00  0.00     0.210 HD
ENDBRANCH  12  35
TORSDOF 12
