REMARK  18 active torsions:
REMARK  status: ('A' for Active; 'I' for Inactive)
REMARK    1  A    between atoms: N1_1  and  C1_4 
REMARK    2  A    between atoms: C1_4  and  C2_5 
REMARK    3  A    between atoms: C1_4  and  N8_45 
REMARK    4  A    between atoms: C2_5  and  N2_6 
REMARK    5  A    between atoms: C4_11  and  N4_12 
REMARK    6  A    between atoms: N4_12  and  O2_14 
REMARK    7  A    between atoms: C5_18  and  N6_19 
REMARK    8  A    between atoms: N6_19  and  C6_20 
REMARK    9  A    between atoms: C6_20  and  O3_21 
REMARK   10  A    between atoms: C10_28  and  C11_29 
REMARK   11  A    between atoms: C13_33  and  C14_34 
REMARK   12  A    between atoms: C14_34  and  O8_35 
REMARK   13  A    between atoms: C14_34  and  C15_37 
REMARK   14  A    between atoms: C15_37  and  O9_38 
REMARK   15  A    between atoms: C16_40  and  N7_41 
REMARK   16  A    between atoms: N8_45  and  C17_47 
REMARK   17  A    between atoms: C17_47  and  C18_48 
REMARK   18  A    between atoms: C18_48  and  N9_49 
ROOT
HETATM    1  N2  UNL     1       2.345   1.512  -1.000  1.00  0.00    -0.251 N 
HETATM    2  C3  UNL     1       3.291   2.434  -1.321  1.00  0.00     0.344 A 
HETATM    3  O1  UNL     1       3.772   2.413  -2.501  1.00  0.00    -0.246 OA
HETATM    4  N3  UNL     1       3.715   3.347  -0.431  1.00  0.00    -0.139 N 
ATOM      5  H3  UNL     1       4.426   4.024  -0.709  1.00  0.00     0.189 HD
HETATM    6  C4  UNL     1       3.220   3.386   0.819  1.00  0.00     0.709 A 
HETATM    7  N5  UNL     1       2.297   2.494   1.148  1.00  0.00    -0.146 N 
ATOM      8  H5  UNL     1       1.910   2.507   2.092  1.00  0.00     0.188 HD
HETATM    9  C5  UNL     1       1.840   1.539   0.244  1.00  0.00     0.282 A 
ENDROOT
BRANCH   9  10
HETATM   10  N6  UNL     1       0.974   0.792   0.606  1.00  0.00    -0.344 NA
BRANCH  10  11
HETATM   11  C6  UNL     1       0.048  -0.170   0.628  1.00  0.00     0.229 C 
HETATM   12  C7  UNL     1      -1.307  -0.222   0.146  1.00  0.00     0.070 C 
HETATM   13  C8  UNL     1      -2.360  -0.451  -0.157  1.00  0.00     0.077 C 
HETATM   14  C16 UNL     1      -2.173   1.174   0.922  1.00  0.00     0.253 C 
HETATM   15  O4  UNL     1      -2.535   1.061  -0.872  1.00  0.00    -0.281 OA
HETATM   16  C13 UNL     1      -3.552  -1.131  -0.313  1.00  0.00     0.076 C 
HETATM   17  C9  UNL     1      -3.711   1.012  -1.113  1.00  0.00     0.285 C 
HETATM   18  O5  UNL     1      -4.895   0.963  -1.356  1.00  0.00    -0.263 OA
HETATM   19  C10 UNL     1      -3.647   1.007   0.747  1.00  0.00     0.169 C 
HETATM   20  C12 UNL     1      -4.327  -0.271   0.850  1.00  0.00     0.047 C 
BRANCH  11  21
HETATM   21  O3  UNL     1       0.484  -1.283   1.215  1.00  0.00    -0.335 OA
ATOM     22  H3  UNL     1      -0.175  -1.967   1.231  1.00  0.00     0.220 HD
ENDBRANCH  11  21
BRANCH  19  23
HETATM   23  C11 UNL     1      -4.362   2.237   0.914  1.00  0.00     0.194 C 
HETATM   24  O6  UNL     1      -3.830   3.210   1.541  1.00  0.00    -0.647 OA
HETATM   25  O7  UNL     1      -5.640   2.454   0.426  1.00  0.00    -0.647 OA
ENDBRANCH  19  23
BRANCH  16  26
HETATM   26  C14 UNL     1      -3.588  -2.570   0.181  1.00  0.00     0.152 C 
BRANCH  26  27
HETATM   27  O8  UNL     1      -2.616  -3.254  -0.543  1.00  0.00    -0.393 OA
ATOM     28  H8  UNL     1      -2.638  -4.152  -0.235  1.00  0.00     0.210 HD
ENDBRANCH  26  27
BRANCH  26  29
HETATM   29  C15 UNL     1      -4.921  -3.150  -0.158  1.00  0.00     0.196 C 
BRANCH  29  30
HETATM   30  O9  UNL     1      -4.917  -4.508   0.187  1.00  0.00    -0.398 OA
ATOM     31  H9  UNL     1      -5.765  -4.877  -0.029  1.00  0.00     0.209 HD
ENDBRANCH  29  30
ENDBRANCH  26  29
ENDBRANCH  16  26
BRANCH  14  32
HETATM   32  N7  UNL     1      -1.719   0.974   2.247  1.00  0.00    -0.069 N 
ATOM     33  H73 UNL     1      -1.881   0.052   2.652  1.00  0.00     0.275 HD
ATOM     34  H72 UNL     1      -0.709   0.929   2.383  1.00  0.00     0.275 HD
ATOM     35  H71 UNL     1      -2.205   1.758   2.683  1.00  0.00     0.275 HD
ENDBRANCH  14  32
ENDBRANCH  10  11
ENDBRANCH   9  10
BRANCH   1  36
HETATM   36  C2  UNL     1       1.951   0.581  -2.044  1.00  0.00     0.213 C 
BRANCH  36  37
HETATM   37  C1  UNL     1       2.854  -0.599  -2.141  1.00  0.00     0.089 C 
BRANCH  37  38
HETATM   38  N1  UNL     1       3.421  -0.880  -3.284  1.00  0.00    -0.388 N 
ATOM     39  H12 UNL     1       3.213  -0.265  -4.071  1.00  0.00     0.157 HD
ATOM     40  H11 UNL     1       4.040  -1.688  -3.350  1.00  0.00     0.157 HD
ENDBRANCH  37  38
BRANCH  37  41
HETATM   41  N8  UNL     1       3.141  -1.448  -1.055  1.00  0.00    -0.377 N 
ATOM     42  H8  UNL     1       2.471  -2.177  -0.810  1.00  0.00     0.160 HD
BRANCH  41  43
HETATM   43  C17 UNL     1       4.352  -1.324  -0.275  1.00  0.00     0.148 C 
BRANCH  43  44
HETATM   44  C18 UNL     1       4.413  -2.355   0.830  1.00  0.00     0.249 C 
BRANCH  44  45
HETATM   45  N9  UNL     1       5.610  -2.244   1.612  1.00  0.00    -0.078 N 
ATOM     46  H93 UNL     1       6.441  -2.287   1.022  1.00  0.00     0.274 HD
ATOM     47  H92 UNL     1       5.722  -1.300   1.982  1.00  0.00     0.274 HD
ATOM     48  H91 UNL     1       5.651  -2.939   2.357  1.00  0.00     0.274 HD
ENDBRANCH  44  45
ENDBRANCH  43  44
ENDBRANCH  41  43
ENDBRANCH  37  41
ENDBRANCH  36  37
ENDBRANCH   1  36
BRANCH   6  49
HETATM   49  N4  UNL     1       3.630   4.265   1.675  1.00  0.00    -0.098 N 
ATOM     50  H4  UNL     1       3.249   4.288   2.621  1.00  0.00     0.213 HD
BRANCH  49  51
HETATM   51  O2  UNL     1       4.600   5.177   1.278  1.00  0.00    -0.276 OA
ATOM     52  H2  UNL     1       4.901   5.823   1.907  1.00  0.00     0.245 HD
ENDBRANCH  49  51
ENDBRANCH   6  49
TORSDOF 18
