REMARK  12 active torsions:
REMARK  status: ('A' for Active; 'I' for Inactive)
REMARK    1  A    between atoms: N1_1  and  N2_4 
REMARK       I    between atoms: N2_4  and  C1_6 
REMARK    2  A    between atoms: C1_6  and  C2_8 
REMARK    3  A    between atoms: C3_9  and  C4_10 
REMARK       I    between atoms: C4_10  and  N3_12 
REMARK    4  A    between atoms: N3_12  and  C5_13 
REMARK    5  A    between atoms: C5_13  and  C6_14 
REMARK    6  A    between atoms: C6_14  and  C7_15 
REMARK    7  A    between atoms: C6_14  and  C8_18 
REMARK    8  A    between atoms: C8_18  and  O4_19 
REMARK    9  A    between atoms: C9_22  and  N5_23 
REMARK   10  A    between atoms: C14_32  and  O8_33 
REMARK   11  A    between atoms: C15_35  and  O9_36 
REMARK   12  A    between atoms: C17_39  and  O10_40 
ROOT
HETATM    1  C6  UNL     1      -0.709  -0.011   0.399  1.00  0.00     0.192 C 
ENDROOT
BRANCH   1   2
HETATM    2  C5  UNL     1       0.486   0.341  -0.502  1.00  0.00     0.178 C 
BRANCH   2   3
HETATM    3  N3  UNL     1       1.640  -0.065  -0.062  1.00  0.00    -0.382 NA
HETATM    4  C4  UNL     1       2.926  -0.522   0.429  1.00  0.00     0.326 C 
HETATM    5  O2  UNL     1       3.111  -1.706   0.705  1.00  0.00    -0.251 OA
BRANCH   4   6
HETATM    6  C3  UNL     1       4.020   0.443   0.597  1.00  0.00     0.072 A 
HETATM    7  C2  UNL     1       5.268   0.291   0.055  1.00  0.00     0.118 A 
HETATM    8  C18 UNL     1       6.218   1.329   0.263  1.00  0.00     0.264 A 
HETATM    9  N7  UNL     1       5.900   2.413   0.965  1.00  0.00    -0.303 N 
HETATM   10  O11 UNL     1       7.346   1.176  -0.241  1.00  0.00    -0.267 OA
HETATM   11  C17 UNL     1       4.703   2.586   1.501  1.00  0.00     0.143 A 
ATOM     12  H7  UNL     1       6.606   3.138   1.095  1.00  0.00     0.171 HD
HETATM   13  C16 UNL     1       3.763   1.592   1.313  1.00  0.00     0.075 A 
BRANCH   7  14
HETATM   14  C1  UNL     1       5.736  -0.848  -0.685  1.00  0.00     0.276 C 
HETATM   15  N2  UNL     1       5.855  -2.136  -0.241  1.00  0.00    -0.272 N 
ATOM     16  H2  UNL     1       5.600  -2.355   0.722  1.00  0.00     0.189 HD
HETATM   17  O1  UNL     1       6.091  -0.613  -1.903  1.00  0.00    -0.266 OA
BRANCH  15  18
HETATM   18  N1  UNL     1       6.327  -3.182  -1.090  1.00  0.00    -0.342 N 
ATOM     19  H12 UNL     1       6.578  -2.946  -2.050  1.00  0.00     0.176 HD
ATOM     20  H11 UNL     1       6.416  -4.143  -0.759  1.00  0.00     0.176 HD
ENDBRANCH  15  18
ENDBRANCH   7  14
BRANCH  11  21
HETATM   21  O10 UNL     1       4.374   3.744   2.248  1.00  0.00    -0.346 OA
ATOM     22  H10 UNL     1       5.021   4.428   2.377  1.00  0.00     0.219 HD
ENDBRANCH  11  21
ENDBRANCH   4   6
ENDBRANCH   2   3
ENDBRANCH   1   2
BRANCH   1  23
HETATM   23  C7  UNL     1      -0.542   0.621   1.705  1.00  0.00     0.246 C 
HETATM   24  N4  UNL     1       0.364   0.101   2.702  1.00  0.00    -0.061 NA
HETATM   25  O3  UNL     1      -1.206   1.662   1.983  1.00  0.00    -0.276 OA
ENDBRANCH   1  23
BRANCH   1  26
HETATM   26  C8  UNL     1      -2.054   0.072  -0.241  1.00  0.00     0.210 C 
HETATM   27  O5  UNL     1      -2.966  -0.237   0.815  1.00  0.00    -0.324 OA
HETATM   28  C9  UNL     1      -4.001  -1.022   0.238  1.00  0.00     0.267 C 
HETATM   29  C14 UNL     1      -3.225  -1.885  -0.581  1.00  0.00     0.201 C 
HETATM   30  C15 UNL     1      -2.283  -0.953  -1.314  1.00  0.00     0.214 C 
BRANCH  26  31
HETATM   31  O4  UNL     1      -2.367   1.316  -0.759  1.00  0.00    -0.362 OA
ATOM     32  H4  UNL     1      -3.224   1.369  -1.167  1.00  0.00     0.213 HD
ENDBRANCH  26  31
BRANCH  28  33
HETATM   33  N5  UNL     1      -5.030  -0.164  -0.078  1.00  0.00    -0.280 N 
HETATM   34  C10 UNL     1      -5.223   0.927   0.731  1.00  0.00     0.104 A 
HETATM   35  C11 UNL     1      -6.219   1.830   0.576  1.00  0.00     0.092 A 
HETATM   36  C12 UNL     1      -7.107   1.644  -0.477  1.00  0.00     0.250 A 
HETATM   37  O6  UNL     1      -8.066   2.432  -0.712  1.00  0.00    -0.268 OA
HETATM   38  N6  UNL     1      -6.919   0.590  -1.259  1.00  0.00    -0.275 N 
HETATM   39  C13 UNL     1      -5.901  -0.289  -1.059  1.00  0.00     0.331 A 
ATOM     40  H6  UNL     1      -7.560   0.433  -2.037  1.00  0.00     0.173 HD
HETATM   41  O7  UNL     1      -5.807  -1.229  -1.832  1.00  0.00    -0.246 OA
ENDBRANCH  28  33
BRANCH  29  42
HETATM   42  O8  UNL     1      -3.683  -2.929  -1.300  1.00  0.00    -0.388 OA
ATOM     43  H8  UNL     1      -3.164  -3.506  -1.848  1.00  0.00     0.210 HD
ENDBRANCH  29  42
BRANCH  30  44
HETATM   44  O9  UNL     1      -1.167  -1.723  -1.634  1.00  0.00    -0.387 OA
ATOM     45  H9  UNL     1      -1.312  -2.372  -2.313  1.00  0.00     0.210 HD
ENDBRANCH  30  44
ENDBRANCH   1  26
TORSDOF 12
