REMARK  15 active torsions:
REMARK  status: ('A' for Active; 'I' for Inactive)
REMARK       I    between atoms: C1_4  and  N2_5 
REMARK       I    between atoms: C1_4  and  N5_21 
REMARK    1  A    between atoms: N2_5  and  N3_7 
REMARK       I    between atoms: N3_7  and  C2_9 
REMARK    2  A    between atoms: C2_9  and  C3_11 
REMARK    3  A    between atoms: C3_11  and  N4_12 
REMARK    4  A    between atoms: C3_11  and  C4_16 
REMARK    5  A    between atoms: C4_16  and  O2_17 
REMARK    6  A    between atoms: C4_16  and  O3_19 
REMARK    7  A    between atoms: N5_21  and  S1_23 
REMARK    8  A    between atoms: S1_23  and  O6_26 
REMARK    9  A    between atoms: O6_26  and  C5_27 
REMARK   10  A    between atoms: C7_29  and  O7_30 
REMARK   11  A    between atoms: O7_30  and  S2_31 
REMARK   12  A    between atoms: S2_31  and  N6_32 
REMARK   13  A    between atoms: C10_39  and  S3_40 
REMARK   14  A    between atoms: S3_40  and  N7_41 
REMARK   15  A    between atoms: S3_40  and  N8_44 
ROOT
HETATM    1  S1  UNL     1      -0.472   0.240  -1.054  1.00  0.00     0.381 S 
HETATM    2  O4  UNL     1      -0.288   1.679  -1.530  1.00  0.00    -0.175 OA
HETATM    3  O5  UNL     1      -0.951  -0.499  -2.269  1.00  0.00    -0.175 OA
ENDROOT
BRANCH   1   4
HETATM    4  N5  UNL     1       1.040  -0.405  -0.562  1.00  0.00    -0.092 N 
HETATM    5  C1  UNL     1       2.019   0.507  -0.099  1.00  0.00     0.701 C 
HETATM    6  N1  UNL     1       2.160   0.688   1.156  1.00  0.00    -0.233 N 
HETATM    7  N2  UNL     1       2.823   1.205  -1.030  1.00  0.00    -0.129 N 
ATOM      8  H12 UNL     1       2.865   1.345   1.490  1.00  0.00     0.174 HD
ATOM      9  H11 UNL     1       1.580   0.185   1.827  1.00  0.00     0.174 HD
ATOM     10  H2  UNL     1       2.397   1.689  -1.820  1.00  0.00     0.205 HD
ATOM     11  H5  UNL     1       1.226  -1.407  -0.602  1.00  0.00     0.199 HD
BRANCH   7  12
HETATM   12  N3  UNL     1       4.201   1.223  -0.854  1.00  0.00    -0.254 N 
HETATM   13  C2  UNL     1       4.929   0.010  -0.819  1.00  0.00     0.272 C 
HETATM   14  O1  UNL     1       4.262  -1.072  -0.953  1.00  0.00    -0.269 OA
ATOM     15  H3  UNL     1       4.689   2.113  -0.750  1.00  0.00     0.190 HD
BRANCH  13  16
HETATM   16  C3  UNL     1       6.395  -0.038  -0.638  1.00  0.00     0.330 C 
BRANCH  16  17
HETATM   17  N4  UNL     1       6.807  -1.423  -0.587  1.00  0.00    -0.062 N 
ATOM     18  H43 UNL     1       6.307  -1.954   0.126  1.00  0.00     0.275 HD
ATOM     19  H42 UNL     1       6.496  -1.954  -1.400  1.00  0.00     0.275 HD
ATOM     20  H41 UNL     1       7.819  -1.456  -0.462  1.00  0.00     0.275 HD
ENDBRANCH  16  17
BRANCH  16  21
HETATM   21  C4  UNL     1       6.868   0.705   0.584  1.00  0.00     0.293 C 
BRANCH  21  22
HETATM   22  O2  UNL     1       6.341   0.147   1.745  1.00  0.00    -0.369 OA
ATOM     23  H2  UNL     1       6.639   0.616   2.516  1.00  0.00     0.212 HD
ENDBRANCH  21  22
BRANCH  21  24
HETATM   24  O3  UNL     1       8.259   0.659   0.657  1.00  0.00    -0.369 OA
ATOM     25  H3  UNL     1       8.557   1.128   1.428  1.00  0.00     0.212 HD
ENDBRANCH  21  24
ENDBRANCH  16  21
ENDBRANCH  13  16
ENDBRANCH   7  12
ENDBRANCH   1   4
BRANCH   1  26
HETATM   26  O6  UNL     1      -1.590   0.226   0.225  1.00  0.00    -0.214 OA
BRANCH  26  27
HETATM   27  C5  UNL     1      -2.891  -0.165  -0.044  1.00  0.00     0.115 A 
HETATM   28  C6  UNL     1      -3.792   0.819  -0.502  1.00  0.00     0.078 A 
HETATM   29  C7  UNL     1      -5.095   0.477  -0.780  1.00  0.00     0.093 A 
HETATM   30  C8  UNL     1      -5.535  -0.820  -0.617  1.00  0.00     0.040 A 
HETATM   31  C9  UNL     1      -4.669  -1.787  -0.172  1.00  0.00     0.029 A 
HETATM   32  C10 UNL     1      -3.336  -1.452   0.117  1.00  0.00     0.092 A 
BRANCH  29  33
HETATM   33  O7  UNL     1      -6.011   1.418  -1.232  1.00  0.00    -0.217 OA
BRANCH  33  34
HETATM   34  S2  UNL     1      -6.910   2.238  -0.022  1.00  0.00     0.360 S 
HETATM   35  O8  UNL     1      -7.618   3.416  -0.644  1.00  0.00    -0.176 OA
HETATM   36  O9  UNL     1      -6.031   2.675   1.118  1.00  0.00    -0.176 OA
BRANCH  34  37
HETATM   37  N6  UNL     1      -8.133   1.132   0.542  1.00  0.00    -0.305 N 
ATOM     38  H62 UNL     1      -8.275   0.179   0.206  1.00  0.00     0.171 HD
ATOM     39  H61 UNL     1      -8.667   1.619   1.261  1.00  0.00     0.171 HD
ENDBRANCH  34  37
ENDBRANCH  33  34
ENDBRANCH  29  33
BRANCH  32  40
HETATM   40  S3  UNL     1      -2.267  -2.673   0.707  1.00  0.00     0.133 S 
HETATM   41  O10 UNL     1      -1.194  -3.098  -0.206  1.00  0.00    -0.224 OA
BRANCH  40  42
HETATM   42  N7  UNL     1      -3.142  -3.961   1.025  1.00  0.00    -0.341 N 
ATOM     43  H72 UNL     1      -4.151  -4.037   0.898  1.00  0.00     0.167 HD
ATOM     44  H71 UNL     1      -2.511  -4.682   1.374  1.00  0.00     0.167 HD
ENDBRANCH  40  42
BRANCH  40  45
HETATM   45  N8  UNL     1      -1.611  -2.234   2.270  1.00  0.00    -0.341 N 
ATOM     46  H82 UNL     1      -1.840  -1.367   2.756  1.00  0.00     0.167 HD
ATOM     47  H81 UNL     1      -0.980  -2.955   2.619  1.00  0.00     0.167 HD
ENDBRANCH  40  45
ENDBRANCH  32  40
ENDBRANCH  26  27
ENDBRANCH   1  26
TORSDOF 15
