REMARK  5 active torsions:
REMARK  status: ('A' for Active; 'I' for Inactive)
REMARK       I    between atoms: C2_2  and  N1_4 
REMARK    1  A    between atoms: N1_4  and  C3_5 
REMARK    2  A    between atoms: C3_5  and  C4_6 
REMARK    3  A    between atoms: C4_6  and  C5_7 
REMARK    4  A    between atoms: C6_10  and  C7_11 
REMARK    5  A    between atoms: N5_16  and  C8_17 
REMARK       I    between atoms: N11_35  and  C13_37 
ROOT
HETATM    1  C5  UNL     1      -1.279  -0.367  -0.906  1.00  0.00     0.031 A 
HETATM    2  N2  UNL     1      -0.183   0.451  -0.924  1.00  0.00    -0.355 N 
ATOM      3  H2  UNL     1      -0.343   1.437  -1.132  1.00  0.00     0.166 HD
HETATM    4  C6  UNL     1       1.066   0.080  -0.696  1.00  0.00     0.081 A 
HETATM    5  C10 UNL     1       1.264  -1.246  -0.419  1.00  0.00     0.054 A 
HETATM    6  C11 UNL     1       0.171  -2.132  -0.390  1.00  0.00     0.040 A 
HETATM    7  S1  UNL     1      -0.006  -3.803  -0.115  1.00  0.00    -0.012 SA
HETATM    8  N10 UNL     1      -1.665  -3.939  -0.309  1.00  0.00    -0.311 N 
ATOM      9  H10 UNL     1      -2.238  -4.779  -0.234  1.00  0.00     0.176 HD
HETATM   10  C12 UNL     1      -2.063  -2.698  -0.583  1.00  0.00     0.127 A 
HETATM   11  N11 UNL     1      -3.344  -2.474  -0.806  1.00  0.00    -0.316 N 
ATOM     12  H11 UNL     1      -3.647  -1.523  -1.015  1.00  0.00     0.170 HD
HETATM   13  C13 UNL     1      -4.310  -3.499  -0.766  1.00  0.00     0.187 C 
HETATM   14  N12 UNL     1      -4.908  -3.862  -1.833  1.00  0.00    -0.373 N 
ATOM     15 1H12 UNL     1      -5.607  -4.604  -1.804  1.00  0.00     0.158 HD
ATOM     16 2H12 UNL     1      -4.691  -3.415  -2.724  1.00  0.00     0.158 HD
HETATM   17  N13 UNL     1      -4.617  -4.132   0.494  1.00  0.00    -0.064 NA
HETATM   18  C14 UNL     1      -1.128  -1.721  -0.633  1.00  0.00     0.050 A 
ENDROOT
BRANCH   4  19
HETATM   19  C7  UNL     1       2.170   1.033  -0.731  1.00  0.00     0.165 A 
HETATM   20  N3  UNL     1       2.057   2.374  -0.994  1.00  0.00    -0.266 N 
HETATM   21  N4  UNL     1       3.268   2.885  -0.927  1.00  0.00    -0.218 N 
ATOM     22  H3  UNL     1       1.196   2.880  -1.202  1.00  0.00     0.190 HD
HETATM   23  N5  UNL     1       4.169   1.958  -0.636  1.00  0.00    -0.158 N 
ATOM     24  H4  UNL     1       3.485   3.870  -1.080  1.00  0.00     0.210 HD
HETATM   25  N9  UNL     1       3.472   0.843  -0.522  1.00  0.00    -0.258 N 
ATOM     26  H9  UNL     1       3.884  -0.063  -0.299  1.00  0.00     0.191 HD
BRANCH  23  27
HETATM   27  C8  UNL     1       5.565   2.168  -0.487  1.00  0.00     0.214 A 
HETATM   28  N6  UNL     1       6.294   3.249  -0.811  1.00  0.00    -0.219 N 
HETATM   29  O2  UNL     1       7.542   3.033  -0.507  1.00  0.00    -0.153 OA
ATOM     30  H6  UNL     1       5.928   4.104  -1.229  1.00  0.00     0.198 HD
HETATM   31  N7  UNL     1       7.706   1.853   0.012  1.00  0.00    -0.222 N 
HETATM   32  C9  UNL     1       6.478   1.275   0.042  1.00  0.00     0.171 A 
ATOM     33  H7  UNL     1       8.583   1.443   0.333  1.00  0.00     0.198 HD
HETATM   34  N8  UNL     1       6.191   0.098   0.478  1.00  0.00    -0.381 N 
ATOM     35  H82 UNL     1       5.268  -0.336   0.501  1.00  0.00     0.157 HD
ATOM     36  H81 UNL     1       6.865  -0.561   0.868  1.00  0.00     0.157 HD
ENDBRANCH  23  27
ENDBRANCH   4  19
BRANCH   1  37
HETATM   37  C4  UNL     1      -2.545   0.335  -1.136  1.00  0.00     0.117 C 
BRANCH  37  38
HETATM   38  C3  UNL     1      -3.271   0.780   0.125  1.00  0.00     0.165 C 
BRANCH  38  39
HETATM   39  N1  UNL     1      -2.510   1.570   0.933  1.00  0.00    -0.388 NA
HETATM   40  C2  UNL     1      -1.757   2.350   1.732  1.00  0.00     0.286 C 
HETATM   41  C1  UNL     1      -2.227   3.798   1.937  1.00  0.00     0.135 C 
HETATM   42  O1  UNL     1      -0.685   2.095   2.370  1.00  0.00    -0.258 OA
ENDBRANCH  38  39
ENDBRANCH  37  38
ENDBRANCH   1  37
TORSDOF 5
