REMARK  9 active torsions:
REMARK  status: ('A' for Active; 'I' for Inactive)
REMARK       I    between atoms: C1_2  and  N1_3 
REMARK    1  A    between atoms: C1_2  and  C9_17 
REMARK    2  A    between atoms: N1_3  and  N2_5 
REMARK    3  A    between atoms: C2_7  and  C3_8 
REMARK    4  A    between atoms: C6_11  and  N3_12 
REMARK       I    between atoms: C9_17  and  N4_19 
REMARK    5  A    between atoms: N4_19  and  N5_21 
REMARK    6  A    between atoms: C10_23  and  C11_24 
REMARK    7  A    between atoms: C12_25  and  C13_26 
REMARK    8  A    between atoms: C15_32  and  O9_33 
REMARK    9  A    between atoms: C16_35  and  O10_36 
ROOT
HETATM    1  C9  UNL     1       0.686  -0.508   0.190  1.00  0.00     0.329 C 
HETATM    2  O4  UNL     1       1.224  -1.610  -0.033  1.00  0.00    -0.261 OA
HETATM    3  N4  UNL     1       1.402   0.662   0.533  1.00  0.00    -0.262 N 
ATOM      4  H4  UNL     1       0.823   1.488   0.684  1.00  0.00     0.190 HD
ENDROOT
BRANCH   3   5
HETATM    5  N5  UNL     1       2.741   0.867   0.695  1.00  0.00    -0.308 N 
HETATM    6  C10 UNL     1       3.759   0.196   0.655  1.00  0.00     0.124 C 
ATOM      7  H5  UNL     1       2.946   1.844   0.906  1.00  0.00     0.186 HD
BRANCH   6   8
HETATM    8  C11 UNL     1       5.182   0.453   0.824  1.00  0.00     0.058 A 
HETATM    9  C12 UNL     1       5.663   1.721   1.062  1.00  0.00     0.170 A 
HETATM   10  O7  UNL     1       6.974   1.895   1.274  1.00  0.00    -0.265 OA
HETATM   11  C14 UNL     1       7.829   0.926   1.268  1.00  0.00     0.325 A 
HETATM   12  O8  UNL     1       9.068   1.121   1.474  1.00  0.00    -0.257 OA
HETATM   13  C15 UNL     1       7.446  -0.371   1.038  1.00  0.00     0.176 A 
HETATM   14  C16 UNL     1       6.079  -0.588   0.813  1.00  0.00     0.119 A 
BRANCH   9  15
HETATM   15  C13 UNL     1       4.929   2.948   1.109  1.00  0.00     0.235 C 
HETATM   16  O5  UNL     1       5.592   4.022   1.393  1.00  0.00    -0.642 OA
HETATM   17  O6  UNL     1       3.627   3.186   0.899  1.00  0.00    -0.642 OA
ENDBRANCH   9  15
BRANCH  13  18
HETATM   18  O9  UNL     1       8.295  -1.440   1.017  1.00  0.00    -0.353 OA
ATOM     19  H9  UNL     1       8.030  -2.338   0.858  1.00  0.00     0.218 HD
ENDBRANCH  13  18
BRANCH  14  20
HETATM   20  O10 UNL     1       5.707  -1.878   0.589  1.00  0.00    -0.357 OA
ATOM     21  H10 UNL     1       6.327  -2.598   0.581  1.00  0.00     0.218 HD
ENDBRANCH  14  20
ENDBRANCH   6   8
ENDBRANCH   3   5
BRANCH   1  22
HETATM   22  C1  UNL     1      -0.759  -0.381   0.104  1.00  0.00     0.329 C 
HETATM   23  O1  UNL     1      -1.304   0.760   0.345  1.00  0.00    -0.261 OA
HETATM   24  N1  UNL     1      -1.620  -1.449  -0.230  1.00  0.00    -0.262 N 
ATOM     25  H1  UNL     1      -1.228  -2.367  -0.440  1.00  0.00     0.190 HD
BRANCH  24  26
HETATM   26  N2  UNL     1      -3.012  -1.261  -0.276  1.00  0.00    -0.308 N 
HETATM   27  C2  UNL     1      -3.619  -0.756  -1.277  1.00  0.00     0.118 C 
ATOM     28  H2  UNL     1      -3.565  -1.543   0.533  1.00  0.00     0.186 HD
BRANCH  27  29
HETATM   29  C3  UNL     1      -5.055  -0.616  -1.186  1.00  0.00    -0.019 A 
HETATM   30  C4  UNL     1      -5.737  -1.014  -0.069  1.00  0.00     0.015 A 
HETATM   31  C5  UNL     1      -7.099  -0.830  -0.003  1.00  0.00     0.037 A 
HETATM   32  C6  UNL     1      -7.814  -0.263  -1.016  1.00  0.00     0.102 A 
HETATM   33  C7  UNL     1      -7.128   0.141  -2.152  1.00  0.00     0.037 A 
HETATM   34  C8  UNL     1      -5.763  -0.038  -2.227  1.00  0.00     0.015 A 
BRANCH  32  35
HETATM   35  N3  UNL     1      -9.225  -0.062  -0.928  1.00  0.00    -0.116 N 
HETATM   36  O2  UNL     1      -9.848   0.446  -1.859  1.00  0.00    -0.532 OA
HETATM   37  O3  UNL     1      -9.853  -0.459   0.224  1.00  0.00    -0.532 OA
ENDBRANCH  32  35
ENDBRANCH  27  29
ENDBRANCH  24  26
ENDBRANCH   1  22
TORSDOF 9
