REMARK  11 active torsions:
REMARK  status: ('A' for Active; 'I' for Inactive)
REMARK    1  A    between atoms: C2_2  and  O1_3 
REMARK    2  A    between atoms: O1_3  and  C3_4 
REMARK    3  A    between atoms: C6_11  and  C7_12 
REMARK    4  A    between atoms: C7_12  and  N3_13 
REMARK    5  A    between atoms: N3_13  and  N4_15 
REMARK    6  A    between atoms: N4_15  and  C8_17 
REMARK    7  A    between atoms: C9_19  and  C10_20 
REMARK       I    between atoms: C10_20  and  N5_22 
REMARK    8  A    between atoms: N5_22  and  C11_24 
REMARK    9  A    between atoms: C13_34  and  C14_35 
REMARK   10  A    between atoms: C14_35  and  N10_36 
REMARK   11  A    between atoms: C14_35  and  N11_40 
ROOT
HETATM    1  C8  UNL     1       0.597   0.110   0.517  1.00  0.00     0.114 A 
HETATM    2  S1  UNL     1       2.067   0.955   0.856  1.00  0.00    -0.064 SA
HETATM    3  C9  UNL     1       3.387   0.495  -0.112  1.00  0.00     0.076 A 
HETATM    4  C12 UNL     1       3.095  -0.484  -1.027  1.00  0.00     0.037 A 
HETATM    5  C13 UNL     1       1.885  -1.070  -1.192  1.00  0.00     0.027 A 
HETATM    6  C15 UNL     1       0.730  -0.813  -0.496  1.00  0.00     0.091 A 
HETATM    7  N12 UNL     1      -0.474  -1.547  -0.814  1.00  0.00    -0.099 NA
ENDROOT
BRANCH   1   8
HETATM    8  N4  UNL     1      -0.492   0.341   1.161  1.00  0.00    -0.293 N 
ATOM      9  H4  UNL     1      -0.434   1.055   1.887  1.00  0.00     0.187 HD
BRANCH   8  10
HETATM   10  N3  UNL     1      -1.715  -0.243   1.002  1.00  0.00    -0.310 N 
ATOM     11  H3  UNL     1      -1.814  -1.208   1.316  1.00  0.00     0.186 HD
BRANCH  10  12
HETATM   12  C7  UNL     1      -2.750   0.315   0.493  1.00  0.00     0.125 C 
BRANCH  12  13
HETATM   13  C6  UNL     1      -4.033  -0.343   0.343  1.00  0.00     0.057 A 
HETATM   14  C3  UNL     1      -5.159   0.244  -0.205  1.00  0.00     0.171 A 
HETATM   15  N1  UNL     1      -6.151  -0.674  -0.170  1.00  0.00    -0.279 N 
HETATM   16  N2  UNL     1      -5.684  -1.787   0.372  1.00  0.00    -0.302 N 
ATOM     17  H1  UNL     1      -7.103  -0.532  -0.506  1.00  0.00     0.189 HD
HETATM   18  C4  UNL     1      -4.368  -1.621   0.705  1.00  0.00     0.038 A 
ATOM     19  H2  UNL     1      -6.224  -2.640   0.519  1.00  0.00     0.186 HD
HETATM   20  C5  UNL     1      -3.475  -2.621   1.337  1.00  0.00     0.070 C 
BRANCH  14  21
HETATM   21  O1  UNL     1      -5.230   1.541  -0.695  1.00  0.00    -0.334 OA
BRANCH  21  22
HETATM   22  C2  UNL     1      -5.720   2.536   0.193  1.00  0.00     0.173 C 
HETATM   23  C1  UNL     1      -5.719   3.878  -0.529  1.00  0.00     0.034 C 
ENDBRANCH  21  22
ENDBRANCH  14  21
ENDBRANCH  12  13
ENDBRANCH  10  12
ENDBRANCH   8  10
ENDBRANCH   1   8
BRANCH   3  24
HETATM   24  C10 UNL     1       4.735   1.065  -0.015  1.00  0.00     0.277 C 
HETATM   25  O2  UNL     1       5.627   0.638  -0.789  1.00  0.00    -0.266 OA
HETATM   26  N5  UNL     1       5.082   2.067   0.901  1.00  0.00    -0.152 N 
ATOM     27  H5  UNL     1       4.428   2.844   0.994  1.00  0.00     0.187 HD
BRANCH  26  28
HETATM   28  C11 UNL     1       6.112   2.112   1.621  1.00  0.00     0.716 A 
HETATM   29  N6  UNL     1       6.442   3.069   2.496  1.00  0.00    -0.115 N 
HETATM   30  N7  UNL     1       7.603   2.768   3.067  1.00  0.00    -0.213 N 
ATOM     31  H6  UNL     1       5.887   3.902   2.694  1.00  0.00     0.207 HD
HETATM   32  N8  UNL     1       8.021   1.627   2.566  1.00  0.00    -0.213 N 
ATOM     33  H7  UNL     1       8.086   3.325   3.772  1.00  0.00     0.210 HD
HETATM   34  N9  UNL     1       7.105   1.216   1.673  1.00  0.00    -0.115 N 
ATOM     35  H8  UNL     1       8.884   1.142   2.811  1.00  0.00     0.210 HD
ATOM     36  H9  UNL     1       7.158   0.359   1.123  1.00  0.00     0.207 HD
ENDBRANCH  26  28
ENDBRANCH   3  24
BRANCH   5  37
HETATM   37  C14 UNL     1       1.792  -2.128  -2.264  1.00  0.00     0.413 C 
BRANCH  37  38
HETATM   38  N10 UNL     1       2.453  -1.676  -3.473  1.00  0.00    -0.046 N 
ATOM     39 3H10 UNL     1       2.091  -0.777  -3.792  1.00  0.00     0.277 HD
ATOM     40 2H10 UNL     1       3.418  -1.395  -3.298  1.00  0.00     0.277 HD
ATOM     41 1H10 UNL     1       2.390  -2.391  -4.198  1.00  0.00     0.277 HD
ENDBRANCH  37  38
BRANCH  37  42
HETATM   42  N11 UNL     1       2.485  -3.326  -1.824  1.00  0.00    -0.046 N 
ATOM     43 3H11 UNL     1       3.450  -3.136  -1.553  1.00  0.00     0.277 HD
ATOM     44 2H11 UNL     1       2.144  -3.660  -0.923  1.00  0.00     0.277 HD
ATOM     45 1H11 UNL     1       2.422  -4.041  -2.549  1.00  0.00     0.277 HD
ENDBRANCH  37  42
ENDBRANCH   5  37
TORSDOF 11
