REMARK  8 active torsions:
REMARK  status: ('A' for Active; 'I' for Inactive)
REMARK    1  A    between atoms: C1_2  and  C2_4 
REMARK    2  A    between atoms: C2_4  and  N2_5 
REMARK    3  A    between atoms: C2_4  and  C13_28 
REMARK       I    between atoms: N2_5  and  C3_7 
REMARK    4  A    between atoms: C3_7  and  C4_9 
REMARK    5  A    between atoms: C6_11  and  N3_12 
REMARK       I    between atoms: N3_12  and  C7_14 
REMARK    6  A    between atoms: C7_14  and  C8_16 
REMARK    7  A    between atoms: C8_16  and  C9_17 
REMARK       I    between atoms: C9_17  and  N4_19 
REMARK    8  A    between atoms: N4_19  and  C10_21 
ROOT
HETATM    1  C4  UNL     1       1.863   1.435  -0.844  1.00  0.00     0.081 C 
HETATM    2  C5  UNL     1       0.899   0.812  -1.812  1.00  0.00     0.039 C 
HETATM    3  C6  UNL     1      -0.186   0.952  -0.769  1.00  0.00     0.086 C 
HETATM    4  C12 UNL     1       0.913   1.017   0.279  1.00  0.00     0.039 C 
ENDROOT
BRANCH   3   5
HETATM    5  N3  UNL     1      -1.045  -0.181  -0.618  1.00  0.00    -0.356 N 
HETATM    6  C7  UNL     1      -2.452   0.028  -0.518  1.00  0.00     0.226 C 
HETATM    7  O3  UNL     1      -2.910   1.189  -0.564  1.00  0.00    -0.273 OA
ATOM      8  H3  UNL     1      -0.657  -1.124  -0.582  1.00  0.00     0.162 HD
BRANCH   6   9
HETATM    9  C8  UNL     1      -3.290  -1.181  -0.363  1.00  0.00     0.205 C 
BRANCH   9  10
HETATM   10  C9  UNL     1      -4.726  -0.847  -0.270  1.00  0.00     0.230 C 
HETATM   11  O4  UNL     1      -5.088   0.348  -0.326  1.00  0.00    -0.273 OA
HETATM   12  N4  UNL     1      -5.694  -1.862  -0.119  1.00  0.00    -0.300 N 
ATOM     13  H4  UNL     1      -5.399  -2.837  -0.074  1.00  0.00     0.167 HD
BRANCH  12  14
HETATM   14  C10 UNL     1      -7.081  -1.540  -0.029  1.00  0.00     0.366 A 
HETATM   15  F1  UNL     1      -7.519  -0.348  -0.620  1.00  0.00    -0.184 F 
HETATM   16  C11 UNL     1      -8.106  -2.586   0.130  1.00  0.00     0.336 A 
HETATM   17  N5  UNL     1      -7.671  -1.837   1.278  1.00  0.00    -0.011 N 
ATOM     18  H52 UNL     1      -7.293  -2.086   2.192  1.00  0.00     0.283 HD
ATOM     19  H51 UNL     1      -8.145  -1.282   1.990  1.00  0.00     0.283 HD
ENDBRANCH  12  14
ENDBRANCH   9  10
ENDBRANCH   6   9
ENDBRANCH   3   5
BRANCH   1  20
HETATM   20  C3  UNL     1       3.163   0.746  -0.712  1.00  0.00     0.222 C 
HETATM   21  N2  UNL     1       4.122   1.283   0.188  1.00  0.00    -0.345 N 
ATOM     22  H2  UNL     1       3.883   2.125   0.712  1.00  0.00     0.163 HD
HETATM   23  O2  UNL     1       3.369  -0.284  -1.397  1.00  0.00    -0.273 OA
BRANCH  21  24
HETATM   24  C2  UNL     1       5.419   0.687   0.391  1.00  0.00     0.206 C 
BRANCH  24  25
HETATM   25  C1  UNL     1       5.590   0.357   1.797  1.00  0.00     0.256 C 
HETATM   26  N1  UNL     1       6.780  -0.243   2.279  1.00  0.00    -0.060 NA
HETATM   27  O1  UNL     1       4.680   0.598   2.620  1.00  0.00    -0.274 OA
ENDBRANCH  24  25
BRANCH  24  28
HETATM   28  C13 UNL     1       6.475   1.628  -0.142  1.00  0.00     0.209 C 
HETATM   29 CL1  UNL     1       6.518   3.171   0.689  1.00  0.00    -0.105 Cl
HETATM   30 CL2  UNL     1       8.082   0.911  -0.154  1.00  0.00    -0.105 Cl
ENDBRANCH  24  28
ENDBRANCH  21  24
ENDBRANCH   1  20
TORSDOF 8
