REMARK  12 active torsions:
REMARK  status: ('A' for Active; 'I' for Inactive)
REMARK    1  A    between atoms: C2_2  and  N1_3 
REMARK    2  A    between atoms: N1_3  and  C3_4 
REMARK    3  A    between atoms: N1_3  and  C5_6 
REMARK    4  A    between atoms: C6_9  and  N3_10 
REMARK    5  A    between atoms: C9_22  and  N7_23 
REMARK    6  A    between atoms: C10_25  and  C11_26 
REMARK    7  A    between atoms: C11_26  and  N8_27 
REMARK    8  A    between atoms: N8_27  and  C12_30 
REMARK    9  A    between atoms: C12_30  and  C13_31 
REMARK   10  A    between atoms: C13_31  and  C14_32 
REMARK   11  A    between atoms: C14_32  and  N9_33 
REMARK   12  A    between atoms: N9_33  and  C16_35 
ROOT
HETATM    1  C5  UNL     1      -5.080  -0.333  -0.444  1.00  0.00     0.682 A 
HETATM    2  N2  UNL     1      -5.699  -1.492  -0.254  1.00  0.00    -0.175 N 
ATOM      3  H2  UNL     1      -6.662  -1.575  -0.580  1.00  0.00     0.186 HD
HETATM    4  C6  UNL     1      -5.135  -2.583   0.348  1.00  0.00     0.144 A 
HETATM    5  C7  UNL     1      -3.805  -2.455   0.793  1.00  0.00     0.124 A 
HETATM    6  N4  UNL     1      -3.171  -3.439   1.409  1.00  0.00    -0.186 N 
ATOM      7  H4  UNL     1      -3.635  -4.335   1.559  1.00  0.00     0.184 HD
HETATM    8  C8  UNL     1      -1.875  -3.243   1.848  1.00  0.00     0.678 A 
HETATM    9  N5  UNL     1      -1.314  -4.183   2.422  1.00  0.00    -0.234 N 
ATOM     10  H51 UNL     1      -0.358  -4.038   2.746  1.00  0.00     0.174 HD
ATOM     11  H52 UNL     1      -1.792  -5.073   2.564  1.00  0.00     0.174 HD
HETATM   12  N6  UNL     1      -1.240  -2.062   1.660  1.00  0.00    -0.174 N 
ATOM     13  H6  UNL     1      -0.284  -1.959   2.001  1.00  0.00     0.186 HD
HETATM   14  C9  UNL     1      -1.828  -1.010   1.035  1.00  0.00     0.150 A 
HETATM   15  C20 UNL     1      -3.158  -1.263   0.603  1.00  0.00     0.124 A 
HETATM   16  N10 UNL     1      -3.807  -0.230  -0.012  1.00  0.00    -0.185 N 
ATOM     17  H10 UNL     1      -3.311   0.651  -0.149  1.00  0.00     0.184 HD
ENDROOT
BRANCH  14  18
HETATM   18  N7  UNL     1      -1.397   0.116   0.870  1.00  0.00    -0.352 N 
HETATM   19  C10 UNL     1      -0.363   0.957   1.090  1.00  0.00     0.090 C 
ATOM     20  H7  UNL     1      -2.106   0.638   0.355  1.00  0.00     0.166 HD
BRANCH  19  21
HETATM   21  C11 UNL     1       1.046   0.491   1.189  1.00  0.00     0.276 C 
BRANCH  21  22
HETATM   22  N8  UNL     1       1.557  -0.076  -0.038  1.00  0.00    -0.070 N 
ATOM     23  H82 UNL     1       0.971  -0.822  -0.412  1.00  0.00     0.277 HD
ATOM     24  H81 UNL     1       1.484   0.556  -0.835  1.00  0.00     0.277 HD
BRANCH  22  25
HETATM   25  C12 UNL     1       2.953  -0.509   0.243  1.00  0.00     0.237 C 
BRANCH  25  26
HETATM   26  C13 UNL     1       3.658  -0.679  -1.039  1.00  0.00     0.072 C 
BRANCH  26  27
HETATM   27  C14 UNL     1       5.071  -1.166  -1.018  1.00  0.00     0.059 C 
BRANCH  27  28
HETATM   28  N9  UNL     1       5.953  -0.384  -0.263  1.00  0.00    -0.393 N 
HETATM   29  C15 UNL     1       5.908  -0.408   1.146  1.00  0.00     0.149 C 
BRANCH  28  30
HETATM   30  C16 UNL     1       7.144   0.098  -0.867  1.00  0.00     0.083 A 
HETATM   31  C17 UNL     1       6.930   1.046  -2.034  1.00  0.00     0.025 A 
HETATM   32  C18 UNL     1       7.340   2.234  -1.222  1.00  0.00     0.004 A 
HETATM   33  C19 UNL     1       7.659   1.314  -0.074  1.00  0.00     0.025 A 
ENDBRANCH  28  30
ENDBRANCH  27  28
ENDBRANCH  26  27
ENDBRANCH  25  26
ENDBRANCH  22  25
ENDBRANCH  21  22
ENDBRANCH  19  21
ENDBRANCH  14  18
BRANCH   4  34
HETATM   34  N3  UNL     1      -5.771  -3.653   0.515  1.00  0.00    -0.383 N 
ATOM     35  H32 UNL     1      -6.734  -3.746   0.193  1.00  0.00     0.157 HD
ATOM     36  H31 UNL     1      -5.350  -4.467   0.964  1.00  0.00     0.157 HD
ENDBRANCH   4  34
BRANCH   1  37
HETATM   37  N1  UNL     1      -5.718   0.817  -1.043  1.00  0.00    -0.218 N 
BRANCH  37  38
HETATM   38  C2  UNL     1      -7.132   0.749  -1.306  1.00  0.00     0.136 C 
HETATM   39  C1  UNL     1      -7.878   1.666  -0.395  1.00  0.00     0.027 C 
ENDBRANCH  37  38
BRANCH  37  40
HETATM   40  C3  UNL     1      -4.968   2.000  -1.363  1.00  0.00     0.136 C 
HETATM   41  C4  UNL     1      -5.227   3.176  -0.467  1.00  0.00     0.027 C 
ENDBRANCH  37  40
ENDBRANCH   1  37
TORSDOF 12
