REMARK  12 active torsions:
REMARK  status: ('A' for Active; 'I' for Inactive)
REMARK    1  A    between atoms: C2_2  and  C3_3 
REMARK    2  A    between atoms: C6_6  and  C7_7 
REMARK    3  A    between atoms: C7_7  and  C8_8 
REMARK    4  A    between atoms: C8_8  and  C9_9 
REMARK    5  A    between atoms: C9_9  and  C10_10 
REMARK    6  A    between atoms: C10_10  and  C11_11 
REMARK    7  A    between atoms: C11_11  and  N1_12 
REMARK    8  A    between atoms: C13_20  and  C14_21 
REMARK    9  A    between atoms: C16_27  and  C17_28 
REMARK   10  A    between atoms: C17_28  and  C18_29 
REMARK   11  A    between atoms: C18_29  and  C19_30 
REMARK   12  A    between atoms: C19_30  and  N4_31 
REMARK       I    between atoms: N4_31  and  C20_33 
ROOT
HETATM    1  C3  UNL     1      -0.299  -2.350   1.092  1.00  0.00     0.099 C 
HETATM    2  C4  UNL     1       0.514  -1.402   1.908  1.00  0.00     0.020 C 
HETATM    3  C5  UNL     1       1.883  -1.154   1.331  1.00  0.00     0.026 C 
HETATM    4  C6  UNL     1       1.983   0.215   0.639  1.00  0.00     0.084 C 
HETATM    5  N2  UNL     1       1.250   1.203   1.386  1.00  0.00    -0.354 N 
ATOM      6  H2  UNL     1       1.340   1.150   2.401  1.00  0.00     0.162 HD
HETATM    7  C12 UNL     1       0.426   2.231   0.897  1.00  0.00     0.247 C 
HETATM    8  O1  UNL     1      -0.044   3.097   1.723  1.00  0.00    -0.271 OA
HETATM    9  C13 UNL     1       0.013   2.452  -0.508  1.00  0.00     0.238 C 
HETATM   10  N3  UNL     1      -0.486   1.325  -1.203  1.00  0.00    -0.340 N 
ATOM     11  H3  UNL     1       0.135   0.938  -1.914  1.00  0.00     0.163 HD
HETATM   12  C15 UNL     1      -1.726   0.659  -1.051  1.00  0.00     0.241 C 
HETATM   13  O3  UNL     1      -2.376   0.331  -2.109  1.00  0.00    -0.271 OA
HETATM   14  C16 UNL     1      -2.373   0.288   0.227  1.00  0.00     0.176 C 
HETATM   15  N7  UNL     1      -2.491  -1.149   0.375  1.00  0.00    -0.347 N 
ATOM     16  H7  UNL     1      -3.238  -1.572  -0.176  1.00  0.00     0.163 HD
HETATM   17  C21 UNL     1      -1.760  -2.046   1.139  1.00  0.00     0.226 C 
HETATM   18  O4  UNL     1      -2.418  -2.728   2.023  1.00  0.00    -0.273 OA
ENDROOT
BRANCH  14  19
HETATM   19  C17 UNL     1      -3.692   0.980   0.466  1.00  0.00     0.036 C 
BRANCH  19  20
HETATM   20  C18 UNL     1      -4.769   0.757  -0.509  1.00  0.00     0.022 C 
BRANCH  20  21
HETATM   21  C19 UNL     1      -5.986   1.559  -0.005  1.00  0.00     0.122 C 
BRANCH  21  22
HETATM   22  N4  UNL     1      -7.101   1.407  -0.892  1.00  0.00    -0.365 N 
HETATM   23  C20 UNL     1      -7.785   0.162  -1.033  1.00  0.00     0.181 C 
HETATM   24  N5  UNL     1      -7.815  -0.370  -2.196  1.00  0.00    -0.374 N 
HETATM   25  N6  UNL     1      -8.418  -0.497   0.036  1.00  0.00    -0.064 NA
ATOM     26  H52 UNL     1      -7.356   0.108  -2.971  1.00  0.00     0.158 HD
ATOM     27  H51 UNL     1      -8.304  -1.260  -2.297  1.00  0.00     0.158 HD
ATOM     28  H4  UNL     1      -7.414   2.210  -1.437  1.00  0.00     0.162 HD
ENDBRANCH  21  22
ENDBRANCH  20  21
ENDBRANCH  19  20
ENDBRANCH  14  19
BRANCH   9  29
HETATM   29  C14 UNL     1      -0.867   3.655  -0.637  1.00  0.00     0.266 C 
HETATM   30  O2  UNL     1      -1.899   3.691  -1.263  1.00  0.00    -0.304 OA
ENDBRANCH   9  29
BRANCH   1  31
HETATM   31  C2  UNL     1       0.207  -2.561  -0.291  1.00  0.00    -0.023 C 
HETATM   32  C1  UNL     1       0.764  -3.721  -0.702  1.00  0.00     0.008 C 
ENDBRANCH   1  31
BRANCH   4  33
HETATM   33  C7  UNL     1       3.455   0.623   0.686  1.00  0.00     0.025 C 
BRANCH  33  34
HETATM   34  C8  UNL     1       4.330  -0.375  -0.026  1.00  0.00     0.002 C 
BRANCH  34  35
HETATM   35  C9  UNL     1       5.769   0.081   0.057  1.00  0.00     0.002 C 
BRANCH  35  36
HETATM   36  C10 UNL     1       6.700  -0.886  -0.643  1.00  0.00     0.027 C 
BRANCH  36  37
HETATM   37  C11 UNL     1       8.136  -0.441  -0.564  1.00  0.00     0.229 C 
BRANCH  37  38
HETATM   38  N1  UNL     1       8.359   0.855  -1.173  1.00  0.00    -0.079 N 
ATOM     39  H13 UNL     1       8.026   0.867  -2.137  1.00  0.00     0.274 HD
ATOM     40  H12 UNL     1       7.737   1.558  -0.773  1.00  0.00     0.274 HD
ATOM     41  H11 UNL     1       9.332   1.157  -1.119  1.00  0.00     0.274 HD
ENDBRANCH  37  38
ENDBRANCH  36  37
ENDBRANCH  35  36
ENDBRANCH  34  35
ENDBRANCH  33  34
ENDBRANCH   4  33
TORSDOF 12
