REMARK  13 active torsions:
REMARK  status: ('A' for Active; 'I' for Inactive)
REMARK    1  A    between atoms: C3_3  and  O1_4 
REMARK    2  A    between atoms: C12_16  and  N2_17 
REMARK    3  A    between atoms: N2_17  and  C13_18 
REMARK    4  A    between atoms: C14_20  and  N3_21 
REMARK    5  A    between atoms: N3_21  and  C15_23 
REMARK    6  A    between atoms: C15_23  and  C16_24 
REMARK    7  A    between atoms: C16_24  and  O3_25 
REMARK    8  A    between atoms: O3_25  and  C17_26 
REMARK    9  A    between atoms: C17_26  and  C18_27 
REMARK   10  A    between atoms: C18_27  and  O4_28 
REMARK   11  A    between atoms: O4_28  and  C19_29 
REMARK   12  A    between atoms: C19_29  and  C20_30 
REMARK   13  A    between atoms: C20_30  and  N4_31 
REMARK       I    between atoms: N4_31  and  C21_33 
ROOT
HETATM    1  C1  UNL     1      -8.330  -0.339  -0.546  1.00  0.00     0.052 C 
HETATM    2  C2  UNL     1      -7.085   0.297  -0.147  1.00  0.00    -0.022 A 
HETATM    3  C3  UNL     1      -7.046   1.655   0.080  1.00  0.00     0.074 A 
HETATM    4  C4  UNL     1      -5.886   2.287   0.467  1.00  0.00     0.067 A 
HETATM    5  C5  UNL     1      -4.715   1.581   0.642  1.00  0.00     0.046 A 
HETATM    6  N1  UNL     1      -3.468   1.912   1.016  1.00  0.00    -0.358 N 
ATOM      7  H1  UNL     1      -3.136   2.847   1.252  1.00  0.00     0.166 HD
HETATM    8  C6  UNL     1      -2.747   0.795   1.021  1.00  0.00     0.019 A 
HETATM    9  C7  UNL     1      -3.525  -0.284   0.646  1.00  0.00    -0.019 A 
HETATM   10  C8  UNL     1      -4.774   0.202   0.405  1.00  0.00     0.005 A 
HETATM   11  C9  UNL     1      -5.940  -0.421   0.019  1.00  0.00    -0.040 A 
HETATM   12  C10 UNL     1      -5.988  -1.867  -0.214  1.00  0.00     0.050 C 
HETATM   13  C11 UNL     1      -2.869  -1.576   0.595  1.00  0.00     0.083 C 
HETATM   14  C12 UNL     1      -1.485  -1.505  -0.106  1.00  0.00     0.193 C 
HETATM   15  C14 UNL     1      -0.611  -0.454   0.550  1.00  0.00     0.122 C 
HETATM   16  C22 UNL     1      -1.351   0.543   1.370  1.00  0.00     0.085 C 
ENDROOT
BRANCH  15  17
HETATM   17  N3  UNL     1       0.327   0.076  -0.354  1.00  0.00    -0.392 N 
ATOM     18  H3  UNL     1       0.558  -0.442  -1.202  1.00  0.00     0.159 HD
BRANCH  17  19
HETATM   19  C15 UNL     1       0.942   1.295  -0.106  1.00  0.00     0.082 C 
BRANCH  19  20
HETATM   20  C16 UNL     1       1.912   1.419   1.015  1.00  0.00     0.211 C 
BRANCH  20  21
HETATM   21  O3  UNL     1       3.049   0.694   0.996  1.00  0.00    -0.384 OA
BRANCH  21  22
HETATM   22  C17 UNL     1       3.079  -0.636   0.824  1.00  0.00     0.194 C 
BRANCH  22  23
HETATM   23  C18 UNL     1       4.439  -1.248   1.002  1.00  0.00     0.193 C 
BRANCH  23  24
HETATM   24  O4  UNL     1       5.436  -0.803   0.185  1.00  0.00    -0.387 OA
BRANCH  24  25
HETATM   25  C19 UNL     1       5.743   0.528   0.231  1.00  0.00     0.187 C 
BRANCH  25  26
HETATM   26  C20 UNL     1       7.028   0.834  -0.552  1.00  0.00     0.148 C 
BRANCH  26  27
HETATM   27  N4  UNL     1       8.072   0.050   0.094  1.00  0.00    -0.363 N 
HETATM   28  C21 UNL     1       9.445   0.076  -0.258  1.00  0.00     0.181 C 
HETATM   29  N5  UNL     1      10.158   1.160  -0.193  1.00  0.00    -0.374 N 
HETATM   30  N6  UNL     1      10.084  -1.108  -0.686  1.00  0.00    -0.064 NA
ATOM     31  H52 UNL     1       9.696   2.015   0.116  1.00  0.00     0.158 HD
ATOM     32  H51 UNL     1      11.146   1.179  -0.446  1.00  0.00     0.158 HD
ATOM     33  H4  UNL     1       7.794  -0.565   0.859  1.00  0.00     0.162 HD
ENDBRANCH  26  27
ENDBRANCH  25  26
ENDBRANCH  24  25
ENDBRANCH  23  24
ENDBRANCH  22  23
ENDBRANCH  21  22
ENDBRANCH  20  21
ENDBRANCH  19  20
ENDBRANCH  17  19
ENDBRANCH  15  17
BRANCH  14  34
HETATM   34  N2  UNL     1      -1.713  -1.367  -1.461  1.00  0.00    -0.415 NA
BRANCH  34  35
HETATM   35  C13 UNL     1      -1.936  -1.232  -2.788  1.00  0.00     0.435 C 
HETATM   36  O2  UNL     1      -1.427  -1.881  -3.735  1.00  0.00    -0.269 OA
ENDBRANCH  34  35
ENDBRANCH  14  34
BRANCH   3  37
HETATM   37  O1  UNL     1      -8.199   2.395  -0.084  1.00  0.00    -0.360 OA
ATOM     38  H1  UNL     1      -8.172   3.332   0.073  1.00  0.00     0.217 HD
ENDBRANCH   3  37
TORSDOF 13
