REMARK  4 active torsions:
REMARK  status: ('A' for Active; 'I' for Inactive)
REMARK    1  A    between atoms: N1_1  and  C1_4 
REMARK    2  A    between atoms: C2_9  and  N4_10 
REMARK    3  A    between atoms: N4_10  and  S1_12 
REMARK    4  A    between atoms: S1_12  and  N5_13 
ROOT
HETATM    1  C1  UNL     1       2.215   0.583   0.411  1.00  0.00     0.705 A 
HETATM    2  N2  UNL     1       1.706   0.383  -0.818  1.00  0.00    -0.118 N 
ATOM      3  H2  UNL     1       2.172   0.552  -1.710  1.00  0.00     0.206 HD
HETATM    4  N3  UNL     1       0.498  -0.071  -0.639  1.00  0.00    -0.117 N 
ATOM      5  H3  UNL     1      -0.146  -0.319  -1.390  1.00  0.00     0.206 HD
HETATM    6  C2  UNL     1       0.217  -0.168   0.670  1.00  0.00     0.722 A 
HETATM    7  N6  UNL     1       1.307   0.247   1.328  1.00  0.00    -0.019 N 
ATOM      8  H6  UNL     1       1.421   0.297   2.340  1.00  0.00     0.203 HD
ENDROOT
BRANCH   6   9
HETATM    9  N4  UNL     1      -0.907  -0.588   1.199  1.00  0.00    -0.098 N 
ATOM     10  H4  UNL     1      -1.024  -0.626   2.212  1.00  0.00     0.199 HD
BRANCH   9  11
HETATM   11  S1  UNL     1      -2.174  -1.072   0.154  1.00  0.00     0.330 S 
HETATM   12  O1  UNL     1      -3.306  -1.613   0.990  1.00  0.00    -0.182 OA
HETATM   13  O2  UNL     1      -1.679  -2.151  -0.749  1.00  0.00    -0.182 OA
BRANCH  11  14
HETATM   14  N5  UNL     1      -2.662   0.276  -0.777  1.00  0.00    -0.311 N 
ATOM     15  H52 UNL     1      -2.255   1.209  -0.710  1.00  0.00     0.170 HD
ATOM     16  H51 UNL     1      -3.417  -0.012  -1.400  1.00  0.00     0.170 HD
ENDBRANCH  11  14
ENDBRANCH   9  11
ENDBRANCH   6   9
BRANCH   1  17
HETATM   17  N1  UNL     1       3.409   1.034   0.668  1.00  0.00    -0.233 N 
ATOM     18  H12 UNL     1       4.104   1.291  -0.033  1.00  0.00     0.174 HD
ATOM     19  H11 UNL     1       3.795   1.186   1.600  1.00  0.00     0.174 HD
ENDBRANCH   1  17
TORSDOF 4
