REMARK  3 active torsions:
REMARK  status: ('A' for Active; 'I' for Inactive)
REMARK    1  A    between atoms: N1_1  and  N2_4 
REMARK       I    between atoms: N2_4  and  C1_6 
REMARK    2  A    between atoms: C1_6  and  C2_8 
REMARK       I    between atoms: C2_8  and  N3_10 
REMARK    3  A    between atoms: N3_10  and  N4_12 
ROOT
HETATM    1  C2  UNL     1       0.712   0.339   0.182  1.00  0.00     0.329 C 
HETATM    2  O2  UNL     1       0.575   0.542   1.430  1.00  0.00    -0.261 OA
HETATM    3  N3  UNL     1      -0.319   0.662  -0.742  1.00  0.00    -0.260 N 
ATOM      4  H3  UNL     1      -0.203   0.497  -1.742  1.00  0.00     0.190 HD
ENDROOT
BRANCH   1   5
HETATM    5  C1  UNL     1       1.967  -0.235  -0.244  1.00  0.00     0.329 C 
HETATM    6  N2  UNL     1       3.017  -0.570   0.644  1.00  0.00    -0.268 N 
ATOM      7  H2  UNL     1       2.898  -0.404   1.643  1.00  0.00     0.190 HD
HETATM    8  O1  UNL     1       2.130  -0.447  -1.473  1.00  0.00    -0.261 OA
BRANCH   6   9
HETATM    9  N1  UNL     1       4.213  -1.124   0.180  1.00  0.00    -0.342 N 
ATOM     10  H12 UNL     1       4.315  -1.284  -0.822  1.00  0.00     0.176 HD
ATOM     11  H11 UNL     1       4.970  -1.365   0.820  1.00  0.00     0.176 HD
ENDBRANCH   6   9
ENDBRANCH   1   5
BRANCH   3  12
HETATM   12  N4  UNL     1      -1.499   1.214  -0.231  1.00  0.00    -0.273 N 
HETATM   13  C3  UNL     1      -2.582   0.543  -0.060  1.00  0.00     0.215 C 
HETATM   14  N5  UNL     1      -3.705   1.227   0.467  1.00  0.00    -0.065 NA
HETATM   15  N6  UNL     1      -2.743  -0.833  -0.359  1.00  0.00    -0.065 NA
ATOM     16  H4  UNL     1      -1.500   2.203   0.019  1.00  0.00     0.189 HD
ENDBRANCH   3  12
TORSDOF 3
