REMARK  8 active torsions:
REMARK  status: ('A' for Active; 'I' for Inactive)
REMARK    1  A    between atoms: C3_5  and  O2_6 
REMARK    2  A    between atoms: C4_8  and  C5_9 
REMARK    3  A    between atoms: C5_9  and  O3_10 
REMARK    4  A    between atoms: C5_9  and  C6_12 
REMARK       I    between atoms: C6_12  and  N2_14 
REMARK       I    between atoms: N2_14  and  C7_16 
REMARK       I    between atoms: C7_16  and  N3_18 
REMARK    5  A    between atoms: N3_18  and  C8_20 
REMARK    6  A    between atoms: C10_22  and  N4_23 
REMARK    7  A    between atoms: N4_23  and  C11_25 
REMARK    8  A    between atoms: C12_31  and  N7_32 
ROOT
HETATM    1  C6  UNL     1       1.673  -0.523  -2.014  1.00  0.00     0.259 C 
HETATM    2  O4  UNL     1       1.316  -1.106  -0.970  1.00  0.00    -0.270 OA
HETATM    3  N2  UNL     1       0.876   0.422  -2.657  1.00  0.00    -0.277 N 
ATOM      4  H2  UNL     1       1.250   0.847  -3.505  1.00  0.00     0.173 HD
HETATM    5  C7  UNL     1      -0.388   0.836  -2.241  1.00  0.00     0.324 C 
HETATM    6  O5  UNL     1      -0.960   1.726  -2.982  1.00  0.00    -0.247 OA
HETATM    7  N3  UNL     1      -1.092   0.408  -1.136  1.00  0.00    -0.320 N 
ATOM      8  H3  UNL     1      -0.686  -0.293  -0.516  1.00  0.00     0.166 HD
ENDROOT
BRANCH   7   9
HETATM    9  C8  UNL     1      -2.416   0.952  -0.847  1.00  0.00     0.204 C 
HETATM   10  C9  UNL     1      -3.430  -0.167  -0.760  1.00  0.00     0.096 C 
HETATM   11  C10 UNL     1      -4.333   0.400   0.332  1.00  0.00     0.202 C 
HETATM   12  N8  UNL     1      -3.482   1.271   1.040  1.00  0.00    -0.316 N 
HETATM   13  N9  UNL     1      -2.483   1.558   0.425  1.00  0.00    -0.315 N 
ATOM     14  H8  UNL     1      -3.688   1.623   1.975  1.00  0.00     0.182 HD
ATOM     15  H9  UNL     1      -1.759   2.177   0.789  1.00  0.00     0.182 HD
BRANCH  11  16
HETATM   16  N4  UNL     1      -4.780  -0.640   1.203  1.00  0.00    -0.349 N 
ATOM     17  H4  UNL     1      -4.476  -1.598   1.027  1.00  0.00     0.163 HD
BRANCH  16  18
HETATM   18  C11 UNL     1      -5.630  -0.381   2.300  1.00  0.00     0.171 A 
HETATM   19  N5  UNL     1      -6.150   0.799   2.713  1.00  0.00    -0.222 N 
HETATM   20  O6  UNL     1      -6.884   0.607   3.764  1.00  0.00    -0.153 OA
ATOM     21  H5  UNL     1      -5.989   1.701   2.265  1.00  0.00     0.198 HD
HETATM   22  N6  UNL     1      -6.892  -0.642   4.090  1.00  0.00    -0.222 N 
HETATM   23  C12 UNL     1      -6.125  -1.307   3.209  1.00  0.00     0.167 A 
ATOM     24  H6  UNL     1      -7.393  -1.052   4.878  1.00  0.00     0.198 HD
BRANCH  23  25
HETATM   25  N7  UNL     1      -5.912  -2.578   3.238  1.00  0.00    -0.381 N 
ATOM     26  H72 UNL     1      -5.330  -3.083   2.569  1.00  0.00     0.157 HD
ATOM     27  H71 UNL     1      -6.276  -3.258   3.906  1.00  0.00     0.157 HD
ENDBRANCH  23  25
ENDBRANCH  16  18
ENDBRANCH  11  16
ENDBRANCH   7   9
BRANCH   1  28
HETATM   28  C5  UNL     1       3.041  -0.908  -2.549  1.00  0.00     0.253 C 
BRANCH  28  29
HETATM   29  C4  UNL     1       4.010  -0.614  -1.469  1.00  0.00     0.101 A 
HETATM   30  C3  UNL     1       4.031   0.537  -0.719  1.00  0.00     0.185 A 
HETATM   31  N1  UNL     1       4.948   0.752   0.268  1.00  0.00    -0.173 N 
HETATM   32  O1  UNL     1       5.445   1.502   1.204  1.00  0.00    -0.224 OA
HETATM   33  C14 UNL     1       5.882  -0.169   0.549  1.00  0.00     0.174 A 
HETATM   34  C2  UNL     1       6.385   0.654   1.538  1.00  0.00     0.136 A 
HETATM   35  C1  UNL     1       7.381   0.561   2.402  1.00  0.00     0.057 C 
HETATM   36  N10 UNL     1       5.876  -1.309  -0.180  1.00  0.00    -0.305 N 
HETATM   37  C13 UNL     1       4.993  -1.562  -1.159  1.00  0.00     0.260 A 
ATOM     38  H10 UNL     1       6.582  -2.016   0.026  1.00  0.00     0.171 HD
HETATM   39  O7  UNL     1       5.010  -2.633  -1.822  1.00  0.00    -0.267 OA
BRANCH  30  40
HETATM   40  O2  UNL     1       3.095   1.512  -0.967  1.00  0.00    -0.344 OA
ATOM     41  H2  UNL     1       2.456   1.362  -1.654  1.00  0.00     0.219 HD
ENDBRANCH  30  40
ENDBRANCH  28  29
BRANCH  28  42
HETATM   42  O3  UNL     1       3.309  -0.158  -3.673  1.00  0.00    -0.381 OA
ATOM     43  H3  UNL     1       2.687  -0.347  -4.366  1.00  0.00     0.211 HD
ENDBRANCH  28  42
ENDBRANCH   1  28
TORSDOF 8
