REMARK  9 active torsions:
REMARK  status: ('A' for Active; 'I' for Inactive)
REMARK    1  A    between atoms: N1_1  and  C1_4 
REMARK    2  A    between atoms: N3_8  and  O1_10 
REMARK    3  A    between atoms: C3_14  and  N5_15 
REMARK    4  A    between atoms: C6_20  and  C7_21 
REMARK    5  A    between atoms: C8_25  and  C9_26 
REMARK    6  A    between atoms: N13_38  and  C10_39 
REMARK    7  A    between atoms: C10_39  and  C11_40 
REMARK    8  A    between atoms: C11_40  and  O3_41 
REMARK    9  A    between atoms: C11_40  and  C12_43 
ROOT
HETATM    1  C1  UNL     1       0.176   2.554  -0.155  1.00  0.00     0.130 C 
HETATM    2  N2  UNL     1      -0.855   3.376   0.243  1.00  0.00    -0.174 N 
ATOM      3  H2  UNL     1      -0.591   4.193   0.793  1.00  0.00     0.186 HD
HETATM    4  C2  UNL     1      -2.183   3.228  -0.010  1.00  0.00     0.705 C 
HETATM    5  N3  UNL     1      -2.960   4.162   0.475  1.00  0.00    -0.098 N 
ATOM      6  H3  UNL     1      -3.968   4.117   0.324  1.00  0.00     0.213 HD
HETATM    7  N4  UNL     1      -2.821   2.238  -0.704  1.00  0.00    -0.173 N 
ATOM      8  H4  UNL     1      -3.814   2.393  -0.881  1.00  0.00     0.186 HD
HETATM    9  C3  UNL     1      -2.318   1.090  -1.184  1.00  0.00     0.144 C 
HETATM   10  C4  UNL     1      -1.134   0.513  -0.797  1.00  0.00     0.111 A 
HETATM   11  C5  UNL     1      -0.009   1.184  -0.299  1.00  0.00     0.072 A 
HETATM   12  C6  UNL     1       0.922   0.229  -0.030  1.00  0.00     0.110 A 
HETATM   13  N12 UNL     1       0.329  -0.947  -0.377  1.00  0.00    -0.293 N 
ATOM     14  H12 UNL     1       0.791  -1.852  -0.290  1.00  0.00     0.187 HD
HETATM   15  N13 UNL     1      -0.891  -0.804  -0.833  1.00  0.00    -0.284 N 
ENDROOT
BRANCH  12  16
HETATM   16  C7  UNL     1       2.267   0.366   0.511  1.00  0.00     0.157 A 
HETATM   17  N6  UNL     1       3.017   1.310   1.000  1.00  0.00    -0.241 N 
HETATM   18  O2  UNL     1       4.182   0.864   1.309  1.00  0.00    -0.214 OA
ATOM     19  H6  UNL     1       2.719   2.278   1.122  1.00  0.00     0.196 HD
HETATM   20  C8  UNL     1       4.265  -0.418   1.035  1.00  0.00     0.218 A 
HETATM   21  N11 UNL     1       3.085  -0.744   0.539  1.00  0.00    -0.315 N 
ATOM     22  H11 UNL     1       2.819  -1.677   0.224  1.00  0.00     0.169 HD
BRANCH  20  23
HETATM   23  C9  UNL     1       5.421  -1.279   1.242  1.00  0.00     0.188 A 
HETATM   24  N7  UNL     1       5.499  -2.598   0.959  1.00  0.00    -0.268 N 
HETATM   25  N8  UNL     1       6.696  -3.040   1.280  1.00  0.00    -0.225 N 
ATOM     26  H7  UNL     1       4.749  -3.162   0.560  1.00  0.00     0.190 HD
HETATM   27  N9  UNL     1       7.421  -2.050   1.772  1.00  0.00    -0.005 NA
ATOM     28  H8  UNL     1       7.016  -4.002   1.166  1.00  0.00     0.205 HD
HETATM   29  N10 UNL     1       6.627  -0.968   1.745  1.00  0.00    -0.263 N 
ATOM     30  H10 UNL     1       6.901  -0.038   2.063  1.00  0.00     0.186 HD
ENDBRANCH  20  23
ENDBRANCH  12  16
BRANCH   1  31
HETATM   31  N1  UNL     1       1.259   3.022  -0.424  1.00  0.00    -0.384 N 
ATOM     32  H12 UNL     1       1.395   4.027  -0.318  1.00  0.00     0.157 HD
ATOM     33  H11 UNL     1       2.023   2.413  -0.719  1.00  0.00     0.157 HD
ENDBRANCH   1  31
BRANCH  15  34
HETATM   34  C10 UNL     1      -1.735  -1.889  -1.243  1.00  0.00     0.192 C 
BRANCH  34  35
HETATM   35  C11 UNL     1      -2.532  -2.530  -0.129  1.00  0.00     0.238 C 
BRANCH  35  36
HETATM   36  O3  UNL     1      -3.394  -1.745   0.563  1.00  0.00    -0.383 OA
ATOM     37  H3  UNL     1      -3.895  -2.148   1.263  1.00  0.00     0.210 HD
ENDBRANCH  35  36
BRANCH  35  38
HETATM   38  C12 UNL     1      -3.176  -3.734  -0.733  1.00  0.00     0.204 C 
HETATM   39  O4  UNL     1      -2.445  -4.510  -1.391  1.00  0.00    -0.646 OA
HETATM   40  O5  UNL     1      -4.516  -4.044  -0.611  1.00  0.00    -0.646 OA
ENDBRANCH  35  38
ENDBRANCH  34  35
ENDBRANCH  15  34
BRANCH   9  41
HETATM   41  N5  UNL     1      -2.950   0.451  -2.074  1.00  0.00    -0.383 N 
ATOM     42  H52 UNL     1      -3.830   0.880  -2.362  1.00  0.00     0.157 HD
ATOM     43  H51 UNL     1      -2.568  -0.421  -2.439  1.00  0.00     0.157 HD
ENDBRANCH   9  41
BRANCH   5  44
HETATM   44  O1  UNL     1      -2.423   5.193   1.180  1.00  0.00    -0.276 OA
ATOM     45  H1  UNL     1      -2.987   5.871   1.532  1.00  0.00     0.245 HD
ENDBRANCH   5  44
TORSDOF 9
