REMARK  6 active torsions:
REMARK  status: ('A' for Active; 'I' for Inactive)
REMARK    1  A    between atoms: C2_2  and  O1_4 
REMARK    2  A    between atoms: O1_4  and  C4_5 
REMARK    3  A    between atoms: C4_5  and  C5_7 
REMARK    4  A    between atoms: C14_17  and  N1_19 
REMARK       I    between atoms: N1_19  and  C16_21 
REMARK    5  A    between atoms: C16_21  and  O5_23 
REMARK    6  A    between atoms: O5_23  and  C17_24 
ROOT
HETATM    1  C5  UNL     1       2.695   0.671   0.285  1.00  0.00     0.093 C 
HETATM    2  C6  UNL     1       1.720   0.781  -0.865  1.00  0.00     0.040 C 
HETATM    3  C7  UNL     1       0.802  -0.463  -0.860  1.00  0.00     0.089 C 
HETATM    4  C8  UNL     1      -0.313  -0.252  -1.787  1.00  0.00     0.030 C 
HETATM    5  C9  UNL     1      -0.531  -1.472  -2.699  1.00  0.00    -0.010 C 
HETATM    6  C10 UNL     1      -1.009  -1.033  -4.074  1.00  0.00     0.010 C 
HETATM    7  C11 UNL     1      -1.509  -2.448  -2.162  1.00  0.00     0.082 C 
HETATM    8  C12 UNL     1      -2.434  -1.851  -1.161  1.00  0.00     0.130 C 
HETATM    9  O3  UNL     1      -3.298  -1.105  -1.525  1.00  0.00    -0.298 OA
HETATM   10  C13 UNL     1      -2.244  -2.207   0.239  1.00  0.00     0.119 C 
HETATM   11  C14 UNL     1      -1.982  -1.108   1.199  1.00  0.00     0.119 C 
HETATM   12  C15 UNL     1      -2.383  -1.714   2.578  1.00  0.00     0.049 C 
HETATM   13  C19 UNL     1      -0.560  -0.688   1.316  1.00  0.00     0.249 C 
HETATM   14  O6  UNL     1      -0.355  -0.049   2.428  1.00  0.00    -0.270 OA
HETATM   15  N2  UNL     1       0.536  -0.840   0.506  1.00  0.00    -0.341 N 
HETATM   16  C20 UNL     1       1.747  -1.490   1.088  1.00  0.00     0.088 C 
HETATM   17  C21 UNL     1       1.811  -2.889   0.561  1.00  0.00     0.033 C 
HETATM   18  C22 UNL     1       2.991  -0.751   0.555  1.00  0.00     0.018 C 
HETATM   19  C23 UNL     1       4.052  -0.973   1.626  1.00  0.00     0.013 C 
ENDROOT
BRANCH  11  20
HETATM   20  N1  UNL     1      -2.863   0.035   1.083  1.00  0.00    -0.319 N 
HETATM   21  C16 UNL     1      -4.253   0.043   1.226  1.00  0.00     0.361 C 
HETATM   22  O4  UNL     1      -4.876  -1.029   1.482  1.00  0.00    -0.238 OA
ATOM     23  H1  UNL     1      -2.422   0.931   0.874  1.00  0.00     0.166 HD
BRANCH  21  24
HETATM   24  O5  UNL     1      -5.037   1.185   1.106  1.00  0.00    -0.304 OA
BRANCH  24  25
HETATM   25  C17 UNL     1      -6.444   1.179   1.253  1.00  0.00     0.176 C 
HETATM   26  C18 UNL     1      -6.898   2.620   1.032  1.00  0.00     0.034 C 
ENDBRANCH  24  25
ENDBRANCH  21  24
ENDBRANCH  11  20
BRANCH   1  27
HETATM   27  C4  UNL     1       3.899   1.483   0.058  1.00  0.00     0.268 C 
HETATM   28  O2  UNL     1       4.993   1.024  -0.356  1.00  0.00    -0.264 OA
BRANCH  27  29
HETATM   29  O1  UNL     1       3.896   2.870   0.295  1.00  0.00    -0.284 OA
BRANCH  29  30
HETATM   30  C2  UNL     1       4.961   3.702   0.087  1.00  0.00     0.043 C 
HETATM   31  C1  UNL     1       5.880   3.870   1.005  1.00  0.00     0.046 C 
HETATM   32  C3  UNL     1       5.082   4.431  -1.196  1.00  0.00     0.076 C 
ENDBRANCH  29  30
ENDBRANCH  27  29
ENDBRANCH   1  27
TORSDOF 6
