REMARK  4 active torsions:
REMARK  status: ('A' for Active; 'I' for Inactive)
REMARK    1  A    between atoms: O1_1  and  N1_3 
REMARK    2  A    between atoms: C1_5  and  C2_6 
REMARK    3  A    between atoms: C2_6  and  C3_7 
REMARK    4  A    between atoms: N2_11  and  C7_12 
ROOT
HETATM    1  C3  UNL     1       0.787   0.203  -0.713  1.00  0.00     0.228 C 
HETATM    2  C4  UNL     1       1.414  -1.036  -1.373  1.00  0.00     0.038 C 
HETATM    3  C5  UNL     1       0.279  -2.056  -1.462  1.00  0.00     0.032 C 
HETATM    4  C6  UNL     1      -0.918  -1.216  -0.988  1.00  0.00     0.273 C 
HETATM    5  N2  UNL     1      -0.299  -0.384  -0.015  1.00  0.00     0.098 N 
ENDROOT
BRANCH   1   6
HETATM    6  C2  UNL     1       1.847   0.812   0.147  1.00  0.00     0.082 C 
BRANCH   6   7
HETATM    7  C1  UNL     1       2.316  -0.124   1.192  1.00  0.00     0.088 C 
HETATM    8  N1  UNL     1       3.264   0.222   1.963  1.00  0.00    -0.284 N 
ATOM      9  H1  UNL     1       3.572  -0.439   2.676  1.00  0.00     0.192 HD
BRANCH   8  10
HETATM   10  O1  UNL     1       3.896   1.438   1.889  1.00  0.00    -0.291 OA
ATOM     11  H1  UNL     1       4.605   1.697   2.466  1.00  0.00     0.244 HD
ENDBRANCH   8  10
ENDBRANCH   6   7
ENDBRANCH   1   6
BRANCH   5  12
HETATM   12  C7  UNL     1      -1.102   0.446   0.773  1.00  0.00     0.223 C 
HETATM   13  C8  UNL     1      -1.873   1.551   0.141  1.00  0.00     0.036 C 
HETATM   14  C9  UNL     1      -3.119   0.665   0.214  1.00  0.00     0.004 C 
HETATM   15  C10 UNL     1      -2.405  -0.135   1.282  1.00  0.00     0.036 C 
ENDBRANCH   5  12
TORSDOF 4
