REMARK  4 active torsions:
REMARK  status: ('A' for Active; 'I' for Inactive)
REMARK    1  A    between atoms: C2_2  and  C3_3 
REMARK    2  A    between atoms: C3_3  and  C4_4 
REMARK    3  A    between atoms: C4_4  and  O1_5 
REMARK    4  A    between atoms: N1_11  and  C9_12 
ROOT
HETATM    1  C4  UNL     1      -1.103  -0.170  -0.065  1.00  0.00     0.191 C 
HETATM    2  C5  UNL     1      -0.953  -1.568   0.426  1.00  0.00     0.071 C 
HETATM    3  C6  UNL     1      -0.003  -2.427  -0.337  1.00  0.00     0.010 C 
HETATM    4  C7  UNL     1       1.438  -2.077  -0.211  1.00  0.00     0.047 C 
HETATM    5  C8  UNL     1       1.645  -0.851   0.654  1.00  0.00     0.095 C 
HETATM    6  N1  UNL     1       1.159   0.266  -0.036  1.00  0.00    -0.249 N 
HETATM    7  O2  UNL     1      -0.052   0.671   0.152  1.00  0.00    -0.235 OA
ENDROOT
BRANCH   1   8
HETATM    8  C3  UNL     1      -2.271   0.435   0.740  1.00  0.00     0.097 C 
BRANCH   8   9
HETATM    9  C2  UNL     1      -2.525   1.802   0.224  1.00  0.00    -0.032 C 
HETATM   10  C1  UNL     1      -3.696   2.092  -0.276  1.00  0.00     0.007 C 
ENDBRANCH   8   9
ENDBRANCH   1   8
BRANCH   1  11
HETATM   11  O1  UNL     1      -1.550  -0.174  -1.384  1.00  0.00    -0.363 OA
ATOM     12  H1  UNL     1      -0.830  -0.547  -1.880  1.00  0.00     0.213 HD
ENDBRANCH   1  11
BRANCH   6  13
HETATM   13  C9  UNL     1       2.060   1.051  -0.771  1.00  0.00     0.091 C 
HETATM   14  C10 UNL     1       3.054   1.821   0.075  1.00  0.00     0.057 C 
ENDBRANCH   6  13
TORSDOF 4
