REMARK  3 active torsions:
REMARK  status: ('A' for Active; 'I' for Inactive)
REMARK    1  A    between atoms: C1_1  and  C5_10 
REMARK    2  A    between atoms: N1_2  and  N2_4 
REMARK    3  A    between atoms: N2_4  and  C2_6 
ROOT
HETATM    1  C1  UNL     1      -0.076  -0.819  -0.463  1.00  0.00     0.118 C 
HETATM    2  N1  UNL     1       0.534  -1.152   0.600  1.00  0.00    -0.313 N 
ATOM      3  H1  UNL     1       0.027  -1.040   1.478  1.00  0.00     0.185 HD
ENDROOT
BRANCH   2   4
HETATM    4  N2  UNL     1       1.814  -1.650   0.679  1.00  0.00    -0.308 N 
ATOM      5  H2  UNL     1       1.985  -2.601   1.006  1.00  0.00     0.183 HD
BRANCH   4   6
HETATM    6  C2  UNL     1       2.914  -0.791   0.286  1.00  0.00     0.237 C 
HETATM    7  C3  UNL     1       2.988   0.479   1.126  1.00  0.00     0.081 C 
HETATM    8  C4  UNL     1       2.938   1.214  -0.191  1.00  0.00     0.175 C 
HETATM    9  O1  UNL     1       2.636  -0.001  -0.809  1.00  0.00    -0.365 OA
ENDBRANCH   4   6
ENDBRANCH   2   4
BRANCH   1  10
HETATM   10  C5  UNL     1      -1.430  -0.305  -0.412  1.00  0.00    -0.019 A 
HETATM   11  C6  UNL     1      -2.068  -0.174   0.802  1.00  0.00     0.013 A 
HETATM   12  C7  UNL     1      -3.375   0.319   0.882  1.00  0.00     0.001 A 
HETATM   13  C8  UNL     1      -4.024   0.676  -0.282  1.00  0.00     0.000 A 
HETATM   14  C9  UNL     1      -3.374   0.541  -1.498  1.00  0.00     0.001 A 
HETATM   15  C10 UNL     1      -2.066   0.046  -1.564  1.00  0.00     0.013 A 
ENDBRANCH   1  10
TORSDOF 3
