REMARK  2 active torsions:
REMARK  status: ('A' for Active; 'I' for Inactive)
REMARK    1  A    between atoms: N1_2  and  C1_4 
REMARK    2  A    between atoms: N2_7  and  C4_8 
ROOT
HETATM    1  C1  UNL     1       2.903   0.255  -0.278  1.00  0.00     0.105 A 
HETATM    2  C2  UNL     1       2.355  -0.721   0.535  1.00  0.00     0.053 A 
HETATM    3  C3  UNL     1       0.985  -0.853   0.552  1.00  0.00     0.100 A 
HETATM    4  N2  UNL     1       0.192  -0.064  -0.194  1.00  0.00    -0.319 N 
HETATM    5  C9  UNL     1       0.696   0.892  -0.992  1.00  0.00     0.100 A 
HETATM    6  C10 UNL     1       2.058   1.051  -1.033  1.00  0.00     0.053 A 
ENDROOT
BRANCH   4   7
HETATM    7  C4  UNL     1      -1.205  -0.230  -0.149  1.00  0.00     0.111 A 
HETATM    8  C5  UNL     1      -1.978   0.769   0.407  1.00  0.00     0.052 A 
HETATM    9  C6  UNL     1      -3.348   0.633   0.465  1.00  0.00     0.047 A 
HETATM   10  C7  UNL     1      -3.878  -0.534  -0.056  1.00  0.00     0.131 A 
HETATM   11  F1  UNL     1      -5.231  -0.713  -0.021  1.00  0.00    -0.205 F 
HETATM   12  C8  UNL     1      -3.090  -1.523  -0.608  1.00  0.00     0.132 A 
HETATM   13  N3  UNL     1      -1.762  -1.344  -0.641  1.00  0.00    -0.349 N 
ATOM     14  H3  UNL     1      -1.167  -2.067  -1.047  1.00  0.00     0.167 HD
ENDBRANCH   4   7
BRANCH   1  15
HETATM   15  N1  UNL     1       4.308   0.436  -0.335  1.00  0.00    -0.116 N 
HETATM   16  O1  UNL     1       4.759   1.324  -1.078  1.00  0.00    -0.532 OA
HETATM   17  O2  UNL     1       5.103  -0.374   0.429  1.00  0.00    -0.532 OA
ENDBRANCH   1  15
TORSDOF 2
