REMARK  2 active torsions:
REMARK  status: ('A' for Active; 'I' for Inactive)
REMARK    1  A    between atoms: C5_6  and  C6_7 
REMARK    2  A    between atoms: C6_7  and  N2_8 
ROOT
HETATM    1  N1  UNL     1       5.026  -2.916   0.115  1.00  0.00    -0.191 NA
HETATM    2  C1  UNL     1       4.135  -2.179   0.095  1.00  0.00     0.099 C 
HETATM    3  C2  UNL     1       3.030  -1.260   0.049  1.00  0.00     0.047 A 
HETATM    4  C3  UNL     1       2.498  -0.834  -1.158  1.00  0.00     0.023 A 
HETATM    5  C4  UNL     1       1.446   0.044  -1.229  1.00  0.00     0.013 A 
HETATM    6  C5  UNL     1       0.846   0.564  -0.067  1.00  0.00     0.000 A 
HETATM    7  C10 UNL     1       1.374   0.142   1.122  1.00  0.00     0.125 A 
HETATM    8  F1  UNL     1       0.872   0.603   2.301  1.00  0.00    -0.205 F 
HETATM    9  C11 UNL     1       2.452  -0.759   1.191  1.00  0.00     0.065 A 
ENDROOT
BRANCH   6  10
HETATM   10  C6  UNL     1      -0.297   1.495  -0.199  1.00  0.00     0.191 C 
BRANCH  10  11
HETATM   11  N2  UNL     1      -1.594   0.954  -0.041  1.00  0.00    -0.284 N 
HETATM   12  C7  UNL     1      -2.228   0.942   1.122  1.00  0.00     0.200 A 
HETATM   13  N3  UNL     1      -3.478   0.396   1.236  1.00  0.00    -0.360 N 
HETATM   14  C8  UNL     1      -4.094  -0.139   0.174  1.00  0.00     0.107 A 
ATOM     15  H3  UNL     1      -3.947   0.397   2.142  1.00  0.00     0.166 HD
HETATM   16  C9  UNL     1      -3.425  -0.119  -1.031  1.00  0.00     0.124 A 
HETATM   17  N4  UNL     1      -2.216   0.419  -1.093  1.00  0.00    -0.307 N 
ATOM     18  H4  UNL     1      -1.735   0.424  -1.993  1.00  0.00     0.186 HD
ENDBRANCH  10  11
ENDBRANCH   6  10
TORSDOF 2
