REMARK  4 active torsions:
REMARK  status: ('A' for Active; 'I' for Inactive)
REMARK    1  A    between atoms: C2_2  and  C3_4 
REMARK    2  A    between atoms: C6_9  and  C7_10 
REMARK    3  A    between atoms: C7_10  and  N2_11 
REMARK    4  A    between atoms: N2_11  and  N3_12 
ROOT
HETATM    1  C3  UNL     1       0.689  -0.435  -0.223  1.00  0.00     0.095 A 
HETATM    2  N1  UNL     1       0.877   0.756  -0.817  1.00  0.00    -0.355 N 
ATOM      3  H1  UNL     1       1.811   0.979  -1.161  1.00  0.00     0.166 HD
HETATM    4  C4  UNL     1      -0.093   1.671  -0.985  1.00  0.00     0.092 A 
HETATM    5  C5  UNL     1      -1.365   1.337  -0.503  1.00  0.00     0.049 A 
HETATM    6  C6  UNL     1      -1.574   0.128   0.104  1.00  0.00     0.065 A 
HETATM    7  N4  UNL     1      -0.551  -0.729   0.233  1.00  0.00    -0.343 N 
ATOM      8  H4  UNL     1      -0.712  -1.628   0.688  1.00  0.00     0.167 HD
ENDROOT
BRANCH   6   9
HETATM    9  C7  UNL     1      -2.879  -0.225   0.604  1.00  0.00     0.237 C 
BRANCH   9  10
HETATM   10  N2  UNL     1      -3.855   0.551   0.500  1.00  0.00    -0.344 NA
BRANCH  10  11
HETATM   11  N3  UNL     1      -4.820   1.289   0.226  1.00  0.00    -0.281 N 
ATOM     12  H32 UNL     1      -4.671   1.003  -0.742  1.00  0.00     0.191 HD
ATOM     13  H31 UNL     1      -5.616   1.922   0.141  1.00  0.00     0.191 HD
ENDBRANCH  10  11
ENDBRANCH   9  10
ENDBRANCH   6   9
BRANCH   1  14
HETATM   14  C2  UNL     1       1.842  -1.338  -0.107  1.00  0.00     0.121 C 
HETATM   15  C1  UNL     1       2.959  -0.721   0.717  1.00  0.00     0.030 C 
HETATM   16 BR1  UNL     1       2.614  -1.724  -1.859  1.00  0.00    -0.083 Br
ENDBRANCH   1  14
TORSDOF 4
