REMARK  2 active torsions:
REMARK  status: ('A' for Active; 'I' for Inactive)
REMARK    1  A    between atoms: N1_2  and  C3_4 
REMARK    2  A    between atoms: C7_9  and  N2_10 
ROOT
HETATM    1  C3  UNL     1      -1.734   0.106   0.617  1.00  0.00     0.231 C 
HETATM    2  C4  UNL     1      -1.612  -1.392   0.561  1.00  0.00     0.039 C 
HETATM    3  C5  UNL     1      -0.194  -1.728   0.969  1.00  0.00     0.035 C 
HETATM    4  C6  UNL     1       0.443  -0.477   1.476  1.00  0.00     0.133 C 
HETATM    5  O1  UNL     1       1.726  -0.418   0.993  1.00  0.00    -0.349 OA
HETATM    6  C7  UNL     1       1.862   0.750   0.258  1.00  0.00     0.392 C 
HETATM    7  C10 UNL     1       0.487   0.780  -0.451  1.00  0.00     0.237 C 
HETATM    8  F1  UNL     1       0.322   1.986  -1.096  1.00  0.00    -0.244 F 
HETATM    9  C11 UNL     1      -0.364   0.609   0.750  1.00  0.00     0.086 C 
ENDROOT
BRANCH   1  10
HETATM   10  N1  UNL     1      -2.636   0.695  -0.266  1.00  0.00     0.085 N 
HETATM   11  C1  UNL     1      -2.493   0.592  -1.661  1.00  0.00     0.309 C 
HETATM   12  C2  UNL     1      -4.007   0.338   0.064  1.00  0.00     0.309 C 
ENDBRANCH   1  10
BRANCH   6  13
HETATM   13  N2  UNL     1       2.938   0.753  -0.677  1.00  0.00     0.111 N 
HETATM   14  C8  UNL     1       2.875  -0.442  -1.491  1.00  0.00     0.312 C 
HETATM   15  C9  UNL     1       4.174   0.750   0.075  1.00  0.00     0.312 C 
ENDBRANCH   6  13
TORSDOF 2
