REMARK  3 active torsions:
REMARK  status: ('A' for Active; 'I' for Inactive)
REMARK    1  A    between atoms: C3_4  and  C4_5 
REMARK    2  A    between atoms: C4_5  and  C5_6 
REMARK    3  A    between atoms: C5_6  and  C6_7 
ROOT
HETATM    1  C5  UNL     1      -0.760   1.032  -1.243  1.00  0.00     0.037 C 
ENDROOT
BRANCH   1   2
HETATM    2  C4  UNL     1       0.098  -0.139  -1.665  1.00  0.00     0.062 C 
BRANCH   2   3
HETATM    3  C3  UNL     1       1.172  -0.433  -0.677  1.00  0.00     0.259 C 
HETATM    4  O1  UNL     1       1.974  -1.508  -1.052  1.00  0.00    -0.361 OA
HETATM    5  C2  UNL     1       3.315  -1.286  -0.868  1.00  0.00     0.173 C 
HETATM    6  C1  UNL     1       3.650  -0.655   0.460  1.00  0.00     0.053 C 
HETATM    7  C10 UNL     1       2.627   0.384   0.816  1.00  0.00     0.173 C 
HETATM    8  O2  UNL     1       1.932   0.693  -0.375  1.00  0.00    -0.361 OA
ENDBRANCH   2   3
ENDBRANCH   1   2
BRANCH   1   9
HETATM    9  C6  UNL     1      -1.387   0.681   0.070  1.00  0.00     0.186 C 
HETATM   10  C7  UNL     1      -2.244  -0.540   0.020  1.00  0.00     0.034 C 
HETATM   11  C8  UNL     1      -3.394  -0.284   1.002  1.00  0.00     0.029 C 
HETATM   12  C9  UNL     1      -2.896   0.992   1.672  1.00  0.00     0.233 C 
HETATM   13  N1  UNL     1      -2.364   1.697   0.495  1.00  0.00    -0.071 N 
ATOM     14  H12 UNL     1      -2.006   2.639   0.650  1.00  0.00     0.277 HD
ATOM     15  H11 UNL     1      -3.044   1.998  -0.203  1.00  0.00     0.277 HD
ENDBRANCH   1   9
TORSDOF 3
