REMARK  3 active torsions:
REMARK  status: ('A' for Active; 'I' for Inactive)
REMARK    1  A    between atoms: C4_4  and  N1_5 
REMARK    2  A    between atoms: N1_5  and  C5_8 
REMARK    3  A    between atoms: C5_8  and  C6_9 
ROOT
HETATM    1  N1  UNL     1       0.205  -1.124  -0.876  1.00  0.00    -0.066 N 
ATOM      2  H11 UNL     1       0.689  -0.822  -1.722  1.00  0.00     0.277 HD
ATOM      3  H12 UNL     1       0.338  -2.130  -0.980  1.00  0.00     0.277 HD
ENDROOT
BRANCH   1   4
HETATM    4  C4  UNL     1      -1.212  -0.753  -0.891  1.00  0.00     0.186 C 
HETATM    5  C3  UNL     1      -1.877  -1.384   0.278  1.00  0.00     0.033 C 
HETATM    6  C2  UNL     1      -3.221  -0.785   0.616  1.00  0.00     0.002 C 
HETATM    7  C1  UNL     1      -3.292   0.690   0.596  1.00  0.00     0.000 C 
HETATM    8  C10 UNL     1      -2.099   1.413   0.057  1.00  0.00     0.002 C 
HETATM    9  C9  UNL     1      -1.367   0.724  -1.026  1.00  0.00     0.033 C 
ENDBRANCH   1   4
BRANCH   1  10
HETATM   10  C5  UNL     1       0.827  -0.621   0.305  1.00  0.00     0.293 C 
BRANCH  10  11
HETATM   11  C6  UNL     1       2.354  -0.608   0.130  1.00  0.00     0.285 C 
HETATM   12  O1  UNL     1       2.662   0.226  -0.951  1.00  0.00    -0.357 OA
HETATM   13  C7  UNL     1       3.805   0.924  -0.620  1.00  0.00     0.197 C 
HETATM   14  C8  UNL     1       4.142   0.423   0.767  1.00  0.00     0.197 C 
HETATM   15  O2  UNL     1       2.889   0.061   1.231  1.00  0.00    -0.357 OA
ENDBRANCH  10  11
ENDBRANCH   1  10
TORSDOF 3
