REMARK  6 active torsions:
REMARK  status: ('A' for Active; 'I' for Inactive)
REMARK    1  A    between atoms: C2_3  and  O1_4 
REMARK    2  A    between atoms: C4_8  and  C5_9 
REMARK    3  A    between atoms: C5_9  and  C6_10 
REMARK    4  A    between atoms: C5_9  and  C12_21 
REMARK       I    between atoms: C6_10  and  N2_12 
REMARK    5  A    between atoms: N2_12  and  C7_14 
REMARK    6  A    between atoms: C15_24  and  O3_25 
ROOT
HETATM    1  C5  UNL     1      -1.225   0.712  -0.546  1.00  0.00     0.121 C 
ENDROOT
BRANCH   1   2
HETATM    2  C4  UNL     1      -2.266  -0.299  -0.276  1.00  0.00     0.032 A 
HETATM    3  C3  UNL     1      -2.751  -1.265  -1.151  1.00  0.00     0.096 A 
HETATM    4  C2  UNL     1      -3.673  -2.020  -0.475  1.00  0.00     0.166 A 
HETATM    5 CL1  UNL     1      -2.241  -1.439  -2.804  1.00  0.00    -0.079 Cl
HETATM    6  N1  UNL     1      -3.782  -1.565   0.783  1.00  0.00    -0.311 N 
HETATM    7  C1  UNL     1      -4.658  -2.107   1.802  1.00  0.00     0.160 C 
HETATM    8  C15 UNL     1      -2.916  -0.508   0.902  1.00  0.00     0.152 A 
BRANCH   4   9
HETATM    9  O1  UNL     1      -4.376  -3.098  -1.047  1.00  0.00    -0.345 OA
ATOM     10  H1  UNL     1      -4.299  -3.420  -1.937  1.00  0.00     0.219 HD
ENDBRANCH   4   9
BRANCH   8  11
HETATM   11  O3  UNL     1      -2.832   0.149   2.128  1.00  0.00    -0.345 OA
ATOM     12  H3  UNL     1      -2.232   0.881   2.210  1.00  0.00     0.219 HD
ENDBRANCH   8  11
ENDBRANCH   1   2
BRANCH   1  13
HETATM   13  C6  UNL     1       0.110   0.041  -0.576  1.00  0.00     0.229 C 
HETATM   14  O2  UNL     1       0.166  -1.198  -0.370  1.00  0.00    -0.273 OA
HETATM   15  N2  UNL     1       1.303   0.740  -0.824  1.00  0.00    -0.329 N 
ATOM     16  H2  UNL     1       1.271   1.745  -0.992  1.00  0.00     0.165 HD
BRANCH  15  17
HETATM   17  C7  UNL     1       2.560   0.064  -0.844  1.00  0.00     0.160 C 
HETATM   18 CL2  UNL     1       2.611  -1.256  -2.027  1.00  0.00    -0.083 Cl
HETATM   19  C8  UNL     1       3.724   0.979  -1.133  1.00  0.00     0.060 C 
HETATM   20  C9  UNL     1       4.941   0.676  -0.293  1.00  0.00     0.005 C 
HETATM   21  C10 UNL     1       5.284  -0.788  -0.258  1.00  0.00     0.010 C 
HETATM   22  C11 UNL     1       4.418  -1.552   0.728  1.00  0.00     0.077 C 
HETATM   23  S1  UNL     1       2.825  -0.688   0.807  1.00  0.00    -0.122 SA
ENDBRANCH  15  17
ENDBRANCH   1  13
BRANCH   1  24
HETATM   24  C12 UNL     1      -1.282   1.814   0.451  1.00  0.00     0.003 A 
HETATM   25  C13 UNL     1      -2.578   2.607   0.464  1.00  0.00     0.006 A 
HETATM   26  C14 UNL     1      -1.272   3.241   0.045  1.00  0.00     0.006 A 
ENDBRANCH   1  24
TORSDOF 6
