REMARK  6 active torsions:
REMARK  status: ('A' for Active; 'I' for Inactive)
REMARK       I    between atoms: C1_2  and  N2_3 
REMARK    1  A    between atoms: N3_5  and  C2_7 
REMARK    2  A    between atoms: C2_7  and  C9_17 
REMARK    3  A    between atoms: N4_8  and  O1_10 
REMARK    4  A    between atoms: O1_10  and  C3_11 
REMARK    5  A    between atoms: C11_19  and  O2_20 
REMARK    6  A    between atoms: N5_27  and  O3_29 
ROOT
HETATM    1  C2  UNL     1       1.388  -0.463   0.136  1.00  0.00     0.152 C 
HETATM    2  N4  UNL     1       0.326  -0.897  -0.488  1.00  0.00    -0.248 N 
ATOM      3  H4  UNL     1       0.204  -1.893  -0.668  1.00  0.00     0.196 HD
ENDROOT
BRANCH   1   4
HETATM    4  N3  UNL     1       1.563   0.925   0.391  1.00  0.00    -0.281 N 
HETATM    5  N2  UNL     1       1.363   1.809  -0.505  1.00  0.00    -0.270 N 
HETATM    6  C1  UNL     1       1.560   3.163  -0.168  1.00  0.00     0.227 C 
ATOM      7  H2  UNL     1       1.067   1.543  -1.444  1.00  0.00     0.189 HD
HETATM    8  N1  UNL     1       0.535   3.946   0.411  1.00  0.00    -0.060 NA
HETATM    9  N5  UNL     1       2.713   3.714  -0.392  1.00  0.00    -0.240 N 
ATOM     10  H5  UNL     1       2.853   4.694  -0.147  1.00  0.00     0.197 HD
ATOM     11  H3  UNL     1       1.858   1.223   1.321  1.00  0.00     0.188 HD
BRANCH   9  12
HETATM   12  O3  UNL     1       3.753   3.005  -0.954  1.00  0.00    -0.287 OA
ATOM     13  H3  UNL     1       4.597   3.408  -1.118  1.00  0.00     0.244 HD
ENDBRANCH   9  12
ENDBRANCH   1   4
BRANCH   1  14
HETATM   14  C9  UNL     1       2.381  -1.418   0.562  1.00  0.00     0.035 A 
HETATM   15  C10 UNL     1       2.360  -2.699   0.068  1.00  0.00     0.056 A 
HETATM   16  C11 UNL     1       3.313  -3.599   0.483  1.00  0.00     0.105 A 
HETATM   17  C12 UNL     1       4.268  -3.208   1.382  1.00  0.00     0.151 A 
HETATM   18  F1  UNL     1       5.187  -4.117   1.768  1.00  0.00    -0.203 F 
HETATM   19  C13 UNL     1       4.291  -1.927   1.878  1.00  0.00     0.070 A 
HETATM   20  C14 UNL     1       3.335  -1.036   1.456  1.00  0.00     0.051 A 
HETATM   21 CL1  UNL     1       3.414   0.590   2.126  1.00  0.00    -0.083 Cl
BRANCH  16  22
HETATM   22  O2  UNL     1       3.250  -4.887  -0.047  1.00  0.00    -0.358 OA
ATOM     23  H2  UNL     1       3.908  -5.509   0.240  1.00  0.00     0.217 HD
ENDBRANCH  16  22
ENDBRANCH   1  14
BRANCH   2  24
HETATM   24  O1  UNL     1      -0.610  -0.007  -0.892  1.00  0.00    -0.273 OA
BRANCH  24  25
HETATM   25  C3  UNL     1      -1.977  -0.115  -0.552  1.00  0.00     0.152 C 
HETATM   26  C4  UNL     1      -2.772  -0.394  -1.807  1.00  0.00     0.034 C 
HETATM   27  C5  UNL     1      -4.194  -0.602  -1.348  1.00  0.00     0.002 C 
HETATM   28  C6  UNL     1      -4.732   0.687  -0.849  1.00  0.00     0.000 C 
HETATM   29  C7  UNL     1      -3.786   1.613  -0.219  1.00  0.00     0.002 C 
HETATM   30  C8  UNL     1      -2.465   1.081   0.198  1.00  0.00     0.034 C 
ENDBRANCH  24  25
ENDBRANCH   2  24
TORSDOF 6
