REMARK  7 active torsions:
REMARK  status: ('A' for Active; 'I' for Inactive)
REMARK    1  A    between atoms: O1_2  and  C2_3 
REMARK    2  A    between atoms: C2_3  and  C3_5 
REMARK    3  A    between atoms: N2_9  and  C5_10 
REMARK    4  A    between atoms: C5_10  and  C6_11 
REMARK    5  A    between atoms: C6_11  and  C7_12 
REMARK    6  A    between atoms: C13_19  and  N3_20 
REMARK    7  A    between atoms: N3_20  and  C14_22 
ROOT
HETATM    1  C3  UNL     1      -2.467   2.344  -0.372  1.00  0.00     0.101 A 
HETATM    2  C4  UNL     1      -1.638   3.391  -0.666  1.00  0.00     0.129 A 
HETATM    3  N1  UNL     1      -0.432   2.864  -0.861  1.00  0.00    -0.307 N 
ATOM      4  H1  UNL     1       0.406   3.394  -1.099  1.00  0.00     0.186 HD
HETATM    5  N2  UNL     1      -0.481   1.524  -0.698  1.00  0.00    -0.276 N 
HETATM    6  C13 UNL     1      -1.719   1.133  -0.393  1.00  0.00     0.136 A 
ENDROOT
BRANCH   5   7
HETATM    7  C5  UNL     1       0.734   0.766  -0.821  1.00  0.00     0.151 C 
BRANCH   7   8
HETATM    8  C6  UNL     1       1.536   0.777   0.456  1.00  0.00     0.029 C 
BRANCH   8   9
HETATM    9  C7  UNL     1       2.819   0.044   0.417  1.00  0.00     0.021 C 
HETATM   10  C8  UNL     1       3.814   0.535  -0.611  1.00  0.00     0.007 C 
HETATM   11  C9  UNL     1       5.185   0.119  -0.141  1.00  0.00     0.001 C 
HETATM   12  C10 UNL     1       5.150  -1.002   0.842  1.00  0.00     0.003 C 
HETATM   13  C11 UNL     1       4.111  -2.047   0.598  1.00  0.00     0.037 C 
HETATM   14  C12 UNL     1       2.748  -1.441   0.312  1.00  0.00     0.174 C 
HETATM   15  F1  UNL     1       2.408  -1.888  -0.971  1.00  0.00    -0.249 F 
ENDBRANCH   8   9
ENDBRANCH   7   8
ENDBRANCH   5   7
BRANCH   6  16
HETATM   16  N3  UNL     1      -2.194   0.024  -0.188  1.00  0.00    -0.366 N 
ATOM     17  H3  UNL     1      -3.179   0.227  -0.018  1.00  0.00     0.162 HD
BRANCH  16  18
HETATM   18  C14 UNL     1      -2.139  -1.319  -0.062  1.00  0.00     0.021 C 
HETATM   19  C15 UNL     1      -1.121  -1.935   0.878  1.00  0.00     0.037 C 
HETATM   20  C16 UNL     1      -3.518  -1.912   0.384  1.00  0.00     0.037 C 
HETATM   21  C17 UNL     1      -1.919  -2.046  -1.414  1.00  0.00     0.037 C 
ENDBRANCH  16  18
ENDBRANCH   6  16
BRANCH   1  22
HETATM   22  C2  UNL     1      -3.880   2.502  -0.091  1.00  0.00     0.298 C 
HETATM   23  O2  UNL     1      -4.417   3.662  -0.105  1.00  0.00    -0.259 OA
BRANCH  22  24
HETATM   24  O1  UNL     1      -4.714   1.446   0.201  1.00  0.00    -0.322 OA
HETATM   25  C1  UNL     1      -6.077   1.703   0.461  1.00  0.00     0.213 C 
ENDBRANCH  22  24
ENDBRANCH   1  22
TORSDOF 7
