REMARK  4 active torsions:
REMARK  status: ('A' for Active; 'I' for Inactive)
REMARK    1  A    between atoms: C2_2  and  C3_3 
REMARK    2  A    between atoms: C3_3  and  C4_4 
REMARK    3  A    between atoms: C7_10  and  C8_11 
REMARK    4  A    between atoms: C9_12  and  C10_14 
ROOT
HETATM    1  C4  UNL     1      -1.729  -0.319  -0.513  1.00  0.00     0.013 A 
HETATM    2  C5  UNL     1      -1.455  -1.492   0.135  1.00  0.00     0.032 A 
HETATM    3  C6  UNL     1      -2.480  -2.537   0.436  1.00  0.00     0.070 C 
HETATM    4  N1  UNL     1      -0.126  -1.515   0.445  1.00  0.00    -0.295 N 
ATOM      5  H1  UNL     1       0.352  -2.273   0.932  1.00  0.00     0.187 HD
HETATM    6  N2  UNL     1       0.448  -0.396   0.014  1.00  0.00    -0.220 N 
HETATM    7  C7  UNL     1       1.610   0.272  -0.044  1.00  0.00     0.145 A 
HETATM    8  N3  UNL     1       1.359   1.429  -0.670  1.00  0.00    -0.282 N 
ATOM      9  H3  UNL     1       2.049   2.154  -0.866  1.00  0.00     0.188 HD
HETATM   10  N4  UNL     1       0.094   1.485  -0.991  1.00  0.00    -0.282 N 
ATOM     11  H4  UNL     1      -0.367   2.255  -1.476  1.00  0.00     0.188 HD
HETATM   12  C12 UNL     1      -0.496   0.349  -0.570  1.00  0.00     0.152 A 
ENDROOT
BRANCH   7  13
HETATM   13  C8  UNL     1       2.936  -0.131   0.449  1.00  0.00     0.072 C 
HETATM   14  C9  UNL     1       4.044   0.450   0.058  1.00  0.00     0.031 C 
HETATM   15 BR1  UNL     1       3.991   1.882  -1.198  1.00  0.00    -0.050 Br
BRANCH  14  16
HETATM   16  C10 UNL     1       5.307  -0.010   0.600  1.00  0.00     0.022 C 
HETATM   17  C11 UNL     1       6.547   0.689   0.174  1.00  0.00     0.062 C 
HETATM   18  S1  UNL     1       5.304  -1.243   1.659  1.00  0.00    -0.084 SA
ENDBRANCH  14  16
ENDBRANCH   7  13
BRANCH   1  19
HETATM   19  C3  UNL     1      -2.966   0.271  -1.059  1.00  0.00     0.044 C 
BRANCH  19  20
HETATM   20  C2  UNL     1      -3.743   0.862   0.099  1.00  0.00     0.000 C 
HETATM   21  C1  UNL     1      -5.011   1.515  -0.388  1.00  0.00     0.005 C 
ENDBRANCH  19  20
ENDBRANCH   1  19
TORSDOF 4
