REMARK  10 active torsions:
REMARK  status: ('A' for Active; 'I' for Inactive)
REMARK    1  A    between atoms: C4_4  and  N1_5 
REMARK    2  A    between atoms: N1_5  and  C6_7 
REMARK    3  A    between atoms: C6_7  and  C7_8 
REMARK    4  A    between atoms: C9_13  and  C10_14 
REMARK    5  A    between atoms: C10_14  and  S1_15 
REMARK    6  A    between atoms: S1_15  and  C11_16 
REMARK    7  A    between atoms: C12_19  and  N4_20 
REMARK    8  A    between atoms: C13_23  and  C14_24 
REMARK    9  A    between atoms: N7_31  and  C17_32 
REMARK   10  A    between atoms: C18_38  and  N10_39 
ROOT
HETATM    1  C1  UNL     1      -4.691   1.879   3.423  1.00  0.00     0.068 C 
HETATM    2  C2  UNL     1      -3.894   1.331   2.297  1.00  0.00     0.008 A 
HETATM    3  C3  UNL     1      -4.267   0.076   1.826  1.00  0.00     0.056 A 
HETATM    4  C4  UNL     1      -3.576  -0.504   0.781  1.00  0.00     0.061 A 
HETATM    5  C8  UNL     1      -2.515   0.205   0.232  1.00  0.00     0.093 A 
HETATM    6  N2  UNL     1      -1.831  -0.335  -0.777  1.00  0.00    -0.341 N 
ATOM      7  H2  UNL     1      -2.104  -1.255  -1.122  1.00  0.00     0.167 HD
HETATM    8  C9  UNL     1      -0.773   0.308  -1.365  1.00  0.00     0.103 A 
HETATM    9  N7  UNL     1      -0.415   1.514  -0.914  1.00  0.00    -0.245 N 
HETATM   10  C19 UNL     1      -1.101   2.092   0.124  1.00  0.00     0.284 A 
HETATM   11  O2  UNL     1      -0.736   3.217   0.517  1.00  0.00    -0.265 OA
HETATM   12  C20 UNL     1      -2.152   1.438   0.699  1.00  0.00     0.131 A 
HETATM   13  N11 UNL     1      -2.860   1.981   1.736  1.00  0.00    -0.354 N 
ATOM     14  H11 UNL     1      -2.597   2.900   2.092  1.00  0.00     0.166 HD
ENDROOT
BRANCH   8  15
HETATM   15  C10 UNL     1      -0.125  -0.402  -2.493  1.00  0.00     0.159 C 
BRANCH  15  16
HETATM   16  S1  UNL     1       0.890  -1.761  -1.888  1.00  0.00    -0.085 SA
BRANCH  16  17
HETATM   17  C11 UNL     1       2.287  -1.260  -0.920  1.00  0.00     0.161 A 
HETATM   18  N3  UNL     1       2.226  -1.118   0.423  1.00  0.00    -0.321 N 
HETATM   19  C12 UNL     1       3.293  -0.744   1.151  1.00  0.00     0.125 A 
ATOM     20  H3  UNL     1       1.343  -1.300   0.899  1.00  0.00     0.169 HD
HETATM   21  C13 UNL     1       4.509  -0.485   0.558  1.00  0.00     0.072 A 
HETATM   22  N5  UNL     1       4.554  -0.631  -0.782  1.00  0.00    -0.299 N 
HETATM   23  N6  UNL     1       3.499  -0.999  -1.487  1.00  0.00    -0.280 N 
ATOM     24  H5  UNL     1       5.433  -0.451  -1.268  1.00  0.00     0.186 HD
ATOM     25  H6  UNL     1       3.595  -1.092  -2.498  1.00  0.00     0.189 HD
BRANCH  19  26
HETATM   26  N4  UNL     1       3.221  -0.611   2.446  1.00  0.00    -0.384 N 
ATOM     27  H42 UNL     1       2.321  -0.803   2.885  1.00  0.00     0.157 HD
ATOM     28  H41 UNL     1       4.030  -0.327   2.998  1.00  0.00     0.157 HD
ENDBRANCH  19  26
BRANCH  21  29
HETATM   29  C14 UNL     1       5.709  -0.069   1.330  1.00  0.00     0.033 C 
HETATM   30  C15 UNL     1       6.891   0.170   0.384  1.00  0.00     0.016 C 
HETATM   31  C16 UNL     1       6.145  -1.080   2.350  1.00  0.00     0.016 C 
ENDBRANCH  21  29
ENDBRANCH  16  17
ENDBRANCH  15  16
ENDBRANCH   8  15
BRANCH   9  32
HETATM   32  C17 UNL     1       0.645   2.230  -1.532  1.00  0.00     0.184 A 
HETATM   33  N8  UNL     1       1.927   2.410  -1.211  1.00  0.00    -0.221 N 
HETATM   34  O1  UNL     1       2.509   3.165  -2.079  1.00  0.00    -0.153 OA
ATOM     35  H8  UNL     1       2.383   2.007  -0.393  1.00  0.00     0.198 HD
HETATM   36  N9  UNL     1       1.665   3.521  -3.005  1.00  0.00    -0.222 N 
HETATM   37  C18 UNL     1       0.477   2.958  -2.706  1.00  0.00     0.168 A 
ATOM     38  H9  UNL     1       1.866   4.116  -3.809  1.00  0.00     0.198 HD
BRANCH  37  39
HETATM   39  N10 UNL     1      -0.562   3.128  -3.432  1.00  0.00    -0.381 N 
ATOM     40 2H10 UNL     1      -1.461   2.702  -3.206  1.00  0.00     0.157 HD
ATOM     41 1H10 UNL     1      -0.685   3.662  -4.293  1.00  0.00     0.157 HD
ENDBRANCH  37  39
ENDBRANCH   9  32
BRANCH   4  42
HETATM   42  N1  UNL     1      -3.949  -1.781   0.299  1.00  0.00    -0.381 N 
HETATM   43  C5  UNL     1      -3.011  -2.858   0.337  1.00  0.00     0.150 C 
BRANCH  42  44
HETATM   44  C6  UNL     1      -5.278  -1.974  -0.224  1.00  0.00     0.154 C 
BRANCH  44  45
HETATM   45  C7  UNL     1      -5.196  -2.220  -1.717  1.00  0.00     0.241 C 
HETATM   46  F1  UNL     1      -6.425  -2.413  -2.279  1.00  0.00    -0.254 F 
ENDBRANCH  44  45
ENDBRANCH  42  44
ENDBRANCH   4  42
TORSDOF 10
