REMARK  14 active torsions:
REMARK  status: ('A' for Active; 'I' for Inactive)
REMARK    1  A    between atoms: C2_2  and  C3_3 
REMARK    2  A    between atoms: C3_3  and  C5_5 
REMARK    3  A    between atoms: C5_5  and  C8_8 
REMARK    4  A    between atoms: C8_8  and  O2_10 
REMARK    5  A    between atoms: O2_10  and  C9_11 
REMARK    6  A    between atoms: C9_11  and  O3_12 
REMARK    7  A    between atoms: O3_12  and  C10_13 
REMARK    8  A    between atoms: C10_13  and  C11_15 
REMARK    9  A    between atoms: C11_15  and  C12_17 
REMARK   10  A    between atoms: C13_20  and  N2_21 
REMARK   11  A    between atoms: C17_25  and  N3_26 
REMARK   12  A    between atoms: C19_33  and  N5_34 
REMARK   13  A    between atoms: C20_37  and  N6_38 
REMARK   14  A    between atoms: N6_38  and  O5_40 
ROOT
HETATM    1  C12 UNL     1      -2.197  -2.946  -0.391  1.00  0.00     0.102 A 
HETATM    2  N1  UNL     1      -2.583  -1.723   0.006  1.00  0.00    -0.190 N 
ATOM      3  H1  UNL     1      -2.177  -1.356   0.867  1.00  0.00     0.184 HD
HETATM    4  C13 UNL     1      -3.463  -0.947  -0.645  1.00  0.00     0.682 A 
HETATM    5  N4  UNL     1      -3.990  -1.441  -1.775  1.00  0.00    -0.175 N 
ATOM      6  H4  UNL     1      -4.661  -0.871  -2.289  1.00  0.00     0.186 HD
HETATM    7  C19 UNL     1      -3.676  -2.644  -2.257  1.00  0.00     0.145 A 
HETATM    8  C20 UNL     1      -2.770  -3.425  -1.575  1.00  0.00     0.124 A 
ENDROOT
BRANCH   1   9
HETATM    9  C11 UNL     1      -1.249  -3.795   0.329  1.00  0.00     0.322 C 
HETATM   10  F1  UNL     1      -0.873  -4.893  -0.426  1.00  0.00    -0.232 F 
BRANCH   9  11
HETATM   11  C10 UNL     1      -0.011  -3.138   0.781  1.00  0.00     0.301 C 
HETATM   12  O4  UNL     1       1.131  -3.487   0.347  1.00  0.00    -0.261 OA
BRANCH  11  13
HETATM   13  O3  UNL     1      -0.038  -2.126   1.691  1.00  0.00    -0.292 OA
BRANCH  13  14
HETATM   14  C9  UNL     1       1.094  -1.441   2.181  1.00  0.00     0.358 C 
BRANCH  14  15
HETATM   15  O2  UNL     1       1.765  -0.830   1.095  1.00  0.00    -0.294 OA
BRANCH  15  16
HETATM   16  C8  UNL     1       2.914  -0.080   1.233  1.00  0.00     0.269 C 
HETATM   17  O1  UNL     1       3.394   0.072   2.380  1.00  0.00    -0.264 OA
BRANCH  16  18
HETATM   18  C5  UNL     1       3.612   0.558   0.092  1.00  0.00     0.044 C 
HETATM   19  C6  UNL     1       2.603   1.560  -0.489  1.00  0.00     0.026 C 
HETATM   20  C7  UNL     1       3.955  -0.406  -1.012  1.00  0.00     0.026 C 
BRANCH  18  21
HETATM   21  C3  UNL     1       4.857   1.295   0.535  1.00  0.00    -0.001 C 
HETATM   22  C4  UNL     1       5.930   0.350   1.002  1.00  0.00     0.011 C 
BRANCH  21  23
HETATM   23  C2  UNL     1       5.419   1.985  -0.718  1.00  0.00     0.001 C 
HETATM   24  C1  UNL     1       6.698   2.738  -0.355  1.00  0.00     0.005 C 
ENDBRANCH  21  23
ENDBRANCH  18  21
ENDBRANCH  16  18
ENDBRANCH  15  16
ENDBRANCH  14  15
ENDBRANCH  13  14
ENDBRANCH  11  13
ENDBRANCH   9  11
ENDBRANCH   1   9
BRANCH   8  25
HETATM   25  N6  UNL     1      -2.420  -4.708  -2.077  1.00  0.00    -0.264 N 
ATOM     26  H6  UNL     1      -2.686  -5.549  -1.565  1.00  0.00     0.194 HD
BRANCH  25  27
HETATM   27  O5  UNL     1      -1.779  -4.799  -3.159  1.00  0.00    -0.289 OA
ATOM     28  H5  UNL     1      -1.545  -5.656  -3.494  1.00  0.00     0.244 HD
ENDBRANCH  25  27
ENDBRANCH   8  25
BRANCH   4  29
HETATM   29  N2  UNL     1      -3.872   0.349  -0.215  1.00  0.00    -0.216 N 
HETATM   30  C14 UNL     1      -4.804   1.083  -1.060  1.00  0.00     0.141 C 
HETATM   31  C15 UNL     1      -5.800   1.889  -0.290  1.00  0.00     0.022 C 
HETATM   32  C16 UNL     1      -5.079   2.698   0.773  1.00  0.00     0.036 C 
HETATM   33  C17 UNL     1      -4.477   1.718   1.725  1.00  0.00     0.202 C 
HETATM   34  C18 UNL     1      -3.383   0.920   1.008  1.00  0.00     0.173 C 
BRANCH  33  35
HETATM   35  N3  UNL     1      -3.803   2.438   2.799  1.00  0.00    -0.073 N 
ATOM     36  H33 UNL     1      -3.117   3.104   2.446  1.00  0.00     0.274 HD
ATOM     37  H32 UNL     1      -4.421   3.101   3.267  1.00  0.00     0.274 HD
ATOM     38  H31 UNL     1      -3.392   1.768   3.449  1.00  0.00     0.274 HD
ENDBRANCH  33  35
ENDBRANCH   4  29
BRANCH   7  39
HETATM   39  N5  UNL     1      -4.228  -3.060  -3.357  1.00  0.00    -0.383 N 
ATOM     40  H52 UNL     1      -4.899  -2.481  -3.862  1.00  0.00     0.157 HD
ATOM     41  H51 UNL     1      -3.988  -3.980  -3.726  1.00  0.00     0.157 HD
ENDBRANCH   7  39
TORSDOF 14
