REMARK  11 active torsions:
REMARK  status: ('A' for Active; 'I' for Inactive)
REMARK    1  A    between atoms: C2_2  and  N1_3 
REMARK    2  A    between atoms: N2_6  and  N3_7 
REMARK       I    between atoms: N3_7  and  C4_9 
REMARK    3  A    between atoms: C4_9  and  C5_11 
REMARK    4  A    between atoms: C9_16  and  N4_17 
REMARK    5  A    between atoms: C10_22  and  S2_23 
REMARK    6  A    between atoms: S2_23  and  C11_24 
REMARK    7  A    between atoms: C11_24  and  C12_25 
REMARK    8  A    between atoms: C12_25  and  O2_26 
REMARK    9  A    between atoms: O2_26  and  C13_27 
REMARK   10  A    between atoms: C13_27  and  C14_29 
REMARK   11  A    between atoms: C14_29  and  N6_31 
ROOT
HETATM    1  N1  UNL     1      -2.027   2.098   0.132  1.00  0.00    -0.307 N 
HETATM    2  C3  UNL     1      -3.187   1.537  -0.146  1.00  0.00     0.202 A 
HETATM    3  S1  UNL     1      -4.470   2.155  -0.969  1.00  0.00    -0.038 SA
HETATM    4  N2  UNL     1      -3.148   0.247   0.399  1.00  0.00    -0.220 N 
HETATM    5  C8  UNL     1      -1.955   0.106   0.986  1.00  0.00     0.147 A 
HETATM    6  C9  UNL     1      -1.317  -0.861   1.727  1.00  0.00     0.134 A 
HETATM    7  N5  UNL     1      -0.061  -0.658   2.237  1.00  0.00    -0.321 N 
ATOM      8  H5  UNL     1       0.372  -1.407   2.778  1.00  0.00     0.169 HD
HETATM    9  C10 UNL     1       0.616   0.466   2.059  1.00  0.00     0.147 A 
HETATM   10  N7  UNL     1       0.022   1.431   1.349  1.00  0.00    -0.321 N 
ATOM     11  H7  UNL     1       0.519   2.309   1.197  1.00  0.00     0.169 HD
HETATM   12  C17 UNL     1      -1.224   1.280   0.822  1.00  0.00     0.145 A 
ENDROOT
BRANCH   9  13
HETATM   13  S2  UNL     1       2.254   0.610   2.759  1.00  0.00    -0.092 SA
BRANCH  13  14
HETATM   14  C11 UNL     1       3.073   2.118   2.370  1.00  0.00     0.109 C 
BRANCH  14  15
HETATM   15  C12 UNL     1       3.531   2.246   0.971  1.00  0.00     0.189 C 
BRANCH  15  16
HETATM   16  O2  UNL     1       4.499   1.423   0.492  1.00  0.00    -0.319 OA
BRANCH  16  17
HETATM   17  C13 UNL     1       4.511   0.106   0.260  1.00  0.00     0.289 C 
HETATM   18  O3  UNL     1       3.561  -0.670   0.444  1.00  0.00    -0.263 OA
BRANCH  17  19
HETATM   19  C14 UNL     1       5.788  -0.502  -0.272  1.00  0.00     0.280 C 
HETATM   20  C15 UNL     1       6.200   0.218  -1.523  1.00  0.00     0.051 C 
BRANCH  19  21
HETATM   21  N6  UNL     1       5.582  -1.913  -0.449  1.00  0.00    -0.066 N 
HETATM   22  C16 UNL     1       6.777  -2.536  -0.954  1.00  0.00     0.267 C 
ATOM     23  H62 UNL     1       5.254  -2.359   0.408  1.00  0.00     0.277 HD
ATOM     24  H61 UNL     1       4.774  -2.107  -1.040  1.00  0.00     0.277 HD
ENDBRANCH  19  21
ENDBRANCH  17  19
ENDBRANCH  16  17
ENDBRANCH  15  16
ENDBRANCH  14  15
ENDBRANCH  13  14
ENDBRANCH   9  13
BRANCH   6  25
HETATM   25  N4  UNL     1      -1.912  -1.928   2.034  1.00  0.00    -0.383 N 
ATOM     26  H42 UNL     1      -2.847  -2.079   1.654  1.00  0.00     0.157 HD
ATOM     27  H41 UNL     1      -1.439  -2.645   2.584  1.00  0.00     0.157 HD
ENDBRANCH   6  25
BRANCH   1  28
HETATM   28  C2  UNL     1      -1.654   3.448  -0.261  1.00  0.00     0.129 C 
HETATM   29  C1  UNL     1      -0.999   3.406  -1.605  1.00  0.00     0.027 C 
ENDBRANCH   1  28
BRANCH   4  30
HETATM   30  N3  UNL     1      -4.252  -0.557   0.327  1.00  0.00    -0.258 N 
HETATM   31  C4  UNL     1      -4.503  -1.919   0.163  1.00  0.00     0.275 C 
HETATM   32  O1  UNL     1      -3.741  -2.878  -0.017  1.00  0.00    -0.268 OA
ATOM     33  H3  UNL     1      -5.116  -0.022   0.416  1.00  0.00     0.190 HD
BRANCH  31  34
HETATM   34  C5  UNL     1      -5.980  -2.387   0.200  1.00  0.00     0.178 C 
HETATM   35  C6  UNL     1      -6.039  -3.875   0.011  1.00  0.00     0.062 C 
HETATM   36  C7  UNL     1      -6.700  -1.753  -0.976  1.00  0.00     0.062 C 
HETATM   37  F1  UNL     1      -6.504  -2.039   1.405  1.00  0.00    -0.233 F 
ENDBRANCH  31  34
ENDBRANCH   4  30
TORSDOF 11
