REMARK  3 active torsions:
REMARK  status: ('A' for Active; 'I' for Inactive)
REMARK    1  A    between atoms: C2_2  and  C3_3 
REMARK    2  A    between atoms: C3_3  and  O1_4 
REMARK       I    between atoms: N1_11  and  C9_12 
REMARK    3  A    between atoms: C9_12  and  C10_14 
REMARK       I    between atoms: N2_17  and  C12_18 
REMARK       I    between atoms: C12_18  and  N3_20 
ROOT
HETATM    1  C1  UNL     1       0.501  -3.029  -0.627  1.00  0.00     0.041 C 
HETATM    2  C2  UNL     1       0.204  -1.939   0.407  1.00  0.00     0.057 C 
HETATM    3  C4  UNL     1      -1.275  -1.553   0.366  1.00  0.00     0.066 C 
HETATM    4  C5  UNL     1      -1.304  -0.095   0.489  1.00  0.00     0.054 C 
HETATM    5  C6  UNL     1      -1.670   0.383   1.907  1.00  0.00     0.034 C 
HETATM    6  C7  UNL     1      -1.707   1.880   1.674  1.00  0.00     0.022 C 
HETATM    7  C8  UNL     1      -2.014   2.029   0.180  1.00  0.00     0.127 C 
HETATM    8  N1  UNL     1      -2.273   0.641  -0.256  1.00  0.00    -0.340 N 
HETATM    9  C9  UNL     1      -3.281   0.314  -1.190  1.00  0.00     0.230 C 
HETATM   10  O2  UNL     1      -3.519  -0.858  -1.567  1.00  0.00    -0.273 OA
HETATM   11  C11 UNL     1       0.098   0.405   0.207  1.00  0.00     0.160 C 
HETATM   12  N2  UNL     1       0.929  -0.767   0.008  1.00  0.00    -0.320 N 
HETATM   13  C12 UNL     1       2.241  -0.709  -0.500  1.00  0.00     0.321 C 
HETATM   14  O3  UNL     1       2.891  -1.797  -0.637  1.00  0.00    -0.247 OA
HETATM   15  N3  UNL     1       2.903   0.474  -0.877  1.00  0.00    -0.334 N 
HETATM   16  C13 UNL     1       2.663   1.922  -0.932  1.00  0.00     0.129 C 
HETATM   17  C14 UNL     1       4.161   2.089  -0.642  1.00  0.00     0.040 C 
HETATM   18  C15 UNL     1       4.228   0.797  -1.427  1.00  0.00     0.129 C 
ENDROOT
BRANCH   2  19
HETATM   19  C3  UNL     1       0.620  -2.472   1.749  1.00  0.00     0.195 C 
BRANCH  19  20
HETATM   20  O1  UNL     1      -0.135  -3.603   2.051  1.00  0.00    -0.398 OA
ATOM     21  H1  UNL     1       0.128  -3.940   2.899  1.00  0.00     0.209 HD
ENDBRANCH  19  20
ENDBRANCH   2  19
BRANCH   9  22
HETATM   22  C10 UNL     1      -4.152   1.373  -1.806  1.00  0.00     0.188 C 
HETATM   23 BR1  UNL     1      -5.409   0.621  -3.020  1.00  0.00    -0.087 Br
ENDBRANCH   9  22
TORSDOF 3
