REMARK  7 active torsions:
REMARK  status: ('A' for Active; 'I' for Inactive)
REMARK    1  A    between atoms: C1_2  and  C2_4 
REMARK    2  A    between atoms: C4_7  and  C5_8 
REMARK    3  A    between atoms: C5_8  and  N1_9 
REMARK    4  A    between atoms: N1_9  and  C6_10 
REMARK    5  A    between atoms: N1_9  and  C12_21 
REMARK    6  A    between atoms: C6_10  and  C7_11 
REMARK    7  A    between atoms: C8_16  and  C9_17 
ROOT
HETATM    1  N1  UNL     1      -0.091   0.576  -1.037  1.00  0.00    -0.278 NA
ENDROOT
BRANCH   1   2
HETATM    2  C5  UNL     1      -1.204   1.024  -1.885  1.00  0.00     0.160 C 
BRANCH   2   3
HETATM    3  C4  UNL     1      -2.308   1.675  -1.143  1.00  0.00     0.065 A 
HETATM    4  S1  UNL     1      -2.539   3.324  -0.764  1.00  0.00    -0.085 SA
HETATM    5  C3  UNL     1      -4.026   3.200   0.063  1.00  0.00     0.088 A 
HETATM    6  C2  UNL     1      -4.270   1.844  -0.002  1.00  0.00     0.117 A 
HETATM    7  N4  UNL     1      -3.378   1.122  -0.617  1.00  0.00    -0.347 N 
ATOM      8  H4  UNL     1      -3.511   0.114  -0.692  1.00  0.00     0.166 HD
BRANCH   6   9
HETATM    9  C1  UNL     1      -5.485   1.267   0.603  1.00  0.00     0.227 C 
HETATM   10  O1  UNL     1      -5.679   0.041   0.530  1.00  0.00    -0.643 OA
HETATM   11  O2  UNL     1      -6.392   2.068   1.239  1.00  0.00    -0.643 OA
ENDBRANCH   6   9
ENDBRANCH   2   3
ENDBRANCH   1   2
BRANCH   1  12
HETATM   12  C6  UNL     1       0.414   1.689  -0.349  1.00  0.00     0.118 C 
BRANCH  12  13
HETATM   13  C7  UNL     1       1.657   1.551   0.425  1.00  0.00     0.174 A 
HETATM   14  N2  UNL     1       1.862   2.192   1.618  1.00  0.00    -0.277 N 
HETATM   15  N3  UNL     1       3.055   1.874   2.057  1.00  0.00    -0.281 N 
ATOM     16  H2  UNL     1       1.199   2.811   2.085  1.00  0.00     0.189 HD
HETATM   17  C8  UNL     1       3.617   1.050   1.182  1.00  0.00     0.144 A 
ATOM     18  H3  UNL     1       3.479   2.204   2.924  1.00  0.00     0.189 HD
HETATM   19  O3  UNL     1       2.738   0.888   0.220  1.00  0.00    -0.277 OA
BRANCH  17  20
HETATM   20  C9  UNL     1       4.966   0.394   1.203  1.00  0.00     0.062 A 
HETATM   21  C10 UNL     1       5.143  -0.932   0.528  1.00  0.00     0.013 A 
HETATM   22  C11 UNL     1       5.671   0.291  -0.109  1.00  0.00     0.013 A 
ENDBRANCH  17  20
ENDBRANCH  12  13
ENDBRANCH   1  12
BRANCH   1  23
HETATM   23  C12 UNL     1      -0.525  -0.583  -0.375  1.00  0.00     0.063 C 
HETATM   24  C13 UNL     1      -0.817  -1.621  -1.486  1.00  0.00     0.020 C 
HETATM   25  C14 UNL     1      -0.367  -3.001  -1.066  1.00  0.00     0.002 C 
HETATM   26  C15 UNL     1      -0.944  -3.308   0.286  1.00  0.00     0.000 C 
HETATM   27  C16 UNL     1      -0.290  -2.414   1.279  1.00  0.00     0.002 C 
HETATM   28  C17 UNL     1       0.356  -1.175   0.667  1.00  0.00     0.020 C 
ENDBRANCH   1  23
TORSDOF 7
