REMARK  8 active torsions:
REMARK  status: ('A' for Active; 'I' for Inactive)
REMARK    1  A    between atoms: N1_10  and  C10_11 
REMARK    2  A    between atoms: C13_14  and  O1_15 
REMARK    3  A    between atoms: N2_17  and  C14_18 
REMARK    4  A    between atoms: C14_18  and  C15_19 
REMARK    5  A    between atoms: N3_21  and  C17_22 
REMARK    6  A    between atoms: C17_22  and  C18_23 
REMARK    7  A    between atoms: C18_23  and  C19_24 
REMARK    8  A    between atoms: C19_24  and  C20_25 
ROOT
HETATM    1  C1  UNL     1      -5.940  -1.074   1.766  1.00  0.00     0.036 C 
HETATM    2  C2  UNL     1      -4.529  -0.774   1.466  1.00  0.00    -0.023 C 
HETATM    3  C3  UNL     1      -4.180  -0.667   0.175  1.00  0.00    -0.052 C 
HETATM    4  C4  UNL     1      -5.184  -0.850  -0.867  1.00  0.00     0.039 C 
HETATM    5  C5  UNL     1      -4.680  -1.951  -1.825  1.00  0.00     0.005 C 
HETATM    6  C6  UNL     1      -3.273  -1.702  -2.182  1.00  0.00     0.005 C 
HETATM    7  C7  UNL     1      -2.253  -1.522  -1.087  1.00  0.00     0.043 C 
HETATM    8  C8  UNL     1      -2.755  -0.471  -0.105  1.00  0.00    -0.007 C 
HETATM    9  C9  UNL     1      -2.064   0.598   0.239  1.00  0.00     0.122 A 
HETATM   10  N1  UNL     1      -2.583   1.777   0.888  1.00  0.00    -0.339 N 
HETATM   11  C12 UNL     1      -1.491   2.572   1.292  1.00  0.00     0.149 A 
HETATM   12  C13 UNL     1      -0.358   2.009   0.959  1.00  0.00     0.164 A 
HETATM   13  N2  UNL     1      -0.600   0.783   0.306  1.00  0.00    -0.285 N 
ENDROOT
BRANCH  13  14
HETATM   14  C14 UNL     1       0.339  -0.160  -0.156  1.00  0.00     0.133 C 
BRANCH  14  15
HETATM   15  C15 UNL     1       1.731  -0.156   0.259  1.00  0.00     0.082 A 
HETATM   16  C16 UNL     1       2.537  -1.291  -0.035  1.00  0.00     0.144 A 
HETATM   17  N3  UNL     1       3.764  -1.042   0.445  1.00  0.00    -0.287 N 
HETATM   18  N4  UNL     1       3.723   0.153   0.993  1.00  0.00    -0.240 N 
HETATM   19  N5  UNL     1       2.525   0.648   0.871  1.00  0.00    -0.284 N 
ATOM     20  H4  UNL     1       4.509   0.620   1.444  1.00  0.00     0.208 HD
ATOM     21  H5  UNL     1       2.249   1.566   1.220  1.00  0.00     0.188 HD
BRANCH  17  22
HETATM   22  C17 UNL     1       4.893  -1.978   0.349  1.00  0.00     0.150 C 
BRANCH  22  23
HETATM   23  C18 UNL     1       5.677  -1.775  -0.907  1.00  0.00     0.022 C 
BRANCH  23  24
HETATM   24  C19 UNL     1       6.263  -0.391  -0.994  1.00  0.00     0.001 C 
BRANCH  24  25
HETATM   25  C20 UNL     1       7.212  -0.117   0.168  1.00  0.00    -0.004 C 
HETATM   26  C21 UNL     1       7.749   1.294  -0.007  1.00  0.00     0.005 C 
ENDBRANCH  24  25
ENDBRANCH  23  24
ENDBRANCH  22  23
ENDBRANCH  17  22
ENDBRANCH  14  15
ENDBRANCH  13  14
BRANCH  12  27
HETATM   27  O1  UNL     1       0.906   2.564   1.224  1.00  0.00    -0.345 OA
ATOM     28  H1  UNL     1       1.729   2.155   0.982  1.00  0.00     0.219 HD
ENDBRANCH  12  27
BRANCH  10  29
HETATM   29  C10 UNL     1      -3.941   2.228   1.115  1.00  0.00     0.126 C 
HETATM   30  C11 UNL     1      -3.861   3.765   1.382  1.00  0.00     0.027 C 
ENDBRANCH  10  29
TORSDOF 8
