REMARK  9 active torsions:
REMARK  status: ('A' for Active; 'I' for Inactive)
REMARK    1  A    between atoms: C2_2  and  C3_3 
REMARK    2  A    between atoms: C3_3  and  C4_4 
REMARK    3  A    between atoms: C5_7  and  C6_8 
REMARK    4  A    between atoms: C6_8  and  C12_17 
REMARK    5  A    between atoms: N2_9  and  C7_11 
REMARK    6  A    between atoms: C7_11  and  C8_12 
REMARK    7  A    between atoms: C12_17  and  O3_19 
REMARK    8  A    between atoms: C14_21  and  O4_22 
REMARK    9  A    between atoms: N3_24  and  C15_25 
ROOT
HETATM    1  C4  UNL     1      -1.638   1.530  -0.176  1.00  0.00     0.086 A 
HETATM    2  N1  UNL     1      -0.384   1.945   0.079  1.00  0.00    -0.340 N 
ATOM      3  H1  UNL     1      -0.038   2.890  -0.088  1.00  0.00     0.167 HD
HETATM    4  C5  UNL     1       0.351   0.933   0.588  1.00  0.00     0.118 A 
HETATM    5  C14 UNL     1      -0.522  -0.140   0.636  1.00  0.00     0.174 A 
HETATM    6  N3  UNL     1      -1.730   0.228   0.170  1.00  0.00    -0.310 N 
ENDROOT
BRANCH   4   7
HETATM    7  C6  UNL     1       1.768   0.970   1.000  1.00  0.00     0.139 C 
HETATM    8  N2  UNL     1       2.271  -0.086   1.453  1.00  0.00    -0.360 N 
ATOM      9  H2  UNL     1       1.612  -0.864   1.479  1.00  0.00     0.165 HD
BRANCH   8  10
HETATM   10  C7  UNL     1       3.549  -0.429   1.933  1.00  0.00     0.093 C 
BRANCH  10  11
HETATM   11  C8  UNL     1       4.394  -0.925   0.786  1.00  0.00     0.159 C 
HETATM   12  C9  UNL     1       3.862  -2.266   0.259  1.00  0.00     0.039 C 
HETATM   13  C10 UNL     1       5.061  -2.655  -0.617  1.00  0.00     0.029 C 
HETATM   14  C11 UNL     1       6.193  -2.032   0.151  1.00  0.00     0.168 C 
HETATM   15  O1  UNL     1       5.665  -1.282   1.169  1.00  0.00    -0.381 OA
ENDBRANCH  10  11
ENDBRANCH   8  10
BRANCH   7  16
HETATM   16  C12 UNL     1       2.481   2.210   0.857  1.00  0.00     0.312 C 
HETATM   17  O2  UNL     1       3.683   2.309   1.186  1.00  0.00    -0.258 OA
BRANCH  16  18
HETATM   18  O3  UNL     1       1.905   3.374   0.351  1.00  0.00    -0.321 OA
HETATM   19  C13 UNL     1       2.641   4.585   0.223  1.00  0.00     0.213 C 
ENDBRANCH  16  18
ENDBRANCH   7  16
ENDBRANCH   4   7
BRANCH   5  20
HETATM   20  O4  UNL     1      -0.172  -1.407   1.104  1.00  0.00    -0.344 OA
ATOM     21  H4  UNL     1      -0.771  -2.143   1.137  1.00  0.00     0.219 HD
ENDBRANCH   5  20
BRANCH   1  22
HETATM   22  C3  UNL     1      -2.742   2.328  -0.735  1.00  0.00     0.076 C 
BRANCH  22  23
HETATM   23  C2  UNL     1      -2.801   2.279  -2.247  1.00  0.00     0.003 C 
HETATM   24  C1  UNL     1      -1.550   2.798  -2.884  1.00  0.00     0.005 C 
ENDBRANCH  22  23
ENDBRANCH   1  22
BRANCH   6  25
HETATM   25  C15 UNL     1      -2.892  -0.599   0.061  1.00  0.00     0.093 C 
HETATM   26  C16 UNL     1      -3.684  -0.652   1.360  1.00  0.00     0.026 C 
HETATM   27  C17 UNL     1      -4.711  -1.736   1.231  1.00  0.00     0.002 C 
HETATM   28  C18 UNL     1      -4.994  -2.118  -0.204  1.00  0.00     0.000 C 
HETATM   29  C19 UNL     1      -3.794  -2.630  -0.931  1.00  0.00     0.002 C 
HETATM   30  C20 UNL     1      -2.557  -2.043  -0.287  1.00  0.00     0.026 C 
ENDBRANCH   6  25
TORSDOF 9
