REMARK  7 active torsions:
REMARK  status: ('A' for Active; 'I' for Inactive)
REMARK    1  A    between atoms: C4_5  and  N1_6 
REMARK    2  A    between atoms: C8_10  and  C9_11 
REMARK    3  A    between atoms: C8_10  and  C10_14 
REMARK    4  A    between atoms: C9_11  and  O1_12 
REMARK    5  A    between atoms: C10_14  and  C11_15 
REMARK    6  A    between atoms: C13_17  and  C14_18 
REMARK    7  A    between atoms: C14_18  and  C15_19 
ROOT
HETATM    1  N1  UNL     1       3.968  -0.394   0.136  1.00  0.00    -0.361 N 
HETATM    2  C5  UNL     1       4.102  -1.320  -0.954  1.00  0.00     0.125 C 
HETATM    3  C6  UNL     1       2.949  -2.313  -0.893  1.00  0.00     0.021 C 
HETATM    4  C7  UNL     1       1.613  -1.656  -0.872  1.00  0.00     0.015 C 
HETATM    5  C8  UNL     1       1.501  -0.428  -0.033  1.00  0.00     0.002 C 
HETATM    6  C20 UNL     1       2.761  -0.348   0.892  1.00  0.00     0.136 C 
ENDROOT
BRANCH   5   7
HETATM    7  C9  UNL     1       1.504   0.870  -0.753  1.00  0.00     0.175 C 
BRANCH   7   8
HETATM    8  O1  UNL     1       0.507   1.091  -1.672  1.00  0.00    -0.400 OA
ATOM      9  H1  UNL     1       0.509   1.922  -2.133  1.00  0.00     0.209 HD
ENDBRANCH   7   8
ENDBRANCH   5   7
BRANCH   5  10
HETATM   10  C10 UNL     1       0.375  -0.646   0.938  1.00  0.00     0.072 C 
BRANCH  10  11
HETATM   11  C11 UNL     1      -0.928  -0.936   0.329  1.00  0.00     0.036 A 
HETATM   12  C12 UNL     1      -2.062  -1.148   1.099  1.00  0.00     0.061 A 
HETATM   13  C13 UNL     1      -3.079  -1.404   0.211  1.00  0.00     0.078 A 
HETATM   14  O2  UNL     1      -2.546  -1.339  -0.989  1.00  0.00    -0.242 OA
HETATM   15  N2  UNL     1      -1.290  -1.067  -0.954  1.00  0.00    -0.265 N 
ATOM     16  H2  UNL     1      -0.676  -0.968  -1.762  1.00  0.00     0.194 HD
BRANCH  13  17
HETATM   17  C14 UNL     1      -4.518  -1.704   0.448  1.00  0.00     0.072 C 
BRANCH  17  18
HETATM   18  C15 UNL     1      -5.319  -0.435   0.517  1.00  0.00    -0.008 C 
HETATM   19  C16 UNL     1      -5.205   0.378  -0.788  1.00  0.00     0.005 C 
HETATM   20  C17 UNL     1      -6.243   1.472  -0.465  1.00  0.00     0.000 C 
HETATM   21  C18 UNL     1      -7.347   0.738   0.259  1.00  0.00     0.000 C 
HETATM   22  C19 UNL     1      -6.828  -0.683   0.492  1.00  0.00     0.005 C 
ENDBRANCH  17  18
ENDBRANCH  13  17
ENDBRANCH  10  11
ENDBRANCH   5  10
BRANCH   1  23
HETATM   23  C4  UNL     1       5.051   0.468   0.471  1.00  0.00     0.146 A 
HETATM   24  S1  UNL     1       6.172   0.338   1.785  1.00  0.00    -0.064 SA
HETATM   25  C3  UNL     1       7.118   1.722   1.450  1.00  0.00     0.077 A 
HETATM   26  C2  UNL     1       6.505   2.211   0.325  1.00  0.00     0.014 A 
HETATM   27  C1  UNL     1       7.043   3.469  -0.332  1.00  0.00     0.068 C 
HETATM   28  N3  UNL     1       5.486   1.565  -0.128  1.00  0.00    -0.340 N 
ATOM     29  H3  UNL     1       5.007   1.905  -0.962  1.00  0.00     0.167 HD
ENDBRANCH   1  23
TORSDOF 7
