REMARK  7 active torsions:
REMARK  status: ('A' for Active; 'I' for Inactive)
REMARK    1  A    between atoms: C2_2  and  N1_3 
REMARK    2  A    between atoms: C7_8  and  N2_9 
REMARK    3  A    between atoms: C10_12  and  O1_13 
REMARK    4  A    between atoms: C10_12  and  C11_15 
REMARK    5  A    between atoms: C11_15  and  C12_16 
REMARK    6  A    between atoms: C12_16  and  C13_17 
REMARK    7  A    between atoms: C18_24  and  S1_25 
ROOT
HETATM    1  N1  UNL     1      -4.142  -1.456  -0.651  1.00  0.00    -0.337 N 
HETATM    2  C3  UNL     1      -3.049  -2.228  -0.538  1.00  0.00     0.010 A 
HETATM    3  C4  UNL     1      -2.976  -3.730  -0.469  1.00  0.00     0.068 C 
HETATM    4  C5  UNL     1      -1.977  -1.363  -0.496  1.00  0.00     0.044 A 
HETATM    5  C6  UNL     1      -2.404  -0.050  -0.584  1.00  0.00     0.054 A 
HETATM    6  C7  UNL     1      -1.783   1.177  -0.590  1.00  0.00     0.119 A 
HETATM    7  N3  UNL     1      -2.547   2.274  -0.692  1.00  0.00    -0.322 N 
ATOM      8  H3  UNL     1      -2.104   3.193  -0.698  1.00  0.00     0.169 HD
HETATM    9  C18 UNL     1      -3.897   2.188  -0.788  1.00  0.00     0.147 A 
HETATM   10  N4  UNL     1      -4.492   0.987  -0.781  1.00  0.00    -0.322 N 
ATOM     11  H4  UNL     1      -5.508   0.941  -0.854  1.00  0.00     0.169 HD
HETATM   12  C20 UNL     1      -3.798  -0.157  -0.681  1.00  0.00     0.123 A 
ENDROOT
BRANCH   6  13
HETATM   13  N2  UNL     1      -0.380   1.275  -0.492  1.00  0.00    -0.366 N 
HETATM   14  C8  UNL     1       0.483   0.682  -1.464  1.00  0.00     0.127 C 
HETATM   15  C9  UNL     1       1.699   0.006  -0.927  1.00  0.00     0.057 C 
HETATM   16  C10 UNL     1       2.342   0.754   0.199  1.00  0.00     0.061 C 
HETATM   17  C16 UNL     1       1.705   2.111   0.422  1.00  0.00     0.057 C 
HETATM   18  C17 UNL     1       0.227   2.001   0.628  1.00  0.00     0.127 C 
BRANCH  16  19
HETATM   19  O1  UNL     1       2.174   0.029   1.402  1.00  0.00    -0.390 OA
ATOM     20  H1  UNL     1       2.582   0.504   2.117  1.00  0.00     0.210 HD
ENDBRANCH  16  19
BRANCH  16  21
HETATM   21  C11 UNL     1       3.828   0.912  -0.025  1.00  0.00     0.038 C 
BRANCH  21  22
HETATM   22  C12 UNL     1       4.446  -0.447  -0.119  1.00  0.00     0.007 C 
BRANCH  22  23
HETATM   23  C13 UNL     1       5.941  -0.391  -0.343  1.00  0.00    -0.023 C 
HETATM   24  C14 UNL     1       6.652   0.336   0.789  1.00  0.00     0.009 C 
HETATM   25  C15 UNL     1       6.433  -1.838  -0.300  1.00  0.00     0.009 C 
ENDBRANCH  22  23
ENDBRANCH  21  22
ENDBRANCH  16  21
ENDBRANCH   6  13
BRANCH   9  26
HETATM   26  S1  UNL     1      -4.907   3.641  -0.924  1.00  0.00    -0.098 SA
HETATM   27  C19 UNL     1      -5.341   4.176   0.761  1.00  0.00     0.099 C 
ENDBRANCH   9  26
BRANCH   1  28
HETATM   28  C2  UNL     1      -5.495  -1.990  -0.728  1.00  0.00     0.126 C 
HETATM   29  C1  UNL     1      -6.124  -2.139   0.618  1.00  0.00     0.027 C 
ENDBRANCH   1  28
TORSDOF 7
