REMARK  2 active torsions:
REMARK  status: ('A' for Active; 'I' for Inactive)
REMARK    1  A    between atoms: O1_1  and  N1_3 
REMARK    2  A    between atoms: N1_3  and  C1_5 
ROOT
HETATM    1  C1  UNL     1       0.929  -0.103   0.597  1.00  0.00     0.304 C 
HETATM    2  C2  UNL     1      -0.012   1.072   0.416  1.00  0.00     0.058 C 
HETATM    3  C3  UNL     1      -1.101   0.520  -0.513  1.00  0.00     0.031 C 
HETATM    4  C4  UNL     1      -1.064  -0.947  -0.063  1.00  0.00     0.235 C 
HETATM    5  N2  UNL     1       0.383  -1.190  -0.200  1.00  0.00    -0.053 N 
ATOM      6  H21 UNL     1       0.696  -2.125   0.063  1.00  0.00     0.279 HD
ATOM      7  H22 UNL     1       0.728  -1.245  -1.158  1.00  0.00     0.279 HD
ENDROOT
BRANCH   1   8
HETATM    8  N1  UNL     1       2.242   0.275   0.182  1.00  0.00    -0.274 N 
ATOM      9  H1  UNL     1       2.659   1.113   0.587  1.00  0.00     0.189 HD
BRANCH   8  10
HETATM   10  O1  UNL     1       2.868  -0.342  -0.611  1.00  0.00    -0.293 OA
ATOM     11  H1  UNL     1       3.742  -0.091  -0.887  1.00  0.00     0.244 HD
ENDBRANCH   8  10
ENDBRANCH   1   8
TORSDOF 2
