REMARK  0 active torsions:
REMARK  status: ('A' for Active; 'I' for Inactive)
ROOT
HETATM    1  N1  UNL     1       2.816  -0.065   1.603  1.00  0.00    -0.195 NA
HETATM    2  C1  UNL     1       2.118  -0.218   0.696  1.00  0.00     0.092 C 
HETATM    3  C2  UNL     1       1.215  -0.396  -0.467  1.00  0.00     0.291 C 
HETATM    4  C3  UNL     1       0.136  -1.370  -0.148  1.00  0.00     0.048 C 
HETATM    5  C4  UNL     1      -1.207  -0.792   0.093  1.00  0.00     0.005 C 
HETATM    6  C5  UNL     1      -1.265   0.630   0.474  1.00  0.00     0.027 C 
HETATM    7  C6  UNL     1      -0.186   1.508  -0.031  1.00  0.00     0.234 C 
HETATM    8  N2  UNL     1       0.760   0.883  -0.904  1.00  0.00    -0.059 N 
ATOM      9  H21 UNL     1       0.383   0.821  -1.850  1.00  0.00     0.278 HD
ATOM     10  H22 UNL     1       1.552   1.503  -1.071  1.00  0.00     0.278 HD
ENDROOT
TORSDOF 0
