REMARK  0 active torsions:
REMARK  status: ('A' for Active; 'I' for Inactive)
ROOT
HETATM    1  C1  UNL     1      -1.235  -0.509  -0.425  1.00  0.00     0.054 C 
HETATM    2  C2  UNL     1      -0.154  -1.333   0.194  1.00  0.00     0.234 C 
HETATM    3  N1  UNL     1       1.108  -0.988  -0.456  1.00  0.00    -0.073 N 
ATOM      4  H11 UNL     1       1.026  -0.845  -1.463  1.00  0.00     0.277 HD
ATOM      5  H12 UNL     1       1.773  -1.760  -0.499  1.00  0.00     0.277 HD
HETATM    6  C3  UNL     1       1.609   0.184   0.268  1.00  0.00     0.258 C 
HETATM    7  C4  UNL     1       0.729   1.344  -0.215  1.00  0.00     0.195 C 
HETATM    8  O1  UNL     1      -0.362   1.497   0.601  1.00  0.00    -0.389 OA
HETATM    9  C5  UNL     1      -1.476   0.803   0.244  1.00  0.00     0.169 C 
ENDROOT
TORSDOF 0
