REMARK  1 active torsions:
REMARK  status: ('A' for Active; 'I' for Inactive)
REMARK    1  A    between atoms: C4_5  and  O2_6 
ROOT
HETATM    1  C1  UNL     1      -1.041  -1.145   0.003  1.00  0.00     0.017 C 
HETATM    2  C2  UNL     1       0.066  -0.337  -0.588  1.00  0.00     0.060 C 
HETATM    3  C3  UNL     1       1.286  -0.132   0.251  1.00  0.00     0.180 C 
HETATM    4  O1  UNL     1       1.393   1.166  -0.278  1.00  0.00    -0.360 OA
HETATM    5  C4  UNL     1      -0.001   1.147  -0.409  1.00  0.00     0.262 C 
ENDROOT
BRANCH   5   6
HETATM    6  O2  UNL     1      -0.675   1.564   0.742  1.00  0.00    -0.371 OA
ATOM      7  H2  UNL     1      -0.718   2.506   0.856  1.00  0.00     0.212 HD
ENDBRANCH   5   6
TORSDOF 1
