REMARK  5 active torsions:
REMARK  status: ('A' for Active; 'I' for Inactive)
REMARK    1  A    between atoms: C2_2  and  C3_3 
REMARK    2  A    between atoms: C4_4  and  C5_5 
REMARK    3  A    between atoms: C6_6  and  C7_7 
REMARK    4  A    between atoms: C7_7  and  N1_8 
REMARK    5  A    between atoms: N1_8  and  O1_10 
ROOT
HETATM    1  C5  UNL     1       0.155   0.182   0.520  1.00  0.00    -0.014 C 
HETATM    2  C6  UNL     1      -1.009   0.487   0.622  1.00  0.00    -0.076 C 
ENDROOT
BRANCH   2   3
HETATM    3  C7  UNL     1      -2.430   0.886   0.745  1.00  0.00     0.214 C 
BRANCH   3   4
HETATM    4  N1  UNL     1      -3.242  -0.263   0.467  1.00  0.00    -0.193 NA
HETATM    5  C8  UNL     1      -4.187   0.068  -0.567  1.00  0.00     0.144 C 
BRANCH   4   6
HETATM    6  O1  UNL     1      -2.484  -1.346   0.125  1.00  0.00    -0.313 OA
ATOM      7  H1  UNL     1      -3.022  -2.107  -0.059  1.00  0.00     0.237 HD
ENDBRANCH   4   6
ENDBRANCH   3   4
ENDBRANCH   2   3
BRANCH   1   8
HETATM    8  C4  UNL     1       1.532  -0.152   0.399  1.00  0.00    -0.015 C 
HETATM    9  C3  UNL     1       2.704  -0.419   0.285  1.00  0.00    -0.093 C 
BRANCH   9  10
HETATM   10  C2  UNL     1       4.138  -0.728   0.133  1.00  0.00     0.090 C 
HETATM   11  C1  UNL     1       4.830   0.290  -0.738  1.00  0.00     0.018 C 
ENDBRANCH   9  10
ENDBRANCH   1   8
TORSDOF 5
