REMARK  18 active torsions:
REMARK  status: ('A' for Active; 'I' for Inactive)
REMARK    1  A    between atoms: C3_3  and  C4_4 
REMARK    2  A    between atoms: C4_4  and  C5_5 
REMARK    3  A    between atoms: C4_4  and  N6_26 
REMARK    4  A    between atoms: C5_5  and  C6_6 
REMARK    5  A    between atoms: C6_6  and  C7_7 
REMARK    6  A    between atoms: C7_7  and  C8_8 
REMARK    7  A    between atoms: C8_8  and  N1_9 
REMARK    8  A    between atoms: N1_9  and  C10_11 
REMARK    9  A    between atoms: C10_11  and  C11_12 
REMARK   10  A    between atoms: C13_16  and  N3_17 
REMARK   11  A    between atoms: C14_22  and  N5_23 
REMARK       I    between atoms: N6_26  and  C15_28 
REMARK   12  A    between atoms: C15_28  and  C16_30 
REMARK   13  A    between atoms: C16_30  and  N7_31 
REMARK   14  A    between atoms: N7_31  and  C17_33 
REMARK   15  A    between atoms: N9_39  and  C21_40 
REMARK   16  A    between atoms: C21_40  and  C22_41 
REMARK   17  A    between atoms: C22_41  and  C23_42 
REMARK   18  A    between atoms: C23_42  and  N10_43 
ROOT
HETATM    1  C1  UNL     1       1.732   3.589   4.381  1.00  0.00     0.112 C 
HETATM    2  C2  UNL     1       1.585   2.381   3.552  1.00  0.00    -0.109 C 
HETATM    3  C3  UNL     1       1.474   1.380   2.892  1.00  0.00    -0.082 C 
ENDROOT
BRANCH   3   4
HETATM    4  C4  UNL     1       1.320   0.134   2.096  1.00  0.00     0.164 C 
BRANCH   4   5
HETATM    5  C5  UNL     1       2.151  -0.899   2.790  1.00  0.00     0.038 C 
BRANCH   5   6
HETATM    6  C6  UNL     1       2.059  -2.198   2.063  1.00  0.00     0.005 C 
BRANCH   6   7
HETATM    7  C7  UNL     1       2.552  -2.185   0.658  1.00  0.00     0.030 C 
BRANCH   7   8
HETATM    8  C8  UNL     1       4.007  -1.829   0.506  1.00  0.00     0.272 C 
BRANCH   8   9
HETATM    9  N1  UNL     1       4.332  -1.855  -0.904  1.00  0.00     0.088 N 
HETATM   10  C9  UNL     1       4.256  -3.235  -1.384  1.00  0.00     0.310 C 
BRANCH   9  11
HETATM   11  C10 UNL     1       5.572  -1.243  -1.244  1.00  0.00     0.315 C 
BRANCH  11  12
HETATM   12  C11 UNL     1       5.556   0.202  -1.135  1.00  0.00     0.030 A 
HETATM   13  C12 UNL     1       4.443   0.930  -0.845  1.00  0.00     0.118 A 
HETATM   14  N2  UNL     1       4.463   2.299  -0.790  1.00  0.00    -0.201 N 
HETATM   15  C13 UNL     1       5.595   2.970  -1.024  1.00  0.00     0.677 A 
ATOM     16  H2  UNL     1       3.608   2.810  -0.569  1.00  0.00     0.183 HD
HETATM   17  N4  UNL     1       6.697   2.280  -1.310  1.00  0.00    -0.177 N 
HETATM   18  C14 UNL     1       6.725   0.943  -1.375  1.00  0.00     0.124 A 
ATOM     19  H4  UNL     1       7.560   2.794  -1.488  1.00  0.00     0.185 HD
BRANCH  15  20
HETATM   20  N3  UNL     1       5.586   4.270  -0.966  1.00  0.00    -0.234 N 
ATOM     21  H32 UNL     1       4.742   4.799  -0.747  1.00  0.00     0.174 HD
ATOM     22  H31 UNL     1       6.450   4.782  -1.145  1.00  0.00     0.174 HD
ENDBRANCH  15  20
BRANCH  18  23
HETATM   23  N5  UNL     1       7.788   0.280  -1.651  1.00  0.00    -0.385 N 
ATOM     24  H52 UNL     1       7.809  -0.739  -1.701  1.00  0.00     0.157 HD
ATOM     25  H51 UNL     1       8.637   0.818  -1.825  1.00  0.00     0.157 HD
ENDBRANCH  18  23
ENDBRANCH  11  12
ENDBRANCH   9  11
ENDBRANCH   8   9
ENDBRANCH   7   8
ENDBRANCH   6   7
ENDBRANCH   5   6
ENDBRANCH   4   5
BRANCH   4  26
HETATM   26  N6  UNL     1      -0.073  -0.229   2.020  1.00  0.00    -0.345 N 
HETATM   27  C15 UNL     1      -0.875  -0.225   0.865  1.00  0.00     0.236 C 
HETATM   28  O1  UNL     1      -0.411   0.125  -0.247  1.00  0.00    -0.272 OA
ATOM     29  H6  UNL     1      -0.521  -0.517   2.890  1.00  0.00     0.163 HD
BRANCH  27  30
HETATM   30  C16 UNL     1      -2.286  -0.640   0.945  1.00  0.00     0.240 C 
BRANCH  30  31
HETATM   31  N7  UNL     1      -2.911  -0.567  -0.341  1.00  0.00    -0.218 N 
ATOM     32  H7  UNL     1      -2.386  -0.211  -1.139  1.00  0.00     0.178 HD
BRANCH  31  33
HETATM   33  C17 UNL     1      -4.281  -0.994  -0.517  1.00  0.00     0.672 C 
HETATM   34  N8  UNL     1      -4.603  -2.159  -0.924  1.00  0.00    -0.224 N 
HETATM   35  C18 UNL     1      -6.029  -2.324  -1.012  1.00  0.00     0.163 C 
ATOM     36  H8  UNL     1      -3.929  -2.888  -1.159  1.00  0.00     0.177 HD
HETATM   37  C19 UNL     1      -6.559  -1.176  -0.181  1.00  0.00     0.116 C 
HETATM   38  C20 UNL     1      -7.854  -0.733  -0.756  1.00  0.00     0.034 C 
HETATM   39  N9  UNL     1      -5.463  -0.235  -0.269  1.00  0.00    -0.212 N 
BRANCH  39  40
HETATM   40  C21 UNL     1      -5.501   1.186  -0.133  1.00  0.00     0.143 C 
BRANCH  40  41
HETATM   41  C22 UNL     1      -6.122   1.986  -1.209  1.00  0.00     0.048 C 
BRANCH  41  42
HETATM   42  C23 UNL     1      -5.438   1.941  -2.547  1.00  0.00     0.231 C 
BRANCH  42  43
HETATM   43  N10 UNL     1      -5.328   0.668  -3.154  1.00  0.00    -0.079 N 
ATOM     44 3H10 UNL     1      -4.872   0.019  -2.513  1.00  0.00     0.274 HD
ATOM     45 2H10 UNL     1      -6.251   0.240  -3.225  1.00  0.00     0.274 HD
ATOM     46 1H10 UNL     1      -4.864   0.637  -4.062  1.00  0.00     0.274 HD
ENDBRANCH  42  43
ENDBRANCH  41  42
ENDBRANCH  40  41
ENDBRANCH  39  40
ENDBRANCH  31  33
ENDBRANCH  30  31
ENDBRANCH  27  30
ENDBRANCH   4  26
ENDBRANCH   3   4
TORSDOF 18
