REMARK  18 active torsions:
REMARK  status: ('A' for Active; 'I' for Inactive)
REMARK    1  A    between atoms: C6_8  and  N2_9 
REMARK    2  A    between atoms: N2_9  and  C7_11 
REMARK    3  A    between atoms: C7_11  and  C8_12 
REMARK    4  A    between atoms: C8_12  and  C9_13 
REMARK       I    between atoms: C9_13  and  N3_15 
REMARK    5  A    between atoms: N3_15  and  C10_17 
REMARK    6  A    between atoms: C10_17  and  C11_18 
REMARK    7  A    between atoms: C11_18  and  C12_19 
REMARK    8  A    between atoms: C12_19  and  C13_20 
REMARK    9  A    between atoms: C13_20  and  C14_21 
REMARK   10  A    between atoms: C14_21  and  C15_22 
REMARK   11  A    between atoms: C15_22  and  C16_23 
REMARK   12  A    between atoms: C16_23  and  N4_24 
REMARK   13  A    between atoms: N4_24  and  C17_26 
REMARK   14  A    between atoms: C18_29  and  N6_30 
REMARK   15  A    between atoms: C19_35  and  N8_36 
REMARK   16  A    between atoms: N8_36  and  C20_38 
REMARK   17  A    between atoms: C20_38  and  C21_39 
REMARK   18  A    between atoms: C21_39  and  O2_40 
ROOT
HETATM    1  C14 UNL     1      -1.481   3.128  -0.826  1.00  0.00     0.002 C 
ENDROOT
BRANCH   1   2
HETATM    2  C13 UNL     1      -0.721   2.313  -1.744  1.00  0.00     0.000 C 
BRANCH   2   3
HETATM    3  C12 UNL     1      -0.029   1.090  -1.399  1.00  0.00     0.002 C 
BRANCH   3   4
HETATM    4  C11 UNL     1       1.118   1.151  -0.480  1.00  0.00     0.020 C 
BRANCH   4   5
HETATM    5  C10 UNL     1       1.000   1.618   0.900  1.00  0.00     0.122 C 
BRANCH   5   6
HETATM    6  N3  UNL     1       2.304   1.541   1.576  1.00  0.00    -0.361 N 
HETATM    7  C9  UNL     1       3.020   0.362   1.808  1.00  0.00     0.219 C 
HETATM    8  O1  UNL     1       2.594  -0.760   1.457  1.00  0.00    -0.274 OA
ATOM      9  H3  UNL     1       2.718   2.415   1.901  1.00  0.00     0.162 HD
BRANCH   7  10
HETATM   10  C8  UNL     1       4.336   0.427   2.496  1.00  0.00     0.123 C 
BRANCH  10  11
HETATM   11  C7  UNL     1       4.890  -0.965   2.624  1.00  0.00     0.147 C 
BRANCH  11  12
HETATM   12  N2  UNL     1       5.043  -1.511   1.312  1.00  0.00    -0.226 N 
ATOM     13  H2  UNL     1       4.267  -2.072   0.961  1.00  0.00     0.177 HD
BRANCH  12  14
HETATM   14  C6  UNL     1       6.039  -1.375   0.535  1.00  0.00     0.678 A 
HETATM   15  N1  UNL     1       7.155  -0.683   0.798  1.00  0.00    -0.196 N 
HETATM   16  C4  UNL     1       8.172  -0.579  -0.066  1.00  0.00     0.024 A 
ATOM     17  H1  UNL     1       7.234  -0.213   1.700  1.00  0.00     0.184 HD
HETATM   18  C3  UNL     1       8.076  -1.213  -1.299  1.00  0.00     0.050 A 
HETATM   19  C5  UNL     1       9.406   0.191   0.237  1.00  0.00     0.068 C 
HETATM   20  C2  UNL     1       6.931  -1.926  -1.576  1.00  0.00     0.024 A 
HETATM   21  C1  UNL     1       6.788  -2.618  -2.878  1.00  0.00     0.068 C 
HETATM   22  N10 UNL     1       5.961  -1.990  -0.675  1.00  0.00    -0.196 N 
ATOM     23  H10 UNL     1       5.121  -2.523  -0.899  1.00  0.00     0.184 HD
ENDBRANCH  12  14
ENDBRANCH  11  12
ENDBRANCH  10  11
ENDBRANCH   7  10
ENDBRANCH   5   6
ENDBRANCH   4   5
ENDBRANCH   3   4
ENDBRANCH   2   3
ENDBRANCH   1   2
BRANCH   1  24
HETATM   24  C15 UNL     1      -2.721   2.627  -0.200  1.00  0.00     0.020 C 
BRANCH  24  25
HETATM   25  C16 UNL     1      -2.747   1.451   0.676  1.00  0.00     0.138 C 
BRANCH  25  26
HETATM   26  N4  UNL     1      -4.092   1.179   1.196  1.00  0.00    -0.225 N 
ATOM     27  H4  UNL     1      -4.352   1.519   2.122  1.00  0.00     0.177 HD
BRANCH  26  28
HETATM   28  C17 UNL     1      -4.942   0.522   0.505  1.00  0.00     0.707 A 
HETATM   29  N5  UNL     1      -4.712   0.031  -0.714  1.00  0.00    -0.022 N 
HETATM   30  C18 UNL     1      -5.680  -0.663  -1.388  1.00  0.00     0.705 A 
ATOM     31  H5  UNL     1      -3.801   0.175  -1.150  1.00  0.00     0.203 HD
HETATM   32  N7  UNL     1      -6.895  -0.885  -0.868  1.00  0.00    -0.022 N 
HETATM   33  C19 UNL     1      -7.139  -0.395   0.360  1.00  0.00     0.707 A 
ATOM     34  H7  UNL     1      -7.606  -1.405  -1.383  1.00  0.00     0.203 HD
HETATM   35  N9  UNL     1      -6.192   0.281   1.014  1.00  0.00    -0.022 N 
ATOM     36  H9  UNL     1      -6.410   0.638   1.944  1.00  0.00     0.203 HD
BRANCH  30  37
HETATM   37  N6  UNL     1      -5.415  -1.117  -2.558  1.00  0.00    -0.234 N 
ATOM     38  H62 UNL     1      -4.490  -0.948  -2.954  1.00  0.00     0.174 HD
ATOM     39  H61 UNL     1      -6.136  -1.634  -3.060  1.00  0.00     0.174 HD
ENDBRANCH  30  37
BRANCH  33  40
HETATM   40  N8  UNL     1      -8.301  -0.569   0.941  1.00  0.00    -0.223 N 
ATOM     41  H8  UNL     1      -8.447  -0.183   1.874  1.00  0.00     0.177 HD
BRANCH  40  42
HETATM   42  C20 UNL     1      -9.372  -1.281   0.313  1.00  0.00     0.164 C 
BRANCH  42  43
HETATM   43  C21 UNL     1      -9.160  -2.760   0.586  1.00  0.00     0.184 C 
BRANCH  43  44
HETATM   44  O2  UNL     1      -9.173  -2.950   1.978  1.00  0.00    -0.399 OA
ATOM     45  H2  UNL     1      -9.040  -3.875   2.149  1.00  0.00     0.209 HD
ENDBRANCH  43  44
ENDBRANCH  42  43
ENDBRANCH  40  42
ENDBRANCH  33  40
ENDBRANCH  26  28
ENDBRANCH  25  26
ENDBRANCH  24  25
ENDBRANCH   1  24
TORSDOF 18
