REMARK  17 active torsions:
REMARK  status: ('A' for Active; 'I' for Inactive)
REMARK    1  A    between atoms: C1_2  and  C2_3 
REMARK       I    between atoms: C1_2  and  N3_17 
REMARK    2  A    between atoms: C2_3  and  C3_4 
REMARK    3  A    between atoms: C3_4  and  C4_5 
REMARK    4  A    between atoms: C4_5  and  C5_6 
REMARK    5  A    between atoms: C5_6  and  C6_7 
REMARK    6  A    between atoms: C6_7  and  N1_8 
REMARK       I    between atoms: N1_8  and  C7_10 
REMARK       I    between atoms: C7_10  and  N2_12 
REMARK    7  A    between atoms: N3_17  and  C12_19 
REMARK    8  A    between atoms: C12_19  and  C13_20 
REMARK    9  A    between atoms: C13_20  and  C14_21 
REMARK   10  A    between atoms: C14_21  and  C15_22 
REMARK   11  A    between atoms: C15_22  and  C16_23 
REMARK   12  A    between atoms: C16_23  and  C17_24 
REMARK   13  A    between atoms: C18_27  and  C19_28 
REMARK   14  A    between atoms: C19_28  and  O3_29 
REMARK   15  A    between atoms: C20_31  and  O4_32 
REMARK   16  A    between atoms: C21_34  and  O5_35 
REMARK   17  A    between atoms: C22_37  and  O6_38 
ROOT
HETATM    1  C13 UNL     1      -2.697  -1.897   1.283  1.00  0.00     0.020 C 
ENDROOT
BRANCH   1   2
HETATM    2  C12 UNL     1      -1.566  -1.916   2.281  1.00  0.00     0.122 C 
BRANCH   2   3
HETATM    3  N3  UNL     1      -0.344  -2.455   1.677  1.00  0.00    -0.361 N 
HETATM    4  C1  UNL     1       0.852  -2.577   2.427  1.00  0.00     0.217 C 
HETATM    5  O1  UNL     1       0.839  -2.214   3.625  1.00  0.00    -0.274 OA
ATOM      6  H3  UNL     1      -0.355  -2.747   0.700  1.00  0.00     0.162 HD
BRANCH   4   7
HETATM    7  C2  UNL     1       2.050  -3.122   1.771  1.00  0.00     0.103 C 
BRANCH   7   8
HETATM    8  C3  UNL     1       3.263  -3.152   2.642  1.00  0.00     0.009 C 
BRANCH   8   9
HETATM    9  C4  UNL     1       3.749  -1.833   3.129  1.00  0.00     0.002 C 
BRANCH   9  10
HETATM   10  C5  UNL     1       4.112  -0.888   2.007  1.00  0.00     0.020 C 
BRANCH  10  11
HETATM   11  C6  UNL     1       5.193  -1.404   1.109  1.00  0.00     0.124 C 
BRANCH  11  12
HETATM   12  N1  UNL     1       5.445  -0.413   0.084  1.00  0.00    -0.343 N 
HETATM   13  C7  UNL     1       6.423  -0.604  -0.933  1.00  0.00     0.318 C 
HETATM   14  O2  UNL     1       7.082  -1.682  -0.930  1.00  0.00    -0.247 OA
HETATM   15  N2  UNL     1       6.669   0.359  -1.927  1.00  0.00    -0.334 N 
HETATM   16  C8  UNL     1       7.622   0.287  -3.006  1.00  0.00     0.127 C 
HETATM   17  C11 UNL     1       5.956   1.639  -2.005  1.00  0.00     0.127 C 
HETATM   18  C9  UNL     1       7.959   1.724  -3.354  1.00  0.00     0.022 C 
HETATM   19  C10 UNL     1       6.920   2.569  -2.697  1.00  0.00     0.022 C 
ATOM     20  H1  UNL     1       4.904   0.451   0.091  1.00  0.00     0.164 HD
ENDBRANCH  11  12
ENDBRANCH  10  11
ENDBRANCH   9  10
ENDBRANCH   8   9
ENDBRANCH   7   8
ENDBRANCH   4   7
ENDBRANCH   2   3
ENDBRANCH   1   2
BRANCH   1  21
HETATM   21  C14 UNL     1      -2.439  -1.077   0.069  1.00  0.00     0.002 C 
BRANCH  21  22
HETATM   22  C15 UNL     1      -2.179   0.378   0.321  1.00  0.00     0.002 C 
BRANCH  22  23
HETATM   23  C16 UNL     1      -3.290   1.106   0.988  1.00  0.00     0.027 C 
BRANCH  23  24
HETATM   24  C17 UNL     1      -4.592   1.113   0.230  1.00  0.00     0.108 C 
HETATM   25  N4  UNL     1      -4.501   1.724  -1.051  1.00  0.00    -0.406 N 
HETATM   26  C18 UNL     1      -5.665   1.723  -1.860  1.00  0.00     0.132 C 
ATOM     27  H4  UNL     1      -3.631   2.147  -1.375  1.00  0.00     0.154 HD
HETATM   28  C20 UNL     1      -6.942   1.540  -1.033  1.00  0.00     0.173 C 
HETATM   29  C21 UNL     1      -6.730   2.439   0.186  1.00  0.00     0.179 C 
HETATM   30  C22 UNL     1      -5.700   1.751   1.039  1.00  0.00     0.171 C 
BRANCH  26  31
HETATM   31  C19 UNL     1      -5.636   0.596  -2.845  1.00  0.00     0.191 C 
BRANCH  31  32
HETATM   32  O3  UNL     1      -5.577  -0.646  -2.256  1.00  0.00    -0.399 OA
ATOM     33  H3  UNL     1      -5.559  -1.361  -2.881  1.00  0.00     0.209 HD
ENDBRANCH  31  32
ENDBRANCH  26  31
BRANCH  28  34
HETATM   34  O4  UNL     1      -8.056   1.927  -1.751  1.00  0.00    -0.391 OA
ATOM     35  H4  UNL     1      -8.848   1.814  -1.238  1.00  0.00     0.210 HD
ENDBRANCH  28  34
BRANCH  29  36
HETATM   36  O5  UNL     1      -6.274   3.658  -0.312  1.00  0.00    -0.390 OA
ATOM     37  H5  UNL     1      -6.142   4.216   0.445  1.00  0.00     0.210 HD
ENDBRANCH  29  36
BRANCH  30  38
HETATM   38  O6  UNL     1      -5.188   2.594   2.026  1.00  0.00    -0.391 OA
ATOM     39  H6  UNL     1      -5.884   2.995   2.534  1.00  0.00     0.210 HD
ENDBRANCH  30  38
ENDBRANCH  23  24
ENDBRANCH  22  23
ENDBRANCH  21  22
ENDBRANCH   1  21
TORSDOF 17
