REMARK  15 active torsions:
REMARK  status: ('A' for Active; 'I' for Inactive)
REMARK    1  A    between atoms: N1_1  and  C1_4 
REMARK    2  A    between atoms: C3_8  and  C4_9 
REMARK    3  A    between atoms: C4_9  and  C5_10 
REMARK    4  A    between atoms: C5_10  and  N3_11 
REMARK    5  A    between atoms: N3_11  and  C6_13 
REMARK    6  A    between atoms: C6_13  and  C7_14 
REMARK       I    between atoms: C7_14  and  N4_16 
REMARK    7  A    between atoms: N4_16  and  C8_18 
REMARK    8  A    between atoms: C8_18  and  C9_19 
REMARK    9  A    between atoms: C9_19  and  C10_20 
REMARK   10  A    between atoms: C10_20  and  C11_21 
REMARK   11  A    between atoms: C11_21  and  C12_22 
REMARK   12  A    between atoms: C12_22  and  C13_23 
REMARK   13  A    between atoms: C13_23  and  C14_24 
REMARK   14  A    between atoms: C14_24  and  N5_25 
REMARK   15  A    between atoms: C22_37  and  N7_38 
ROOT
HETATM    1  C7  UNL     1       3.106   0.090   1.490  1.00  0.00     0.256 C 
HETATM    2  O1  UNL     1       3.622   1.203   1.692  1.00  0.00    -0.267 OA
HETATM    3  N4  UNL     1       1.770   0.092   0.995  1.00  0.00    -0.356 N 
ATOM      4  H4  UNL     1       1.291  -0.790   0.811  1.00  0.00     0.162 HD
ENDROOT
BRANCH   1   5
HETATM    5  C6  UNL     1       3.748  -1.217   1.714  1.00  0.00     0.162 C 
BRANCH   5   6
HETATM    6  N3  UNL     1       5.064  -1.296   2.129  1.00  0.00    -0.374 N 
ATOM      7  H3  UNL     1       5.235  -1.499   3.114  1.00  0.00     0.164 HD
BRANCH   6   8
HETATM    8  C5  UNL     1       6.171  -1.121   1.311  1.00  0.00     0.065 C 
BRANCH   8   9
HETATM    9  C4  UNL     1       6.405   0.220   0.752  1.00  0.00     0.088 C 
BRANCH   9  10
HETATM   10  C3  UNL     1       7.674   0.297  -0.052  1.00  0.00     0.007 A 
HETATM   11  C2  UNL     1       8.769   0.836   0.589  1.00  0.00     0.117 A 
HETATM   12  N2  UNL     1       9.955   0.931  -0.031  1.00  0.00    -0.202 N 
HETATM   13  C1  UNL     1      10.094   0.501  -1.289  1.00  0.00     0.677 A 
ATOM     14  H2  UNL     1      10.754   1.333   0.460  1.00  0.00     0.183 HD
HETATM   15  N8  UNL     1       9.022  -0.021  -1.905  1.00  0.00    -0.177 N 
HETATM   16  C22 UNL     1       7.801  -0.144  -1.334  1.00  0.00     0.122 A 
ATOM     17  H8  UNL     1       9.135  -0.346  -2.865  1.00  0.00     0.185 HD
BRANCH  13  18
HETATM   18  N1  UNL     1      11.244   0.584  -1.916  1.00  0.00    -0.234 N 
ATOM     19  H12 UNL     1      12.059   0.981  -1.448  1.00  0.00     0.174 HD
ATOM     20  H11 UNL     1      11.350   0.256  -2.876  1.00  0.00     0.174 HD
ENDBRANCH  13  18
BRANCH  16  21
HETATM   21  N7  UNL     1       6.800  -0.631  -1.956  1.00  0.00    -0.385 N 
ATOM     22  H72 UNL     1       5.880  -0.724  -1.526  1.00  0.00     0.157 HD
ATOM     23  H71 UNL     1       6.895  -0.961  -2.916  1.00  0.00     0.157 HD
ENDBRANCH  16  21
ENDBRANCH   9  10
ENDBRANCH   8   9
ENDBRANCH   6   8
ENDBRANCH   5   6
ENDBRANCH   1   5
BRANCH   3  24
HETATM   24  C8  UNL     1       1.097   1.344   0.755  1.00  0.00     0.123 C 
BRANCH  24  25
HETATM   25  C9  UNL     1      -0.314   1.123   0.242  1.00  0.00     0.020 C 
BRANCH  25  26
HETATM   26  C10 UNL     1      -1.120   0.343   1.264  1.00  0.00     0.002 C 
BRANCH  26  27
HETATM   27  C11 UNL     1      -2.540   0.091   0.818  1.00  0.00     0.000 C 
BRANCH  27  28
HETATM   28  C12 UNL     1      -2.614  -0.704  -0.460  1.00  0.00     0.002 C 
BRANCH  28  29
HETATM   29  C13 UNL     1      -4.031  -0.963  -0.895  1.00  0.00     0.020 C 
BRANCH  29  30
HETATM   30  C14 UNL     1      -4.782   0.308  -1.145  1.00  0.00     0.133 C 
BRANCH  30  31
HETATM   31  N5  UNL     1      -6.142   0.083  -1.561  1.00  0.00    -0.303 N 
HETATM   32  C15 UNL     1      -7.148  -0.009  -0.682  1.00  0.00     0.028 A 
HETATM   33  C16 UNL     1      -8.459  -0.229  -1.117  1.00  0.00     0.033 A 
HETATM   34  C21 UNL     1      -7.134   0.086   0.785  1.00  0.00     0.058 C 
HETATM   35  C17 UNL     1      -8.686  -0.347  -2.467  1.00  0.00     0.257 A 
HETATM   36  C19 UNL     1      -9.378  -0.293   0.033  1.00  0.00     0.046 C 
HETATM   37  O2  UNL     1      -9.890  -0.548  -2.850  1.00  0.00    -0.267 OA
HETATM   38  N6  UNL     1      -7.676  -0.252  -3.318  1.00  0.00    -0.275 N 
HETATM   39  C18 UNL     1      -6.418  -0.039  -2.863  1.00  0.00     0.329 A 
ATOM     40  H6  UNL     1      -7.846  -0.340  -4.320  1.00  0.00     0.173 HD
HETATM   41  O3  UNL     1      -5.509   0.041  -3.726  1.00  0.00    -0.246 OA
HETATM   42  C20 UNL     1      -8.586   0.279   1.174  1.00  0.00     0.011 C 
ENDBRANCH  30  31
ENDBRANCH  29  30
ENDBRANCH  28  29
ENDBRANCH  27  28
ENDBRANCH  26  27
ENDBRANCH  25  26
ENDBRANCH  24  25
ENDBRANCH   3  24
TORSDOF 15
