REMARK  15 active torsions:
REMARK  status: ('A' for Active; 'I' for Inactive)
REMARK       I    between atoms: C1_4  and  N3_6 
REMARK    1  A    between atoms: N3_6  and  C2_8 
REMARK    2  A    between atoms: C6_15  and  C7_16 
REMARK    3  A    between atoms: C7_16  and  C8_17 
REMARK    4  A    between atoms: C8_17  and  C9_18 
REMARK    5  A    between atoms: C9_18  and  C10_19 
REMARK    6  A    between atoms: C10_19  and  C11_20 
REMARK    7  A    between atoms: C11_20  and  C12_21 
REMARK       I    between atoms: C12_21  and  N5_23 
REMARK    8  A    between atoms: N5_23  and  C13_25 
REMARK    9  A    between atoms: C13_25  and  C14_26 
REMARK   10  A    between atoms: C14_26  and  N6_27 
REMARK   11  A    between atoms: C16_32  and  O2_33 
REMARK   12  A    between atoms: O2_33  and  C17_34 
REMARK   13  A    between atoms: C17_34  and  C18_35 
REMARK   14  A    between atoms: C18_35  and  C19_36 
REMARK   15  A    between atoms: C19_36  and  S1_37 
ROOT
HETATM    1  C2  UNL     1      -2.489  -0.871  -1.239  1.00  0.00    -0.002 C 
HETATM    2  C3  UNL     1      -2.123  -2.093  -0.443  1.00  0.00     0.055 C 
HETATM    3  C4  UNL     1      -1.816  -1.845   0.982  1.00  0.00     0.041 C 
HETATM    4  C5  UNL     1      -1.905  -0.468   1.485  1.00  0.00     0.216 C 
HETATM    5  N4  UNL     1      -0.620   0.211   1.226  1.00  0.00    -0.063 N 
ATOM      6  H41 UNL     1       0.198  -0.339   1.488  1.00  0.00     0.278 HD
ATOM      7  H42 UNL     1      -0.436   0.998   1.848  1.00  0.00     0.278 HD
HETATM    8  C6  UNL     1      -0.660   0.565  -0.161  1.00  0.00     0.198 C 
HETATM    9  C15 UNL     1      -2.059   0.411  -0.639  1.00  0.00     0.093 C 
HETATM   10  C16 UNL     1      -2.828   0.439   0.702  1.00  0.00     0.163 C 
ENDROOT
BRANCH   8  11
HETATM   11  C7  UNL     1       0.413   0.033  -0.981  1.00  0.00     0.034 C 
BRANCH  11  12
HETATM   12  C8  UNL     1       1.786   0.470  -0.595  1.00  0.00     0.002 C 
BRANCH  12  13
HETATM   13  C9  UNL     1       2.302   0.099   0.753  1.00  0.00     0.001 C 
BRANCH  13  14
HETATM   14  C10 UNL     1       3.731   0.631   0.919  1.00  0.00     0.009 C 
BRANCH  14  15
HETATM   15  C11 UNL     1       4.690   0.079  -0.091  1.00  0.00     0.103 C 
BRANCH  15  16
HETATM   16  C12 UNL     1       6.073   0.624   0.150  1.00  0.00     0.217 C 
HETATM   17  O1  UNL     1       6.282   1.419   1.085  1.00  0.00    -0.274 OA
HETATM   18  N5  UNL     1       7.146   0.236  -0.684  1.00  0.00    -0.359 N 
ATOM     19  H5  UNL     1       6.960  -0.417  -1.445  1.00  0.00     0.162 HD
BRANCH  18  20
HETATM   20  C13 UNL     1       8.490   0.722  -0.506  1.00  0.00     0.150 C 
BRANCH  20  21
HETATM   21  C14 UNL     1       9.422   0.138  -1.542  1.00  0.00     0.249 C 
BRANCH  21  22
HETATM   22  N6  UNL     1       9.454  -1.313  -1.449  1.00  0.00    -0.078 N 
ATOM     23  H63 UNL     1       9.693  -1.626  -0.508  1.00  0.00     0.274 HD
ATOM     24  H62 UNL     1       8.519  -1.716  -1.513  1.00  0.00     0.274 HD
ATOM     25  H61 UNL     1      10.083  -1.707  -2.148  1.00  0.00     0.274 HD
ENDBRANCH  21  22
ENDBRANCH  20  21
ENDBRANCH  18  20
ENDBRANCH  15  16
ENDBRANCH  14  15
ENDBRANCH  13  14
ENDBRANCH  12  13
ENDBRANCH  11  12
ENDBRANCH   8  11
BRANCH   1  26
HETATM   26  N3  UNL     1      -2.278  -1.014  -2.654  1.00  0.00    -0.338 N 
HETATM   27  C1  UNL     1      -2.892  -2.000  -3.456  1.00  0.00     0.185 C 
HETATM   28  N1  UNL     1      -2.308  -3.047  -3.889  1.00  0.00    -0.374 N 
HETATM   29  N2  UNL     1      -4.256  -1.798  -3.798  1.00  0.00    -0.064 NA
ATOM     30  H12 UNL     1      -2.752  -3.760  -4.469  1.00  0.00     0.158 HD
ATOM     31  H11 UNL     1      -1.329  -3.192  -3.643  1.00  0.00     0.158 HD
ATOM     32  H3  UNL     1      -1.642  -0.359  -3.109  1.00  0.00     0.168 HD
ENDBRANCH   1  26
BRANCH  10  33
HETATM   33  O2  UNL     1      -2.956   1.679   1.205  1.00  0.00    -0.383 OA
BRANCH  33  34
HETATM   34  C17 UNL     1      -4.285   1.952   1.523  1.00  0.00     0.169 C 
BRANCH  34  35
HETATM   35  C18 UNL     1      -4.847   1.062   2.566  1.00  0.00     0.044 C 
BRANCH  35  36
HETATM   36  C19 UNL     1      -6.268   1.358   2.947  1.00  0.00     0.167 C 
BRANCH  36  37
HETATM   37  S1  UNL     1      -7.463   1.239   1.685  1.00  0.00     0.101 S 
HETATM   38  O3  UNL     1      -7.632  -0.176   1.182  1.00  0.00    -0.595 OA
HETATM   39  O4  UNL     1      -8.830   1.597   2.264  1.00  0.00    -0.595 OA
HETATM   40  O5  UNL     1      -7.220   2.300   0.416  1.00  0.00    -0.595 OA
ENDBRANCH  36  37
ENDBRANCH  35  36
ENDBRANCH  34  35
ENDBRANCH  33  34
ENDBRANCH  10  33
TORSDOF 15
