REMARK  12 active torsions:
REMARK  status: ('A' for Active; 'I' for Inactive)
REMARK    1  A    between atoms: C2_2  and  C3_3 
REMARK    2  A    between atoms: C3_3  and  C5_5 
REMARK    3  A    between atoms: C5_5  and  C6_6 
REMARK    4  A    between atoms: C5_5  and  N1_14 
REMARK       I    between atoms: N1_14  and  C13_16 
REMARK    5  A    between atoms: C13_16  and  C14_18 
REMARK    6  A    between atoms: C14_18  and  N2_19 
REMARK    7  A    between atoms: C14_18  and  C22_32 
REMARK       I    between atoms: N2_19  and  C15_20 
REMARK    8  A    between atoms: C15_20  and  C16_22 
REMARK    9  A    between atoms: C16_22  and  C17_23 
REMARK   10  A    between atoms: C16_22  and  N3_27 
REMARK   11  A    between atoms: C17_23  and  C18_24 
REMARK   12  A    between atoms: C22_32  and  C24_34 
ROOT
HETATM    1  C14 UNL     1       0.558   1.135   0.020  1.00  0.00     0.180 C 
ENDROOT
BRANCH   1   2
HETATM    2  C13 UNL     1      -0.906   1.203   0.523  1.00  0.00     0.283 C 
HETATM    3  N1  UNL     1      -2.023   1.344  -0.291  1.00  0.00    -0.347 N 
ATOM      4  H1  UNL     1      -1.910   1.420  -1.302  1.00  0.00     0.163 HD
HETATM    5  O1  UNL     1      -1.077   1.113   1.776  1.00  0.00    -0.265 OA
BRANCH   3   6
HETATM    6  C5  UNL     1      -3.387   1.384   0.311  1.00  0.00     0.112 C 
BRANCH   6   7
HETATM    7  C3  UNL     1      -4.297   2.004  -0.642  1.00  0.00     0.008 C 
HETATM    8  C4  UNL     1      -3.843   3.415  -0.946  1.00  0.00     0.012 C 
BRANCH   7   9
HETATM    9  C2  UNL     1      -5.728   2.128  -0.162  1.00  0.00     0.002 C 
HETATM   10  C1  UNL     1      -5.848   2.979   1.068  1.00  0.00     0.005 C 
ENDBRANCH   7   9
ENDBRANCH   6   7
BRANCH   6  11
HETATM   11  C6  UNL     1      -3.713   0.019   0.747  1.00  0.00     0.008 C 
HETATM   12  C7  UNL     1      -3.535  -1.132   0.194  1.00  0.00    -0.036 C 
HETATM   13  C8  UNL     1      -3.935  -2.400   0.802  1.00  0.00    -0.058 C 
HETATM   14  C12 UNL     1      -2.944  -1.498  -1.103  1.00  0.00     0.119 C 
HETATM   15  C9  UNL     1      -4.896  -2.576   1.951  1.00  0.00     0.048 C 
HETATM   16  C10 UNL     1      -3.331  -3.399   0.205  1.00  0.00    -0.018 C 
HETATM   17  C11 UNL     1      -2.443  -2.947  -0.887  1.00  0.00     0.052 C 
HETATM   18 CL1  UNL     1      -4.104  -1.585  -2.436  1.00  0.00    -0.120 Cl
ENDBRANCH   6  11
ENDBRANCH   3   6
ENDBRANCH   1   2
BRANCH   1  19
HETATM   19  N2  UNL     1       1.292   0.207   0.598  1.00  0.00    -0.363 NA
HETATM   20  C15 UNL     1       2.081  -0.803   1.226  1.00  0.00     0.315 C 
HETATM   21  O2  UNL     1       1.571  -1.848   1.656  1.00  0.00    -0.255 OA
BRANCH  20  22
HETATM   22  C16 UNL     1       3.576  -0.676   1.423  1.00  0.00     0.191 C 
BRANCH  22  23
HETATM   23  C17 UNL     1       4.294  -0.241   0.224  1.00  0.00     0.040 C 
BRANCH  23  24
HETATM   24  C18 UNL     1       5.754  -0.026   0.272  1.00  0.00    -0.020 C 
HETATM   25  C19 UNL     1       6.578  -1.214   0.633  1.00  0.00     0.009 C 
HETATM   26  C20 UNL     1       6.156   1.175   1.115  1.00  0.00     0.009 C 
ENDBRANCH  23  24
ENDBRANCH  22  23
BRANCH  22  27
HETATM   27  N3  UNL     1       4.003  -1.931   1.955  1.00  0.00    -0.352 N 
HETATM   28  C21 UNL     1       3.964  -3.101   1.485  1.00  0.00     0.197 C 
HETATM   29  N4  UNL     1       3.460  -3.523   0.229  1.00  0.00    -0.067 NA
HETATM   30  N5  UNL     1       4.483  -4.175   2.311  1.00  0.00    -0.067 NA
ATOM     31  H3  UNL     1       4.415  -1.870   2.886  1.00  0.00     0.162 HD
ENDBRANCH  22  27
ENDBRANCH  20  22
ENDBRANCH   1  19
BRANCH   1  32
HETATM   32  C22 UNL     1       0.554   1.606  -1.362  1.00  0.00    -0.038 C 
HETATM   33  C23 UNL     1       0.092   3.060  -1.460  1.00  0.00     0.047 C 
BRANCH  32  34
HETATM   34  C24 UNL     1       1.659   1.371  -2.306  1.00  0.00     0.033 C 
HETATM   35  C25 UNL     1       1.912  -0.084  -2.645  1.00  0.00     0.010 C 
ENDBRANCH  32  34
ENDBRANCH   1  32
TORSDOF 12
