REMARK  13 active torsions:
REMARK  status: ('A' for Active; 'I' for Inactive)
REMARK    1  A    between atoms: C5_7  and  N2_8 
REMARK    2  A    between atoms: C6_11  and  C7_12 
REMARK    3  A    between atoms: C7_12  and  N3_13 
REMARK    4  A    between atoms: N3_13  and  C8_14 
REMARK       I    between atoms: N3_13  and  C12_18 
REMARK    5  A    between atoms: C8_14  and  C9_15 
REMARK    6  A    between atoms: C12_18  and  C13_20 
REMARK    7  A    between atoms: C13_20  and  C14_21 
REMARK    8  A    between atoms: C13_20  and  N4_28 
REMARK    9  A    between atoms: C14_21  and  C15_22 
REMARK       I    between atoms: N4_28  and  C21_30 
REMARK   10  A    between atoms: C21_30  and  C22_32 
REMARK   11  A    between atoms: C22_32  and  N5_33 
REMARK   12  A    between atoms: C22_32  and  C23_37 
REMARK   13  A    between atoms: C22_32  and  C25_39 
ROOT
HETATM    1  C1  UNL     1       8.250   1.082   0.947  1.00  0.00     0.018 C 
HETATM    2  C2  UNL     1       7.317   0.444   0.530  1.00  0.00    -0.073 C 
HETATM    3  C3  UNL     1       6.266  -0.327  -0.054  1.00  0.00     0.071 A 
HETATM    4  C4  UNL     1       6.657  -1.520  -0.677  1.00  0.00     0.113 A 
HETATM    5  N1  UNL     1       5.752  -2.178  -1.392  1.00  0.00    -0.350 N 
ATOM      6  H1  UNL     1       6.046  -3.043  -1.845  1.00  0.00     0.166 HD
HETATM    7  C5  UNL     1       4.511  -1.799  -1.559  1.00  0.00     0.113 A 
HETATM    8  C6  UNL     1       4.046  -0.581  -0.929  1.00  0.00     0.063 A 
HETATM    9  C27 UNL     1       4.942   0.102  -0.202  1.00  0.00     0.151 A 
HETATM   10  F1  UNL     1       4.656   1.272   0.426  1.00  0.00    -0.203 F 
ENDROOT
BRANCH   8  11
HETATM   11  C7  UNL     1       2.666  -0.358  -1.263  1.00  0.00     0.112 C 
BRANCH  11  12
HETATM   12  N3  UNL     1       1.577  -0.276  -0.363  1.00  0.00    -0.325 N 
HETATM   13  C12 UNL     1       0.904   0.854   0.158  1.00  0.00     0.246 C 
HETATM   14  O1  UNL     1       1.435   1.932  -0.092  1.00  0.00    -0.271 OA
BRANCH  12  15
HETATM   15  C8  UNL     1       1.236  -1.650   0.135  1.00  0.00     0.136 C 
BRANCH  15  16
HETATM   16  C9  UNL     1       2.229  -2.092   1.201  1.00  0.00     0.004 A 
HETATM   17  C10 UNL     1       2.468  -1.369   2.444  1.00  0.00     0.007 A 
HETATM   18  C11 UNL     1       1.554  -2.493   2.553  1.00  0.00     0.007 A 
ENDBRANCH  15  16
ENDBRANCH  12  15
BRANCH  13  19
HETATM   19  C13 UNL     1      -0.343   0.731   0.900  1.00  0.00     0.177 C 
BRANCH  19  20
HETATM   20  C14 UNL     1      -1.179   1.955   1.059  1.00  0.00     0.039 C 
BRANCH  20  21
HETATM   21  C15 UNL     1      -1.791   2.638  -0.074  1.00  0.00    -0.012 C 
HETATM   22  C16 UNL     1      -2.759   3.713   0.487  1.00  0.00     0.005 C 
HETATM   23  C17 UNL     1      -2.166   5.018   0.774  1.00  0.00     0.000 C 
HETATM   24  C18 UNL     1      -1.470   5.618  -0.466  1.00  0.00     0.000 C 
HETATM   25  C19 UNL     1      -0.380   4.628  -0.779  1.00  0.00     0.000 C 
HETATM   26  C20 UNL     1      -1.025   3.307  -1.145  1.00  0.00     0.005 C 
ENDBRANCH  20  21
ENDBRANCH  19  20
BRANCH  19  27
HETATM   27  N4  UNL     1      -1.253  -0.170   0.083  1.00  0.00    -0.346 N 
HETATM   28  C21 UNL     1      -2.361  -0.744   0.762  1.00  0.00     0.254 C 
HETATM   29  O2  UNL     1      -2.691  -0.483   1.942  1.00  0.00    -0.271 OA
ATOM     30  H4  UNL     1      -1.077  -0.354  -0.905  1.00  0.00     0.163 HD
BRANCH  28  31
HETATM   31  C22 UNL     1      -3.217  -1.777   0.056  1.00  0.00     0.202 C 
BRANCH  31  32
HETATM   32  N5  UNL     1      -2.422  -2.458  -0.955  1.00  0.00    -0.061 N 
ATOM     33  H53 UNL     1      -1.988  -1.806  -1.608  1.00  0.00     0.275 HD
ATOM     34  H52 UNL     1      -1.570  -2.864  -0.567  1.00  0.00     0.275 HD
ATOM     35  H51 UNL     1      -2.998  -3.153  -1.430  1.00  0.00     0.275 HD
ENDBRANCH  31  32
BRANCH  31  36
HETATM   36  C23 UNL     1      -4.426  -1.142  -0.530  1.00  0.00     0.044 C 
HETATM   37  C24 UNL     1      -5.240  -2.146  -1.348  1.00  0.00     0.008 C 
ENDBRANCH  31  36
BRANCH  31  38
HETATM   38  C25 UNL     1      -3.546  -2.722   1.203  1.00  0.00     0.044 C 
HETATM   39  C26 UNL     1      -4.373  -3.898   0.942  1.00  0.00     0.008 C 
ENDBRANCH  31  38
ENDBRANCH  28  31
ENDBRANCH  19  27
ENDBRANCH  13  19
ENDBRANCH  11  12
ENDBRANCH   8  11
BRANCH   7  40
HETATM   40  N2  UNL     1       3.692  -2.432  -2.303  1.00  0.00    -0.385 N 
ATOM     41  H22 UNL     1       4.020  -3.290  -2.747  1.00  0.00     0.157 HD
ATOM     42  H21 UNL     1       2.724  -2.137  -2.433  1.00  0.00     0.157 HD
ENDBRANCH   7  40
TORSDOF 13
