REMARK  12 active torsions:
REMARK  status: ('A' for Active; 'I' for Inactive)
REMARK    1  A    between atoms: N1_1  and  C1_5 
REMARK    2  A    between atoms: N2_8  and  C4_9 
REMARK    3  A    between atoms: C4_9  and  C5_10 
REMARK    4  A    between atoms: C5_10  and  C6_11 
REMARK    5  A    between atoms: C6_11  and  C7_12 
REMARK    6  A    between atoms: C7_12  and  C8_13 
REMARK    7  A    between atoms: C8_13  and  C9_14 
REMARK    8  A    between atoms: C9_14  and  N3_15 
REMARK    9  A    between atoms: N5_25  and  C16_27 
REMARK   10  A    between atoms: C16_27  and  C17_28 
REMARK   11  A    between atoms: C17_28  and  C18_29 
REMARK   12  A    between atoms: C18_29  and  N6_30 
ROOT
HETATM    1  N3  UNL     1       0.494  -1.756  -1.978  1.00  0.00    -0.365 N 
HETATM    2  C10 UNL     1       0.426  -2.631  -3.001  1.00  0.00     0.092 A 
HETATM    3  C11 UNL     1       1.605  -3.099  -3.547  1.00  0.00     0.047 A 
HETATM    4  C12 UNL     1       2.837  -2.669  -3.043  1.00  0.00     0.047 A 
HETATM    5  N4  UNL     1       4.000  -3.114  -3.561  1.00  0.00    -0.363 N 
ATOM      6  H4  UNL     1       3.978  -3.777  -4.336  1.00  0.00     0.165 HD
HETATM    7  C13 UNL     1       5.184  -2.706  -3.082  1.00  0.00     0.114 A 
HETATM    8  C14 UNL     1       5.263  -1.797  -2.019  1.00  0.00     0.076 A 
HETATM    9 CL1  UNL     1       6.859  -1.331  -1.469  1.00  0.00    -0.080 Cl
HETATM   10  C15 UNL     1       4.088  -1.336  -1.483  1.00  0.00     0.065 A 
HETATM   11  N5  UNL     1       4.057  -0.526  -0.534  1.00  0.00    -0.388 N 
ATOM     12  H5  UNL     1       3.115  -0.272  -0.237  1.00  0.00     0.159 HD
HETATM   13  C22 UNL     1       2.851  -1.781  -2.005  1.00  0.00     0.034 A 
HETATM   14  C23 UNL     1       1.669  -1.318  -1.465  1.00  0.00     0.106 A 
ENDROOT
BRANCH   1  15
HETATM   15  C9  UNL     1      -0.792  -1.293  -1.435  1.00  0.00     0.128 C 
BRANCH  15  16
HETATM   16  C8  UNL     1      -1.218  -2.222  -0.328  1.00  0.00     0.020 C 
BRANCH  16  17
HETATM   17  C7  UNL     1      -2.549  -1.791   0.264  1.00  0.00     0.002 C 
BRANCH  17  18
HETATM   18  C6  UNL     1      -2.497  -0.420   0.840  1.00  0.00     0.002 C 
BRANCH  18  19
HETATM   19  C5  UNL     1      -3.821  -0.048   1.430  1.00  0.00     0.019 C 
BRANCH  19  20
HETATM   20  C4  UNL     1      -4.922  -0.066   0.399  1.00  0.00     0.117 C 
BRANCH  20  21
HETATM   21  N2  UNL     1      -6.155   0.323   1.056  1.00  0.00    -0.412 N 
HETATM   22  C3  UNL     1      -6.213   1.683   1.473  1.00  0.00     0.119 C 
HETATM   23  C2  UNL     1      -7.142   2.504   0.575  1.00  0.00     0.052 C 
HETATM   24  C1  UNL     1      -8.517   1.925   0.560  1.00  0.00     0.186 C 
HETATM   25  C25 UNL     1      -8.525   0.497   1.109  1.00  0.00     0.052 C 
HETATM   26  C24 UNL     1      -7.332  -0.179   0.423  1.00  0.00     0.119 C 
BRANCH  24  27
HETATM   27  N1  UNL     1      -9.478   2.768   1.214  1.00  0.00    -0.075 N 
ATOM     28  H13 UNL     1      -9.184   2.989   2.165  1.00  0.00     0.274 HD
ATOM     29  H12 UNL     1      -9.472   3.708   0.817  1.00  0.00     0.274 HD
ATOM     30  H11 UNL     1     -10.418   2.372   1.204  1.00  0.00     0.274 HD
ENDBRANCH  24  27
ENDBRANCH  20  21
ENDBRANCH  19  20
ENDBRANCH  18  19
ENDBRANCH  17  18
ENDBRANCH  16  17
ENDBRANCH  15  16
ENDBRANCH   1  15
BRANCH  11  31
HETATM   31  C16 UNL     1       5.068   0.098   0.197  1.00  0.00     0.121 C 
BRANCH  31  32
HETATM   32  C17 UNL     1       4.503   1.004   1.313  1.00  0.00     0.040 C 
BRANCH  32  33
HETATM   33  C18 UNL     1       5.702   1.612   2.025  1.00  0.00     0.139 C 
BRANCH  33  34
HETATM   34  N6  UNL     1       6.518   2.384   1.145  1.00  0.00    -0.226 N 
HETATM   35  C19 UNL     1       7.769   2.204   0.914  1.00  0.00     0.677 A 
HETATM   36  N7  UNL     1       8.562   1.265   1.444  1.00  0.00    -0.201 N 
HETATM   37  N8  UNL     1       8.489   2.959   0.079  1.00  0.00    -0.201 N 
HETATM   38  C20 UNL     1       9.791   1.437   0.931  1.00  0.00     0.123 A 
ATOM     39  H7  UNL     1       8.284   0.549   2.115  1.00  0.00     0.183 HD
HETATM   40  C21 UNL     1       9.752   2.507   0.067  1.00  0.00     0.123 A 
ATOM     41  H8  UNL     1       8.136   3.749  -0.461  1.00  0.00     0.183 HD
ATOM     42  H6  UNL     1       6.064   3.153   0.652  1.00  0.00     0.177 HD
ENDBRANCH  33  34
ENDBRANCH  32  33
ENDBRANCH  31  32
ENDBRANCH  11  31
TORSDOF 12
