REMARK  11 active torsions:
REMARK  status: ('A' for Active; 'I' for Inactive)
REMARK    1  A    between atoms: C9_12  and  C10_13 
REMARK    2  A    between atoms: C10_13  and  C11_14 
REMARK    3  A    between atoms: C11_14  and  C12_15 
REMARK    4  A    between atoms: C12_15  and  N2_16 
REMARK    5  A    between atoms: N2_16  and  C13_18 
REMARK    6  A    between atoms: C13_18  and  C14_19 
REMARK    7  A    between atoms: C14_19  and  C15_20 
REMARK    8  A    between atoms: C15_20  and  C16_21 
REMARK    9  A    between atoms: N3_24  and  C19_25 
REMARK   10  A    between atoms: C19_25  and  C20_26 
REMARK   11  A    between atoms: C20_26  and  N4_27 
ROOT
HETATM    1  N2  UNL     1       1.897  -0.032   0.379  1.00  0.00    -0.402 N 
ATOM      2  H2  UNL     1       2.384   0.009   1.274  1.00  0.00     0.158 HD
ENDROOT
BRANCH   1   3
HETATM    3  C12 UNL     1       2.247  -1.053  -0.508  1.00  0.00     0.119 C 
BRANCH   3   4
HETATM    4  C11 UNL     1       3.640  -1.664  -0.070  1.00  0.00     0.024 C 
BRANCH   4   5
HETATM    5  C10 UNL     1       4.549  -0.496  -0.154  1.00  0.00     0.043 C 
BRANCH   5   6
HETATM    6  C9  UNL     1       5.944  -0.663   0.189  1.00  0.00    -0.023 A 
HETATM    7  C2  UNL     1       6.719  -1.728   0.544  1.00  0.00     0.013 A 
HETATM    8  C1  UNL     1       6.214  -3.112   0.656  1.00  0.00     0.068 C 
HETATM    9  N1  UNL     1       7.972  -1.270   0.758  1.00  0.00    -0.359 N 
HETATM   10  C3  UNL     1       8.058   0.039   0.563  1.00  0.00     0.044 A 
ATOM     11  H1  UNL     1       8.757  -1.860   1.036  1.00  0.00     0.166 HD
HETATM   12  C4  UNL     1       9.106   0.951   0.655  1.00  0.00     0.049 A 
HETATM   13  C8  UNL     1       6.802   0.454   0.204  1.00  0.00    -0.001 A 
HETATM   14  C5  UNL     1       8.890   2.285   0.386  1.00  0.00     0.013 A 
HETATM   15 BR1  UNL     1      10.277   3.592   0.490  1.00  0.00    -0.051 Br
HETATM   16  C6  UNL     1       7.641   2.730   0.025  1.00  0.00     0.020 A 
HETATM   17  C7  UNL     1       6.627   1.807  -0.059  1.00  0.00     0.015 A 
ENDBRANCH   5   6
ENDBRANCH   4   5
ENDBRANCH   3   4
ENDBRANCH   1   3
BRANCH   1  18
HETATM   18  C13 UNL     1       0.944   0.916   0.125  1.00  0.00     0.055 C 
BRANCH  18  19
HETATM   19  C14 UNL     1      -0.510   0.665   0.032  1.00  0.00     0.044 C 
BRANCH  19  20
HETATM   20  C15 UNL     1      -0.929  -0.268  -1.030  1.00  0.00     0.010 C 
BRANCH  20  21
HETATM   21  C16 UNL     1      -2.468  -0.322  -1.162  1.00  0.00    -0.008 C 
HETATM   22  C17 UNL     1      -3.143  -0.750   0.070  1.00  0.00     0.049 C 
HETATM   23  C18 UNL     1      -4.654  -0.540  -0.005  1.00  0.00     0.063 C 
HETATM   24  N3  UNL     1      -4.990   0.690  -0.548  1.00  0.00    -0.372 N 
HETATM   25  C22 UNL     1      -4.442   1.007  -1.810  1.00  0.00     0.127 C 
HETATM   26  C23 UNL     1      -2.946   0.917  -1.837  1.00  0.00     0.025 C 
BRANCH  24  27
HETATM   27  C19 UNL     1      -5.714   1.634   0.158  1.00  0.00     0.082 C 
BRANCH  27  28
HETATM   28  C20 UNL     1      -7.168   1.307   0.323  1.00  0.00     0.166 C 
BRANCH  28  29
HETATM   29  N4  UNL     1      -7.445   0.086   1.021  1.00  0.00    -0.362 N 
HETATM   30  C21 UNL     1      -8.600  -0.511   0.842  1.00  0.00     0.197 C 
HETATM   31  N5  UNL     1      -9.548   0.094  -0.053  1.00  0.00    -0.067 NA
HETATM   32  N6  UNL     1      -8.959  -1.717   1.482  1.00  0.00    -0.067 NA
ATOM     33  H4  UNL     1      -6.751  -0.315   1.651  1.00  0.00     0.162 HD
ENDBRANCH  28  29
ENDBRANCH  27  28
ENDBRANCH  24  27
ENDBRANCH  20  21
ENDBRANCH  19  20
ENDBRANCH  18  19
ENDBRANCH   1  18
TORSDOF 11
