REMARK  3 active torsions:
REMARK  status: ('A' for Active; 'I' for Inactive)
REMARK    1  A    between atoms: C3_7  and  C4_8 
REMARK    2  A    between atoms: N3_12  and  C8_13 
REMARK    3  A    between atoms: C8_13  and  C9_14 
ROOT
HETATM    1  C4  UNL     1      -3.043   0.473  -0.766  1.00  0.00     0.060 C 
HETATM    2  C5  UNL     1      -3.123  -1.038  -0.804  1.00  0.00     0.020 C 
HETATM    3  C6  UNL     1      -2.110  -1.482  -1.824  1.00  0.00     0.046 C 
HETATM    4  C7  UNL     1      -0.741  -1.221  -1.197  1.00  0.00     0.063 C 
HETATM    5  N3  UNL     1      -0.580   0.102  -0.832  1.00  0.00    -0.371 N 
HETATM    6  C15 UNL     1      -1.663   0.990  -0.687  1.00  0.00     0.072 C 
ENDROOT
BRANCH   5   7
HETATM    7  C8  UNL     1       0.460   0.454   0.067  1.00  0.00     0.160 C 
BRANCH   7   8
HETATM    8  C9  UNL     1       1.877   0.373  -0.395  1.00  0.00     0.204 C 
HETATM    9  C10 UNL     1       2.318  -0.960  -0.782  1.00  0.00     0.035 C 
HETATM   10  C11 UNL     1       3.718  -1.357  -0.450  1.00  0.00     0.002 C 
HETATM   11  C12 UNL     1       4.677  -0.247  -0.177  1.00  0.00     0.002 C 
HETATM   12  C13 UNL     1       4.609  -0.003   1.341  1.00  0.00     0.027 C 
HETATM   13  C14 UNL     1       3.103   0.168   1.606  1.00  0.00     0.233 C 
HETATM   14  N4  UNL     1       2.667   1.088   0.582  1.00  0.00    -0.069 N 
ATOM     15  H42 UNL     1       3.446   1.591   0.157  1.00  0.00     0.277 HD
ATOM     16  H41 UNL     1       2.171   1.891   0.969  1.00  0.00     0.277 HD
ENDBRANCH   7   8
ENDBRANCH   5   7
BRANCH   1  17
HETATM   17  C3  UNL     1      -3.845   1.008   0.356  1.00  0.00    -0.015 A 
HETATM   18  C1  UNL     1      -4.916   1.865   0.238  1.00  0.00     0.116 A 
HETATM   19  N1  UNL     1      -5.410   2.142   1.456  1.00  0.00    -0.312 N 
HETATM   20  N2  UNL     1      -4.673   1.479   2.321  1.00  0.00    -0.312 N 
ATOM     21  H1  UNL     1      -6.202   2.748   1.669  1.00  0.00     0.186 HD
HETATM   22  C2  UNL     1      -3.718   0.782   1.708  1.00  0.00     0.116 A 
ATOM     23  H2  UNL     1      -4.815   1.497   3.331  1.00  0.00     0.186 HD
ENDBRANCH   1  17
TORSDOF 3
