REMARK  3 active torsions:
REMARK  status: ('A' for Active; 'I' for Inactive)
REMARK    1  A    between atoms: C4_4  and  C5_5 
REMARK    2  A    between atoms: C9_9  and  C10_10 
REMARK    3  A    between atoms: C10_10  and  N1_11 
ROOT
HETATM    1  C5  UNL     1      -2.008   0.039  -0.388  1.00  0.00    -0.025 A 
HETATM    2  C6  UNL     1      -2.157  -0.349  -1.705  1.00  0.00     0.012 A 
HETATM    3  C7  UNL     1      -1.044  -0.433  -2.515  1.00  0.00     0.001 A 
HETATM    4  C8  UNL     1       0.205  -0.128  -2.000  1.00  0.00     0.009 A 
HETATM    5  C9  UNL     1       0.391   0.261  -0.697  1.00  0.00    -0.039 A 
HETATM    6  C14 UNL     1      -0.747   0.336   0.093  1.00  0.00     0.021 A 
ENDROOT
BRANCH   5   7
HETATM    7  C10 UNL     1       1.729   0.585  -0.140  1.00  0.00     0.176 C 
BRANCH   7   8
HETATM    8  N1  UNL     1       2.763   0.368  -1.126  1.00  0.00    -0.222 N 
HETATM    9  C11 UNL     1       3.949   0.040  -0.745  1.00  0.00     0.680 A 
HETATM   10  N2  UNL     1       4.973  -0.182  -1.589  1.00  0.00    -0.188 N 
HETATM   11  N4  UNL     1       4.194  -0.091   0.570  1.00  0.00    -0.188 N 
HETATM   12  C12 UNL     1       6.199  -0.523  -1.105  1.00  0.00     0.199 A 
ATOM     13  H2  UNL     1       4.830  -0.095  -2.595  1.00  0.00     0.185 HD
HETATM   14  N3  UNL     1       6.399  -0.643   0.222  1.00  0.00    -0.348 N 
HETATM   15  C13 UNL     1       5.386  -0.425   1.080  1.00  0.00     0.199 A 
ATOM     16  H3  UNL     1       7.320  -0.900   0.577  1.00  0.00     0.167 HD
ATOM     17  H4  UNL     1       3.425   0.074   1.219  1.00  0.00     0.185 HD
ATOM     18  H1  UNL     1       2.555   0.474  -2.119  1.00  0.00     0.178 HD
ENDBRANCH   7   8
ENDBRANCH   5   7
BRANCH   1  19
HETATM   19  C4  UNL     1      -3.195   0.109   0.467  1.00  0.00    -0.026 A 
HETATM   20  C3  UNL     1      -4.245  -0.773   0.255  1.00  0.00     0.012 A 
HETATM   21  C2  UNL     1      -5.376  -0.739   1.045  1.00  0.00     0.001 A 
HETATM   22  C1  UNL     1      -5.520   0.164   2.076  1.00  0.00     0.000 A 
HETATM   23  C16 UNL     1      -4.472   1.048   2.290  1.00  0.00     0.001 A 
HETATM   24  C15 UNL     1      -3.325   1.016   1.491  1.00  0.00     0.012 A 
ENDBRANCH   1  19
TORSDOF 3
