REMARK  8 active torsions:
REMARK  status: ('A' for Active; 'I' for Inactive)
REMARK    1  A    between atoms: C2_2  and  C3_3 
REMARK    2  A    between atoms: C3_3  and  C4_4 
REMARK    3  A    between atoms: C3_3  and  S1_6 
REMARK    4  A    between atoms: C3_3  and  C7_9 
REMARK    5  A    between atoms: C9_13  and  C10_14 
REMARK    6  A    between atoms: C12_18  and  N4_19 
REMARK    7  A    between atoms: N4_19  and  C13_21 
REMARK    8  A    between atoms: C17_25  and  N5_26 
ROOT
HETATM    1  S1  UNL     1      -7.196   1.260  -0.805  1.00  0.00    -0.034 SA
HETATM    2  C6  UNL     1      -6.649   2.873  -0.350  1.00  0.00     0.134 C 
HETATM    3  N1  UNL     1      -6.285   3.956  -0.063  1.00  0.00    -0.184 NA
ENDROOT
BRANCH   1   4
HETATM    4  C3  UNL     1      -6.081  -0.001  -0.138  1.00  0.00     0.072 C 
BRANCH   4   5
HETATM    5  C2  UNL     1      -6.639  -1.351  -0.600  1.00  0.00     0.024 C 
HETATM    6  C1  UNL     1      -8.056  -1.501  -0.100  1.00  0.00     0.007 C 
ENDBRANCH   4   5
BRANCH   4   7
HETATM    7  C4  UNL     1      -6.128  -0.019   1.363  1.00  0.00     0.024 C 
HETATM    8  C5  UNL     1      -5.609   1.240   2.000  1.00  0.00     0.007 C 
ENDBRANCH   4   7
BRANCH   4   9
HETATM    9  C7  UNL     1      -4.712   0.204  -0.676  1.00  0.00     0.090 A 
HETATM   10  C8  UNL     1      -4.371   0.699  -1.916  1.00  0.00     0.124 A 
HETATM   11  N2  UNL     1      -3.043   0.720  -1.997  1.00  0.00    -0.343 N 
HETATM   12  C9  UNL     1      -2.568   0.252  -0.841  1.00  0.00     0.166 A 
ATOM     13  H2  UNL     1      -2.491   1.035  -2.794  1.00  0.00     0.167 HD
HETATM   14  O2  UNL     1      -3.572  -0.043  -0.086  1.00  0.00    -0.294 OA
BRANCH  12  15
HETATM   15  C10 UNL     1      -1.126   0.122  -0.554  1.00  0.00     0.075 A 
HETATM   16  C11 UNL     1      -0.067   0.445  -1.362  1.00  0.00     0.113 A 
HETATM   17  N3  UNL     1       1.133   0.236  -0.905  1.00  0.00    -0.345 N 
HETATM   18  C12 UNL     1       1.286  -0.275   0.312  1.00  0.00     0.147 A 
ATOM     19  H3  UNL     1       1.948   0.462  -1.475  1.00  0.00     0.167 HD
HETATM   20  S2  UNL     1      -0.339  -0.471   0.839  1.00  0.00    -0.049 SA
BRANCH  18  21
HETATM   21  N4  UNL     1       2.380  -0.576   0.968  1.00  0.00    -0.344 N 
ATOM     22  H4  UNL     1       2.345  -0.967   1.909  1.00  0.00     0.164 HD
BRANCH  21  23
HETATM   23  C13 UNL     1       3.649  -0.328   0.296  1.00  0.00     0.225 C 
HETATM   24  C14 UNL     1       3.863  -1.503  -0.635  1.00  0.00     0.054 C 
HETATM   25  C15 UNL     1       5.127  -1.236  -1.424  1.00  0.00     0.008 C 
HETATM   26  C16 UNL     1       6.239  -1.234  -0.359  1.00  0.00     0.054 C 
HETATM   27  C17 UNL     1       5.892  -0.067   0.543  1.00  0.00     0.225 C 
HETATM   28  O1  UNL     1       4.681  -0.282   1.197  1.00  0.00    -0.343 OA
BRANCH  27  29
HETATM   29  N5  UNL     1       6.970   0.122   1.483  1.00  0.00    -0.340 N 
HETATM   30  C18 UNL     1       8.061   0.678   1.088  1.00  0.00     0.198 C 
HETATM   31  N6  UNL     1       9.133   0.869   2.015  1.00  0.00    -0.067 NA
HETATM   32  N7  UNL     1       8.299   1.129  -0.243  1.00  0.00    -0.067 NA
ATOM     33  H5  UNL     1       6.868  -0.182   2.451  1.00  0.00     0.164 HD
ENDBRANCH  27  29
ENDBRANCH  21  23
ENDBRANCH  18  21
ENDBRANCH  12  15
ENDBRANCH   4   9
ENDBRANCH   1   4
TORSDOF 8
