REMARK  8 active torsions:
REMARK  status: ('A' for Active; 'I' for Inactive)
REMARK    1  A    between atoms: O1_2  and  C2_3 
REMARK    2  A    between atoms: C2_3  and  C3_5 
REMARK    3  A    between atoms: C3_5  and  C4_6 
REMARK    4  A    between atoms: C4_6  and  C5_7 
REMARK       I    between atoms: C5_7  and  N1_9 
REMARK    5  A    between atoms: N1_9  and  C6_11 
REMARK    6  A    between atoms: C7_13  and  C8_14 
REMARK    7  A    between atoms: C8_14  and  O4_15 
REMARK    8  A    between atoms: C8_14  and  C9_17 
ROOT
HETATM    1  C6  UNL     1       0.017   0.128  -0.071  1.00  0.00     0.083 A 
HETATM    2  S1  UNL     1      -1.090   1.443  -0.444  1.00  0.00    -0.069 SA
HETATM    3  C7  UNL     1      -2.588   0.647  -0.176  1.00  0.00     0.043 A 
HETATM    4  C12 UNL     1      -2.190  -0.590   0.189  1.00  0.00    -0.034 A 
HETATM    5  C13 UNL     1      -3.242  -1.630   0.595  1.00  0.00     0.050 C 
HETATM    6  C14 UNL     1      -0.861  -0.857   0.239  1.00  0.00    -0.021 A 
HETATM    7  C15 UNL     1      -0.371  -2.266   0.553  1.00  0.00     0.052 C 
ENDROOT
BRANCH   1   8
HETATM    8  N1  UNL     1       1.427   0.272  -0.154  1.00  0.00    -0.321 N 
HETATM    9  C5  UNL     1       2.526  -0.455   0.205  1.00  0.00     0.223 C 
HETATM   10  O3  UNL     1       2.570  -1.555   0.776  1.00  0.00    -0.273 OA
ATOM     11  H1  UNL     1       1.688   1.151  -0.600  1.00  0.00     0.169 HD
BRANCH   9  12
HETATM   12  C4  UNL     1       3.927   0.090  -0.098  1.00  0.00     0.113 C 
BRANCH  12  13
HETATM   13  C3  UNL     1       4.991  -0.782   0.485  1.00  0.00     0.120 C 
BRANCH  13  14
HETATM   14  C2  UNL     1       6.302  -0.134   0.117  1.00  0.00     0.258 C 
HETATM   15  O2  UNL     1       6.979  -0.517  -0.871  1.00  0.00    -0.265 OA
BRANCH  14  16
HETATM   16  O1  UNL     1       6.806   0.921   0.864  1.00  0.00    -0.326 OA
HETATM   17  C1  UNL     1       8.020   1.591   0.594  1.00  0.00     0.213 C 
ENDBRANCH  14  16
ENDBRANCH  13  14
ENDBRANCH  12  13
ENDBRANCH   9  12
ENDBRANCH   1   8
BRANCH   3  18
HETATM   18  C8  UNL     1      -3.872   1.321  -0.348  1.00  0.00     0.064 C 
BRANCH  18  19
HETATM   19  O4  UNL     1      -3.806   2.591  -0.656  1.00  0.00    -0.363 OA
ATOM     20  H4  UNL     1      -4.641   3.029  -0.768  1.00  0.00     0.217 HD
ENDBRANCH  18  19
BRANCH  18  21
HETATM   21  C9  UNL     1      -5.223   0.814  -0.240  1.00  0.00     0.035 C 
HETATM   22  C10 UNL     1      -6.213   1.993  -0.435  1.00  0.00     0.016 C 
HETATM   23  C11 UNL     1      -5.575  -0.203  -1.309  1.00  0.00     0.016 C 
ENDBRANCH  18  21
ENDBRANCH   3  18
TORSDOF 8
