REMARK  5 active torsions:
REMARK  status: ('A' for Active; 'I' for Inactive)
REMARK    1  A    between atoms: C2_2  and  N1_4 
REMARK    2  A    between atoms: N1_4  and  C4_6 
REMARK    3  A    between atoms: C4_6  and  C6_8 
REMARK    4  A    between atoms: C6_8  and  N2_9 
REMARK    5  A    between atoms: C7_10  and  C8_11 
ROOT
HETATM    1  N2  UNL     1       0.322   1.276  -0.981  1.00  0.00    -0.305 N 
HETATM    2  C7  UNL     1       1.397   0.857  -0.286  1.00  0.00     0.122 A 
HETATM    3  N4  UNL     1       2.139   1.899   0.061  1.00  0.00    -0.341 N 
ATOM      4  H4  UNL     1       3.008   1.858   0.593  1.00  0.00     0.167 HD
HETATM    5  C13 UNL     1       1.548   3.040  -0.412  1.00  0.00     0.068 A 
HETATM    6  C14 UNL     1       1.828   4.384  -0.377  1.00  0.00     0.081 A 
HETATM    7  S1  UNL     1       0.522   5.062  -1.237  1.00  0.00    -0.109 SA
HETATM    8  C15 UNL     1      -0.332   3.633  -1.612  1.00  0.00     0.082 A 
HETATM    9  C16 UNL     1       0.442   2.650  -1.044  1.00  0.00     0.074 A 
ENDROOT
BRANCH   1  10
HETATM   10  C6  UNL     1      -0.644   0.409  -1.484  1.00  0.00     0.123 C 
BRANCH  10  11
HETATM   11  C4  UNL     1      -1.858   0.032  -0.742  1.00  0.00     0.017 C 
HETATM   12  C5  UNL     1      -2.942   1.116  -0.791  1.00  0.00     0.069 C 
BRANCH  11  13
HETATM   13  N1  UNL     1      -1.703  -0.610   0.495  1.00  0.00    -0.388 N 
ATOM     14  H1  UNL     1      -0.818  -0.505   0.991  1.00  0.00     0.159 HD
BRANCH  13  15
HETATM   15  C2  UNL     1      -2.701  -1.383   1.076  1.00  0.00     0.073 C 
HETATM   16  C1  UNL     1      -3.994  -0.696   1.445  1.00  0.00     0.031 C 
HETATM   17  C3  UNL     1      -3.048  -2.666   0.360  1.00  0.00     0.031 C 
ENDBRANCH  13  15
ENDBRANCH  11  13
ENDBRANCH  10  11
ENDBRANCH   1  10
BRANCH   2  18
HETATM   18  C8  UNL     1       1.808  -0.535   0.106  1.00  0.00     0.290 C 
HETATM   19  C9  UNL     1       1.877  -0.529   1.634  1.00  0.00     0.045 C 
HETATM   20  C10 UNL     1       2.958  -1.521   1.919  1.00  0.00     0.033 C 
HETATM   21  C11 UNL     1       3.908  -1.308   0.787  1.00  0.00     0.273 C 
HETATM   22  N3  UNL     1       3.201  -0.656  -0.275  1.00  0.00     0.096 N 
HETATM   23  C12 UNL     1       3.364  -1.343  -1.536  1.00  0.00     0.310 C 
ENDBRANCH   2  18
TORSDOF 5
