REMARK  2 active torsions:
REMARK  status: ('A' for Active; 'I' for Inactive)
REMARK    1  A    between atoms: C5_6  and  C7_9 
REMARK    2  A    between atoms: C7_9  and  C8_10 
ROOT
HETATM    1  N1  UNL     1      -4.923  -0.396   0.804  1.00  0.00    -0.197 NA
HETATM    2  C1  UNL     1      -3.782  -0.351   0.763  1.00  0.00     0.064 C 
HETATM    3  C2  UNL     1      -2.325  -0.273   0.720  1.00  0.00     0.094 C 
HETATM    4  C3  UNL     1      -1.835   1.138   1.034  1.00  0.00     0.021 C 
HETATM    5  C4  UNL     1      -0.365   1.007   0.613  1.00  0.00     0.026 C 
HETATM    6  C5  UNL     1      -0.406   0.126  -0.615  1.00  0.00     0.057 C 
HETATM    7  C6  UNL     1      -0.125   0.880  -1.817  1.00  0.00     0.069 C 
HETATM    8  N2  UNL     1       0.096   1.488  -2.750  1.00  0.00    -0.196 NA
HETATM    9  C10 UNL     1      -1.814  -0.433  -0.697  1.00  0.00     0.044 C 
ENDROOT
BRANCH   6  10
HETATM   10  C7  UNL     1       0.511  -1.056  -0.492  1.00  0.00     0.102 C 
BRANCH  10  11
HETATM   11  C8  UNL     1       1.919  -0.713  -0.306  1.00  0.00     0.098 A 
HETATM   12  N3  UNL     1       2.907  -0.507  -1.188  1.00  0.00    -0.340 N 
HETATM   13  C9  UNL     1       4.043  -0.211  -0.534  1.00  0.00     0.198 A 
ATOM     14  H3  UNL     1       2.811  -0.566  -2.202  1.00  0.00     0.168 HD
HETATM   15  N4  UNL     1       3.738  -0.237   0.771  1.00  0.00    -0.295 N 
HETATM   16  N5  UNL     1       2.475  -0.536   0.906  1.00  0.00    -0.288 N 
ATOM     17  H4  UNL     1       4.388  -0.053   1.535  1.00  0.00     0.187 HD
ATOM     18  H5  UNL     1       1.984  -0.622   1.796  1.00  0.00     0.188 HD
ENDBRANCH  10  11
ENDBRANCH   6  10
TORSDOF 2
