REMARK  1 active torsions:
REMARK  status: ('A' for Active; 'I' for Inactive)
REMARK    1  A    between atoms: C4_9  and  C5_10 
ROOT
HETATM    1  C5  UNL     1       0.990   0.618   0.159  1.00  0.00     0.033 C 
HETATM    2  C6  UNL     1       2.271   0.333   0.186  1.00  0.00     0.122 C 
HETATM    3  C7  UNL     1       3.173   1.255   0.815  1.00  0.00     0.110 C 
HETATM    4  N3  UNL     1       3.883   2.005   1.321  1.00  0.00    -0.191 NA
HETATM    5  C8  UNL     1       2.811  -0.865  -0.387  1.00  0.00     0.110 C 
HETATM    6  N4  UNL     1       3.258  -1.839  -0.863  1.00  0.00    -0.191 NA
ENDROOT
BRANCH   1   7
HETATM    7  C4  UNL     1      -0.005  -0.300  -0.480  1.00  0.00     0.120 C 
HETATM    8  N1  UNL     1      -1.175  -0.292   0.301  1.00  0.00    -0.358 N 
HETATM    9  C1  UNL     1      -1.215  -0.989   1.590  1.00  0.00     0.152 C 
HETATM   10  C2  UNL     1      -2.283   0.400  -0.193  1.00  0.00     0.136 C 
HETATM   11  N2  UNL     1      -3.360   0.813   0.393  1.00  0.00    -0.380 N 
HETATM   12  S1  UNL     1      -1.947   0.650  -1.934  1.00  0.00    -0.092 SA
ATOM     13  H22 UNL     1      -3.551   0.671   1.385  1.00  0.00     0.158 HD
ATOM     14  H21 UNL     1      -4.169   1.318   0.032  1.00  0.00     0.158 HD
HETATM   15  C3  UNL     1      -0.239   0.046  -1.890  1.00  0.00     0.111 C 
ENDBRANCH   1   7
TORSDOF 1
