REMARK  2 active torsions:
REMARK  status: ('A' for Active; 'I' for Inactive)
REMARK    1  A    between atoms: C5_5  and  N1_6 
REMARK    2  A    between atoms: N1_6  and  N2_8 
ROOT
HETATM    1  C1  UNL     1      -0.629   0.778   1.696  1.00  0.00     0.018 C 
HETATM    2  C2  UNL     1      -0.650   0.642   0.206  1.00  0.00    -0.017 C 
HETATM    3  C3  UNL     1      -1.817   1.397  -0.345  1.00  0.00     0.018 C 
HETATM    4  C4  UNL     1       0.606   1.142  -0.453  1.00  0.00     0.088 C 
HETATM    5  C5  UNL     1       1.471  -0.040  -0.568  1.00  0.00     0.099 C 
HETATM    6  N3  UNL     1       0.780  -1.096  -0.408  1.00  0.00    -0.369 N 
ATOM      7  H3  UNL     1       1.168  -2.039  -0.446  1.00  0.00     0.161 HD
HETATM    8  C6  UNL     1      -0.628  -0.809  -0.165  1.00  0.00     0.031 C 
HETATM    9  C7  UNL     1      -1.407  -1.148  -1.386  1.00  0.00     0.039 C 
HETATM   10  C8  UNL     1      -1.081  -1.714   0.958  1.00  0.00     0.039 C 
ENDROOT
BRANCH   5  11
HETATM   11  N1  UNL     1       2.860   0.024  -0.819  1.00  0.00    -0.230 N 
ATOM     12  H1  UNL     1       3.151   0.148  -1.789  1.00  0.00     0.194 HD
BRANCH  11  13
HETATM   13  N2  UNL     1       3.853  -0.066   0.126  1.00  0.00    -0.038 N 
HETATM   14  O1  UNL     1       3.791  -0.791   1.136  1.00  0.00    -0.516 OA
HETATM   15  O2  UNL     1       4.992   0.684  -0.037  1.00  0.00    -0.516 OA
ENDBRANCH  11  13
ENDBRANCH   5  11
TORSDOF 2
