REMARK  2 active torsions:
REMARK  status: ('A' for Active; 'I' for Inactive)
REMARK    1  A    between atoms: C2_8  and  N4_9 
REMARK    2  A    between atoms: N4_9  and  C3_11 
ROOT
HETATM    1  C1  UNL     1       4.204   1.147   0.895  1.00  0.00     0.216 A 
HETATM    2  N1  UNL     1       4.813   0.181   0.172  1.00  0.00    -0.281 N 
ATOM      3  H1  UNL     1       5.824   0.223   0.041  1.00  0.00     0.189 HD
HETATM    4  N2  UNL     1       4.141  -0.810  -0.367  1.00  0.00    -0.228 N 
ATOM      5  H2  UNL     1       4.637  -1.520  -0.906  1.00  0.00     0.209 HD
HETATM    6  N3  UNL     1       2.822  -0.901  -0.219  1.00  0.00    -0.118 N 
ATOM      7  H3  UNL     1       2.314  -1.677  -0.643  1.00  0.00     0.207 HD
HETATM    8  C2  UNL     1       2.166   0.019   0.482  1.00  0.00     0.695 A 
HETATM    9  N5  UNL     1       2.876   1.050   1.040  1.00  0.00    -0.185 N 
ATOM     10  H5  UNL     1       2.381   1.761   1.579  1.00  0.00     0.185 HD
ENDROOT
BRANCH   8  11
HETATM   11  N4  UNL     1       0.900   0.053   0.702  1.00  0.00    -0.220 N 
ATOM     12  H4  UNL     1       0.536   0.826   1.260  1.00  0.00     0.178 HD
BRANCH  11  13
HETATM   13  C3  UNL     1      -0.041  -0.923   0.216  1.00  0.00     0.099 C 
HETATM   14  C4  UNL     1      -1.172  -1.129   1.177  1.00  0.00     0.026 C 
HETATM   15  C5  UNL     1      -2.476  -0.540   0.735  1.00  0.00     0.002 C 
HETATM   16  C6  UNL     1      -2.291   0.936   0.575  1.00  0.00     0.000 C 
HETATM   17  C7  UNL     1      -2.194   1.168  -0.926  1.00  0.00     0.000 C 
HETATM   18  C8  UNL     1      -0.869   0.768  -1.474  1.00  0.00     0.002 C 
HETATM   19  C9  UNL     1      -0.457  -0.638  -1.188  1.00  0.00     0.026 C 
ENDBRANCH  11  13
ENDBRANCH   8  11
TORSDOF 2
