REMARK  1 active torsions:
REMARK  status: ('A' for Active; 'I' for Inactive)
REMARK    1  A    between atoms: S1_2  and  C2_3 
ROOT
HETATM    1  C2  UNL     1      -0.345   0.703   0.546  1.00  0.00     0.126 C 
HETATM    2  C3  UNL     1      -1.800   0.616   0.890  1.00  0.00     0.134 C 
HETATM    3  N1  UNL     1      -2.516   0.278  -0.305  1.00  0.00    -0.420 N 
ATOM      4  H1  UNL     1      -3.242   0.882  -0.690  1.00  0.00     0.153 HD
HETATM    5  C4  UNL     1      -2.152  -0.953  -0.922  1.00  0.00     0.119 C 
HETATM    6  C5  UNL     1      -0.798  -1.481  -0.646  1.00  0.00     0.089 C 
HETATM    7  C6  UNL     1       0.180  -0.584   0.008  1.00  0.00     0.179 C 
HETATM    8  O1  UNL     1       0.754  -1.275   1.089  1.00  0.00    -0.352 OA
HETATM    9  C7  UNL     1       1.787  -1.972   0.446  1.00  0.00     0.197 C 
HETATM   10  C8  UNL     1       2.388  -0.799  -0.322  1.00  0.00     0.197 C 
HETATM   11  O2  UNL     1       1.239  -0.240  -0.845  1.00  0.00    -0.352 OA
ENDROOT
BRANCH   1  12
HETATM   12  S1  UNL     1      -0.060   2.083  -0.596  1.00  0.00    -0.162 SA
HETATM   13  C1  UNL     1       1.180   3.241   0.032  1.00  0.00     0.090 C 
ENDBRANCH   1  12
TORSDOF 1
