REMARK  1 active torsions:
REMARK  status: ('A' for Active; 'I' for Inactive)
REMARK    1  A    between atoms: C3_3  and  C4_5 
REMARK       I    between atoms: N1_8  and  C7_9 
ROOT
HETATM    1  C1  UNL     1      -3.847   1.416   1.229  1.00  0.00     0.013 C 
HETATM    2  C2  UNL     1      -3.284   0.501   0.673  1.00  0.00    -0.097 C 
HETATM    3  C3  UNL     1      -2.613  -0.612  -0.020  1.00  0.00     0.164 C 
HETATM    4 CL1  UNL     1      -3.014  -2.164   0.748  1.00  0.00    -0.111 Cl
ENDROOT
BRANCH   3   5
HETATM    5  C4  UNL     1      -1.118  -0.407  -0.023  1.00  0.00     0.019 C 
HETATM    6  C5  UNL     1      -0.562  -0.333   1.365  1.00  0.00     0.027 C 
HETATM    7  C6  UNL     1       0.811   0.286   1.286  1.00  0.00     0.126 C 
HETATM    8  N1  UNL     1       1.417   0.071  -0.026  1.00  0.00    -0.356 N 
HETATM    9  C7  UNL     1       2.664  -0.581  -0.169  1.00  0.00     0.183 C 
HETATM   10  C8  UNL     1       0.766   0.519  -1.253  1.00  0.00     0.126 C 
HETATM   11  N2  UNL     1       2.733  -1.853  -0.015  1.00  0.00    -0.374 N 
HETATM   12  N3  UNL     1       3.826   0.148  -0.476  1.00  0.00    -0.064 NA
ATOM     13  H22 UNL     1       1.890  -2.382   0.208  1.00  0.00     0.158 HD
ATOM     14  H21 UNL     1       3.632  -2.323  -0.118  1.00  0.00     0.158 HD
HETATM   15  C9  UNL     1      -0.692   0.733  -0.901  1.00  0.00     0.027 C 
ENDBRANCH   3   5
TORSDOF 1
