REMARK  3 active torsions:
REMARK  status: ('A' for Active; 'I' for Inactive)
REMARK    1  A    between atoms: C5_5  and  C11_19 
REMARK    2  A    between atoms: C6_6  and  C7_7 
REMARK    3  A    between atoms: C7_7  and  N1_8 
ROOT
HETATM    1  C1  UNL     1      -3.464   0.712   0.171  1.00  0.00     0.019 C 
HETATM    2  C2  UNL     1      -2.080   0.202   0.024  1.00  0.00    -0.001 A 
HETATM    3  C3  UNL     1      -1.544   0.118  -1.398  1.00  0.00     0.020 C 
HETATM    4  C4  UNL     1      -0.077   0.233  -1.200  1.00  0.00     0.027 C 
HETATM    5  C5  UNL     1       0.552  -0.925  -0.480  1.00  0.00     0.029 C 
HETATM    6  C6  UNL     1       1.656  -0.233   0.304  1.00  0.00     0.216 C 
HETATM    7  N2  UNL     1       1.365   1.163   0.323  1.00  0.00    -0.061 N 
ATOM      8  H21 UNL     1       2.030   1.719  -0.215  1.00  0.00     0.278 HD
ATOM      9  H22 UNL     1       1.538   1.596   1.230  1.00  0.00     0.278 HD
HETATM   10  C8  UNL     1       0.015   1.314  -0.124  1.00  0.00     0.231 C 
HETATM   11  C9  UNL     1      -1.012   0.849   0.857  1.00  0.00     0.144 A 
HETATM   12  F1  UNL     1      -1.444   1.774   1.766  1.00  0.00    -0.239 F 
HETATM   13  C10 UNL     1      -0.717  -0.456   1.503  1.00  0.00     0.038 A 
HETATM   14  C11 UNL     1      -0.365  -1.560   0.542  1.00  0.00     0.005 A 
HETATM   15  C12 UNL     1      -1.759  -1.104   0.717  1.00  0.00     0.010 A 
ENDROOT
BRANCH   6  16
HETATM   16  C7  UNL     1       2.990  -0.558  -0.326  1.00  0.00     0.263 C 
BRANCH  16  17
HETATM   17  N1  UNL     1       4.091   0.057   0.354  1.00  0.00    -0.077 N 
ATOM     18  H13 UNL     1       3.958   1.066   0.427  1.00  0.00     0.274 HD
ATOM     19  H12 UNL     1       4.088  -0.183   1.345  1.00  0.00     0.274 HD
ATOM     20  H11 UNL     1       4.992  -0.162  -0.071  1.00  0.00     0.274 HD
ENDBRANCH  16  17
ENDBRANCH   6  16
TORSDOF 3
