REMARK  2 active torsions:
REMARK  status: ('A' for Active; 'I' for Inactive)
REMARK    1  A    between atoms: N1_5  and  C5_6 
REMARK    2  A    between atoms: C5_6  and  C6_10 
ROOT
HETATM    1  C5  UNL     1       1.941  -0.352   0.205  1.00  0.00     0.169 C 
HETATM    2  N2  UNL     1       2.412  -1.489   0.567  1.00  0.00    -0.205 N 
ATOM      3  H2  UNL     1       1.776  -2.229   0.864  1.00  0.00     0.201 HD
HETATM    4  F1  UNL     1       3.729  -1.710   0.558  1.00  0.00    -0.100 F 
ENDROOT
BRANCH   1   5
HETATM    5  N1  UNL     1       0.522  -0.106   0.211  1.00  0.00    -0.363 N 
HETATM    6  C4  UNL     1      -0.244  -0.655   1.301  1.00  0.00     0.125 C 
HETATM    7  C3  UNL     1      -1.612  -1.136   0.866  1.00  0.00     0.024 C 
HETATM    8  C2  UNL     1      -2.262   0.047   0.136  1.00  0.00    -0.015 C 
HETATM    9  C1  UNL     1      -3.736  -0.168  -0.065  1.00  0.00     0.010 C 
HETATM   10  C8  UNL     1      -1.502   0.192  -1.157  1.00  0.00     0.024 C 
HETATM   11  C7  UNL     1      -0.098   0.660  -0.838  1.00  0.00     0.125 C 
ENDBRANCH   1   5
BRANCH   1  12
HETATM   12  C6  UNL     1       2.873   0.684  -0.212  1.00  0.00     0.156 C 
HETATM   13  N3  UNL     1       2.397   1.827  -0.576  1.00  0.00    -0.385 N 
ATOM     14  H32 UNL     1       1.383   1.933  -0.547  1.00  0.00     0.157 HD
ATOM     15  H31 UNL     1       3.051   2.553  -0.868  1.00  0.00     0.157 HD
HETATM   16  N4  UNL     1       4.278   0.537  -0.252  1.00  0.00    -0.079 NA
ENDBRANCH   1  12
TORSDOF 2
