REMARK  5 active torsions:
REMARK  status: ('A' for Active; 'I' for Inactive)
REMARK    1  A    between atoms: C3_3  and  C4_4 
REMARK    2  A    between atoms: C4_4  and  O1_5 
REMARK    3  A    between atoms: C5_7  and  C12_14 
REMARK    4  A    between atoms: C6_8  and  C10_12 
REMARK    5  A    between atoms: C7_9  and  C8_10 
ROOT
HETATM    1  C1  UNL     1       1.429   1.979   0.576  1.00  0.00     0.011 C 
HETATM    2  C2  UNL     1       0.824   0.978  -0.371  1.00  0.00    -0.007 C 
HETATM    3  C3  UNL     1       1.139  -0.450   0.002  1.00  0.00     0.021 C 
HETATM    4  C5  UNL     1      -0.119  -1.189  -0.300  1.00  0.00     0.037 C 
HETATM    5  C6  UNL     1      -0.933  -0.272  -1.229  1.00  0.00     0.003 C 
HETATM    6  C7  UNL     1      -0.659   0.996  -0.398  1.00  0.00     0.002 C 
ENDROOT
BRANCH   3   7
HETATM    7  C4  UNL     1       2.340  -0.986  -0.731  1.00  0.00     0.169 C 
BRANCH   7   8
HETATM    8  O1  UNL     1       3.474  -0.240  -0.458  1.00  0.00    -0.400 OA
ATOM      9  H1  UNL     1       4.232  -0.578  -0.920  1.00  0.00     0.209 HD
ENDBRANCH   7   8
ENDBRANCH   3   7
BRANCH   4  10
HETATM   10  C12 UNL     1      -1.012  -1.016   0.923  1.00  0.00     0.116 A 
HETATM   11  C8  UNL     1      -1.283   0.458   0.895  1.00  0.00     0.036 A 
HETATM   12  C9  UNL     1      -2.651   0.136   0.394  1.00  0.00     0.006 A 
HETATM   13  C10 UNL     1      -2.363  -0.523  -0.934  1.00  0.00     0.003 A 
HETATM   14  C11 UNL     1      -2.364  -1.272   0.331  1.00  0.00     0.036 A 
HETATM   15  F1  UNL     1      -0.656  -1.606   2.051  1.00  0.00    -0.242 F 
ENDBRANCH   4  10
TORSDOF 5
