REMARK  13 active torsions:
REMARK  status: ('A' for Active; 'I' for Inactive)
REMARK    1  A    between atoms: O1_2  and  C2_3 
REMARK    2  A    between atoms: C2_3  and  C3_5 
REMARK    3  A    between atoms: C3_5  and  C4_6 
REMARK    4  A    between atoms: C4_6  and  C5_7 
REMARK    5  A    between atoms: C8_10  and  O3_11 
REMARK    6  A    between atoms: C10_14  and  O4_15 
REMARK    7  A    between atoms: O4_15  and  C11_16 
REMARK    8  A    between atoms: C11_16  and  C12_18 
REMARK    9  A    between atoms: C12_18  and  N1_19 
REMARK   10  A    between atoms: C19_29  and  O6_30 
REMARK   11  A    between atoms: C19_29  and  C20_32 
REMARK   12  A    between atoms: C20_32  and  C22_34 
REMARK   13  A    between atoms: C22_34  and  C23_35 
REMARK       I    between atoms: C23_35  and  N2_37 
ROOT
HETATM    1  C5  UNL     1       4.588   0.743   1.461  1.00  0.00    -0.003 C 
HETATM    2  C6  UNL     1       3.874   2.086   1.085  1.00  0.00     0.008 C 
HETATM    3  C7  UNL     1       3.193   1.703  -0.176  1.00  0.00     0.039 C 
HETATM    4  C8  UNL     1       2.736   0.247   0.013  1.00  0.00     0.072 C 
HETATM    5  C9  UNL     1       1.259   0.285   0.018  1.00  0.00     0.055 C 
HETATM    6  C10 UNL     1       0.532  -0.987  -0.227  1.00  0.00     0.140 C 
HETATM    7  C13 UNL     1      -0.877  -0.507  -0.700  1.00  0.00     0.045 C 
HETATM    8  C14 UNL     1      -1.566   0.018   0.484  1.00  0.00    -0.006 C 
HETATM    9  C15 UNL     1      -2.056  -1.128   1.343  1.00  0.00     0.019 C 
HETATM   10  C16 UNL     1      -0.791   0.997   1.311  1.00  0.00     0.001 C 
HETATM   11  C17 UNL     1      -1.351   2.382   1.071  1.00  0.00     0.009 C 
HETATM   12  C18 UNL     1      -2.124   2.143  -0.235  1.00  0.00     0.039 C 
HETATM   13  C19 UNL     1      -2.799   0.860   0.112  1.00  0.00     0.069 C 
HETATM   14  C28 UNL     1       0.692   0.968   1.219  1.00  0.00    -0.000 C 
HETATM   15  C29 UNL     1       1.337   0.577   2.523  1.00  0.00     0.006 C 
HETATM   16  C30 UNL     1       2.545  -0.229   2.490  1.00  0.00     0.013 C 
HETATM   17  C31 UNL     1       3.425  -0.179   1.258  1.00  0.00    -0.009 C 
HETATM   18  C32 UNL     1       3.905  -1.597   1.062  1.00  0.00     0.019 C 
ENDROOT
BRANCH  13  19
HETATM   19  O6  UNL     1      -3.609   0.977   1.250  1.00  0.00    -0.389 OA
ATOM     20  H6  UNL     1      -4.370   1.497   1.020  1.00  0.00     0.210 HD
ENDBRANCH  13  19
BRANCH  13  21
HETATM   21  C20 UNL     1      -3.616   0.338  -0.991  1.00  0.00     0.025 C 
HETATM   22  C21 UNL     1      -4.252  -1.027  -0.751  1.00  0.00     0.013 C 
BRANCH  21  23
HETATM   23  C22 UNL     1      -4.630   1.291  -1.547  1.00  0.00     0.110 C 
BRANCH  23  24
HETATM   24  C23 UNL     1      -5.689   1.790  -0.698  1.00  0.00     0.220 C 
HETATM   25  O7  UNL     1      -5.455   2.678   0.164  1.00  0.00    -0.273 OA
HETATM   26  N2  UNL     1      -7.025   1.357  -0.747  1.00  0.00    -0.352 N 
HETATM   27  C24 UNL     1      -8.105   1.806   0.105  1.00  0.00     0.126 C 
HETATM   28  C27 UNL     1      -7.606   0.408  -1.654  1.00  0.00     0.126 C 
HETATM   29  C25 UNL     1      -9.114   0.669   0.105  1.00  0.00     0.021 C 
HETATM   30  C26 UNL     1      -8.418  -0.443  -0.686  1.00  0.00     0.021 C 
ENDBRANCH  23  24
ENDBRANCH  21  23
ENDBRANCH  13  21
BRANCH   6  31
HETATM   31  O4  UNL     1       1.045  -1.771  -1.290  1.00  0.00    -0.314 OA
BRANCH  31  32
HETATM   32  C11 UNL     1       1.177  -3.148  -1.192  1.00  0.00     0.284 C 
HETATM   33  O5  UNL     1       0.848  -3.769  -0.152  1.00  0.00    -0.263 OA
BRANCH  32  34
HETATM   34  C12 UNL     1       1.731  -3.860  -2.382  1.00  0.00     0.340 C 
BRANCH  34  35
HETATM   35  N1  UNL     1       1.795  -5.281  -2.125  1.00  0.00    -0.070 N 
ATOM     36  H13 UNL     1       2.319  -5.492  -1.276  1.00  0.00     0.274 HD
ATOM     37  H12 UNL     1       0.891  -5.659  -1.841  1.00  0.00     0.274 HD
ATOM     38  H11 UNL     1       2.173  -5.767  -2.938  1.00  0.00     0.274 HD
ENDBRANCH  34  35
ENDBRANCH  32  34
ENDBRANCH  31  32
ENDBRANCH   6  31
BRANCH   4  39
HETATM   39  O3  UNL     1       3.160  -0.478  -1.117  1.00  0.00    -0.389 OA
ATOM     40  H3  UNL     1       2.878  -1.378  -1.000  1.00  0.00     0.210 HD
ENDBRANCH   4  39
BRANCH   1  41
HETATM   41  C4  UNL     1       5.752   0.692   0.582  1.00  0.00     0.015 C 
BRANCH  41  42
HETATM   42  C3  UNL     1       6.732  -0.427   0.673  1.00  0.00     0.111 C 
BRANCH  42  43
HETATM   43  C2  UNL     1       7.840  -0.137  -0.344  1.00  0.00     0.258 C 
HETATM   44  O2  UNL     1       7.464   0.018  -1.523  1.00  0.00    -0.265 OA
BRANCH  43  45
HETATM   45  O1  UNL     1       9.158  -0.052   0.009  1.00  0.00    -0.326 OA
HETATM   46  C1  UNL     1      10.117   0.228  -1.022  1.00  0.00     0.213 C 
ENDBRANCH  43  45
ENDBRANCH  42  43
ENDBRANCH  41  42
ENDBRANCH   1  41
TORSDOF 13
