REMARK  11 active torsions:
REMARK  status: ('A' for Active; 'I' for Inactive)
REMARK    1  A    between atoms: C2_2  and  O1_3 
REMARK    2  A    between atoms: C2_2  and  C9_11 
REMARK    3  A    between atoms: O1_3  and  C3_4 
REMARK    4  A    between atoms: C3_4  and  C4_5 
REMARK    5  A    between atoms: C4_5  and  N1_6 
REMARK    6  A    between atoms: C12_14  and  C13_15 
REMARK    7  A    between atoms: C15_17  and  O2_18 
REMARK    8  A    between atoms: C19_23  and  C20_24 
REMARK    9  A    between atoms: C21_25  and  C22_26 
REMARK   10  A    between atoms: C26_32  and  O5_33 
REMARK   11  A    between atoms: C33_42  and  O7_43 
ROOT
HETATM    1  C13 UNL     1       0.156  -0.728   0.602  1.00  0.00     0.022 C 
HETATM    2  C14 UNL     1       0.525  -2.145   0.966  1.00  0.00     0.040 C 
HETATM    3  C15 UNL     1       1.606  -2.482  -0.067  1.00  0.00     0.129 C 
HETATM    4  C16 UNL     1       2.010  -1.199  -0.698  1.00  0.00     0.009 C 
HETATM    5  C17 UNL     1       1.337  -0.965  -2.034  1.00  0.00     0.020 C 
HETATM    6  C18 UNL     1       3.498  -1.008  -0.868  1.00  0.00     0.025 C 
HETATM    7  C19 UNL     1       3.841   0.366  -0.353  1.00  0.00     0.033 C 
HETATM    8  C27 UNL     1       2.780   1.385  -0.734  1.00  0.00     0.176 C 
HETATM    9  O6  UNL     1       1.552   1.114  -0.142  1.00  0.00    -0.384 OA
HETATM   10  C28 UNL     1       1.550  -0.170   0.321  1.00  0.00     0.136 C 
ENDROOT
BRANCH   1  11
HETATM   11  C12 UNL     1      -0.436   0.046   1.725  1.00  0.00    -0.003 C 
HETATM   12  C11 UNL     1      -1.683  -0.531   2.292  1.00  0.00     0.001 C 
HETATM   13  C10 UNL     1      -2.863  -0.046   1.439  1.00  0.00     0.015 C 
HETATM   14  C31 UNL     1      -1.825   0.165   3.626  1.00  0.00    -0.014 C 
HETATM   15  C9  UNL     1      -3.855   0.334   2.506  1.00  0.00     0.044 C 
HETATM   16  C33 UNL     1      -2.984   1.153   3.429  1.00  0.00     0.133 C 
HETATM   17  C30 UNL     1      -0.530   0.835   3.930  1.00  0.00     0.012 C 
HETATM   18  C32 UNL     1      -2.164  -0.796   4.742  1.00  0.00     0.018 C 
HETATM   19  C29 UNL     1       0.448   0.246   2.904  1.00  0.00     0.006 C 
BRANCH  15  20
HETATM   20  C2  UNL     1      -5.060   1.025   1.987  1.00  0.00     0.123 C 
HETATM   21  C1  UNL     1      -6.046   1.402   3.070  1.00  0.00     0.040 C 
BRANCH  20  22
HETATM   22  O1  UNL     1      -5.674   0.170   1.074  1.00  0.00    -0.384 OA
BRANCH  22  23
HETATM   23  C3  UNL     1      -5.754   0.689  -0.204  1.00  0.00     0.198 C 
BRANCH  23  24
HETATM   24  C4  UNL     1      -6.431  -0.314  -1.120  1.00  0.00     0.298 C 
BRANCH  24  25
HETATM   25  N1  UNL     1      -6.548   0.177  -2.477  1.00  0.00     0.090 N 
HETATM   26  C5  UNL     1      -7.464   1.269  -2.586  1.00  0.00     0.272 C 
HETATM   27  C6  UNL     1      -8.518   0.883  -3.599  1.00  0.00     0.032 C 
HETATM   28  C7  UNL     1      -8.519  -0.631  -3.498  1.00  0.00     0.032 C 
HETATM   29  C8  UNL     1      -7.037  -0.900  -3.318  1.00  0.00     0.272 C 
ENDBRANCH  24  25
ENDBRANCH  23  24
ENDBRANCH  22  23
ENDBRANCH  20  22
ENDBRANCH  15  20
BRANCH  16  30
HETATM   30  O7  UNL     1      -2.459   2.270   2.813  1.00  0.00    -0.394 OA
ATOM     31  H7  UNL     1      -1.911   2.785   3.394  1.00  0.00     0.210 HD
ENDBRANCH  16  30
ENDBRANCH   1  11
BRANCH   3  32
HETATM   32  O2  UNL     1       2.637  -3.216   0.477  1.00  0.00    -0.395 OA
ATOM     33  H2  UNL     1       3.307  -3.425  -0.163  1.00  0.00     0.210 HD
ENDBRANCH   3  32
BRANCH   7  34
HETATM   34  C20 UNL     1       5.146   0.881  -0.844  1.00  0.00    -0.021 C 
HETATM   35  C21 UNL     1       5.945   0.305  -1.691  1.00  0.00     0.006 C 
BRANCH  35  36
HETATM   36  C22 UNL     1       7.220   0.959  -2.079  1.00  0.00     0.202 C 
HETATM   37  O3  UNL     1       7.889   0.294  -3.076  1.00  0.00    -0.342 OA
HETATM   38  C23 UNL     1       9.133  -0.076  -2.606  1.00  0.00     0.161 C 
HETATM   39  C24 UNL     1      10.193   0.663  -3.388  1.00  0.00     0.078 C 
HETATM   40  C25 UNL     1       9.263  -1.583  -2.803  1.00  0.00     0.078 C 
HETATM   41  O4  UNL     1       9.185   0.195  -1.264  1.00  0.00    -0.323 OA
HETATM   42  C26 UNL     1       8.171   1.050  -0.917  1.00  0.00     0.293 C 
BRANCH  42  43
HETATM   43  O5  UNL     1       7.507   0.540   0.215  1.00  0.00    -0.368 OA
ATOM     44  H5  UNL     1       8.108   0.597   0.949  1.00  0.00     0.212 HD
ENDBRANCH  42  43
ENDBRANCH  35  36
ENDBRANCH   7  34
TORSDOF 11
