REMARK  10 active torsions:
REMARK  status: ('A' for Active; 'I' for Inactive)
REMARK    1  A    between atoms: C2_2  and  O1_3 
REMARK    2  A    between atoms: O1_3  and  C3_4 
REMARK    3  A    between atoms: C3_4  and  C4_5 
REMARK    4  A    between atoms: C4_5  and  N1_6 
REMARK    5  A    between atoms: N1_6  and  C5_7 
REMARK       I    between atoms: N1_6  and  C8_11 
REMARK    6  A    between atoms: C5_7  and  C6_8 
REMARK    7  A    between atoms: C6_8  and  O2_9 
REMARK    8  A    between atoms: C8_11  and  O4_13 
REMARK    9  A    between atoms: O4_13  and  C9_14 
REMARK   10  A    between atoms: C22_34  and  C23_35 
ROOT
HETATM    1  C9  UNL     1       0.674  -1.154  -0.977  1.00  0.00     0.100 C 
HETATM    2  C10 UNL     1       1.124  -2.587  -1.058  1.00  0.00     0.041 C 
HETATM    3  C11 UNL     1       1.511  -3.069  -2.406  1.00  0.00     0.003 C 
HETATM    4  C12 UNL     1       1.655  -2.023  -3.456  1.00  0.00     0.003 C 
HETATM    5  C13 UNL     1       0.648  -0.943  -3.416  1.00  0.00     0.036 C 
HETATM    6  C14 UNL     1      -0.203  -0.856  -2.192  1.00  0.00     0.169 C 
HETATM    7  O5  UNL     1      -1.407  -1.473  -2.208  1.00  0.00    -0.296 OA
HETATM    8  C15 UNL     1      -2.295  -2.013  -3.042  1.00  0.00     0.360 C 
HETATM    9  O6  UNL     1      -3.158  -1.406  -3.789  1.00  0.00    -0.239 OA
HETATM   10  N2  UNL     1      -2.374  -3.429  -3.191  1.00  0.00    -0.337 N 
ATOM     11  H2  UNL     1      -2.469  -3.795  -4.138  1.00  0.00     0.164 HD
HETATM   12  C16 UNL     1      -2.330  -4.390  -2.109  1.00  0.00     0.125 C 
HETATM   13  C17 UNL     1      -2.945  -3.891  -0.849  1.00  0.00     0.020 C 
HETATM   14  C18 UNL     1      -4.242  -4.527  -0.496  1.00  0.00     0.003 C 
HETATM   15  C19 UNL     1      -5.032  -3.700   0.476  1.00  0.00     0.020 C 
HETATM   16  C20 UNL     1      -4.321  -2.507   1.017  1.00  0.00     0.122 C 
HETATM   17  N3  UNL     1      -4.739  -1.294   0.358  1.00  0.00    -0.359 N 
ATOM     18  H3  UNL     1      -5.631  -1.308  -0.136  1.00  0.00     0.162 HD
HETATM   19  C21 UNL     1      -3.994  -0.074   0.347  1.00  0.00     0.248 C 
HETATM   20  O7  UNL     1      -4.080   0.574  -0.757  1.00  0.00    -0.271 OA
HETATM   21  C22 UNL     1      -3.192   0.433   1.471  1.00  0.00     0.281 C 
HETATM   22  N4  UNL     1      -1.867  -0.082   1.571  1.00  0.00    -0.062 N 
ATOM     23  H41 UNL     1      -1.885  -1.067   1.835  1.00  0.00     0.278 HD
ATOM     24  H42 UNL     1      -1.393   0.307   2.386  1.00  0.00     0.278 HD
HETATM   25  C29 UNL     1      -1.066   0.109   0.379  1.00  0.00     0.236 C 
HETATM   26  C30 UNL     1      -0.130  -1.043   0.293  1.00  0.00     0.069 C 
ENDROOT
BRANCH   1  27
HETATM   27  O4  UNL     1       1.733  -0.242  -1.057  1.00  0.00    -0.290 OA
BRANCH  27  28
HETATM   28  C8  UNL     1       2.801  -0.134  -0.215  1.00  0.00     0.363 C 
HETATM   29  N1  UNL     1       3.851   0.855  -0.387  1.00  0.00    -0.324 N 
HETATM   30  O3  UNL     1       2.887  -0.912   0.743  1.00  0.00    -0.238 OA
BRANCH  29  31
HETATM   31  C4  UNL     1       4.922   0.860   0.566  1.00  0.00     0.154 C 
BRANCH  31  32
HETATM   32  C3  UNL     1       4.572   1.796   1.741  1.00  0.00     0.187 C 
BRANCH  32  33
HETATM   33  O1  UNL     1       5.642   1.756   2.621  1.00  0.00    -0.390 OA
BRANCH  33  34
HETATM   34  C2  UNL     1       5.444   2.566   3.730  1.00  0.00     0.163 C 
HETATM   35  C1  UNL     1       6.599   2.519   4.674  1.00  0.00     0.033 C 
ENDBRANCH  33  34
ENDBRANCH  32  33
ENDBRANCH  31  32
ENDBRANCH  29  31
BRANCH  29  36
HETATM   36  C5  UNL     1       3.770   1.810  -1.462  1.00  0.00     0.154 C 
BRANCH  36  37
HETATM   37  C6  UNL     1       4.361   1.362  -2.756  1.00  0.00     0.187 C 
BRANCH  37  38
HETATM   38  O2  UNL     1       5.691   1.070  -2.781  1.00  0.00    -0.394 OA
HETATM   39  C7  UNL     1       6.511   2.159  -2.545  1.00  0.00     0.201 C 
ENDBRANCH  37  38
ENDBRANCH  36  37
ENDBRANCH  29  36
ENDBRANCH  27  28
ENDBRANCH   1  27
BRANCH  21  40
HETATM   40  C23 UNL     1      -3.177   1.953   1.520  1.00  0.00     0.025 C 
HETATM   41  C24 UNL     1      -4.580   2.484   1.677  1.00  0.00     0.007 C 
HETATM   42  C25 UNL     1      -4.652   3.960   1.865  1.00  0.00     0.000 C 
HETATM   43  C26 UNL     1      -3.258   4.535   1.819  1.00  0.00     0.000 C 
HETATM   44  C27 UNL     1      -2.460   3.871   2.933  1.00  0.00     0.000 C 
HETATM   45  C28 UNL     1      -2.344   2.390   2.711  1.00  0.00     0.007 C 
ENDBRANCH  21  40
TORSDOF 10
