REMARK  10 active torsions:
REMARK  status: ('A' for Active; 'I' for Inactive)
REMARK       I    between atoms: N1_2  and  C2_4 
REMARK       I    between atoms: C2_4  and  N2_6 
REMARK    1  A    between atoms: C3_8  and  C4_9 
REMARK    2  A    between atoms: C4_9  and  C5_10 
REMARK    3  A    between atoms: C5_10  and  C7_12 
REMARK    4  A    between atoms: C11_17  and  O3_18 
REMARK    5  A    between atoms: C13_21  and  C14_22 
REMARK    6  A    between atoms: C14_22  and  C15_24 
REMARK    7  A    between atoms: C24_33  and  O5_34 
REMARK    8  A    between atoms: O5_34  and  C25_35 
REMARK    9  A    between atoms: C26_38  and  C27_39 
REMARK   10  A    between atoms: C27_39  and  O8_42 
ROOT
HETATM    1  C7  UNL     1       2.394  -1.302  -0.374  1.00  0.00     0.057 C 
HETATM    2  O2  UNL     1       2.520  -2.576  -0.836  1.00  0.00    -0.354 OA
HETATM    3  C8  UNL     1       2.120  -3.019  -1.998  1.00  0.00     0.175 C 
HETATM    4  C9  UNL     1       1.510  -2.065  -2.958  1.00  0.00     0.035 C 
HETATM    5  C10 UNL     1       0.670  -1.045  -2.213  1.00  0.00     0.031 C 
HETATM    6  C11 UNL     1      -0.634  -1.638  -1.928  1.00  0.00     0.124 C 
HETATM    7  C12 UNL     1      -1.059  -1.804  -0.539  1.00  0.00     0.050 C 
HETATM    8  C13 UNL     1      -1.643  -0.601   0.156  1.00  0.00     0.033 A 
HETATM    9  C18 UNL     1      -0.734   0.606   0.028  1.00  0.00     0.014 A 
HETATM   10  C19 UNL     1       0.668   0.481  -0.196  1.00  0.00     0.023 C 
HETATM   11  C20 UNL     1       1.447  -0.379  -1.108  1.00  0.00     0.012 C 
HETATM   12  C21 UNL     1       2.350   0.574  -1.915  1.00  0.00     0.023 C 
HETATM   13  C22 UNL     1      -1.720   1.334  -0.811  1.00  0.00    -0.006 A 
HETATM   14  C23 UNL     1      -1.281   1.997  -2.018  1.00  0.00     0.019 C 
HETATM   15  C24 UNL     1      -2.700   2.237  -0.102  1.00  0.00     0.151 A 
HETATM   16  C26 UNL     1      -3.556   1.041   0.213  1.00  0.00     0.056 A 
HETATM   17  C31 UNL     1      -2.636   0.221  -0.596  1.00  0.00     0.022 A 
ENDROOT
BRANCH   1  18
HETATM   18  C5  UNL     1       3.730  -0.897   0.061  1.00  0.00    -0.049 C 
HETATM   19  C6  UNL     1       4.874  -1.380  -0.851  1.00  0.00     0.046 C 
BRANCH  18  20
HETATM   20  C4  UNL     1       4.073   0.398   0.646  1.00  0.00     0.081 C 
BRANCH  20  21
HETATM   21  C3  UNL     1       5.341   0.192   1.452  1.00  0.00     0.070 C 
HETATM   22  N2  UNL     1       6.385   0.900   1.339  1.00  0.00    -0.322 N 
HETATM   23  C2  UNL     1       7.575   0.754   2.053  1.00  0.00     0.319 C 
ATOM     24  H2  UNL     1       6.353   1.656   0.655  1.00  0.00     0.169 HD
HETATM   25  N1  UNL     1       8.877   0.891   1.512  1.00  0.00    -0.347 N 
HETATM   26  O1  UNL     1       7.499   0.478   3.286  1.00  0.00    -0.247 OA
HETATM   27  C1  UNL     1      10.088   0.739   2.248  1.00  0.00     0.151 C 
ATOM     28  H1  UNL     1       8.954   1.116   0.520  1.00  0.00     0.163 HD
ENDBRANCH  20  21
ENDBRANCH  18  20
ENDBRANCH   1  18
BRANCH   6  29
HETATM   29  O3  UNL     1      -0.769  -2.934  -2.516  1.00  0.00    -0.395 OA
ATOM     30  H3  UNL     1      -1.617  -3.320  -2.331  1.00  0.00     0.210 HD
ENDBRANCH   6  29
BRANCH   8  31
HETATM   31  C14 UNL     1      -1.875  -1.021   1.552  1.00  0.00     0.140 C 
HETATM   32  O4  UNL     1      -1.557  -0.202   2.408  1.00  0.00    -0.297 OA
BRANCH  31  33
HETATM   33  C15 UNL     1      -2.433  -2.280   2.054  1.00  0.00     0.048 C 
HETATM   34  C16 UNL     1      -2.535  -2.264   3.595  1.00  0.00     0.017 C 
HETATM   35  C17 UNL     1      -3.743  -2.738   1.573  1.00  0.00     0.017 C 
ENDBRANCH  31  33
ENDBRANCH   8  31
BRANCH  15  36
HETATM   36  O5  UNL     1      -3.214   3.320  -0.716  1.00  0.00    -0.289 OA
BRANCH  36  37
HETATM   37  C25 UNL     1      -3.164   4.655  -0.458  1.00  0.00     0.333 C 
HETATM   38  O6  UNL     1      -2.511   4.959   0.557  1.00  0.00    -0.624 OA
HETATM   39  O7  UNL     1      -3.783   5.580  -1.250  1.00  0.00    -0.624 OA
ENDBRANCH  36  37
ENDBRANCH  15  36
BRANCH  16  40
HETATM   40  C27 UNL     1      -5.005   1.202  -0.145  1.00  0.00     0.059 C 
HETATM   41  C28 UNL     1      -5.873   0.016   0.197  1.00  0.00     0.046 C 
HETATM   42  C29 UNL     1      -5.243   1.447  -1.621  1.00  0.00     0.046 C 
BRANCH  40  43
HETATM   43  O8  UNL     1      -5.617   2.254   0.531  1.00  0.00    -0.385 OA
HETATM   44  C30 UNL     1      -5.607   2.139   1.906  1.00  0.00     0.202 C 
ENDBRANCH  40  43
ENDBRANCH  16  40
TORSDOF 10
