REMARK  2 active torsions:
REMARK  status: ('A' for Active; 'I' for Inactive)
REMARK       I    between atoms: C1_2  and  N1_3 
REMARK       I    between atoms: C1_2  and  N3_13 
REMARK    1  A    between atoms: N1_3  and  N2_5 
REMARK    2  A    between atoms: C2_7  and  C3_9 
ROOT
HETATM    1  O1  UNL     1       1.760  -1.767   1.223  1.00  0.00    -0.245 OA
HETATM    2  C1  UNL     1       1.022  -0.962   0.526  1.00  0.00     0.341 C 
HETATM    3  N1  UNL     1       1.626  -0.092  -0.402  1.00  0.00    -0.250 N 
ATOM      4  H1  UNL     1       1.057   0.541  -0.964  1.00  0.00     0.192 HD
HETATM    5  N3  UNL     1      -0.352  -1.098   0.824  1.00  0.00    -0.297 N 
HETATM    6  C4  UNL     1      -0.868  -2.239   1.569  1.00  0.00     0.144 C 
HETATM    7  C5  UNL     1      -1.678  -3.159   0.726  1.00  0.00     0.100 C 
HETATM    8  S1  UNL     1      -2.911  -2.250  -0.208  1.00  0.00    -0.126 SA
HETATM    9  C6  UNL     1      -2.506  -0.520  -0.175  1.00  0.00     0.027 A 
HETATM   10  C7  UNL     1      -3.396   0.391  -0.634  1.00  0.00     0.021 A 
HETATM   11  C8  UNL     1      -3.082   1.738  -0.596  1.00  0.00     0.002 A 
HETATM   12  C9  UNL     1      -1.859   2.158  -0.089  1.00  0.00     0.002 A 
HETATM   13  C10 UNL     1      -0.974   1.216   0.371  1.00  0.00     0.031 A 
HETATM   14  C11 UNL     1      -1.270  -0.127   0.340  1.00  0.00     0.055 A 
ENDROOT
BRANCH   3  15
HETATM   15  N2  UNL     1       2.978  -0.108  -0.537  1.00  0.00    -0.286 N 
HETATM   16  C2  UNL     1       3.862   0.722  -0.800  1.00  0.00     0.149 C 
HETATM   17 CL1  UNL     1       5.522   0.048  -0.831  1.00  0.00    -0.063 Cl
ATOM     18  H2  UNL     1       3.365  -1.039  -0.383  1.00  0.00     0.188 HD
BRANCH  16  19
HETATM   19  C3  UNL     1       3.805   2.152  -1.091  1.00  0.00     0.243 C 
HETATM   20 CL2  UNL     1       4.474   2.391  -2.743  1.00  0.00    -0.076 Cl
HETATM   21 CL3  UNL     1       2.256   2.927  -0.980  1.00  0.00    -0.076 Cl
HETATM   22 CL4  UNL     1       4.909   2.960   0.081  1.00  0.00    -0.076 Cl
ENDBRANCH  16  19
ENDBRANCH   3  15
TORSDOF 2
