REMARK  1 active torsions:
REMARK  status: ('A' for Active; 'I' for Inactive)
REMARK    1  A    between atoms: C3_3  and  C4_4 
ROOT
HETATM    1  C1  UNL     1      -0.678  -0.371   1.750  1.00  0.00     0.069 C 
HETATM    2  C2  UNL     1      -1.046   0.001   0.360  1.00  0.00     0.028 A 
HETATM    3  C3  UNL     1      -0.147   0.179  -0.668  1.00  0.00     0.068 A 
HETATM    4  C10 UNL     1      -0.522   0.527  -1.954  1.00  0.00     0.262 A 
HETATM    5  O1  UNL     1       0.335   0.682  -2.876  1.00  0.00    -0.267 OA
HETATM    6  N1  UNL     1      -1.842   0.688  -2.165  1.00  0.00    -0.275 N 
ATOM      7  H1  UNL     1      -2.160   0.944  -3.100  1.00  0.00     0.173 HD
HETATM    8  C11 UNL     1      -2.760   0.525  -1.192  1.00  0.00     0.329 A 
HETATM    9  O2  UNL     1      -3.980   0.692  -1.458  1.00  0.00    -0.246 OA
HETATM   10  N2  UNL     1      -2.345   0.183   0.057  1.00  0.00    -0.307 N 
HETATM   11  C12 UNL     1      -3.376   0.015   1.091  1.00  0.00     0.161 C 
ENDROOT
BRANCH   3  12
HETATM   12  C4  UNL     1       1.248  -0.011  -0.365  1.00  0.00     0.029 A 
HETATM   13  C5  UNL     1       1.803  -1.249  -0.506  1.00  0.00     0.070 A 
HETATM   14 CL1  UNL     1       0.869  -2.663  -1.057  1.00  0.00    -0.081 Cl
HETATM   15  C6  UNL     1       3.133  -1.449  -0.222  1.00  0.00     0.080 A 
HETATM   16 CL2  UNL     1       3.879  -3.026  -0.392  1.00  0.00    -0.081 Cl
HETATM   17  C7  UNL     1       3.907  -0.376   0.212  1.00  0.00     0.081 A 
HETATM   18 CL3  UNL     1       5.611  -0.568   0.591  1.00  0.00    -0.081 Cl
HETATM   19  C8  UNL     1       3.353   0.877   0.357  1.00  0.00     0.080 A 
HETATM   20 CL4  UNL     1       4.303   2.252   0.903  1.00  0.00    -0.081 Cl
HETATM   21  C9  UNL     1       2.016   1.040   0.063  1.00  0.00     0.070 A 
HETATM   22 CL5  UNL     1       1.323   2.679   0.260  1.00  0.00    -0.081 Cl
ENDBRANCH   3  12
TORSDOF 1
