REMARK  2 active torsions:
REMARK  status: ('A' for Active; 'I' for Inactive)
REMARK    1  A    between atoms: N1_1  and  C1_5 
REMARK    2  A    between atoms: C8_15  and  C9_16 
ROOT
HETATM    1  C1  UNL     1      -1.990   1.430  -0.853  1.00  0.00     0.188 C 
HETATM    2  C2  UNL     1      -2.883   0.307  -1.299  1.00  0.00     0.037 C 
HETATM    3  C3  UNL     1      -3.190  -0.651  -0.139  1.00  0.00     0.043 C 
HETATM    4  C4  UNL     1      -1.871  -1.235   0.234  1.00  0.00    -0.027 A 
HETATM    5  C5  UNL     1      -1.676  -2.586   0.263  1.00  0.00     0.064 A 
HETATM    6 CL1  UNL     1      -2.973  -3.711  -0.127  1.00  0.00    -0.082 Cl
HETATM    7  C6  UNL     1      -0.413  -3.027   0.614  1.00  0.00     0.079 A 
HETATM    8 CL2  UNL     1      -0.159  -4.757   0.654  1.00  0.00    -0.081 Cl
HETATM    9  C7  UNL     1       0.608  -2.118   0.924  1.00  0.00     0.068 A 
HETATM   10 CL3  UNL     1       2.124  -2.849   1.390  1.00  0.00    -0.082 Cl
HETATM   11  C8  UNL     1       0.399  -0.769   0.890  1.00  0.00    -0.005 A 
HETATM   12  C14 UNL     1      -0.883  -0.318   0.533  1.00  0.00    -0.036 A 
HETATM   13  C15 UNL     1      -1.266   1.097   0.446  1.00  0.00     0.072 C 
ENDROOT
BRANCH  11  14
HETATM   14  C9  UNL     1       1.401   0.227   1.165  1.00  0.00     0.027 C 
HETATM   15  C10 UNL     1       2.578   0.405   0.642  1.00  0.00     0.026 C 
HETATM   16  C11 UNL     1       3.373  -0.289  -0.409  1.00  0.00     0.157 C 
HETATM   17  C13 UNL     1       3.484   1.514   1.036  1.00  0.00     0.294 C 
HETATM   18  C12 UNL     1       4.264   0.805  -1.005  1.00  0.00     0.365 C 
HETATM   19  F1  UNL     1       5.603   0.391  -1.046  1.00  0.00    -0.175 F 
HETATM   20  F2  UNL     1       3.905   1.128  -2.293  1.00  0.00    -0.175 F 
HETATM   21  O1  UNL     1       4.222   1.879  -0.105  1.00  0.00    -0.247 OA
HETATM   22  O2  UNL     1       3.619   2.064   2.137  1.00  0.00    -0.259 OA
ENDBRANCH  11  14
BRANCH   1  23
HETATM   23  N1  UNL     1      -2.812   2.600  -0.594  1.00  0.00    -0.075 N 
ATOM     24  H13 UNL     1      -3.392   2.855  -1.393  1.00  0.00     0.274 HD
ATOM     25  H12 UNL     1      -3.563   2.411   0.069  1.00  0.00     0.274 HD
ATOM     26  H11 UNL     1      -2.206   3.362  -0.291  1.00  0.00     0.274 HD
ENDBRANCH   1  23
TORSDOF 2
