REMARK  3 active torsions:
REMARK  status: ('A' for Active; 'I' for Inactive)
REMARK    1  A    between atoms: O1_2  and  C2_3 
REMARK    2  A    between atoms: C2_3  and  C3_5 
REMARK    3  A    between atoms: C9_12  and  O3_13 
ROOT
HETATM    1  C3  UNL     1       1.374  -0.523   0.520  1.00  0.00     0.109 C 
HETATM    2  C4  UNL     1       2.049  -1.727   1.191  1.00  0.00     0.037 C 
HETATM    3  C5  UNL     1      -0.060  -0.757   0.295  1.00  0.00    -0.027 C 
HETATM    4  C6  UNL     1      -1.030  -1.630   0.044  1.00  0.00     0.008 C 
HETATM    5  C7  UNL     1      -2.329  -0.983  -0.025  1.00  0.00     0.084 C 
HETATM    6 CL1  UNL     1      -3.597  -1.793   0.953  1.00  0.00    -0.112 Cl
HETATM    7  C8  UNL     1      -2.821  -0.367  -1.276  1.00  0.00     0.066 C 
HETATM    8  C9  UNL     1      -3.023   0.926  -0.467  1.00  0.00     0.148 C 
HETATM    9  C10 UNL     1      -2.074   0.388   0.603  1.00  0.00     0.118 C 
HETATM   10 CL2  UNL     1      -2.579   0.588   2.263  1.00  0.00    -0.111 Cl
HETATM   11  C11 UNL     1      -0.640   0.624   0.334  1.00  0.00     0.127 C 
HETATM   12 CL3  UNL     1      -0.399   1.449  -1.237  1.00  0.00    -0.105 Cl
HETATM   13  C12 UNL     1       0.188   1.237   1.373  1.00  0.00     0.061 C 
HETATM   14 CL4  UNL     1      -0.334   2.646   2.317  1.00  0.00    -0.085 Cl
HETATM   15  C13 UNL     1       1.347   0.614   1.509  1.00  0.00     0.054 C 
HETATM   16 CL5  UNL     1       2.588   1.072   2.648  1.00  0.00    -0.086 Cl
ENDROOT
BRANCH   1  17
HETATM   17  C2  UNL     1       2.079  -0.106  -0.669  1.00  0.00     0.276 C 
HETATM   18  O2  UNL     1       1.771  -0.449  -1.861  1.00  0.00    -0.264 OA
BRANCH  17  19
HETATM   19  O1  UNL     1       3.211   0.739  -0.637  1.00  0.00    -0.325 OA
HETATM   20  C1  UNL     1       3.901   1.140  -1.806  1.00  0.00     0.213 C 
ENDBRANCH  17  19
ENDBRANCH   1  17
BRANCH   8  21
HETATM   21  O3  UNL     1      -4.335   1.001  -0.028  1.00  0.00    -0.393 OA
ATOM     22  H3  UNL     1      -4.460   1.799   0.472  1.00  0.00     0.210 HD
ENDBRANCH   8  21
TORSDOF 3
