REMARK  1 active torsions:
REMARK  status: ('A' for Active; 'I' for Inactive)
REMARK    1  A    between atoms: C2_7  and  N3_8 
ROOT
HETATM    1  N3  UNL     1       1.929  -1.249  -0.352  1.00  0.00    -0.330 N 
ATOM      2  H3  UNL     1       2.201  -2.206  -0.575  1.00  0.00     0.168 HD
HETATM    3  C3  UNL     1       0.670  -1.021  -0.199  1.00  0.00     0.079 C 
HETATM    4  C4  UNL     1      -0.383  -2.061  -0.329  1.00  0.00     0.078 C 
HETATM    5  C5  UNL     1      -1.490  -1.272  -1.018  1.00  0.00     0.038 C 
HETATM    6  C6  UNL     1      -1.459   0.014  -0.183  1.00  0.00     0.034 C 
HETATM    7  C7  UNL     1      -2.026   1.181  -0.934  1.00  0.00     0.034 C 
HETATM    8  C8  UNL     1      -3.521   1.025  -0.663  1.00  0.00     0.044 C 
HETATM    9  C9  UNL     1      -3.588   0.509   0.753  1.00  0.00     0.115 C 
HETATM   10 CL2  UNL     1      -4.984  -0.592   0.881  1.00  0.00    -0.102 Cl
HETATM   11 CL3  UNL     1      -3.871   1.840   1.919  1.00  0.00    -0.102 Cl
HETATM   12  C10 UNL     1      -2.290  -0.200   1.031  1.00  0.00     0.073 C 
HETATM   13  N4  UNL     1      -0.039   0.172   0.110  1.00  0.00    -0.370 N 
ATOM     14  H4  UNL     1       0.386   1.020   0.484  1.00  0.00     0.161 HD
ENDROOT
BRANCH   1  15
HETATM   15  C2  UNL     1       2.950  -0.317  -0.242  1.00  0.00     0.145 A 
HETATM   16  N2  UNL     1       2.842   0.892  -0.803  1.00  0.00    -0.283 N 
HETATM   17  N1  UNL     1       3.785   1.809  -0.725  1.00  0.00    -0.287 N 
ATOM     18  H2  UNL     1       1.989   1.115  -1.316  1.00  0.00     0.188 HD
HETATM   19  C1  UNL     1       4.916   1.544  -0.059  1.00  0.00     0.141 A 
ATOM     20  H1  UNL     1       3.654   2.717  -1.170  1.00  0.00     0.188 HD
HETATM   21 CL1  UNL     1       6.160   2.801   0.025  1.00  0.00    -0.061 Cl
HETATM   22  C12 UNL     1       5.101   0.323   0.545  1.00  0.00     0.099 A 
HETATM   23  C11 UNL     1       4.098  -0.620   0.449  1.00  0.00     0.104 A 
HETATM   24 CL5  UNL     1       6.569  -0.038   1.418  1.00  0.00    -0.079 Cl
HETATM   25 CL4  UNL     1       4.354  -2.160   1.222  1.00  0.00    -0.078 Cl
ENDBRANCH   1  15
TORSDOF 1
