REMARK  2 active torsions:
REMARK  status: ('A' for Active; 'I' for Inactive)
REMARK    1  A    between atoms: C3_7  and  N3_8 
REMARK    2  A    between atoms: N4_11  and  C6_12 
ROOT
HETATM    1  N3  UNL     1       1.138  -0.321   0.079  1.00  0.00    -0.326 N 
HETATM    2  C4  UNL     1       0.613   0.779   0.821  1.00  0.00     0.158 C 
HETATM    3  C5  UNL     1      -0.738   1.245   0.344  1.00  0.00     0.293 C 
HETATM    4  N4  UNL     1      -1.646   0.222   0.008  1.00  0.00     0.102 N 
HETATM    5  C9  UNL     1      -1.184  -1.105   0.194  1.00  0.00     0.273 C 
HETATM    6  C10 UNL     1      -2.027  -2.148  -0.531  1.00  0.00     0.048 C 
HETATM    7  C11 UNL     1       0.201  -1.293  -0.388  1.00  0.00     0.306 C 
HETATM    8  F1  UNL     1       0.613  -2.561   0.049  1.00  0.00    -0.224 F 
ENDROOT
BRANCH   1   9
HETATM    9  C3  UNL     1       2.536  -0.418  -0.150  1.00  0.00     0.165 A 
HETATM   10  N2  UNL     1       3.289  -1.304  -0.794  1.00  0.00    -0.279 N 
HETATM   11  N1  UNL     1       4.548  -1.152  -0.844  1.00  0.00    -0.296 N 
ATOM     12  H2  UNL     1       2.854  -2.107  -1.249  1.00  0.00     0.189 HD
HETATM   13  C2  UNL     1       5.112  -0.100  -0.248  1.00  0.00     0.066 A 
ATOM     14  H1  UNL     1       5.126  -1.832  -1.338  1.00  0.00     0.187 HD
HETATM   15  C1  UNL     1       6.562   0.295  -0.168  1.00  0.00     0.078 C 
HETATM   16  S1  UNL     1       3.731   0.671   0.395  1.00  0.00    -0.038 SA
ENDBRANCH   1   9
BRANCH   4  17
HETATM   17  C6  UNL     1      -2.942   0.533   0.494  1.00  0.00     0.215 C 
HETATM   18  C7  UNL     1      -4.075   0.069  -0.384  1.00  0.00     0.042 C 
HETATM   19  C8  UNL     1      -3.158   2.050   0.595  1.00  0.00     0.042 C 
ENDBRANCH   4  17
TORSDOF 2
