REMARK  4 active torsions:
REMARK  status: ('A' for Active; 'I' for Inactive)
REMARK    1  A    between atoms: O1_2  and  C2_3 
REMARK    2  A    between atoms: C7_8  and  N1_9 
REMARK       I    between atoms: N1_9  and  C9_11 
REMARK    3  A    between atoms: C9_11  and  O3_13 
REMARK    4  A    between atoms: O3_13  and  C10_14 
ROOT
HETATM    1  C2  UNL     1       2.140   0.042  -0.916  1.00  0.00     0.098 A 
HETATM    2  C3  UNL     1       3.385   0.547  -0.559  1.00  0.00     0.078 A 
HETATM    3  C4  UNL     1       3.789   0.536   0.761  1.00  0.00     0.107 A 
HETATM    4  C5  UNL     1       2.967   0.026   1.744  1.00  0.00     0.107 A 
HETATM    5  C6  UNL     1       1.744  -0.465   1.358  1.00  0.00     0.072 A 
HETATM    6  C7  UNL     1       1.312  -0.468   0.040  1.00  0.00     0.075 A 
HETATM    7  O4  UNL     1       3.620   0.138   2.987  1.00  0.00    -0.323 OA
HETATM    8  C14 UNL     1       4.999   0.408   2.698  1.00  0.00     0.352 C 
HETATM    9  O5  UNL     1       4.951   0.963   1.397  1.00  0.00    -0.323 OA
ENDROOT
BRANCH   6  10
HETATM   10  N1  UNL     1       0.009  -1.011  -0.275  1.00  0.00    -0.295 N 
HETATM   11  C8  UNL     1      -0.121  -2.321  -0.891  1.00  0.00     0.162 C 
HETATM   12  C9  UNL     1      -1.116  -0.221   0.044  1.00  0.00     0.367 C 
HETATM   13  O2  UNL     1      -0.915   0.926   0.549  1.00  0.00    -0.238 OA
BRANCH  12  14
HETATM   14  O3  UNL     1      -2.430  -0.590  -0.144  1.00  0.00    -0.294 OA
BRANCH  14  15
HETATM   15  C10 UNL     1      -3.540   0.220   0.181  1.00  0.00     0.061 C 
HETATM   16  C11 UNL     1      -4.776  -0.617  -0.181  1.00  0.00     0.046 C 
HETATM   17  C12 UNL     1      -3.625   0.524   1.645  1.00  0.00     0.046 C 
HETATM   18  C13 UNL     1      -3.608   1.431  -0.707  1.00  0.00     0.046 C 
ENDBRANCH  14  15
ENDBRANCH  12  14
ENDBRANCH   6  10
BRANCH   1  19
HETATM   19  O1  UNL     1       1.748   0.060  -2.244  1.00  0.00    -0.354 OA
HETATM   20  C1  UNL     1       2.627   0.601  -3.246  1.00  0.00     0.210 C 
ENDBRANCH   1  19
TORSDOF 4
