REMARK  3 active torsions:
REMARK  status: ('A' for Active; 'I' for Inactive)
REMARK    1  A    between atoms: C2_2  and  S1_4 
REMARK    2  A    between atoms: S1_4  and  C3_5 
REMARK    3  A    between atoms: N4_12  and  C4_13 
ROOT
HETATM    1  C3  UNL     1       1.763  -0.886  -0.433  1.00  0.00     0.184 A 
HETATM    2  N1  UNL     1       2.407  -1.766  -1.222  1.00  0.00    -0.263 N 
ATOM      3  H1  UNL     1       3.413  -1.767  -1.390  1.00  0.00     0.190 HD
HETATM    4  N2  UNL     1       1.563  -2.620  -1.744  1.00  0.00    -0.226 N 
ATOM      5  H2  UNL     1       1.792  -3.387  -2.377  1.00  0.00     0.210 HD
HETATM    6  N3  UNL     1       0.369  -2.307  -1.303  1.00  0.00    -0.224 N 
ATOM      7  H3  UNL     1      -0.493  -2.798  -1.540  1.00  0.00     0.210 HD
HETATM    8  N4  UNL     1       0.454  -1.258  -0.504  1.00  0.00    -0.249 N 
ENDROOT
BRANCH   8   9
HETATM    9  C4  UNL     1      -0.645  -0.638   0.160  1.00  0.00     0.112 C 
HETATM   10  C5  UNL     1      -0.561   0.870   0.212  1.00  0.00     0.027 C 
HETATM   11  C6  UNL     1      -1.904   1.514   0.012  1.00  0.00     0.002 C 
HETATM   12  C7  UNL     1      -3.032   0.785   0.665  1.00  0.00     0.000 C 
HETATM   13  C8  UNL     1      -3.134  -0.666   0.285  1.00  0.00     0.002 C 
HETATM   14  C9  UNL     1      -1.925  -1.008  -0.562  1.00  0.00     0.027 C 
ENDBRANCH   8   9
BRANCH   1  15
HETATM   15  S1  UNL     1       2.468   0.461   0.495  1.00  0.00    -0.044 SA
BRANCH  15  16
HETATM   16  C2  UNL     1       4.220   0.483   0.221  1.00  0.00     0.045 C 
HETATM   17  C1  UNL     1       5.036   1.366   0.771  1.00  0.00     0.039 C 
HETATM   18 BR1  UNL     1       5.006  -0.844  -0.937  1.00  0.00    -0.044 Br
ENDBRANCH  15  16
ENDBRANCH   1  15
TORSDOF 3
