REMARK  2 active torsions:
REMARK  status: ('A' for Active; 'I' for Inactive)
REMARK    1  A    between atoms: C7_9  and  C8_10 
REMARK    2  A    between atoms: C11_14  and  N2_15 
ROOT
HETATM    1  C8  UNL     1      -1.770  -0.179  -0.242  1.00  0.00     0.030 A 
HETATM    2  C9  UNL     1      -2.328  -1.463  -0.166  1.00  0.00     0.073 A 
HETATM    3  C10 UNL     1      -3.623  -1.371   0.278  1.00  0.00     0.168 A 
HETATM    4  F1  UNL     1      -4.502  -2.381   0.487  1.00  0.00    -0.202 F 
HETATM    5  C11 UNL     1      -3.855  -0.025   0.474  1.00  0.00     0.214 A 
HETATM    6  N3  UNL     1      -2.719   0.658   0.151  1.00  0.00    -0.333 N 
HETATM    7  C12 UNL     1      -2.615   2.105   0.241  1.00  0.00     0.158 C 
ENDROOT
BRANCH   1   8
HETATM    8  C7  UNL     1      -0.382   0.139  -0.681  1.00  0.00     0.103 C 
HETATM    9  C4  UNL     1       0.662  -0.774  -0.076  1.00  0.00     0.022 C 
HETATM   10  C3  UNL     1       1.612  -0.110   0.887  1.00  0.00     0.037 C 
HETATM   11  C5  UNL     1       1.451  -1.093  -1.333  1.00  0.00     0.081 C 
HETATM   12  C2  UNL     1       2.902  -0.942   0.853  1.00  0.00     0.272 C 
HETATM   13  N1  UNL     1       3.602  -0.534  -0.354  1.00  0.00     0.085 N 
HETATM   14  C1  UNL     1       4.383   0.639  -0.005  1.00  0.00     0.309 C 
HETATM   15  C6  UNL     1       2.685  -0.246  -1.440  1.00  0.00     0.287 C 
HETATM   16  S1  UNL     1       0.045  -0.567  -2.304  1.00  0.00    -0.151 SA
ENDBRANCH   1   8
BRANCH   5  17
HETATM   17  N2  UNL     1      -5.055   0.577   0.931  1.00  0.00    -0.094 N 
HETATM   18  O1  UNL     1      -6.043  -0.134   1.202  1.00  0.00    -0.530 OA
HETATM   19  O2  UNL     1      -5.199   1.929   1.098  1.00  0.00    -0.530 OA
ENDBRANCH   5  17
TORSDOF 2
