REMARK  7 active torsions:
REMARK  status: ('A' for Active; 'I' for Inactive)
REMARK    1  A    between atoms: N1_1  and  C1_4 
REMARK    2  A    between atoms: C2_5  and  C3_6 
REMARK    3  A    between atoms: C3_6  and  O1_7 
REMARK    4  A    between atoms: O1_7  and  C4_8 
REMARK    5  A    between atoms: C4_8  and  C5_9 
REMARK    6  A    between atoms: C4_8  and  N3_12 
REMARK    7  A    between atoms: C4_8  and  C12_23 
ROOT
HETATM    1  C4  UNL     1       1.112  -0.827   0.019  1.00  0.00     0.439 C 
ENDROOT
BRANCH   1   2
HETATM    2  O1  UNL     1       1.628   0.401  -0.160  1.00  0.00    -0.326 OA
BRANCH   2   3
HETATM    3  C3  UNL     1       2.927   0.689  -0.075  1.00  0.00     0.267 C 
BRANCH   3   4
HETATM    4  C2  UNL     1       3.105   2.145  -0.375  1.00  0.00    -0.058 C 
HETATM    5  C1  UNL     1       3.259   3.314  -0.635  1.00  0.00     0.005 C 
BRANCH   5   6
HETATM    6  N1  UNL     1       3.455   4.663  -0.954  1.00  0.00    -0.359 N 
ATOM      7  H12 UNL     1       3.826   3.764  -1.262  1.00  0.00     0.166 HD
ATOM      8  H11 UNL     1       3.585   5.651  -1.174  1.00  0.00     0.166 HD
ENDBRANCH   5   6
ENDBRANCH   3   4
ENDBRANCH   2   3
ENDBRANCH   1   2
BRANCH   1   9
HETATM    9  C5  UNL     1       1.624  -1.740  -1.083  1.00  0.00     0.307 C 
HETATM   10  N2  UNL     1       1.257  -3.104  -1.131  1.00  0.00    -0.057 NA
HETATM   11  O2  UNL     1       2.382  -1.305  -1.970  1.00  0.00    -0.271 OA
ENDBRANCH   1   9
BRANCH   1  12
HETATM   12  N3  UNL     1      -0.320  -0.772   0.010  1.00  0.00     0.165 N 
HETATM   13  C6  UNL     1      -0.763  -0.085   1.200  1.00  0.00     0.312 C 
HETATM   14  C7  UNL     1      -2.180   0.492   1.070  1.00  0.00     0.214 C 
HETATM   15  C8  UNL     1      -2.239   1.740   0.260  1.00  0.00     0.037 C 
HETATM   16  N4  UNL     1      -2.888  -0.557   0.315  1.00  0.00    -0.062 N 
HETATM   17  C9  UNL     1      -2.881   1.265  -1.053  1.00  0.00     0.038 C 
HETATM   18  C10 UNL     1      -2.413  -0.202  -1.009  1.00  0.00     0.234 C 
HETATM   19  C11 UNL     1      -0.907  -0.160  -1.120  1.00  0.00     0.353 C 
HETATM   20 CL1  UNL     1      -0.547  -0.889  -2.693  1.00  0.00    -0.089 Cl
ATOM     21  H42 UNL     1      -2.735  -1.520   0.614  1.00  0.00     0.278 HD
ATOM     22  H41 UNL     1      -3.899  -0.610   0.441  1.00  0.00     0.278 HD
ENDBRANCH   1  12
BRANCH   1  23
HETATM   23  C12 UNL     1       1.580  -1.548   1.262  1.00  0.00     0.458 C 
HETATM   24  F1  UNL     1       2.967  -1.759   1.219  1.00  0.00    -0.166 F 
HETATM   25  F2  UNL     1       0.993  -2.774   1.388  1.00  0.00    -0.166 F 
HETATM   26  F3  UNL     1       1.409  -0.853   2.436  1.00  0.00    -0.166 F 
ENDBRANCH   1  23
TORSDOF 7
