REMARK  5 active torsions:
REMARK  status: ('A' for Active; 'I' for Inactive)
REMARK       I    between atoms: N1_2  and  C2_4 
REMARK    1  A    between atoms: C2_4  and  C3_6 
REMARK    2  A    between atoms: C5_9  and  C6_10 
REMARK    3  A    between atoms: C7_17  and  C8_18 
REMARK    4  A    between atoms: C8_18  and  N4_20 
REMARK    5  A    between atoms: C10_25  and  N5_26 
ROOT
HETATM    1  C3  UNL     1       1.008   0.718   0.289  1.00  0.00     0.345 C 
HETATM    2  N2  UNL     1       0.397   1.219   1.485  1.00  0.00     0.109 N 
HETATM    3  C4  UNL     1      -0.497   2.272   1.413  1.00  0.00     0.316 C 
HETATM    4  C5  UNL     1      -1.328   2.441   0.213  1.00  0.00     0.321 C 
HETATM    5  N3  UNL     1      -1.128   1.424  -0.804  1.00  0.00    -0.049 N 
ATOM      6  H31 UNL     1      -0.221   1.502  -1.263  1.00  0.00     0.278 HD
ATOM      7  H32 UNL     1      -1.713   1.571  -1.626  1.00  0.00     0.278 HD
HETATM    8  C7  UNL     1      -1.338   0.110  -0.191  1.00  0.00     0.286 C 
HETATM    9  C10 UNL     1      -0.009  -0.422   0.268  1.00  0.00     0.127 C 
HETATM   10  C13 UNL     1      -0.007  -0.089   1.788  1.00  0.00     0.309 C 
ENDROOT
BRANCH   8  11
HETATM   11  C8  UNL     1      -2.199  -0.766  -1.039  1.00  0.00     0.290 C 
HETATM   12  C9  UNL     1      -2.468  -2.129  -0.466  1.00  0.00     0.086 C 
HETATM   13  F4  UNL     1      -1.815  -0.911  -2.340  1.00  0.00    -0.210 F 
BRANCH  11  14
HETATM   14  N4  UNL     1      -3.532  -0.132  -1.156  1.00  0.00    -0.040 N 
ATOM     15  H43 UNL     1      -3.951   0.072  -0.249  1.00  0.00     0.278 HD
ATOM     16  H42 UNL     1      -3.483   0.826  -1.503  1.00  0.00     0.278 HD
ATOM     17  H41 UNL     1      -4.120  -0.731  -1.736  1.00  0.00     0.278 HD
ENDBRANCH  11  14
ENDBRANCH   8  11
BRANCH   9  18
HETATM   18  N5  UNL     1       0.401  -1.706  -0.039  1.00  0.00    -0.406 N 
HETATM   19  C11 UNL     1       0.969  -2.068  -1.271  1.00  0.00     0.143 C 
HETATM   20  C12 UNL     1       0.899  -2.559   0.995  1.00  0.00     0.143 C 
ENDBRANCH   9  18
BRANCH   4  21
HETATM   21  C6  UNL     1      -1.242   3.785  -0.468  1.00  0.00     0.417 C 
HETATM   22  F1  UNL     1      -2.058   3.841  -1.585  1.00  0.00    -0.169 F 
HETATM   23  F2  UNL     1      -1.642   4.812   0.366  1.00  0.00    -0.169 F 
HETATM   24  F3  UNL     1       0.042   4.092  -0.863  1.00  0.00    -0.169 F 
ENDBRANCH   4  21
BRANCH   1  25
HETATM   25  C2  UNL     1       2.404   0.365   0.590  1.00  0.00     0.253 C 
HETATM   26  N1  UNL     1       3.381   0.078  -0.403  1.00  0.00    -0.363 N 
HETATM   27  C1  UNL     1       4.749  -0.272  -0.100  1.00  0.00     0.149 C 
ATOM     28  H1  UNL     1       3.100   0.122  -1.383  1.00  0.00     0.161 HD
HETATM   29  O1  UNL     1       2.833   0.296   1.795  1.00  0.00    -0.271 OA
ENDBRANCH   1  25
TORSDOF 5
