REMARK  7 active torsions:
REMARK  status: ('A' for Active; 'I' for Inactive)
REMARK    1  A    between atoms: C2_2  and  O1_3 
REMARK    2  A    between atoms: C2_2  and  C3_5 
REMARK    3  A    between atoms: C3_5  and  O2_6 
REMARK    4  A    between atoms: O2_6  and  C4_7 
REMARK    5  A    between atoms: N1_10  and  O3_11 
REMARK    6  A    between atoms: C7_15  and  O4_16 
REMARK    7  A    between atoms: C7_15  and  C8_18 
ROOT
HETATM    1  C4  UNL     1      -0.719  -0.521  -0.115  1.00  0.00     0.228 C 
HETATM    2  C5  UNL     1      -1.193  -1.008  -1.448  1.00  0.00     0.137 C 
HETATM    3 CL1  UNL     1      -0.099  -1.764  -2.625  1.00  0.00    -0.064 Cl
HETATM    4  N1  UNL     1      -2.447  -0.817  -1.626  1.00  0.00    -0.233 N 
HETATM    5  C6  UNL     1      -3.009  -0.196  -0.471  1.00  0.00     0.229 C 
HETATM    6 BR1  UNL     1      -4.380   1.088  -0.874  1.00  0.00    -0.062 Br
HETATM    7  C7  UNL     1      -1.829   0.453   0.202  1.00  0.00     0.181 C 
ENDROOT
BRANCH   1   8
HETATM    8  O2  UNL     1       0.477   0.134  -0.335  1.00  0.00    -0.373 OA
BRANCH   8   9
HETATM    9  C3  UNL     1       1.530  -0.438   0.358  1.00  0.00     0.200 C 
BRANCH   9  10
HETATM   10  C2  UNL     1       2.778   0.378   0.026  1.00  0.00     0.138 C 
HETATM   11  C1  UNL     1       3.963  -0.307   0.660  1.00  0.00     0.041 C 
BRANCH  10  12
HETATM   12  O1  UNL     1       2.963   0.298  -1.367  1.00  0.00    -0.394 OA
ATOM     13  H1  UNL     1       2.217   0.729  -1.766  1.00  0.00     0.210 HD
ENDBRANCH  10  12
ENDBRANCH   9  10
ENDBRANCH   8   9
ENDBRANCH   1   8
BRANCH   7  14
HETATM   14  O4  UNL     1      -1.543   1.670  -0.408  1.00  0.00    -0.379 OA
ATOM     15  H4  UNL     1      -2.241   2.283  -0.209  1.00  0.00     0.211 HD
ENDBRANCH   7  14
BRANCH   7  16
HETATM   16  C8  UNL     1      -2.063   0.623   1.671  1.00  0.00     0.393 C 
HETATM   17  F1  UNL     1      -0.982   1.085   2.353  1.00  0.00    -0.211 F 
HETATM   18  F2  UNL     1      -3.100   1.515   1.855  1.00  0.00    -0.211 F 
ENDBRANCH   7  16
BRANCH   4  19
HETATM   19  O3  UNL     1      -3.102  -1.195  -2.802  1.00  0.00    -0.285 OA
ATOM     20  H3  UNL     1      -4.032  -1.053  -2.934  1.00  0.00     0.245 HD
ENDBRANCH   4  19
TORSDOF 7
