REMARK  5 active torsions:
REMARK  status: ('A' for Active; 'I' for Inactive)
REMARK    1  A    between atoms: C2_2  and  C3_3 
REMARK    2  A    between atoms: C7_7  and  N1_8 
REMARK    3  A    between atoms: N1_8  and  C8_10 
REMARK    4  A    between atoms: C8_10  and  O1_11 
REMARK    5  A    between atoms: N2_13  and  O2_15 
ROOT
HETATM    1  N1  UNL     1       1.148   0.376   0.068  1.00  0.00    -0.350 N 
ATOM      2  H1  UNL     1       0.881   1.262   0.498  1.00  0.00     0.163 HD
ENDROOT
BRANCH   1   3
HETATM    3  C7  UNL     1       0.176  -0.384  -0.664  1.00  0.00     0.092 C 
HETATM    4  C3  UNL     1      -1.175   0.247  -0.708  1.00  0.00     0.030 C 
HETATM    5  C4  UNL     1      -2.077  -0.575   0.148  1.00  0.00     0.010 C 
HETATM    6  C5  UNL     1      -1.501  -1.980  -0.068  1.00  0.00     0.003 C 
HETATM    7  C6  UNL     1      -0.022  -1.701   0.048  1.00  0.00     0.026 C 
BRANCH   4   8
HETATM    8  C2  UNL     1      -1.141   1.679  -0.342  1.00  0.00    -0.030 C 
HETATM    9  C1  UNL     1      -1.773   2.231   0.648  1.00  0.00     0.007 C 
ENDBRANCH   4   8
ENDBRANCH   1   3
BRANCH   1  10
HETATM   10  C8  UNL     1       2.469  -0.095   0.196  1.00  0.00     0.237 C 
HETATM   11  N2  UNL     1       3.469   0.708   0.167  1.00  0.00    -0.233 N 
ATOM     12  H2  UNL     1       4.421   0.354   0.261  1.00  0.00     0.198 HD
BRANCH  10  13
HETATM   13  O1  UNL     1       2.714  -1.441   0.357  1.00  0.00    -0.331 OA
ATOM     14  H1  UNL     1       3.605  -1.759   0.443  1.00  0.00     0.221 HD
ENDBRANCH  10  13
BRANCH  11  15
HETATM   15  O2  UNL     1       3.238   2.052   0.008  1.00  0.00    -0.287 OA
ATOM     16  H2  UNL     1       3.979   2.647  -0.013  1.00  0.00     0.244 HD
ENDBRANCH  11  15
ENDBRANCH   1  10
TORSDOF 5
