REMARK  3 active torsions:
REMARK  status: ('A' for Active; 'I' for Inactive)
REMARK    1  A    between atoms: C2_2  and  N1_4 
REMARK       I    between atoms: N1_4  and  C4_6 
REMARK       I    between atoms: C4_6  and  N3_11 
REMARK    2  A    between atoms: N2_7  and  O1_9 
REMARK    3  A    between atoms: N3_11  and  C5_13 
ROOT
HETATM    1  N1  UNL     1      -1.067  -0.585  -0.661  1.00  0.00    -0.221 N 
ATOM      2  H1  UNL     1      -0.474  -1.188  -1.231  1.00  0.00     0.178 HD
HETATM    3  C4  UNL     1      -0.451   0.070   0.425  1.00  0.00     0.694 C 
HETATM    4  N2  UNL     1      -1.038   1.058   0.971  1.00  0.00    -0.099 N 
ATOM      5  H2  UNL     1      -1.943   1.331   0.587  1.00  0.00     0.213 HD
HETATM    6  N3  UNL     1       0.795  -0.326   0.934  1.00  0.00    -0.220 N 
ATOM      7  H3  UNL     1       0.904  -0.309   1.948  1.00  0.00     0.178 HD
ENDROOT
BRANCH   1   8
HETATM    8  C2  UNL     1      -2.432  -0.488  -1.039  1.00  0.00     0.091 C 
HETATM    9  C1  UNL     1      -2.903   0.896  -1.390  1.00  0.00     0.032 C 
HETATM   10  C3  UNL     1      -3.376  -1.003   0.051  1.00  0.00     0.032 C 
ENDBRANCH   1   8
BRANCH   4  11
HETATM   11  O1  UNL     1      -0.565   1.785   2.025  1.00  0.00    -0.276 OA
ATOM     12  H1  UNL     1      -1.003   2.523   2.433  1.00  0.00     0.245 HD
ENDBRANCH   4  11
BRANCH   6  13
HETATM   13  C5  UNL     1       1.929  -0.752   0.168  1.00  0.00     0.099 C 
HETATM   14  C6  UNL     1       2.477   0.240  -0.813  1.00  0.00     0.026 C 
HETATM   15  C7  UNL     1       3.620   0.563   0.124  1.00  0.00     0.004 C 
HETATM   16  C8  UNL     1       3.243  -0.671   0.915  1.00  0.00     0.026 C 
ENDBRANCH   6  13
TORSDOF 3
