REMARK  2 active torsions:
REMARK  status: ('A' for Active; 'I' for Inactive)
REMARK    1  A    between atoms: C4_4  and  N1_5 
REMARK    2  A    between atoms: N1_5  and  C5_7 
ROOT
HETATM    1  N1  UNL     1       0.442  -0.522  -0.758  1.00  0.00    -0.391 N 
ATOM      2  H1  UNL     1       0.520  -0.614  -1.771  1.00  0.00     0.155 HD
ENDROOT
BRANCH   1   3
HETATM    3  C4  UNL     1      -0.833  -0.609  -0.076  1.00  0.00     0.078 C 
HETATM    4  C3  UNL     1      -1.119   0.699   0.569  1.00  0.00     0.024 C 
HETATM    5  C2  UNL     1      -2.485   0.645   1.187  1.00  0.00     0.002 C 
HETATM    6  C1  UNL     1      -3.542   0.422   0.166  1.00  0.00     0.000 C 
HETATM    7  C10 UNL     1      -3.229  -0.510  -0.934  1.00  0.00     0.002 C 
HETATM    8  C9  UNL     1      -1.911  -1.144  -0.967  1.00  0.00     0.024 C 
ENDBRANCH   1   3
BRANCH   1   9
HETATM    9  C5  UNL     1       1.576  -0.302   0.065  1.00  0.00     0.280 C 
HETATM   10  C6  UNL     1       2.848  -0.796  -0.618  1.00  0.00     0.055 C 
HETATM   11  C7  UNL     1       3.899   0.275  -0.333  1.00  0.00     0.031 C 
HETATM   12  C8  UNL     1       3.254   1.001   0.851  1.00  0.00     0.235 C 
HETATM   13  N2  UNL     1       1.877   1.092   0.338  1.00  0.00    -0.055 N 
ATOM     14  H22 UNL     1       1.747   1.727  -0.449  1.00  0.00     0.279 HD
ATOM     15  H21 UNL     1       1.215   1.568   0.951  1.00  0.00     0.279 HD
ENDBRANCH   1   9
TORSDOF 2
