REMARK  7 active torsions:
REMARK  status: ('A' for Active; 'I' for Inactive)
REMARK    1  A    between atoms: O1_2  and  C2_3 
REMARK    2  A    between atoms: C4_5  and  C5_6 
REMARK    3  A    between atoms: C5_6  and  C7_9 
REMARK    4  A    between atoms: C5_6  and  O2_16 
REMARK    5  A    between atoms: C7_9  and  N2_10 
REMARK    6  A    between atoms: O2_16  and  C13_17 
REMARK    7  A    between atoms: C20_25  and  N3_26 
ROOT
HETATM    1  C5  UNL     1      -1.185   0.333  -0.518  1.00  0.00     0.206 C 
HETATM    2  C6  UNL     1      -1.302   0.193  -2.011  1.00  0.00     0.105 C 
HETATM    3  N1  UNL     1      -1.384   0.131  -3.173  1.00  0.00    -0.194 NA
ENDROOT
BRANCH   1   4
HETATM    4  C4  UNL     1       0.320   0.206  -0.212  1.00  0.00     0.034 A 
HETATM    5  C3  UNL     1       1.200   0.048  -1.248  1.00  0.00     0.053 A 
HETATM    6  C2  UNL     1       2.561  -0.094  -0.995  1.00  0.00     0.095 A 
HETATM    7  C20 UNL     1       2.968  -0.069   0.315  1.00  0.00     0.069 A 
HETATM    8  C19 UNL     1       2.100   0.089   1.366  1.00  0.00     0.075 A 
HETATM    9  C18 UNL     1       0.723   0.232   1.092  1.00  0.00     0.129 A 
HETATM   10  F1  UNL     1      -0.094   0.411   2.145  1.00  0.00    -0.205 F 
BRANCH   6  11
HETATM   11  O1  UNL     1       3.443  -0.254  -2.063  1.00  0.00    -0.354 OA
HETATM   12  C1  UNL     1       2.968  -0.272  -3.384  1.00  0.00     0.210 C 
ENDBRANCH   6  11
BRANCH   7  13
HETATM   13  N3  UNL     1       4.343  -0.214   0.625  1.00  0.00    -0.344 N 
HETATM   14  C21 UNL     1       4.998  -1.452   0.352  1.00  0.00     0.152 C 
HETATM   15  C22 UNL     1       6.499  -1.367   0.548  1.00  0.00     0.187 C 
HETATM   16  O3  UNL     1       6.810  -0.513   1.628  1.00  0.00    -0.385 OA
HETATM   17  C23 UNL     1       6.499   0.776   1.199  1.00  0.00     0.226 C 
HETATM   18  C24 UNL     1       5.002   0.943   1.203  1.00  0.00     0.295 C 
HETATM   19  F2  UNL     1       4.676   2.065   0.456  1.00  0.00    -0.225 F 
ENDBRANCH   7  13
ENDBRANCH   1   4
BRANCH   1  20
HETATM   20  C7  UNL     1      -1.772  -0.911   0.068  1.00  0.00     0.331 C 
BRANCH  20  21
HETATM   21  N2  UNL     1      -3.204  -1.114  -0.139  1.00  0.00     0.092 N 
HETATM   22  C8  UNL     1      -3.682  -2.055   0.903  1.00  0.00     0.272 C 
HETATM   23  C9  UNL     1      -3.060  -3.401   0.784  1.00  0.00     0.030 C 
HETATM   24  C10 UNL     1      -3.524  -4.076  -0.500  1.00  0.00     0.003 C 
HETATM   25  C11 UNL     1      -4.254  -3.035  -1.305  1.00  0.00     0.030 C 
HETATM   26  C12 UNL     1      -3.357  -1.811  -1.421  1.00  0.00     0.272 C 
ENDBRANCH  20  21
ENDBRANCH   1  20
BRANCH   1  27
HETATM   27  O2  UNL     1      -1.709   1.386  -0.069  1.00  0.00    -0.354 OA
BRANCH  27  28
HETATM   28  C13 UNL     1      -2.219   2.414   0.398  1.00  0.00     0.124 C 
HETATM   29  C14 UNL     1      -3.743   2.600   0.258  1.00  0.00     0.032 C 
HETATM   30  C15 UNL     1      -3.981   4.039  -0.080  1.00  0.00     0.002 C 
HETATM   31  C16 UNL     1      -2.686   4.571  -0.601  1.00  0.00     0.002 C 
HETATM   32  C17 UNL     1      -1.611   3.776   0.110  1.00  0.00     0.032 C 
ENDBRANCH  27  28
ENDBRANCH   1  27
TORSDOF 7
