REMARK  10 active torsions:
REMARK  status: ('A' for Active; 'I' for Inactive)
REMARK    1  A    between atoms: O1_2  and  C2_3 
REMARK    2  A    between atoms: C4_5  and  O2_6 
REMARK    3  A    between atoms: C7_9  and  C8_10 
REMARK    4  A    between atoms: C8_10  and  C9_11 
REMARK    5  A    between atoms: C8_10  and  C26_33 
REMARK    6  A    between atoms: N2_16  and  C12_17 
REMARK    7  A    between atoms: C12_17  and  C13_18 
REMARK    8  A    between atoms: C16_21  and  C17_22 
REMARK    9  A    between atoms: C27_34  and  O4_35 
REMARK   10  A    between atoms: N4_41  and  C29_42 
ROOT
HETATM    1  C8  UNL     1      -1.507  -0.255  -0.549  1.00  0.00     0.011 C 
ENDROOT
BRANCH   1   2
HETATM    2  C7  UNL     1      -2.172  -1.580  -0.356  1.00  0.00    -0.018 A 
HETATM    3  C6  UNL     1      -2.923  -1.745   0.805  1.00  0.00     0.049 A 
HETATM    4  C4  UNL     1      -3.586  -2.912   1.122  1.00  0.00     0.071 A 
HETATM    5  C3  UNL     1      -3.468  -3.940   0.209  1.00  0.00     0.073 A 
HETATM    6  C2  UNL     1      -2.728  -3.795  -0.948  1.00  0.00     0.071 A 
HETATM    7  C36 UNL     1      -2.076  -2.623  -1.242  1.00  0.00     0.049 A 
BRANCH   4   8
HETATM    8  O2  UNL     1      -4.330  -3.059   2.284  1.00  0.00    -0.356 OA
HETATM    9  C5  UNL     1      -4.974  -4.297   2.520  1.00  0.00     0.210 C 
ENDBRANCH   4   8
BRANCH   6  10
HETATM   10  O1  UNL     1      -2.593  -4.818  -1.887  1.00  0.00    -0.356 OA
HETATM   11  C1  UNL     1      -3.257  -6.035  -1.605  1.00  0.00     0.210 C 
ENDBRANCH   6  10
ENDBRANCH   1   2
BRANCH   1  12
HETATM   12  C9  UNL     1      -0.251  -0.296  -1.284  1.00  0.00     0.069 A 
HETATM   13  C10 UNL     1       0.230   0.483  -2.295  1.00  0.00     0.039 A 
HETATM   14  C11 UNL     1      -0.358   1.671  -2.993  1.00  0.00     0.071 C 
HETATM   15  N1  UNL     1       1.465  -0.020  -2.598  1.00  0.00    -0.299 N 
HETATM   16  N2  UNL     1       1.744  -1.042  -1.831  1.00  0.00    -0.252 N 
ATOM     17  H1  UNL     1       2.082   0.350  -3.321  1.00  0.00     0.187 HD
HETATM   18  C25 UNL     1       0.728  -1.258  -1.004  1.00  0.00     0.275 A 
HETATM   19  O3  UNL     1       0.704  -2.182  -0.139  1.00  0.00    -0.266 OA
BRANCH  16  20
HETATM   20  C12 UNL     1       3.009  -1.804  -1.913  1.00  0.00     0.191 C 
BRANCH  20  21
HETATM   21  C13 UNL     1       4.022  -1.202  -1.006  1.00  0.00    -0.038 A 
HETATM   22  C14 UNL     1       4.123  -1.657   0.282  1.00  0.00     0.010 A 
HETATM   23  C15 UNL     1       5.069  -1.091   1.127  1.00  0.00     0.013 A 
HETATM   24  C16 UNL     1       5.909  -0.087   0.714  1.00  0.00    -0.023 A 
HETATM   25  C23 UNL     1       5.801   0.364  -0.583  1.00  0.00     0.013 A 
HETATM   26  C24 UNL     1       4.857  -0.196  -1.439  1.00  0.00     0.010 A 
BRANCH  24  27
HETATM   27  C17 UNL     1       6.906   0.511   1.611  1.00  0.00     0.013 A 
HETATM   28  C18 UNL     1       8.213   0.698   1.172  1.00  0.00     0.015 A 
HETATM   29  C19 UNL     1       9.114   1.257   2.042  1.00  0.00     0.001 A 
HETATM   30  C20 UNL     1       8.749   1.633   3.329  1.00  0.00     0.003 A 
HETATM   31  C21 UNL     1       7.458   1.453   3.773  1.00  0.00     0.043 A 
HETATM   32  C22 UNL     1       6.552   0.890   2.895  1.00  0.00     0.127 A 
HETATM   33  F1  UNL     1       5.254   0.699   3.302  1.00  0.00    -0.205 F 
ENDBRANCH  24  27
ENDBRANCH  20  21
ENDBRANCH  16  20
ENDBRANCH   1  12
BRANCH   1  34
HETATM   34  C26 UNL     1      -2.505   0.725  -0.862  1.00  0.00     0.085 A 
HETATM   35  C27 UNL     1      -3.311   0.640  -1.961  1.00  0.00     0.152 A 
HETATM   36  C28 UNL     1      -4.251   1.626  -2.177  1.00  0.00     0.294 A 
HETATM   37  O5  UNL     1      -5.013   1.565  -3.198  1.00  0.00    -0.264 OA
HETATM   38  N3  UNL     1      -4.386   2.657  -1.332  1.00  0.00    -0.254 N 
HETATM   39  N4  UNL     1      -3.625   2.752  -0.277  1.00  0.00    -0.217 N 
ATOM     40  H3  UNL     1      -5.089   3.373  -1.515  1.00  0.00     0.191 HD
HETATM   41  C35 UNL     1      -2.699   1.826  -0.022  1.00  0.00     0.281 A 
HETATM   42  O6  UNL     1      -1.947   1.916   1.015  1.00  0.00    -0.265 OA
BRANCH  35  43
HETATM   43  O4  UNL     1      -3.255  -0.374  -2.884  1.00  0.00    -0.355 OA
ATOM     44  H4  UNL     1      -3.816  -0.433  -3.649  1.00  0.00     0.218 HD
ENDBRANCH  35  43
BRANCH  39  45
HETATM   45  C29 UNL     1      -3.795   3.860   0.599  1.00  0.00     0.060 A 
HETATM   46  C30 UNL     1      -4.990   4.226   1.153  1.00  0.00     0.031 A 
HETATM   47  C31 UNL     1      -5.045   5.327   1.998  1.00  0.00     0.002 A 
HETATM   48  C32 UNL     1      -3.911   6.064   2.292  1.00  0.00     0.000 A 
HETATM   49  C33 UNL     1      -2.717   5.686   1.730  1.00  0.00     0.002 A 
HETATM   50  C34 UNL     1      -2.646   4.595   0.889  1.00  0.00     0.031 A 
ENDBRANCH  39  45
ENDBRANCH   1  34
TORSDOF 10
