REMARK  8 active torsions:
REMARK  status: ('A' for Active; 'I' for Inactive)
REMARK    1  A    between atoms: C2_2  and  O1_3 
REMARK    2  A    between atoms: O1_3  and  C3_4 
REMARK    3  A    between atoms: C3_4  and  C4_6 
REMARK    4  A    between atoms: C4_6  and  N1_7 
REMARK       I    between atoms: N2_10  and  C7_11 
REMARK    5  A    between atoms: C7_11  and  C8_13 
REMARK    6  A    between atoms: C8_13  and  C9_14 
REMARK    7  A    between atoms: C20_26  and  C21_27 
REMARK    8  A    between atoms: C21_27  and  O6_29 
ROOT
HETATM    1  C9  UNL     1      -0.647   0.880   1.139  1.00  0.00     0.043 C 
HETATM    2  C10 UNL     1      -0.638   0.401   2.623  1.00  0.00     0.175 C 
HETATM    3  O4  UNL     1      -0.523  -0.964   2.365  1.00  0.00    -0.383 OA
HETATM    4  C11 UNL     1      -1.707  -1.235   1.626  1.00  0.00     0.144 C 
HETATM    5  C12 UNL     1      -2.825  -1.098   2.598  1.00  0.00     0.034 C 
HETATM    6  C13 UNL     1      -3.763  -2.238   2.741  1.00  0.00     0.002 C 
HETATM    7  C14 UNL     1      -4.662  -2.594   1.644  1.00  0.00     0.000 C 
HETATM    8  C15 UNL     1      -6.006  -1.991   1.564  1.00  0.00     0.000 C 
HETATM    9  C16 UNL     1      -6.171  -0.532   1.749  1.00  0.00     0.000 C 
HETATM   10  C17 UNL     1      -6.055   0.264   0.449  1.00  0.00     0.000 C 
HETATM   11  C18 UNL     1      -5.311   1.547   0.591  1.00  0.00     0.002 C 
HETATM   12  C19 UNL     1      -4.494   1.965  -0.572  1.00  0.00     0.035 C 
HETATM   13  C20 UNL     1      -3.121   1.353  -0.687  1.00  0.00     0.177 C 
HETATM   14  N3  UNL     1      -2.908   0.301   0.229  1.00  0.00    -0.402 N 
ATOM     15  H3  UNL     1      -3.711  -0.185   0.627  1.00  0.00     0.154 HD
HETATM   16  C23 UNL     1      -1.613  -0.090   0.603  1.00  0.00     0.113 C 
ENDROOT
BRANCH   1  17
HETATM   17  C8  UNL     1       0.795   0.670   0.775  1.00  0.00     0.112 C 
BRANCH  17  18
HETATM   18  C7  UNL     1       1.221   1.015  -0.556  1.00  0.00     0.220 C 
HETATM   19  N2  UNL     1       2.567   0.799  -0.924  1.00  0.00    -0.349 N 
HETATM   20  C6  UNL     1       3.536   0.245  -0.008  1.00  0.00     0.145 C 
HETATM   21  C24 UNL     1       3.038   1.128  -2.252  1.00  0.00     0.145 C 
HETATM   22  C5  UNL     1       4.598  -0.509  -0.820  1.00  0.00     0.137 C 
HETATM   23  N1  UNL     1       5.314   0.452  -1.619  1.00  0.00    -0.400 N 
HETATM   24  C25 UNL     1       4.504   1.480  -2.196  1.00  0.00     0.137 C 
HETATM   25  O3  UNL     1       0.432   1.500  -1.388  1.00  0.00    -0.273 OA
BRANCH  23  26
HETATM   26  C4  UNL     1       6.319  -0.085  -2.472  1.00  0.00     0.228 C 
BRANCH  26  27
HETATM   27  C3  UNL     1       7.496  -0.621  -1.756  1.00  0.00     0.276 C 
HETATM   28  O2  UNL     1       8.402  -1.182  -2.412  1.00  0.00    -0.263 OA
BRANCH  27  29
HETATM   29  O1  UNL     1       7.648  -0.531  -0.384  1.00  0.00    -0.321 OA
BRANCH  29  30
HETATM   30  C2  UNL     1       8.763  -1.034   0.311  1.00  0.00     0.174 C 
HETATM   31  C1  UNL     1       8.583  -0.755   1.792  1.00  0.00     0.034 C 
ENDBRANCH  29  30
ENDBRANCH  27  29
ENDBRANCH  26  27
ENDBRANCH  23  26
ENDBRANCH  17  18
ENDBRANCH   1  17
BRANCH  13  32
HETATM   32  C21 UNL     1      -3.032   0.845  -2.089  1.00  0.00     0.281 C 
HETATM   33  O5  UNL     1      -2.793  -0.375  -2.250  1.00  0.00    -0.263 OA
BRANCH  32  34
HETATM   34  O6  UNL     1      -3.195   1.632  -3.210  1.00  0.00    -0.325 OA
HETATM   35  C22 UNL     1      -3.109   1.149  -4.538  1.00  0.00     0.213 C 
ENDBRANCH  32  34
ENDBRANCH  13  32
TORSDOF 8
