REMARK  5 active torsions:
REMARK  status: ('A' for Active; 'I' for Inactive)
REMARK    1  A    between atoms: C5_6  and  O1_7 
REMARK    2  A    between atoms: C9_15  and  N3_16 
REMARK       I    between atoms: N3_16  and  C10_18 
REMARK    3  A    between atoms: C10_18  and  C11_20 
REMARK    4  A    between atoms: C11_20  and  O3_22 
REMARK    5  A    between atoms: C11_20  and  C13_24 
ROOT
HETATM    1  C1  UNL     1       3.461  -2.083   3.181  1.00  0.00     0.018 C 
HETATM    2  C2  UNL     1       3.446  -1.283   2.287  1.00  0.00    -0.074 C 
HETATM    3  C3  UNL     1       3.432  -0.303   1.227  1.00  0.00     0.066 A 
HETATM    4  C4  UNL     1       4.548   0.494   0.974  1.00  0.00     0.065 A 
HETATM    5 BR1  UNL     1       6.094   0.247   2.074  1.00  0.00    -0.046 Br
HETATM    6  C5  UNL     1       4.528   1.427  -0.039  1.00  0.00     0.089 A 
HETATM    7  C7  UNL     1       3.406   1.587  -0.817  1.00  0.00     0.071 A 
HETATM    8  C8  UNL     1       2.317   0.804  -0.564  1.00  0.00     0.080 A 
HETATM    9  N1  UNL     1       1.222   0.958  -1.321  1.00  0.00    -0.284 N 
ATOM     10  H1  UNL     1       1.208   1.649  -2.071  1.00  0.00     0.187 HD
HETATM   11  N2  UNL     1       0.169   0.213  -1.089  1.00  0.00    -0.131 N 
ATOM     12  H2  UNL     1      -0.657   0.343  -1.673  1.00  0.00     0.205 HD
HETATM   13  C9  UNL     1       0.129  -0.707  -0.124  1.00  0.00     0.700 A 
HETATM   14  N4  UNL     1       1.203  -0.890   0.653  1.00  0.00    -0.186 N 
ATOM     15  H4  UNL     1       1.186  -1.589   1.395  1.00  0.00     0.184 HD
HETATM   16  C16 UNL     1       2.298  -0.152   0.451  1.00  0.00     0.097 A 
ENDROOT
BRANCH   6  17
HETATM   17  O1  UNL     1       5.633   2.216  -0.290  1.00  0.00    -0.354 OA
HETATM   18  C6  UNL     1       5.687   3.182  -1.298  1.00  0.00     0.210 C 
ENDBRANCH   6  17
BRANCH  13  19
HETATM   19  N3  UNL     1      -0.957  -1.427   0.064  1.00  0.00    -0.156 N 
HETATM   20  C10 UNL     1      -2.105  -1.261  -0.735  1.00  0.00     0.270 C 
HETATM   21  O2  UNL     1      -1.963  -0.964  -1.943  1.00  0.00    -0.269 OA
ATOM     22  H3  UNL     1      -0.967  -2.124   0.809  1.00  0.00     0.187 HD
BRANCH  20  23
HETATM   23  C11 UNL     1      -3.459  -1.431  -0.167  1.00  0.00     0.138 C 
HETATM   24  C12 UNL     1      -4.177  -2.605  -0.824  1.00  0.00     0.057 C 
BRANCH  23  25
HETATM   25  O3  UNL     1      -3.349  -1.757   1.190  1.00  0.00    -0.380 OA
ATOM     26  H3  UNL     1      -4.219  -1.866   1.555  1.00  0.00     0.211 HD
ENDBRANCH  23  25
BRANCH  23  27
HETATM   27  C13 UNL     1      -4.288  -0.171  -0.250  1.00  0.00     0.021 C 
HETATM   28  C14 UNL     1      -4.496   0.314  -1.649  1.00  0.00     0.013 C 
HETATM   29  C15 UNL     1      -3.521   0.907   0.502  1.00  0.00     0.013 C 
ENDBRANCH  23  27
ENDBRANCH  20  23
ENDBRANCH  13  19
TORSDOF 5
