REMARK  5 active torsions:
REMARK  status: ('A' for Active; 'I' for Inactive)
REMARK    1  A    between atoms: C3_3  and  C4_4 
REMARK    2  A    between atoms: C4_4  and  N1_5 
REMARK    3  A    between atoms: C7_8  and  N2_9 
REMARK    4  A    between atoms: C8_12  and  C9_13 
REMARK    5  A    between atoms: C9_13  and  O1_14 
ROOT
HETATM    1  C1  UNL     1       8.241   0.273   0.386  1.00  0.00     0.112 C 
HETATM    2  C2  UNL     1       6.829   0.388   0.038  1.00  0.00    -0.109 C 
HETATM    3  C3  UNL     1       5.674   0.543  -0.198  1.00  0.00    -0.077 C 
ENDROOT
BRANCH   3   4
HETATM    4  C4  UNL     1       4.235   0.833  -0.409  1.00  0.00     0.365 C 
BRANCH   4   5
HETATM    5  N1  UNL     1       3.446   0.308   0.715  1.00  0.00     0.099 N 
HETATM    6  C5  UNL     1       2.453   1.274   1.150  1.00  0.00     0.275 C 
HETATM    7  C6  UNL     1       1.144   1.023   0.465  1.00  0.00     0.057 C 
HETATM    8  C7  UNL     1       0.504  -0.208   1.134  1.00  0.00     0.111 C 
HETATM    9  C19 UNL     1       1.614  -1.187   1.283  1.00  0.00     0.057 C 
HETATM   10  C20 UNL     1       2.764  -0.929   0.327  1.00  0.00     0.275 C 
BRANCH   8  11
HETATM   11  N2  UNL     1      -0.432  -0.764   0.124  1.00  0.00    -0.290 N 
HETATM   12  N3  UNL     1      -0.106  -1.576  -0.800  1.00  0.00    -0.295 N 
HETATM   13  C8  UNL     1      -0.947  -1.734  -1.778  1.00  0.00     0.087 A 
ATOM     14  H3  UNL     1       0.779  -2.082  -0.774  1.00  0.00     0.187 HD
HETATM   15  C10 UNL     1      -1.998  -0.821  -1.374  1.00  0.00     0.086 A 
HETATM   16  C11 UNL     1      -1.670  -0.267  -0.157  1.00  0.00     0.051 A 
HETATM   17  C18 UNL     1      -3.033  -0.380  -2.265  1.00  0.00     0.256 C 
HETATM   18  C12 UNL     1      -2.418   0.581   0.759  1.00  0.00     0.045 C 
HETATM   19  C13 UNL     1      -3.125  -0.207   1.838  1.00  0.00     0.031 C 
HETATM   20  C16 UNL     1      -3.506   1.371   0.167  1.00  0.00     0.015 C 
HETATM   21  C14 UNL     1      -4.100   0.808   2.405  1.00  0.00     0.083 C 
HETATM   22 CL1  UNL     1      -5.684   0.021   2.624  1.00  0.00    -0.125 Cl
HETATM   23  C15 UNL     1      -4.179   1.943   1.423  1.00  0.00     0.027 C 
HETATM   24  C17 UNL     1      -4.607   0.607  -0.547  1.00  0.00     0.128 C 
HETATM   25  N4  UNL     1      -4.213   0.409  -1.935  1.00  0.00    -0.356 N 
ATOM     26  H4  UNL     1      -4.768   0.826  -2.683  1.00  0.00     0.162 HD
HETATM   27  O2  UNL     1      -2.901  -0.673  -3.478  1.00  0.00    -0.268 OA
BRANCH  13  28
HETATM   28  C9  UNL     1      -1.247  -2.588  -2.910  1.00  0.00     0.163 C 
BRANCH  28  29
HETATM   29  O1  UNL     1      -0.487  -2.418  -4.041  1.00  0.00    -0.370 OA
ATOM     30  H1  UNL     1      -0.684  -2.978  -4.783  1.00  0.00     0.216 HD
ENDBRANCH  28  29
ENDBRANCH  13  28
ENDBRANCH   8  11
ENDBRANCH   4   5
ENDBRANCH   3   4
TORSDOF 5
