REMARK  5 active torsions:
REMARK  status: ('A' for Active; 'I' for Inactive)
REMARK    1  A    between atoms: C5_8  and  C6_9 
REMARK    2  A    between atoms: C7_10  and  C8_11 
REMARK    3  A    between atoms: N3_20  and  C16_21 
REMARK    4  A    between atoms: C16_21  and  C17_22 
REMARK    5  A    between atoms: C18_23  and  C19_24 
ROOT
HETATM    1  C8  UNL     1      -3.088  -1.353   0.370  1.00  0.00     0.018 A 
HETATM    2  C9  UNL     1      -3.073  -1.839  -0.921  1.00  0.00     0.022 A 
HETATM    3  C10 UNL     1      -3.718  -3.022  -1.249  1.00  0.00     0.024 A 
HETATM    4  C11 UNL     1      -4.395  -3.753  -0.297  1.00  0.00     0.044 A 
HETATM    5  C12 UNL     1      -5.052  -4.974  -0.671  1.00  0.00     0.099 C 
HETATM    6  N2  UNL     1      -5.561  -5.962  -0.967  1.00  0.00    -0.191 NA
HETATM    7  C13 UNL     1      -4.412  -3.269   0.995  1.00  0.00     0.024 A 
HETATM    8  C14 UNL     1      -3.773  -2.093   1.328  1.00  0.00     0.022 A 
ENDROOT
BRANCH   1   9
HETATM    9  C7  UNL     1      -2.424  -0.145   0.677  1.00  0.00    -0.061 C 
HETATM   10  C6  UNL     1      -1.844   0.902   0.967  1.00  0.00    -0.059 C 
BRANCH  10  11
HETATM   11  C5  UNL     1      -1.181   2.159   1.376  1.00  0.00     0.053 A 
HETATM   12  C4  UNL     1      -1.563   2.685   2.612  1.00  0.00     0.073 A 
HETATM   13  S1  UNL     1      -0.620   4.070   2.768  1.00  0.00    -0.093 SA
HETATM   14  C3  UNL     1       0.240   3.985   1.300  1.00  0.00     0.101 A 
HETATM   15  C2  UNL     1       1.223   4.827   0.757  1.00  0.00     0.270 A 
HETATM   16  C15 UNL     1      -0.237   2.844   0.694  1.00  0.00     0.081 A 
HETATM   17  N1  UNL     1       1.763   4.542  -0.432  1.00  0.00    -0.269 N 
HETATM   18  O1  UNL     1       1.567   5.839   1.420  1.00  0.00    -0.266 OA
HETATM   19  C1  UNL     1       2.771   5.401  -0.993  1.00  0.00     0.164 C 
HETATM   20  C25 UNL     1       1.302   3.441  -1.018  1.00  0.00     0.332 A 
HETATM   21  N3  UNL     1       0.356   2.601  -0.531  1.00  0.00    -0.285 N 
HETATM   22  O2  UNL     1       1.810   3.171  -2.137  1.00  0.00    -0.246 OA
BRANCH  21  23
HETATM   23  C16 UNL     1       0.021   1.481  -1.381  1.00  0.00     0.228 C 
BRANCH  23  24
HETATM   24  C17 UNL     1       0.883   0.361  -0.997  1.00  0.00    -0.081 C 
HETATM   25  C18 UNL     1       1.581  -0.576  -0.691  1.00  0.00    -0.065 C 
BRANCH  25  26
HETATM   26  C19 UNL     1       2.391  -1.703  -0.322  1.00  0.00     0.017 A 
HETATM   27  C20 UNL     1       3.313  -1.676   0.704  1.00  0.00     0.020 A 
HETATM   28  C21 UNL     1       4.083  -2.757   1.052  1.00  0.00     0.001 A 
HETATM   29  C22 UNL     1       3.946  -3.931   0.359  1.00  0.00     0.000 A 
HETATM   30  C23 UNL     1       3.046  -4.009  -0.666  1.00  0.00     0.001 A 
HETATM   31  C24 UNL     1       2.290  -2.913  -0.991  1.00  0.00     0.020 A 
ENDBRANCH  25  26
ENDBRANCH  23  24
ENDBRANCH  21  23
ENDBRANCH  10  11
ENDBRANCH   1   9
TORSDOF 5
