REMARK  3 active torsions:
REMARK  status: ('A' for Active; 'I' for Inactive)
REMARK    1  A    between atoms: C3_4  and  C4_5 
REMARK    2  A    between atoms: N2_12  and  O1_13 
REMARK    3  A    between atoms: N3_17  and  O2_18 
ROOT
HETATM    1  N1  UNL     1       0.925   3.292   1.836  1.00  0.00    -0.191 NA
HETATM    2  C1  UNL     1       0.866   2.228   1.323  1.00  0.00     0.104 C 
HETATM    3  C2  UNL     1       0.759   0.978   0.744  1.00  0.00     0.102 C 
HETATM    4  C3  UNL     1       1.938   0.345   0.516  1.00  0.00     0.024 C 
HETATM    5  C10 UNL     1       1.997  -0.951  -0.073  1.00  0.00     0.059 C 
HETATM    6  N2  UNL     1       2.657  -0.831  -1.123  1.00  0.00    -0.237 N 
HETATM    7  C11 UNL     1       2.459  -1.960  -2.083  1.00  0.00     0.142 C 
HETATM    8  C12 UNL     1       1.200  -2.450  -2.369  1.00  0.00     0.144 C 
HETATM    9  N3  UNL     1       0.085  -1.808  -1.685  1.00  0.00    -0.221 N 
HETATM   10  C13 UNL     1       0.068  -1.675  -0.437  1.00  0.00     0.123 C 
HETATM   11  C14 UNL     1       1.220  -2.187   0.483  1.00  0.00     0.140 C 
HETATM   12  N4  UNL     1      -0.940  -0.811  -0.119  1.00  0.00    -0.280 N 
HETATM   13  C15 UNL     1      -0.566   0.417   0.387  1.00  0.00     0.136 A 
HETATM   14  N5  UNL     1      -1.711   1.101   0.539  1.00  0.00    -0.338 N 
ATOM     15  H5  UNL     1      -1.801   2.053   0.893  1.00  0.00     0.167 HD
HETATM   16  C16 UNL     1      -2.716   0.305   0.141  1.00  0.00     0.075 A 
HETATM   17  C17 UNL     1      -4.066   0.491   0.109  1.00  0.00     0.020 A 
HETATM   18  C18 UNL     1      -4.570   1.705   0.511  1.00  0.00     0.016 A 
HETATM   19  C19 UNL     1      -5.920   1.924   0.485  1.00  0.00     0.001 A 
HETATM   20  C20 UNL     1      -6.779   0.947   0.062  1.00  0.00     0.002 A 
HETATM   21  C21 UNL     1      -6.271  -0.288  -0.347  1.00  0.00     0.030 A 
HETATM   22  C22 UNL     1      -4.920  -0.521  -0.326  1.00  0.00     0.044 A 
HETATM   23  N6  UNL     1      -4.378  -1.680  -0.710  1.00  0.00    -0.363 N 
ATOM     24  H6  UNL     1      -5.009  -2.416  -1.025  1.00  0.00     0.165 HD
HETATM   25  C23 UNL     1      -3.077  -1.942  -0.711  1.00  0.00     0.121 A 
HETATM   26  C24 UNL     1      -2.225  -0.911  -0.273  1.00  0.00     0.085 A 
ENDROOT
BRANCH   4  27
HETATM   27  C4  UNL     1       3.207   0.829   0.796  1.00  0.00    -0.022 A 
HETATM   28  C5  UNL     1       4.093  -0.052   1.451  1.00  0.00     0.012 A 
HETATM   29  C6  UNL     1       5.371   0.250   1.795  1.00  0.00     0.001 A 
HETATM   30  C7  UNL     1       5.846   1.504   1.487  1.00  0.00     0.000 A 
HETATM   31  C8  UNL     1       5.046   2.426   0.847  1.00  0.00     0.001 A 
HETATM   32  C9  UNL     1       3.767   2.059   0.527  1.00  0.00     0.012 A 
ENDBRANCH   4  27
BRANCH   6  33
HETATM   33  O1  UNL     1       3.270   0.147  -1.723  1.00  0.00    -0.283 OA
ATOM     34  H1  UNL     1       3.773   0.238  -2.524  1.00  0.00     0.245 HD
ENDBRANCH   6  33
BRANCH   9  35
HETATM   35  O2  UNL     1      -0.906  -1.279  -2.315  1.00  0.00    -0.282 OA
ATOM     36  H2  UNL     1      -1.633  -0.860  -1.869  1.00  0.00     0.245 HD
ENDBRANCH   9  35
TORSDOF 3
