REMARK  3 active torsions:
REMARK  status: ('A' for Active; 'I' for Inactive)
REMARK    1  A    between atoms: C9_14  and  C10_15 
REMARK    2  A    between atoms: C11_16  and  C12_17 
REMARK    3  A    between atoms: C15_20  and  N4_21 
ROOT
HETATM    1  C1  UNL     1      -6.645  -2.930  -0.576  1.00  0.00     0.068 C 
HETATM    2  C2  UNL     1      -6.115  -1.621  -0.101  1.00  0.00     0.008 A 
HETATM    3  C3  UNL     1      -7.047  -0.676   0.247  1.00  0.00     0.055 A 
HETATM    4  C4  UNL     1      -6.599   0.536   0.686  1.00  0.00     0.051 A 
HETATM    5  N1  UNL     1      -7.465   1.504   1.040  1.00  0.00    -0.351 N 
ATOM      6  H1  UNL     1      -8.468   1.328   0.980  1.00  0.00     0.166 HD
HETATM    7  C5  UNL     1      -7.031   2.690   1.468  1.00  0.00     0.182 A 
HETATM    8  N2  UNL     1      -5.742   2.931   1.551  1.00  0.00    -0.343 N 
ATOM      9  H2  UNL     1      -5.430   3.844   1.881  1.00  0.00     0.167 HD
HETATM   10  C6  UNL     1      -4.794   1.984   1.204  1.00  0.00     0.130 A 
HETATM   11  C7  UNL     1      -3.447   2.404   1.349  1.00  0.00     0.118 C 
HETATM   12  N3  UNL     1      -2.386   2.823   1.493  1.00  0.00    -0.190 NA
HETATM   13  C8  UNL     1      -5.210   0.777   0.767  1.00  0.00     0.064 A 
HETATM   14  C9  UNL     1      -4.304  -0.170   0.418  1.00  0.00     0.103 A 
HETATM   15  N5  UNL     1      -4.808  -1.380  -0.020  1.00  0.00    -0.352 N 
ATOM     16  H5  UNL     1      -4.155  -2.115  -0.291  1.00  0.00     0.166 HD
ENDROOT
BRANCH  14  17
HETATM   17  C10 UNL     1      -2.880  -0.075   0.448  1.00  0.00    -0.042 C 
HETATM   18  C11 UNL     1      -1.692  -0.077   0.441  1.00  0.00    -0.060 C 
BRANCH  18  19
HETATM   19  C12 UNL     1      -0.258  -0.091   0.408  1.00  0.00     0.018 A 
HETATM   20  C13 UNL     1       0.399   0.146  -0.781  1.00  0.00     0.023 A 
HETATM   21  C14 UNL     1       1.786   0.145  -0.839  1.00  0.00     0.031 A 
HETATM   22  C15 UNL     1       2.555  -0.097   0.300  1.00  0.00     0.046 A 
HETATM   23  C24 UNL     1       1.895  -0.333   1.482  1.00  0.00     0.031 A 
HETATM   24  C25 UNL     1       0.526  -0.328   1.530  1.00  0.00     0.023 A 
BRANCH  22  25
HETATM   25  N4  UNL     1       3.967  -0.080   0.157  1.00  0.00    -0.244 N 
HETATM   26  C16 UNL     1       4.742  -0.680  -0.901  1.00  0.00     0.266 A 
HETATM   27  O1  UNL     1       4.256  -1.315  -1.852  1.00  0.00    -0.267 OA
HETATM   28  C17 UNL     1       6.148  -0.419  -0.667  1.00  0.00     0.048 A 
HETATM   29  C18 UNL     1       7.297  -0.768  -1.380  1.00  0.00     0.018 A 
HETATM   30  C22 UNL     1       6.295   0.316   0.489  1.00  0.00     0.048 A 
HETATM   31  C19 UNL     1       8.522  -0.382  -0.924  1.00  0.00     0.001 A 
HETATM   32  C20 UNL     1       8.670   0.352   0.234  1.00  0.00     0.001 A 
HETATM   33  C21 UNL     1       7.540   0.697   0.934  1.00  0.00     0.018 A 
HETATM   34  C23 UNL     1       4.927   0.529   1.007  1.00  0.00     0.266 A 
HETATM   35  O2  UNL     1       4.665   1.166   2.060  1.00  0.00    -0.267 OA
ENDBRANCH  22  25
ENDBRANCH  18  19
ENDBRANCH  14  17
TORSDOF 3
