REMARK  2 active torsions:
REMARK  status: ('A' for Active; 'I' for Inactive)
REMARK    1  A    between atoms: N3_23  and  O3_24 
REMARK    2  A    between atoms: C18_26  and  C19_27 
ROOT
HETATM    1  C1  UNL     1      -2.447   0.703   1.423  1.00  0.00     0.156 C 
HETATM    2  N1  UNL     1      -1.742   0.008   0.421  1.00  0.00    -0.349 N 
HETATM    3  C2  UNL     1      -2.341  -1.184  -0.144  1.00  0.00     0.056 A 
HETATM    4  C3  UNL     1      -3.651  -0.900  -0.408  1.00  0.00     0.031 A 
HETATM    5  C4  UNL     1      -4.429  -1.882  -0.965  1.00  0.00     0.002 A 
HETATM    6  C5  UNL     1      -3.896  -3.143  -1.256  1.00  0.00     0.002 A 
HETATM    7  C6  UNL     1      -2.576  -3.397  -0.976  1.00  0.00     0.026 A 
HETATM    8  C7  UNL     1      -1.797  -2.408  -0.414  1.00  0.00     0.090 A 
HETATM    9  S1  UNL     1      -0.191  -2.931   0.007  1.00  0.00     0.200 S 
HETATM   10  O1  UNL     1       0.193  -4.146  -0.828  1.00  0.00    -0.218 OA
HETATM   11  O2  UNL     1      -0.146  -3.371   1.468  1.00  0.00    -0.218 OA
HETATM   12  C8  UNL     1       0.951  -1.689  -0.228  1.00  0.00     0.130 C 
HETATM   13  C9  UNL     1       0.745  -0.293  -0.017  1.00  0.00     0.033 A 
HETATM   14  C10 UNL     1      -0.420   0.478   0.088  1.00  0.00     0.060 A 
HETATM   15  C11 UNL     1      -0.421   1.851   0.130  1.00  0.00     0.022 A 
HETATM   16  C12 UNL     1      -1.603   2.516   0.145  1.00  0.00     0.038 A 
HETATM   17  C13 UNL     1      -1.566   3.907   0.136  1.00  0.00     0.045 A 
HETATM   18  C14 UNL     1      -2.772   4.667   0.158  1.00  0.00     0.099 C 
HETATM   19  N2  UNL     1      -3.755   5.302   0.160  1.00  0.00    -0.191 NA
HETATM   20  C15 UNL     1      -0.368   4.589   0.107  1.00  0.00     0.025 A 
HETATM   21  C16 UNL     1       0.808   3.875   0.084  1.00  0.00     0.034 A 
HETATM   22  C17 UNL     1       0.817   2.506   0.093  1.00  0.00     0.075 A 
HETATM   23  N3  UNL     1       1.931   1.782   0.003  1.00  0.00    -0.222 N 
HETATM   24  C18 UNL     1       1.937   0.444  -0.055  1.00  0.00     0.087 A 
ENDROOT
BRANCH  23  25
HETATM   25  O3  UNL     1       3.145   2.440  -0.034  1.00  0.00    -0.282 OA
ATOM     26  H3  UNL     1       3.940   1.923  -0.098  1.00  0.00     0.245 HD
ENDBRANCH  23  25
BRANCH  24  27
HETATM   27  C19 UNL     1       3.201  -0.281  -0.136  1.00  0.00     0.009 A 
HETATM   28  C20 UNL     1       3.901  -0.582   1.038  1.00  0.00     0.016 A 
HETATM   29  C21 UNL     1       5.094  -1.251   0.907  1.00  0.00     0.018 A 
HETATM   30  C22 UNL     1       5.623  -1.634  -0.310  1.00  0.00     0.087 A 
HETATM   31  N4  UNL     1       4.918  -1.325  -1.413  1.00  0.00    -0.374 N 
HETATM   32  C23 UNL     1       3.745  -0.671  -1.336  1.00  0.00     0.101 A 
ATOM     33  H4  UNL     1       5.281  -1.592  -2.328  1.00  0.00     0.164 HD
ENDBRANCH  24  27
TORSDOF 2
