REMARK  2 active torsions:
REMARK  status: ('A' for Active; 'I' for Inactive)
REMARK    1  A    between atoms: N4_13  and  N5_15 
REMARK    2  A    between atoms: N5_15  and  C7_17 
ROOT
HETATM    1  N1  UNL     1       1.114  -2.996   0.488  1.00  0.00    -0.191 NA
HETATM    2  C1  UNL     1       0.376  -2.110   0.417  1.00  0.00     0.103 C 
HETATM    3  C2  UNL     1      -0.571  -1.020   0.342  1.00  0.00     0.090 A 
HETATM    4  C3  UNL     1      -1.810  -1.175   0.820  1.00  0.00     0.112 A 
HETATM    5  N2  UNL     1      -2.799  -0.161   0.787  1.00  0.00    -0.371 N 
ATOM      6  H2  UNL     1      -3.722  -0.360   1.173  1.00  0.00     0.164 HD
HETATM    7  C4  UNL     1      -2.572   1.004   0.286  1.00  0.00     0.119 A 
HETATM    8  C5  UNL     1      -1.268   1.288  -0.261  1.00  0.00     0.071 A 
HETATM    9  N3  UNL     1      -0.972   2.423  -0.774  1.00  0.00    -0.396 N 
ATOM     10  H31 UNL     1      -0.050   2.624  -1.161  1.00  0.00     0.156 HD
ATOM     11  H32 UNL     1      -1.705   3.132  -0.783  1.00  0.00     0.156 HD
HETATM   12  C6  UNL     1      -0.200   0.256  -0.248  1.00  0.00     0.097 A 
HETATM   13  N4  UNL     1       0.938   0.515  -0.730  1.00  0.00    -0.295 N 
ATOM     14  H4  UNL     1       1.022   1.460  -1.103  1.00  0.00     0.187 HD
ENDROOT
BRANCH  13  15
HETATM   15  N5  UNL     1       2.077  -0.228  -0.847  1.00  0.00    -0.277 N 
ATOM     16  H5  UNL     1       2.092  -1.000  -1.513  1.00  0.00     0.189 HD
BRANCH  15  17
HETATM   17  C7  UNL     1       3.258   0.035  -0.067  1.00  0.00     0.368 C 
HETATM   18  O1  UNL     1       3.210   0.988   0.744  1.00  0.00    -0.282 OA
ENDBRANCH  15  17
ENDBRANCH  13  15
TORSDOF 2
