REMARK  2 active torsions:
REMARK  status: ('A' for Active; 'I' for Inactive)
REMARK    1  A    between atoms: N1_1  and  C1_4 
REMARK    2  A    between atoms: C3_10  and  N4_11 
ROOT
HETATM    1  C1  UNL     1       3.153   0.787   0.416  1.00  0.00     0.691 A 
HETATM    2  N2  UNL     1       3.646  -0.443   0.540  1.00  0.00    -0.187 N 
ATOM      3  H2  UNL     1       4.648  -0.569   0.680  1.00  0.00     0.185 HD
HETATM    4  C2  UNL     1       2.840  -1.529   0.484  1.00  0.00     0.215 A 
HETATM    5  N3  UNL     1       1.499  -1.397   0.301  1.00  0.00    -0.187 N 
ATOM      6  H3  UNL     1       0.890  -2.214   0.261  1.00  0.00     0.185 HD
HETATM    7  C3  UNL     1       1.002  -0.152   0.174  1.00  0.00     0.695 A 
HETATM    8  N6  UNL     1       1.816   0.927   0.232  1.00  0.00    -0.022 N 
ATOM      9  H6  UNL     1       1.418   1.861   0.136  1.00  0.00     0.203 HD
ENDROOT
BRANCH   7  10
HETATM   10  N4  UNL     1      -0.397  -0.011  -0.024  1.00  0.00    -0.214 N 
HETATM   11  C4  UNL     1      -1.313  -0.767   0.765  1.00  0.00     0.168 C 
HETATM   12  C5  UNL     1      -2.720  -0.219   0.551  1.00  0.00     0.252 C 
HETATM   13  N5  UNL     1      -2.925  -0.161  -0.895  1.00  0.00    -0.072 N 
HETATM   14  C6  UNL     1      -2.221   1.036  -1.328  1.00  0.00     0.252 C 
ATOM     15  H52 UNL     1      -2.640  -1.008  -1.387  1.00  0.00     0.277 HD
ATOM     16  H51 UNL     1      -3.906  -0.187  -1.174  1.00  0.00     0.277 HD
HETATM   17  C7  UNL     1      -0.770   0.927  -1.050  1.00  0.00     0.168 C 
ENDBRANCH   7  10
BRANCH   1  18
HETATM   18  N1  UNL     1       3.844   1.865   0.444  1.00  0.00    -0.234 N 
ATOM     19  H12 UNL     1       4.849   1.760   0.582  1.00  0.00     0.174 HD
ATOM     20  H11 UNL     1       3.466   2.808   0.349  1.00  0.00     0.174 HD
ENDBRANCH   1  18
TORSDOF 2
