REMARK  10 active torsions:
REMARK  status: ('A' for Active; 'I' for Inactive)
REMARK    1  A    between atoms: C5_14  and  C6_15 
REMARK       I    between atoms: C6_15  and  N5_17 
REMARK    2  A    between atoms: N5_17  and  N6_19 
REMARK    3  A    between atoms: N6_19  and  N7_20 
REMARK    4  A    between atoms: N8_23  and  C7_24 
REMARK    5  A    between atoms: C7_24  and  C8_25 
REMARK    6  A    between atoms: C7_24  and  C19_41 
REMARK    7  A    between atoms: C8_25  and  C9_26 
REMARK       I    between atoms: C9_26  and  N9_28 
REMARK    8  A    between atoms: N9_28  and  C10_30 
REMARK    9  A    between atoms: C10_30  and  C11_31 
REMARK   10  A    between atoms: C11_31  and  C12_32 
REMARK       I    between atoms: C12_32  and  N10_34 
ROOT
HETATM    1  N1  UNL     1       8.560  -0.363   1.578  1.00  0.00    -0.383 N 
ATOM      2  H11 UNL     1       8.654  -0.588   0.588  1.00  0.00     0.157 HD
ATOM      3  H12 UNL     1       9.402  -0.327   2.153  1.00  0.00     0.157 HD
HETATM    4  C1  UNL     1       7.432  -0.117   2.128  1.00  0.00     0.131 A 
HETATM    5  N2  UNL     1       7.310   0.177   3.420  1.00  0.00    -0.337 N 
ATOM      6  H2  UNL     1       8.149   0.215   3.999  1.00  0.00     0.168 HD
HETATM    7  C2  UNL     1       6.111   0.427   3.990  1.00  0.00     0.183 A 
HETATM    8  N3  UNL     1       5.004   0.375   3.211  1.00  0.00    -0.336 N 
ATOM      9  H3  UNL     1       4.095   0.563   3.633  1.00  0.00     0.168 HD
HETATM   10  C3  UNL     1       5.064   0.085   1.903  1.00  0.00     0.142 A 
HETATM   11  C4  UNL     1       6.270  -0.167   1.334  1.00  0.00     0.123 A 
HETATM   12  N4  UNL     1       6.070  -0.428   0.061  1.00  0.00    -0.332 N 
ATOM     13  H4  UNL     1       6.797  -0.654  -0.618  1.00  0.00     0.168 HD
HETATM   14  C5  UNL     1       4.724  -0.348  -0.209  1.00  0.00     0.181 A 
HETATM   15  N8  UNL     1       4.095  -0.039   0.893  1.00  0.00    -0.297 N 
ENDROOT
BRANCH  15  16
HETATM   16  C7  UNL     1       2.757   0.205   1.319  1.00  0.00     0.203 C 
BRANCH  16  17
HETATM   17  C8  UNL     1       1.586  -0.249   0.597  1.00  0.00     0.139 C 
BRANCH  17  18
HETATM   18  C9  UNL     1       0.346   0.115   1.425  1.00  0.00     0.220 C 
HETATM   19  O2  UNL     1       0.442   0.745   2.484  1.00  0.00    -0.274 OA
HETATM   20  N9  UNL     1      -0.928  -0.282   0.966  1.00  0.00    -0.361 N 
ATOM     21  H9  UNL     1      -1.023  -0.803   0.094  1.00  0.00     0.162 HD
BRANCH  20  22
HETATM   22  C10 UNL     1      -2.087   0.056   1.739  1.00  0.00     0.132 C 
BRANCH  22  23
HETATM   23  C11 UNL     1      -3.388  -0.431   1.209  1.00  0.00     0.122 C 
BRANCH  23  24
HETATM   24  C12 UNL     1      -3.759   0.033  -0.127  1.00  0.00     0.221 C 
HETATM   25  O3  UNL     1      -2.965   0.752  -0.776  1.00  0.00    -0.273 OA
HETATM   26  N10 UNL     1      -4.998  -0.318  -0.693  1.00  0.00    -0.352 N 
HETATM   27  C13 UNL     1      -5.853  -1.133   0.145  1.00  0.00     0.125 C 
HETATM   28  C18 UNL     1      -5.229   0.178  -2.027  1.00  0.00     0.125 C 
HETATM   29  C14 UNL     1      -7.238  -1.319  -0.404  1.00  0.00     0.020 C 
HETATM   30  C15 UNL     1      -7.926  -0.011  -0.685  1.00  0.00     0.002 C 
HETATM   31  C16 UNL     1      -7.659   0.356  -2.131  1.00  0.00     0.002 C 
HETATM   32  C17 UNL     1      -6.369   1.141  -2.136  1.00  0.00     0.020 C 
ENDBRANCH  23  24
ENDBRANCH  22  23
ENDBRANCH  20  22
ENDBRANCH  17  18
ENDBRANCH  16  17
BRANCH  16  33
HETATM   33  C19 UNL     1       2.687   1.710   1.541  1.00  0.00     0.197 C 
HETATM   34  O4  UNL     1       2.723   2.228   2.677  1.00  0.00    -0.646 OA
HETATM   35  O5  UNL     1       2.586   2.535   0.451  1.00  0.00    -0.646 OA
ENDBRANCH  16  33
ENDBRANCH  15  16
BRANCH  14  36
HETATM   36  C6  UNL     1       4.206  -0.565  -1.542  1.00  0.00     0.302 C 
HETATM   37  O1  UNL     1       3.052  -0.705  -1.863  1.00  0.00    -0.263 OA
HETATM   38  N5  UNL     1       5.156  -0.625  -2.637  1.00  0.00    -0.247 N 
ATOM     39  H5  UNL     1       6.153  -0.518  -2.448  1.00  0.00     0.187 HD
BRANCH  38  40
HETATM   40  N6  UNL     1       4.723  -0.825  -3.931  1.00  0.00    -0.027 NA
BRANCH  40  41
HETATM   41  N7  UNL     1       5.845  -1.079  -4.724  1.00  0.00    -0.329 N 
ATOM     42  H72 UNL     1       6.808  -1.108  -4.390  1.00  0.00     0.174 HD
ATOM     43  H71 UNL     1       5.525  -1.227  -5.681  1.00  0.00     0.174 HD
ENDBRANCH  40  41
ENDBRANCH  38  40
ENDBRANCH  14  36
TORSDOF 10
