REMARK  11 active torsions:
REMARK  status: ('A' for Active; 'I' for Inactive)
REMARK    1  A    between atoms: N1_2  and  N2_5 
REMARK    2  A    between atoms: N2_5  and  N4_10 
REMARK    3  A    between atoms: N3_6  and  O2_8 
REMARK    4  A    between atoms: C3_11  and  C4_12 
REMARK    5  A    between atoms: C5_16  and  N6_17 
REMARK       I    between atoms: N6_17  and  C6_19 
REMARK    6  A    between atoms: C6_19  and  C7_21 
REMARK    7  A    between atoms: C7_21  and  N7_22 
REMARK    8  A    between atoms: C7_21  and  C8_26 
REMARK    9  A    between atoms: C8_26  and  C9_27 
REMARK   10  A    between atoms: C9_27  and  C10_28 
REMARK   11  A    between atoms: C10_28  and  N8_29 
REMARK       I    between atoms: N8_29  and  C11_31 
ROOT
HETATM    1  N4  UNL     1      -3.043   0.073  -1.004  1.00  0.00    -0.114 N 
HETATM    2  C3  UNL     1      -1.686   0.490  -1.093  1.00  0.00     0.128 C 
HETATM    3  N5  UNL     1      -0.604  -0.239  -1.037  1.00  0.00    -0.352 N 
ATOM      4  H5  UNL     1       0.257   0.300  -1.128  1.00  0.00     0.163 HD
HETATM    5  C5  UNL     1      -0.387  -1.633  -0.875  1.00  0.00     0.209 C 
HETATM    6  C12 UNL     1      -1.101  -2.419  -1.917  1.00  0.00     0.033 C 
HETATM    7  C13 UNL     1      -2.383  -2.434  -2.220  1.00  0.00     0.133 C 
HETATM    8  S2  UNL     1      -3.658  -1.510  -1.470  1.00  0.00     0.276 S 
HETATM    9  O4  UNL     1      -4.843  -1.366  -2.390  1.00  0.00    -0.199 OA
HETATM   10  O5  UNL     1      -4.017  -2.215  -0.196  1.00  0.00    -0.199 OA
ENDROOT
BRANCH   5  11
HETATM   11  N6  UNL     1       1.033  -1.919  -0.923  1.00  0.00    -0.335 N 
HETATM   12  C6  UNL     1       1.729  -2.432   0.206  1.00  0.00     0.250 C 
HETATM   13  O3  UNL     1       1.096  -2.645   1.282  1.00  0.00    -0.271 OA
ATOM     14  H6  UNL     1       1.546  -1.748  -1.788  1.00  0.00     0.164 HD
BRANCH  12  15
HETATM   15  C7  UNL     1       3.173  -2.733   0.189  1.00  0.00     0.274 C 
BRANCH  15  16
HETATM   16  N7  UNL     1       3.624  -3.223   1.477  1.00  0.00    -0.067 N 
ATOM     17  H73 UNL     1       3.385  -2.576   2.228  1.00  0.00     0.275 HD
ATOM     18  H72 UNL     1       3.077  -4.028   1.784  1.00  0.00     0.275 HD
ATOM     19  H71 UNL     1       4.622  -3.431   1.465  1.00  0.00     0.275 HD
ENDBRANCH  15  16
BRANCH  15  20
HETATM   20  C8  UNL     1       4.017  -1.561  -0.193  1.00  0.00     0.044 C 
BRANCH  20  21
HETATM   21  C9  UNL     1       3.887  -0.379   0.714  1.00  0.00     0.022 C 
BRANCH  21  22
HETATM   22  C10 UNL     1       4.822   0.700   0.153  1.00  0.00     0.122 C 
BRANCH  22  23
HETATM   23  N8  UNL     1       4.797   1.902   0.933  1.00  0.00    -0.365 N 
HETATM   24  C11 UNL     1       5.330   1.918   2.257  1.00  0.00     0.181 C 
HETATM   25  N9  UNL     1       6.592   1.814   2.482  1.00  0.00    -0.374 N 
HETATM   26  N10 UNL     1       4.437   2.053   3.338  1.00  0.00    -0.064 NA
ATOM     27  H92 UNL     1       7.239   1.716   1.699  1.00  0.00     0.158 HD
ATOM     28  H91 UNL     1       6.973   1.825   3.428  1.00  0.00     0.158 HD
ATOM     29  H8  UNL     1       4.395   2.753   0.539  1.00  0.00     0.162 HD
ENDBRANCH  22  23
ENDBRANCH  21  22
ENDBRANCH  20  21
ENDBRANCH  15  20
ENDBRANCH  12  15
ENDBRANCH   5  11
BRANCH   2  30
HETATM   30  C4  UNL     1      -1.436   1.938  -1.258  1.00  0.00     0.165 C 
HETATM   31  S1  UNL     1      -1.184   2.836   0.270  1.00  0.00    -0.090 SA
ENDBRANCH   2  30
BRANCH   1  32
HETATM   32  N2  UNL     1      -4.022   0.945  -0.536  1.00  0.00     0.045 N 
HETATM   33  N3  UNL     1      -4.506   1.753  -1.369  1.00  0.00    -0.160 N 
ATOM     34  H3  UNL     1      -4.111   1.701  -2.308  1.00  0.00     0.220 HD
BRANCH  32  35
HETATM   35  N1  UNL     1      -4.502   0.947   0.773  1.00  0.00     0.136 N 
HETATM   36  C1  UNL     1      -4.873   2.253   1.272  1.00  0.00     0.393 C 
HETATM   37  C2  UNL     1      -5.722   0.130   0.899  1.00  0.00     0.393 C 
HETATM   38  O1  UNL     1      -3.585   0.406   1.631  1.00  0.00    -0.040 OA
ENDBRANCH  32  35
BRANCH  33  39
HETATM   39  O2  UNL     1      -5.468   2.674  -1.201  1.00  0.00    -0.271 OA
ATOM     40  H2  UNL     1      -5.834   3.284  -1.830  1.00  0.00     0.246 HD
ENDBRANCH  33  39
ENDBRANCH   1  32
TORSDOF 11
