REMARK  3 active torsions:
REMARK  status: ('A' for Active; 'I' for Inactive)
REMARK    1  A    between atoms: C2_2  and  C3_3 
REMARK    2  A    between atoms: C5_9  and  C6_10 
REMARK    3  A    between atoms: C6_10  and  N3_11 
ROOT
HETATM    1  C3  UNL     1       0.856   0.128  -0.144  1.00  0.00     0.006 A 
HETATM    2  C4  UNL     1       1.515   1.319   0.070  1.00  0.00     0.120 A 
HETATM    3  N1  UNL     1       0.582   2.273   0.077  1.00  0.00    -0.311 N 
ATOM      4  H1  UNL     1       0.783   3.263   0.216  1.00  0.00     0.186 HD
HETATM    5  N2  UNL     1      -0.628   1.789  -0.116  1.00  0.00    -0.303 N 
ATOM      6  H2  UNL     1      -1.500   2.317  -0.152  1.00  0.00     0.186 HD
HETATM    7  C5  UNL     1      -0.485   0.462  -0.256  1.00  0.00     0.062 A 
ENDROOT
BRANCH   7   8
HETATM    8  C6  UNL     1      -1.611  -0.478  -0.493  1.00  0.00     0.288 C 
BRANCH   8   9
HETATM    9  N3  UNL     1      -2.858   0.221  -0.552  1.00  0.00    -0.074 N 
ATOM     10  H33 UNL     1      -3.011   0.789   0.281  1.00  0.00     0.274 HD
ATOM     11  H32 UNL     1      -2.838   0.968  -1.247  1.00  0.00     0.274 HD
ATOM     12  H31 UNL     1      -3.631  -0.424  -0.715  1.00  0.00     0.274 HD
ENDBRANCH   8   9
ENDBRANCH   7   8
BRANCH   1  13
HETATM   13  C2  UNL     1       1.402  -1.206  -0.238  1.00  0.00     0.004 C 
HETATM   14  C1  UNL     1       2.704  -1.421  -0.116  1.00  0.00     0.012 C 
ENDBRANCH   1  13
TORSDOF 3
