REMARK  2 active torsions:
REMARK  status: ('A' for Active; 'I' for Inactive)
REMARK    1  A    between atoms: N1_2  and  C2_4 
REMARK    2  A    between atoms: C2_4  and  C4_6 
ROOT
HETATM    1  C4  UNL     1       0.739  -0.632  -0.245  1.00  0.00     0.059 C 
HETATM    2  C5  UNL     1       1.445  -0.570   1.065  1.00  0.00     0.240 C 
HETATM    3  N2  UNL     1       1.953   0.759   0.645  1.00  0.00    -0.074 N 
ATOM      4  H21 UNL     1       2.804   1.165   1.033  1.00  0.00     0.277 HD
ATOM      5  H22 UNL     1       1.482   1.628   0.897  1.00  0.00     0.277 HD
HETATM    6  C6  UNL     1       1.898   0.206  -0.699  1.00  0.00     0.240 C 
ENDROOT
BRANCH   1   7
HETATM    7  C2  UNL     1      -0.556   0.085  -0.426  1.00  0.00     0.079 C 
HETATM    8  C3  UNL     1      -0.952  -0.048  -1.880  1.00  0.00     0.032 C 
BRANCH   7   9
HETATM    9  N1  UNL     1      -1.637  -0.330   0.394  1.00  0.00    -0.421 N 
HETATM   10  C1  UNL     1      -1.952   0.367   1.575  1.00  0.00     0.140 C 
ATOM     11  H1  UNL     1      -2.192  -1.142   0.124  1.00  0.00     0.153 HD
ENDBRANCH   7   9
ENDBRANCH   1   7
TORSDOF 2
