REMARK  3 active torsions:
REMARK  status: ('A' for Active; 'I' for Inactive)
REMARK    1  A    between atoms: C2_2  and  N1_3 
REMARK    2  A    between atoms: C2_2  and  C3_7 
REMARK    3  A    between atoms: N1_3  and  N2_4 
ROOT
HETATM    1  C1  UNL     1       1.444  -1.312   0.413  1.00  0.00     0.030 C 
HETATM    2  C2  UNL     1       0.742  -0.318  -0.476  1.00  0.00     0.098 C 
ENDROOT
BRANCH   2   3
HETATM    3  N1  UNL     1       1.092   1.023  -0.065  1.00  0.00    -0.143 NA
BRANCH   3   4
HETATM    4  N2  UNL     1       2.457   1.218  -0.160  1.00  0.00    -0.348 N 
ATOM      5  H22 UNL     1       3.113   0.505  -0.478  1.00  0.00     0.172 HD
ATOM      6  H21 UNL     1       2.704   2.164   0.130  1.00  0.00     0.172 HD
ENDBRANCH   3   4
ENDBRANCH   2   3
BRANCH   2   7
HETATM    7  C3  UNL     1      -0.727  -0.582  -0.416  1.00  0.00     0.006 C 
HETATM    8  C4  UNL     1      -1.373  -0.474   0.930  1.00  0.00     0.006 C 
HETATM    9  C5  UNL     1      -2.090   0.780   0.455  1.00  0.00     0.001 C 
HETATM   10  C6  UNL     1      -1.634   0.465  -0.972  1.00  0.00     0.006 C 
ENDBRANCH   2   7
TORSDOF 3
