REMARK  4 active torsions:
REMARK  status: ('A' for Active; 'I' for Inactive)
REMARK    1  A    between atoms: C2_2  and  C3_3 
REMARK    2  A    between atoms: C4_6  and  C5_7 
REMARK    3  A    between atoms: C5_7  and  O1_8 
REMARK    4  A    between atoms: C5_7  and  C6_10 
ROOT
HETATM    1  C6  UNL     1       2.149  -1.603   0.189  1.00  0.00     0.028 C 
HETATM    2  C7  UNL     1       2.090  -2.894  -0.650  1.00  0.00     0.086 C 
HETATM    3  C8  UNL     1       0.675  -2.938  -1.195  1.00  0.00     0.136 C 
HETATM    4  O2  UNL     1       0.350  -3.537  -2.192  1.00  0.00    -0.297 OA
HETATM    5  C9  UNL     1      -0.068  -2.130  -0.250  1.00  0.00     0.025 C 
HETATM    6  C10 UNL     1      -0.182  -2.792   1.097  1.00  0.00     0.024 C 
HETATM    7  C11 UNL     1       0.915  -0.932  -0.175  1.00  0.00     0.009 C 
HETATM    8  C12 UNL     1       0.215  -0.036   0.742  1.00  0.00     0.011 C 
HETATM    9  C13 UNL     1      -1.248  -0.340   0.482  1.00  0.00    -0.004 C 
HETATM   10  C14 UNL     1      -1.237  -1.370  -0.671  1.00  0.00     0.006 C 
HETATM   11  C15 UNL     1      -2.562  -2.009  -0.671  1.00  0.00     0.007 C 
HETATM   12  C16 UNL     1      -3.565  -0.909  -1.054  1.00  0.00     0.011 C 
HETATM   13  C17 UNL     1      -3.474   0.288  -0.177  1.00  0.00    -0.022 C 
HETATM   14  C18 UNL     1      -4.243   0.088   1.102  1.00  0.00     0.012 C 
HETATM   15  C19 UNL     1      -5.450   0.715   0.392  1.00  0.00     0.018 C 
HETATM   16  C20 UNL     1      -4.439   1.341  -0.573  1.00  0.00     0.025 C 
HETATM   17  C21 UNL     1      -4.907   1.277  -2.025  1.00  0.00     0.024 C 
HETATM   18  C22 UNL     1      -4.033   2.704  -0.223  1.00  0.00     0.136 C 
HETATM   19  O3  UNL     1      -4.550   3.653  -0.824  1.00  0.00    -0.297 OA
HETATM   20  C23 UNL     1      -3.035   2.974   0.815  1.00  0.00     0.079 C 
HETATM   21  C24 UNL     1      -2.023   1.901   1.012  1.00  0.00     0.013 C 
HETATM   22  C25 UNL     1      -2.054   0.805   0.005  1.00  0.00    -0.000 C 
ENDROOT
BRANCH   1  23
HETATM   23  C5  UNL     1       3.425  -0.910  -0.227  1.00  0.00     0.145 C 
BRANCH  23  24
HETATM   24  C4  UNL     1       3.651   0.387   0.500  1.00  0.00     0.145 C 
HETATM   25  C3  UNL     1       5.150   0.685   0.591  1.00  0.00     0.118 C 
HETATM   26  N1  UNL     1       4.797   1.242   1.865  1.00  0.00    -0.141 NA
HETATM   27  N2  UNL     1       3.745   0.305   1.923  1.00  0.00    -0.139 NA
BRANCH  25  28
HETATM   28  C2  UNL     1       5.641   1.652  -0.452  1.00  0.00     0.020 C 
HETATM   29  C1  UNL     1       6.869   2.398  -0.057  1.00  0.00     0.007 C 
ENDBRANCH  25  28
ENDBRANCH  23  24
BRANCH  23  30
HETATM   30  O1  UNL     1       4.471  -1.795   0.029  1.00  0.00    -0.393 OA
ATOM     31  H1  UNL     1       4.328  -2.614  -0.430  1.00  0.00     0.210 HD
ENDBRANCH  23  30
ENDBRANCH   1  23
TORSDOF 4
