REMARK  6 active torsions:
REMARK  status: ('A' for Active; 'I' for Inactive)
REMARK    1  A    between atoms: C4_4  and  O1_5 
REMARK    2  A    between atoms: C14_16  and  C15_17 
REMARK    3  A    between atoms: C15_17  and  N1_18 
REMARK    4  A    between atoms: C22_29  and  O3_30 
REMARK    5  A    between atoms: C24_33  and  C25_34 
REMARK    6  A    between atoms: C25_34  and  O4_35 
ROOT
HETATM    1  C1  UNL     1      -4.167   1.840  -0.825  1.00  0.00     0.018 C 
HETATM    2  C2  UNL     1      -3.947   0.604   0.050  1.00  0.00    -0.017 C 
HETATM    3  C3  UNL     1      -5.021   0.691   1.128  1.00  0.00     0.018 C 
HETATM    4  C4  UNL     1      -4.109  -0.595  -0.825  1.00  0.00     0.127 C 
HETATM    5  C5  UNL     1      -2.818  -1.368  -0.822  1.00  0.00     0.042 C 
HETATM    6  C6  UNL     1      -1.958  -0.768   0.289  1.00  0.00    -0.033 C 
HETATM    7  C7  UNL     1      -2.360  -1.664   1.484  1.00  0.00     0.016 C 
HETATM    8  C8  UNL     1      -2.545   0.572   0.625  1.00  0.00     0.004 C 
HETATM    9  C9  UNL     1      -1.748   1.766   0.269  1.00  0.00     0.007 C 
HETATM   10  C10 UNL     1      -0.251   1.544   0.363  1.00  0.00     0.011 C 
HETATM   11  C11 UNL     1       0.201   0.376  -0.467  1.00  0.00    -0.030 C 
HETATM   12  C12 UNL     1      -0.302   0.618  -1.860  1.00  0.00     0.016 C 
HETATM   13  C13 UNL     1      -0.508  -0.861   0.072  1.00  0.00     0.009 C 
HETATM   14  C14 UNL     1       0.349  -1.238   1.214  1.00  0.00     0.017 C 
HETATM   15  C16 UNL     1       1.747  -0.723   0.864  1.00  0.00     0.018 C 
HETATM   16  C17 UNL     1       1.642   0.150  -0.327  1.00  0.00    -0.015 C 
HETATM   17  C18 UNL     1       2.482   1.409  -0.155  1.00  0.00     0.009 C 
HETATM   18  C19 UNL     1       2.508   1.997  -1.579  1.00  0.00     0.084 C 
HETATM   19  C20 UNL     1       2.412   0.830  -2.430  1.00  0.00     0.134 C 
HETATM   20  O2  UNL     1       2.403   0.806  -3.656  1.00  0.00    -0.297 OA
HETATM   21  C21 UNL     1       2.324  -0.381  -1.561  1.00  0.00     0.093 C 
HETATM   22  C22 UNL     1       3.731  -0.832  -1.351  1.00  0.00     0.130 C 
HETATM   23  C23 UNL     1       4.483  -0.150  -0.280  1.00  0.00     0.039 C 
HETATM   24  C24 UNL     1       3.912   1.156   0.189  1.00  0.00     0.017 C 
ENDROOT
BRANCH  14  25
HETATM   25  C15 UNL     1       0.489  -2.655   1.600  1.00  0.00     0.234 C 
BRANCH  25  26
HETATM   26  N1  UNL     1       1.015  -3.523   0.563  1.00  0.00    -0.079 N 
ATOM     27  H13 UNL     1       0.451  -3.442  -0.283  1.00  0.00     0.274 HD
ATOM     28  H12 UNL     1       1.905  -3.162   0.219  1.00  0.00     0.274 HD
ATOM     29  H11 UNL     1       1.112  -4.503   0.830  1.00  0.00     0.274 HD
ENDBRANCH  25  26
ENDBRANCH  14  25
BRANCH  24  30
HETATM   30  C25 UNL     1       4.342   1.547   1.581  1.00  0.00     0.169 C 
BRANCH  30  31
HETATM   31  O4  UNL     1       4.129   2.918   1.762  1.00  0.00    -0.400 OA
ATOM     32  H4  UNL     1       4.400   3.164   2.639  1.00  0.00     0.209 HD
ENDBRANCH  30  31
ENDBRANCH  24  30
BRANCH  22  33
HETATM   33  O3  UNL     1       3.759  -2.217  -1.205  1.00  0.00    -0.395 OA
ATOM     34  H3  UNL     1       4.655  -2.504  -1.071  1.00  0.00     0.210 HD
ENDBRANCH  22  33
BRANCH   4  35
HETATM   35  O1  UNL     1      -5.210  -1.349  -0.437  1.00  0.00    -0.395 OA
ATOM     36  H1  UNL     1      -5.313  -2.112  -0.994  1.00  0.00     0.210 HD
ENDBRANCH   4  35
TORSDOF 6
