REMARK  8 active torsions:
REMARK  status: ('A' for Active; 'I' for Inactive)
REMARK    1  A    between atoms: N1_1  and  C1_4 
REMARK    2  A    between atoms: C3_9  and  C4_10 
REMARK    3  A    between atoms: C5_13  and  N5_14 
REMARK    4  A    between atoms: N5_14  and  C6_16 
REMARK    5  A    between atoms: C6_16  and  C7_17 
REMARK    6  A    between atoms: C7_17  and  O2_18 
REMARK    7  A    between atoms: C7_17  and  N6_20 
REMARK    8  A    between atoms: C9_25  and  C10_26 
ROOT
HETATM    1  N5  UNL     1      -1.569  -0.007  -0.113  1.00  0.00    -0.371 N 
ATOM      2  H5  UNL     1      -1.405   0.963   0.157  1.00  0.00     0.161 HD
ENDROOT
BRANCH   1   3
HETATM    3  C5  UNL     1      -2.763  -0.491  -0.001  1.00  0.00     0.136 A 
HETATM    4  C3  UNL     1      -3.768   0.330   0.482  1.00  0.00     0.115 A 
HETATM    5  C2  UNL     1      -5.066  -0.130   0.625  1.00  0.00     0.150 A 
HETATM    6  N2  UNL     1      -5.310  -1.413   0.275  1.00  0.00    -0.178 N 
HETATM    7  N3  UNL     1      -6.078   0.736   1.123  1.00  0.00    -0.081 NA
HETATM    8  C1  UNL     1      -4.352  -2.224  -0.194  1.00  0.00     0.678 A 
ATOM      9  H2  UNL     1      -6.258  -1.777   0.372  1.00  0.00     0.185 HD
HETATM   10  N10 UNL     1      -3.084  -1.754  -0.327  1.00  0.00    -0.176 N 
ATOM     11  H10 UNL     1      -2.358  -2.376  -0.683  1.00  0.00     0.186 HD
BRANCH   4  12
HETATM   12  C4  UNL     1      -3.491   1.708   0.855  1.00  0.00     0.272 C 
HETATM   13  N4  UNL     1      -2.184   2.252   0.736  1.00  0.00    -0.057 NA
HETATM   14  O1  UNL     1      -4.382   2.463   1.291  1.00  0.00    -0.271 OA
ENDBRANCH   4  12
BRANCH   8  15
HETATM   15  N1  UNL     1      -4.617  -3.425  -0.513  1.00  0.00    -0.234 N 
ATOM     16  H12 UNL     1      -5.569  -3.778  -0.413  1.00  0.00     0.174 HD
ATOM     17  H11 UNL     1      -3.888  -4.042  -0.870  1.00  0.00     0.174 HD
ENDBRANCH   8  15
ENDBRANCH   1   3
BRANCH   1  18
HETATM   18  C6  UNL     1      -0.455  -0.792  -0.608  1.00  0.00     0.174 C 
BRANCH  18  19
HETATM   19  C7  UNL     1       0.822  -0.083  -0.294  1.00  0.00     0.238 C 
BRANCH  19  20
HETATM   20  O2  UNL     1       0.905   0.060   1.111  1.00  0.00    -0.375 OA
ATOM     21  H2  UNL     1       1.717   0.511   1.311  1.00  0.00     0.212 HD
ENDBRANCH  19  20
BRANCH  19  22
HETATM   22  N6  UNL     1       1.987  -0.793  -0.777  1.00  0.00    -0.334 N 
HETATM   23  C8  UNL     1       3.177  -0.312  -0.584  1.00  0.00     0.178 A 
HETATM   24  N7  UNL     1       4.419  -0.867  -0.983  1.00  0.00    -0.326 N 
HETATM   25  N9  UNL     1       3.440   0.903   0.091  1.00  0.00    -0.356 N 
HETATM   26  C9  UNL     1       5.393  -0.089  -0.607  1.00  0.00     0.095 A 
ATOM     27  H7  UNL     1       4.533  -1.745  -1.489  1.00  0.00     0.169 HD
HETATM   28  C11 UNL     1       4.861   1.091   0.102  1.00  0.00     0.185 A 
ATOM     29  H9  UNL     1       2.745   1.531   0.496  1.00  0.00     0.162 HD
ATOM     30  H6  UNL     1       1.872  -1.677  -1.272  1.00  0.00     0.165 HD
BRANCH  26  31
HETATM   31  C10 UNL     1       6.819  -0.311  -0.829  1.00  0.00     0.279 C 
HETATM   32  N8  UNL     1       7.756   0.616  -0.365  1.00  0.00    -0.056 NA
HETATM   33  O3  UNL     1       7.205  -1.331  -1.436  1.00  0.00    -0.270 OA
ENDBRANCH  26  31
ENDBRANCH  19  22
ENDBRANCH  18  19
ENDBRANCH   1  18
TORSDOF 8
