REMARK  6 active torsions:
REMARK  status: ('A' for Active; 'I' for Inactive)
REMARK    1  A    between atoms: C2_9  and  C3_10 
REMARK    2  A    between atoms: C3_10  and  O1_14 
REMARK    3  A    between atoms: C5_17  and  O2_18 
REMARK    4  A    between atoms: O2_18  and  C6_19 
REMARK    5  A    between atoms: C7_20  and  C8_21 
REMARK    6  A    between atoms: C9_26  and  N7_27 
ROOT
HETATM    1  N1  UNL     1      -4.861  -1.885  -2.286  1.00  0.00    -0.381 N 
ATOM      2  H11 UNL     1      -4.447  -2.767  -2.588  1.00  0.00     0.157 HD
ATOM      3  H12 UNL     1      -5.864  -1.787  -2.445  1.00  0.00     0.157 HD
HETATM    4  C1  UNL     1      -4.136  -0.948  -1.732  1.00  0.00     0.165 A 
HETATM    5  N2  UNL     1      -4.714   0.282  -1.311  1.00  0.00    -0.282 N 
ATOM      6  H2  UNL     1      -5.714   0.426  -1.448  1.00  0.00     0.188 HD
HETATM    7  N3  UNL     1      -3.982   1.275  -0.731  1.00  0.00    -0.294 N 
ATOM      8  H3  UNL     1      -4.483   2.122  -0.462  1.00  0.00     0.187 HD
HETATM    9  C2  UNL     1      -2.669   1.242  -0.482  1.00  0.00     0.114 A 
HETATM   10  C4  UNL     1      -1.965   0.046  -0.862  1.00  0.00     0.073 A 
HETATM   11  C5  UNL     1      -0.705  -0.155  -0.697  1.00  0.00     0.161 C 
HETATM   12  C11 UNL     1      -2.723  -1.086  -1.508  1.00  0.00     0.231 A 
HETATM   13  O5  UNL     1      -2.135  -2.147  -1.853  1.00  0.00    -0.283 OA
ENDROOT
BRANCH   9  14
HETATM   14  C3  UNL     1      -2.148   2.434   0.143  1.00  0.00     0.163 C 
HETATM   15  N4  UNL     1      -0.902   2.800   0.553  1.00  0.00    -0.378 N 
ATOM     16  H42 UNL     1      -0.218   2.066   0.370  1.00  0.00     0.158 HD
ATOM     17  H41 UNL     1      -0.534   3.642   0.995  1.00  0.00     0.158 HD
BRANCH  14  18
HETATM   18  O1  UNL     1      -3.034   3.385   0.380  1.00  0.00    -0.345 OA
ATOM     19  H1  UNL     1      -2.691   4.170   0.791  1.00  0.00     0.219 HD
ENDBRANCH  14  18
ENDBRANCH   9  14
BRANCH  11  20
HETATM   20  O2  UNL     1       0.297   0.575  -0.177  1.00  0.00    -0.314 OA
BRANCH  20  21
HETATM   21  C6  UNL     1       1.619   0.193  -0.077  1.00  0.00     0.175 A 
HETATM   22  C7  UNL     1       2.081  -0.436   1.037  1.00  0.00     0.153 A 
HETATM   23  N6  UNL     1       3.403  -0.781   1.052  1.00  0.00    -0.184 N 
HETATM   24  C9  UNL     1       4.244  -0.535   0.046  1.00  0.00     0.679 A 
ATOM     25  H6  UNL     1       3.768  -1.253   1.879  1.00  0.00     0.184 HD
HETATM   26  N8  UNL     1       3.779   0.087  -1.048  1.00  0.00    -0.154 N 
HETATM   27  C10 UNL     1       2.466   0.456  -1.121  1.00  0.00     0.296 A 
ATOM     28  H8  UNL     1       4.407   0.285  -1.827  1.00  0.00     0.187 HD
HETATM   29  O4  UNL     1       2.093   1.039  -2.183  1.00  0.00    -0.264 OA
BRANCH  22  30
HETATM   30  C8  UNL     1       1.271  -0.749   2.209  1.00  0.00     0.285 C 
HETATM   31  N5  UNL     1       1.812  -1.433   3.312  1.00  0.00    -0.056 NA
HETATM   32  O3  UNL     1       0.074  -0.402   2.231  1.00  0.00    -0.269 OA
ENDBRANCH  22  30
BRANCH  24  33
HETATM   33  N7  UNL     1       5.506  -0.885   0.107  1.00  0.00    -0.234 N 
ATOM     34  H72 UNL     1       5.860  -1.358   0.939  1.00  0.00     0.174 HD
ATOM     35  H71 UNL     1       6.149  -0.697  -0.662  1.00  0.00     0.174 HD
ENDBRANCH  24  33
ENDBRANCH  20  21
ENDBRANCH  11  20
TORSDOF 6
