REMARK  7 active torsions:
REMARK  status: ('A' for Active; 'I' for Inactive)
REMARK    1  A    between atoms: N1_2  and  C2_4 
REMARK    2  A    between atoms: C5_11  and  N4_12 
REMARK    3  A    between atoms: N4_12  and  C6_14 
REMARK    4  A    between atoms: C6_14  and  N5_15 
REMARK    5  A    between atoms: C6_14  and  C8_18 
REMARK    6  A    between atoms: N5_15  and  O1_16 
REMARK       I    between atoms: C8_18  and  N6_20 
REMARK       I    between atoms: N6_20  and  C9_22 
REMARK    7  A    between atoms: C10_27  and  N9_28 
ROOT
HETATM    1  C2  UNL     1       3.434  -0.376  -0.637  1.00  0.00     0.132 A 
HETATM    2  N2  UNL     1       3.889  -0.805   0.559  1.00  0.00    -0.337 N 
ATOM      3  H2  UNL     1       4.866  -1.083   0.655  1.00  0.00     0.168 HD
HETATM    4  C3  UNL     1       3.070  -0.871   1.628  1.00  0.00     0.182 A 
HETATM    5  N3  UNL     1       1.773  -0.496   1.476  1.00  0.00    -0.347 N 
ATOM      6  H3  UNL     1       1.148  -0.543   2.281  1.00  0.00     0.167 HD
HETATM    7  C4  UNL     1       1.290  -0.067   0.306  1.00  0.00     0.109 A 
HETATM    8  C5  UNL     1      -0.055   0.320   0.152  1.00  0.00     0.148 A 
HETATM    9  N8  UNL     1      -0.507   0.748  -1.043  1.00  0.00    -0.175 N 
ATOM     10  H8  UNL     1      -1.483   1.027  -1.146  1.00  0.00     0.186 HD
HETATM   11  C10 UNL     1       0.328   0.809  -2.107  1.00  0.00     0.678 A 
HETATM   12  N10 UNL     1       1.614   0.441  -1.971  1.00  0.00    -0.186 N 
ATOM     13  H10 UNL     1       2.234   0.490  -2.779  1.00  0.00     0.184 HD
HETATM   14  C11 UNL     1       2.102   0.010  -0.795  1.00  0.00     0.123 A 
ENDROOT
BRANCH   8  15
HETATM   15  N4  UNL     1      -0.749   0.226   1.204  1.00  0.00    -0.346 N 
ATOM     16  H4  UNL     1      -0.243  -0.117   2.021  1.00  0.00     0.163 HD
BRANCH  15  17
HETATM   17  C6  UNL     1      -2.127   0.522   1.435  1.00  0.00     0.298 C 
BRANCH  17  18
HETATM   18  N5  UNL     1      -2.527   1.852   1.030  1.00  0.00    -0.066 NA
BRANCH  18  19
HETATM   19  O1  UNL     1      -1.836   2.789   1.689  1.00  0.00    -0.289 OA
HETATM   20  C7  UNL     1      -2.188   4.057   1.263  1.00  0.00     0.231 C 
ENDBRANCH  18  19
ENDBRANCH  17  18
BRANCH  17  21
HETATM   21  C8  UNL     1      -2.997  -0.477   0.711  1.00  0.00     0.266 C 
HETATM   22  O2  UNL     1      -3.897  -0.094  -0.067  1.00  0.00    -0.269 OA
HETATM   23  N6  UNL     1      -2.804  -1.866   0.904  1.00  0.00    -0.279 N 
HETATM   24  C9  UNL     1      -3.636  -2.782   0.210  1.00  0.00     0.335 C 
ATOM     25  H6  UNL     1      -2.076  -2.204   1.534  1.00  0.00     0.173 HD
HETATM   26  N7  UNL     1      -3.456  -4.179   0.392  1.00  0.00    -0.040 NA
HETATM   27  O3  UNL     1      -4.530  -2.340  -0.564  1.00  0.00    -0.251 OA
ENDBRANCH  17  21
ENDBRANCH  15  17
ENDBRANCH   8  15
BRANCH  11  28
HETATM   28  N9  UNL     1      -0.121   1.224  -3.255  1.00  0.00    -0.234 N 
ATOM     29  H92 UNL     1      -1.097   1.503  -3.358  1.00  0.00     0.174 HD
ATOM     30  H91 UNL     1       0.508   1.270  -4.057  1.00  0.00     0.174 HD
ENDBRANCH  11  28
BRANCH   1  31
HETATM   31  N1  UNL     1       4.177  -0.295  -1.688  1.00  0.00    -0.379 N 
HETATM   32  C1  UNL     1       5.566  -0.684  -1.570  1.00  0.00     0.147 C 
ATOM     33  H1  UNL     1       3.797   0.033  -2.576  1.00  0.00     0.160 HD
ENDBRANCH   1  31
TORSDOF 7
