REMARK  5 active torsions:
REMARK  status: ('A' for Active; 'I' for Inactive)
REMARK    1  A    between atoms: C2_2  and  O1_3 
REMARK    2  A    between atoms: O1_3  and  C3_4 
REMARK    3  A    between atoms: C10_11  and  O2_12 
REMARK    4  A    between atoms: O2_12  and  C11_13 
REMARK    5  A    between atoms: C19_22  and  O4_23 
ROOT
HETATM    1  C3  UNL     1      -2.126  -0.076   0.275  1.00  0.00     0.137 C 
HETATM    2  C4  UNL     1      -1.421  -1.289  -0.308  1.00  0.00     0.025 C 
HETATM    3  C5  UNL     1      -1.334  -1.111  -1.775  1.00  0.00     0.014 C 
HETATM    4  C6  UNL     1      -0.125  -1.430   0.402  1.00  0.00     0.005 C 
HETATM    5  C7  UNL     1       1.045  -1.910  -0.360  1.00  0.00    -0.075 C 
HETATM    6  C8  UNL     1       1.007  -3.307  -0.884  1.00  0.00     0.044 C 
HETATM    7  C9  UNL     1       2.146  -1.226  -0.630  1.00  0.00     0.009 C 
HETATM    8  C10 UNL     1       2.333   0.202  -0.160  1.00  0.00     0.160 C 
HETATM    9  C13 UNL     1       0.968   0.684   0.065  1.00  0.00     0.032 C 
HETATM   10  C14 UNL     1       0.758   2.094   0.528  1.00  0.00     0.013 C 
HETATM   11  C15 UNL     1      -0.790   2.063   0.563  1.00  0.00    -0.011 C 
HETATM   12  C16 UNL     1      -1.340   3.170   1.399  1.00  0.00     0.010 C 
HETATM   13  C17 UNL     1      -1.144   0.693   1.053  1.00  0.00     0.032 C 
HETATM   14  C18 UNL     1       0.122  -0.081   0.978  1.00  0.00     0.011 C 
HETATM   15  C19 UNL     1       0.581  -0.672   2.223  1.00  0.00     0.133 C 
HETATM   16  C20 UNL     1      -0.093  -1.982   1.780  1.00  0.00     0.025 C 
HETATM   17  C21 UNL     1      -1.351  -2.305   2.485  1.00  0.00     0.014 C 
ENDROOT
BRANCH   8  18
HETATM   18  O2  UNL     1       2.876   0.904  -1.288  1.00  0.00    -0.312 OA
BRANCH  18  19
HETATM   19  C11 UNL     1       4.103   1.538  -1.243  1.00  0.00     0.255 C 
HETATM   20  C12 UNL     1       4.687   2.271  -2.396  1.00  0.00     0.126 C 
HETATM   21  O3  UNL     1       4.727   1.460  -0.131  1.00  0.00    -0.266 OA
ENDBRANCH  18  19
ENDBRANCH   8  18
BRANCH  15  22
HETATM   22  O4  UNL     1       1.902  -0.753   2.534  1.00  0.00    -0.394 OA
ATOM     23  H4  UNL     1       2.202  -1.140   3.348  1.00  0.00     0.210 HD
ENDBRANCH  15  22
BRANCH   1  24
HETATM   24  O1  UNL     1      -2.894   0.640  -0.639  1.00  0.00    -0.358 OA
BRANCH  24  25
HETATM   25  C2  UNL     1      -3.966   0.127  -1.337  1.00  0.00     0.125 C 
HETATM   26  C1  UNL     1      -4.655   0.897  -2.144  1.00  0.00     0.037 C 
ENDBRANCH  24  25
ENDBRANCH   1  24
TORSDOF 5
