REMARK  4 active torsions:
REMARK  status: ('A' for Active; 'I' for Inactive)
REMARK    1  A    between atoms: C2_2  and  O2_4 
REMARK    2  A    between atoms: O2_4  and  C3_5 
REMARK    3  A    between atoms: C4_6  and  O3_7 
REMARK    4  A    between atoms: C20_24  and  C21_25 
ROOT
HETATM    1  C3  UNL     1       2.367   0.624  -0.404  1.00  0.00     0.169 C 
HETATM    2  C4  UNL     1       1.512   1.836  -0.333  1.00  0.00     0.148 C 
HETATM    3  C5  UNL     1       0.377   1.718  -1.283  1.00  0.00     0.040 C 
HETATM    4  C6  UNL     1      -0.450   0.484  -1.148  1.00  0.00     0.009 C 
HETATM    5  C7  UNL     1      -1.654   0.801  -0.332  1.00  0.00    -0.001 C 
HETATM    6  C8  UNL     1      -2.632   1.757  -0.945  1.00  0.00     0.006 C 
HETATM    7  C9  UNL     1      -3.865   1.556  -0.060  1.00  0.00     0.005 C 
HETATM    8  C10 UNL     1      -3.640   0.278   0.721  1.00  0.00    -0.010 C 
HETATM    9  C11 UNL     1      -3.325   0.476   2.147  1.00  0.00     0.011 C 
HETATM   10  C12 UNL     1      -2.557  -0.399  -0.085  1.00  0.00    -0.036 C 
HETATM   11  C13 UNL     1      -3.215  -0.884  -1.357  1.00  0.00     0.016 C 
HETATM   12  C14 UNL     1      -1.803  -1.455   0.643  1.00  0.00     0.015 C 
HETATM   13  C15 UNL     1      -0.374  -1.081   0.742  1.00  0.00     0.003 C 
HETATM   14  C16 UNL     1       0.572  -2.154   1.167  1.00  0.00     0.007 C 
HETATM   15  C17 UNL     1       1.905  -1.443   0.891  1.00  0.00     0.013 C 
HETATM   16  C18 UNL     1       1.685  -0.683  -0.428  1.00  0.00    -0.000 C 
HETATM   17  C19 UNL     1       2.409  -1.559  -1.472  1.00  0.00     0.019 C 
HETATM   18  C20 UNL     1       0.230  -0.711  -0.620  1.00  0.00     0.030 C 
ENDROOT
BRANCH   1  19
HETATM   19  O2  UNL     1       3.260   0.632   0.716  1.00  0.00    -0.313 OA
BRANCH  19  20
HETATM   20  C2  UNL     1       4.617   0.772   0.609  1.00  0.00     0.255 C 
HETATM   21  C1  UNL     1       5.542   0.780   1.777  1.00  0.00     0.126 C 
HETATM   22  O1  UNL     1       5.074   0.902  -0.579  1.00  0.00    -0.266 OA
ENDBRANCH  19  20
ENDBRANCH   1  19
BRANCH   2  23
HETATM   23  O3  UNL     1       1.143   2.204   0.960  1.00  0.00    -0.393 OA
ATOM     24  H3  UNL     1       0.596   2.979   1.005  1.00  0.00     0.210 HD
ENDBRANCH   2  23
BRANCH  18  25
HETATM   25  C21 UNL     1      -0.070  -1.908  -1.498  1.00  0.00     0.242 C 
HETATM   26  O4  UNL     1       0.104  -1.811  -2.715  1.00  0.00    -0.306 OA
ENDBRANCH  18  25
TORSDOF 4
