REMARK  3 active torsions:
REMARK  status: ('A' for Active; 'I' for Inactive)
REMARK    1  A    between atoms: O1_2  and  C2_3 
REMARK    2  A    between atoms: C19_21  and  O3_22 
REMARK    3  A    between atoms: C19_21  and  C20_24 
ROOT
HETATM    1  C2  UNL     1       3.004   0.359   0.228  1.00  0.00     0.127 C 
HETATM    2  C3  UNL     1       2.662   0.970  -1.105  1.00  0.00     0.037 C 
HETATM    3  C4  UNL     1       1.987  -0.036  -2.058  1.00  0.00    -0.011 C 
HETATM    4  C5  UNL     1       3.005  -0.774  -2.873  1.00  0.00     0.010 C 
HETATM    5  C6  UNL     1       1.138  -0.837  -1.197  1.00  0.00     0.006 A 
HETATM    6  C7  UNL     1      -0.264  -1.151  -1.122  1.00  0.00     0.002 A 
HETATM    7  C8  UNL     1      -0.814  -2.190  -0.221  1.00  0.00     0.007 C 
HETATM    8  C9  UNL     1      -2.269  -1.904   0.039  1.00  0.00     0.012 C 
HETATM    9  C10 UNL     1      -2.561  -0.846   1.021  1.00  0.00    -0.018 C 
HETATM   10  C11 UNL     1      -4.047  -0.563   0.995  1.00  0.00     0.018 C 
HETATM   11  C12 UNL     1      -2.273  -1.413   2.414  1.00  0.00     0.018 C 
HETATM   12  C13 UNL     1      -1.744   0.424   0.922  1.00  0.00     0.171 C 
HETATM   13  O2  UNL     1      -0.521   0.168   1.466  1.00  0.00    -0.375 OA
HETATM   14  C14 UNL     1       0.533   0.519   0.674  1.00  0.00     0.137 C 
HETATM   15  C15 UNL     1       1.899   0.303   1.228  1.00  0.00     0.040 C 
HETATM   16  C16 UNL     1       2.064  -0.923   2.103  1.00  0.00     0.015 C 
HETATM   17  C17 UNL     1       0.189   0.096  -0.658  1.00  0.00    -0.002 A 
HETATM   18  C18 UNL     1      -0.683   1.115  -1.281  1.00  0.00     0.061 C 
HETATM   19  C19 UNL     1      -1.896   1.168  -0.333  1.00  0.00     0.145 C 
ENDROOT
BRANCH  19  20
HETATM   20  O3  UNL     1      -2.934   0.529  -1.064  1.00  0.00    -0.379 OA
ATOM     21  H3  UNL     1      -3.032   1.011  -1.877  1.00  0.00     0.211 HD
ENDBRANCH  19  20
BRANCH  19  22
HETATM   22  C20 UNL     1      -2.364   2.567  -0.184  1.00  0.00     0.159 C 
HETATM   23  C21 UNL     1      -3.659   3.008  -0.763  1.00  0.00     0.094 C 
HETATM   24  O4  UNL     1      -1.733   3.423   0.408  1.00  0.00    -0.295 OA
ENDBRANCH  19  22
BRANCH   1  25
HETATM   25  O1  UNL     1       4.086   1.036   0.826  1.00  0.00    -0.390 OA
HETATM   26  C1  UNL     1       5.231   0.325   0.936  1.00  0.00     0.202 C 
ENDBRANCH   1  25
TORSDOF 3
