REMARK  5 active torsions:
REMARK  status: ('A' for Active; 'I' for Inactive)
REMARK    1  A    between atoms: C3_3  and  O1_4 
REMARK    2  A    between atoms: O1_4  and  C4_5 
REMARK    3  A    between atoms: C16_18  and  O3_19 
REMARK    4  A    between atoms: C19_22  and  C21_24 
REMARK    5  A    between atoms: C21_24  and  O4_25 
ROOT
HETATM    1  C1  UNL     1       3.843   1.125   1.795  1.00  0.00     0.017 C 
HETATM    2  C2  UNL     1       3.001   0.291   1.218  1.00  0.00    -0.055 C 
HETATM    3  C3  UNL     1       3.353  -0.791   0.304  1.00  0.00     0.161 C 
HETATM    4  C6  UNL     1       2.054  -1.542   0.022  1.00  0.00     0.043 C 
HETATM    5  C7  UNL     1       1.042  -1.104   1.040  1.00  0.00     0.008 C 
HETATM    6  C8  UNL     1       1.552   0.280   1.375  1.00  0.00     0.026 C 
HETATM    7  C9  UNL     1       0.746   0.714   0.142  1.00  0.00     0.006 C 
HETATM    8  C10 UNL     1       0.204   2.094   0.276  1.00  0.00     0.007 C 
HETATM    9  C11 UNL     1      -1.268   2.107  -0.018  1.00  0.00     0.010 C 
HETATM   10  C12 UNL     1      -2.068   1.080   0.716  1.00  0.00    -0.034 C 
HETATM   11  C13 UNL     1      -2.897   1.800   1.751  1.00  0.00     0.016 C 
HETATM   12  C14 UNL     1      -1.206   0.072   1.452  1.00  0.00     0.023 C 
HETATM   13  C15 UNL     1      -0.192  -0.412   0.461  1.00  0.00    -0.005 C 
HETATM   14  C16 UNL     1      -0.886  -1.159  -0.604  1.00  0.00     0.131 C 
HETATM   15  C18 UNL     1      -2.034  -0.424  -1.252  1.00  0.00     0.044 C 
HETATM   16  C19 UNL     1      -2.893   0.341  -0.285  1.00  0.00    -0.013 C 
HETATM   17  C20 UNL     1      -3.850  -0.583   0.438  1.00  0.00     0.018 C 
ENDROOT
BRANCH   3  18
HETATM   18  O1  UNL     1       3.957  -0.341  -0.901  1.00  0.00    -0.312 OA
BRANCH  18  19
HETATM   19  C4  UNL     1       5.171  -0.779  -1.360  1.00  0.00     0.255 C 
HETATM   20  C5  UNL     1       5.781  -0.288  -2.631  1.00  0.00     0.126 C 
HETATM   21  O2  UNL     1       5.784  -1.625  -0.680  1.00  0.00    -0.266 OA
ENDBRANCH  18  19
ENDBRANCH   3  18
BRANCH  14  22
HETATM   22  O3  UNL     1      -1.382  -2.345  -0.069  1.00  0.00    -0.390 OA
HETATM   23  C17 UNL     1      -1.031  -3.521  -0.580  1.00  0.00     0.202 C 
ENDBRANCH  14  22
BRANCH  16  24
HETATM   24  C21 UNL     1      -3.785   1.331  -1.019  1.00  0.00     0.174 C 
BRANCH  24  25
HETATM   25  O4  UNL     1      -4.628   1.991  -0.159  1.00  0.00    -0.400 OA
ATOM     26  H4  UNL     1      -5.185   2.609  -0.617  1.00  0.00     0.209 HD
ENDBRANCH  24  25
ENDBRANCH  16  24
TORSDOF 5
