REMARK  3 active torsions:
REMARK  status: ('A' for Active; 'I' for Inactive)
REMARK    1  A    between atoms: C2_2  and  O1_3 
REMARK    2  A    between atoms: O1_3  and  C3_4 
REMARK    3  A    between atoms: C19_22  and  O4_23 
ROOT
HETATM    1  C3  UNL     1       3.274   0.155  -0.351  1.00  0.00     0.132 C 
HETATM    2  C4  UNL     1       2.816   0.437  -1.771  1.00  0.00     0.033 C 
HETATM    3  C5  UNL     1       1.542   1.220  -1.583  1.00  0.00     0.008 C 
HETATM    4  C6  UNL     1       1.115   1.037  -0.148  1.00  0.00     0.003 C 
HETATM    5  C7  UNL     1      -0.354   0.872  -0.100  1.00  0.00    -0.003 C 
HETATM    6  C8  UNL     1      -0.863   1.271   1.245  1.00  0.00     0.006 C 
HETATM    7  C9  UNL     1      -2.229   0.642   1.552  1.00  0.00     0.009 C 
HETATM    8  C10 UNL     1      -2.897   0.427   0.238  1.00  0.00     0.031 C 
HETATM    9  C11 UNL     1      -4.408   0.262   0.358  1.00  0.00     0.060 C 
HETATM   10  C12 UNL     1      -4.941   1.588   0.890  1.00  0.00     0.018 C 
HETATM   11  C13 UNL     1      -4.891   0.002  -1.023  1.00  0.00     0.154 C 
HETATM   12  O2  UNL     1      -6.060  -0.208  -1.262  1.00  0.00    -0.295 OA
HETATM   13  C14 UNL     1      -3.875   0.012  -2.103  1.00  0.00     0.247 C 
HETATM   14  O3  UNL     1      -2.769  -0.762  -1.830  1.00  0.00    -0.372 OA
HETATM   15  C15 UNL     1      -2.274  -0.679  -0.552  1.00  0.00     0.066 C 
HETATM   16  C16 UNL     1      -2.632  -2.005   0.137  1.00  0.00     0.047 C 
HETATM   17  C17 UNL     1      -0.785  -0.511  -0.527  1.00  0.00     0.027 C 
HETATM   18  C18 UNL     1      -0.071  -1.552   0.286  1.00  0.00     0.040 C 
HETATM   19  C19 UNL     1       1.413  -1.458  -0.094  1.00  0.00     0.129 C 
HETATM   20  C20 UNL     1       1.922  -0.109   0.328  1.00  0.00     0.012 C 
HETATM   21  C21 UNL     1       2.172  -0.141   1.805  1.00  0.00     0.021 C 
ENDROOT
BRANCH   1  22
HETATM   22  O1  UNL     1       4.119  -0.919  -0.270  1.00  0.00    -0.385 OA
BRANCH  22  23
HETATM   23  C2  UNL     1       5.355  -0.643   0.266  1.00  0.00     0.163 C 
HETATM   24  C1  UNL     1       6.134   0.390  -0.519  1.00  0.00     0.033 C 
ENDBRANCH  22  23
ENDBRANCH   1  22
BRANCH  19  25
HETATM   25  O4  UNL     1       2.065  -2.444   0.623  1.00  0.00    -0.395 OA
ATOM     26  H4  UNL     1       2.984  -2.386   0.388  1.00  0.00     0.210 HD
ENDBRANCH  19  25
TORSDOF 3
