REMARK  2 active torsions:
REMARK  status: ('A' for Active; 'I' for Inactive)
REMARK    1  A    between atoms: N1_1  and  C1_5 
REMARK    2  A    between atoms: C4_8  and  C5_9 
ROOT
HETATM    1  C1  UNL     1       2.673  -0.683   0.186  1.00  0.00     0.183 C 
HETATM    2  C2  UNL     1       1.543  -1.545  -0.275  1.00  0.00     0.033 C 
HETATM    3  C3  UNL     1       0.623  -0.912  -1.264  1.00  0.00     0.007 C 
HETATM    4  C4  UNL     1       0.359   0.522  -1.121  1.00  0.00    -0.010 C 
HETATM    5  C10 UNL     1       1.481   1.375  -0.599  1.00  0.00     0.007 C 
HETATM    6  C11 UNL     1       2.339   0.737   0.426  1.00  0.00     0.033 C 
ENDROOT
BRANCH   4   7
HETATM    7  C5  UNL     1      -0.918   0.881  -0.402  1.00  0.00    -0.007 C 
HETATM    8  C6  UNL     1      -1.046   0.389   0.989  1.00  0.00     0.032 C 
HETATM    9  C7  UNL     1      -2.451   0.797   1.464  1.00  0.00     0.232 C 
HETATM   10  N2  UNL     1      -3.489   0.105   0.767  1.00  0.00    -0.075 N 
HETATM   11  C8  UNL     1      -2.985  -0.552  -0.405  1.00  0.00     0.232 C 
ATOM     12  H22 UNL     1      -3.980  -0.547   1.379  1.00  0.00     0.277 HD
ATOM     13  H21 UNL     1      -4.267   0.726   0.542  1.00  0.00     0.277 HD
HETATM   14  C9  UNL     1      -2.143   0.425  -1.173  1.00  0.00     0.032 C 
ENDBRANCH   4   7
BRANCH   1  15
HETATM   15  N1  UNL     1       3.196  -1.244   1.428  1.00  0.00    -0.075 N 
ATOM     16  H13 UNL     1       2.476  -1.363   2.140  1.00  0.00     0.274 HD
ATOM     17  H12 UNL     1       3.461  -2.225   1.336  1.00  0.00     0.274 HD
ATOM     18  H11 UNL     1       3.967  -0.656   1.743  1.00  0.00     0.274 HD
ENDBRANCH   1  15
TORSDOF 2
