REMARK  6 active torsions:
REMARK  status: ('A' for Active; 'I' for Inactive)
REMARK    1  A    between atoms: C2_2  and  O1_5 
REMARK    2  A    between atoms: O1_5  and  C5_6 
REMARK       I    between atoms: C5_6  and  N1_8 
REMARK    3  A    between atoms: C8_12  and  C9_13 
REMARK    4  A    between atoms: C9_13  and  C10_14 
REMARK       I    between atoms: C10_14  and  N2_16 
REMARK    5  A    between atoms: N2_16  and  C11_18 
REMARK    6  A    between atoms: C11_18  and  C12_19 
ROOT
HETATM    1  C5  UNL     1      -2.829   0.181  -0.421  1.00  0.00     0.363 C 
HETATM    2  O2  UNL     1      -2.811   1.338  -0.939  1.00  0.00    -0.238 OA
HETATM    3  N1  UNL     1      -1.723  -0.705  -0.497  1.00  0.00    -0.326 N 
HETATM    4  C6  UNL     1      -1.795  -1.993   0.101  1.00  0.00     0.138 C 
HETATM    5  C7  UNL     1      -0.585  -2.854  -0.130  1.00  0.00     0.094 C 
HETATM    6  S1  UNL     1       0.961  -1.943   0.206  1.00  0.00    -0.161 SA
HETATM    7  C8  UNL     1       0.613  -0.206  -0.214  1.00  0.00     0.074 C 
HETATM    8  C15 UNL     1      -0.544  -0.245  -1.197  1.00  0.00     0.143 C 
ENDROOT
BRANCH   7   9
HETATM    9  C9  UNL     1       1.794   0.454  -0.876  1.00  0.00     0.119 C 
BRANCH   9  10
HETATM   10  C10 UNL     1       2.995   0.467  -0.038  1.00  0.00     0.218 C 
HETATM   11  O3  UNL     1       3.027  -0.024   1.118  1.00  0.00    -0.274 OA
HETATM   12  N2  UNL     1       4.183   1.056  -0.537  1.00  0.00    -0.361 N 
ATOM     13  H2  UNL     1       4.166   1.463  -1.472  1.00  0.00     0.162 HD
BRANCH  12  14
HETATM   14  C11 UNL     1       5.420   1.110   0.213  1.00  0.00     0.127 C 
BRANCH  14  15
HETATM   15  C12 UNL     1       5.882  -0.295   0.491  1.00  0.00     0.003 A 
HETATM   16  C13 UNL     1       7.142  -0.521   1.261  1.00  0.00     0.007 A 
HETATM   17  C14 UNL     1       7.183  -0.637  -0.208  1.00  0.00     0.007 A 
ENDBRANCH  14  15
ENDBRANCH  12  14
ENDBRANCH   9  10
ENDBRANCH   7   9
BRANCH   1  18
HETATM   18  O1  UNL     1      -4.017  -0.160   0.229  1.00  0.00    -0.294 OA
BRANCH  18  19
HETATM   19  C2  UNL     1      -5.123   0.747   0.296  1.00  0.00     0.061 C 
HETATM   20  C1  UNL     1      -4.777   2.026   0.984  1.00  0.00     0.046 C 
HETATM   21  C3  UNL     1      -6.232   0.056   1.048  1.00  0.00     0.046 C 
HETATM   22  C4  UNL     1      -5.563   1.001  -1.125  1.00  0.00     0.046 C 
ENDBRANCH  18  19
ENDBRANCH   1  18
TORSDOF 6
