REMARK  5 active torsions:
REMARK  status: ('A' for Active; 'I' for Inactive)
REMARK    1  A    between atoms: C7_9  and  C8_10 
REMARK    2  A    between atoms: C8_10  and  N3_11 
REMARK       I    between atoms: N3_11  and  C9_13 
REMARK    3  A    between atoms: C9_13  and  O2_15 
REMARK    4  A    between atoms: O2_15  and  C10_16 
REMARK    5  A    between atoms: C10_16  and  C11_17 
ROOT
HETATM    1  N3  UNL     1      -0.326   0.604  -0.118  1.00  0.00    -0.336 N 
ATOM      2  H3  UNL     1      -0.380   0.116   0.776  1.00  0.00     0.164 HD
HETATM    3  C9  UNL     1       0.881   0.564  -0.884  1.00  0.00     0.360 C 
HETATM    4  O1  UNL     1       0.957   1.167  -1.992  1.00  0.00    -0.239 OA
ENDROOT
BRANCH   1   5
HETATM    5  C8  UNL     1      -1.471   1.338  -0.612  1.00  0.00     0.133 C 
BRANCH   5   6
HETATM    6  C7  UNL     1      -2.633   1.250   0.342  1.00  0.00     0.065 C 
HETATM    7  C6  UNL     1      -3.078  -0.180   0.556  1.00  0.00     0.231 C 
HETATM    8  N1  UNL     1      -3.479  -0.822  -0.658  1.00  0.00     0.091 N 
HETATM    9  C5  UNL     1      -4.159  -0.197   1.615  1.00  0.00     0.066 C 
HETATM   10  C1  UNL     1      -3.016  -2.198  -0.622  1.00  0.00     0.310 C 
HETATM   11  C2  UNL     1      -4.892  -0.846  -0.885  1.00  0.00     0.302 C 
HETATM   12  C3  UNL     1      -5.570   0.468  -0.834  1.00  0.00     0.302 C 
HETATM   13  N2  UNL     1      -5.032   1.410   0.090  1.00  0.00     0.090 N 
HETATM   14  C4  UNL     1      -5.078   0.972   1.461  1.00  0.00     0.274 C 
HETATM   15  C17 UNL     1      -3.792   1.991  -0.296  1.00  0.00     0.280 C 
ENDBRANCH   5   6
ENDBRANCH   1   5
BRANCH   3  16
HETATM   16  O2  UNL     1       1.992  -0.117  -0.460  1.00  0.00    -0.304 OA
BRANCH  16  17
HETATM   17  C10 UNL     1       3.202  -0.178  -1.190  1.00  0.00     0.185 C 
BRANCH  17  18
HETATM   18  C11 UNL     1       4.211  -1.011  -0.430  1.00  0.00     0.010 C 
HETATM   19  C12 UNL     1       4.467  -0.389   0.905  1.00  0.00     0.007 C 
HETATM   20  C13 UNL     1       5.958  -0.157   1.064  1.00  0.00     0.000 C 
HETATM   21  C14 UNL     1       6.403   0.710  -0.090  1.00  0.00     0.000 C 
HETATM   22  C15 UNL     1       6.390  -0.157  -1.330  1.00  0.00     0.000 C 
HETATM   23  C16 UNL     1       5.436  -1.307  -1.223  1.00  0.00     0.007 C 
ENDBRANCH  17  18
ENDBRANCH  16  17
ENDBRANCH   3  16
TORSDOF 5
