REMARK  4 active torsions:
REMARK  status: ('A' for Active; 'I' for Inactive)
REMARK    1  A    between atoms: C2_2  and  N2_6 
REMARK    2  A    between atoms: N2_6  and  C5_8 
REMARK    3  A    between atoms: C5_8  and  N3_10 
REMARK    4  A    between atoms: N3_10  and  C6_12 
ROOT
HETATM    1  C1  UNL     1       4.399   0.547   1.125  1.00  0.00     0.055 C 
HETATM    2  C2  UNL     1       4.156  -0.281  -0.098  1.00  0.00     0.114 C 
HETATM    3  C3  UNL     1       5.313  -0.127  -1.055  1.00  0.00     0.055 C 
HETATM    4  C4  UNL     1       4.189  -1.696   0.349  1.00  0.00     0.090 C 
HETATM    5  N1  UNL     1       4.208  -2.797   0.701  1.00  0.00    -0.195 NA
ENDROOT
BRANCH   2   6
HETATM    6  N2  UNL     1       2.891   0.004  -0.730  1.00  0.00    -0.346 N 
ATOM      7  H2  UNL     1       2.905   0.342  -1.692  1.00  0.00     0.163 HD
BRANCH   6   8
HETATM    8  C5  UNL     1       1.624  -0.155  -0.100  1.00  0.00     0.169 C 
HETATM    9  S1  UNL     1       1.691  -0.703   1.443  1.00  0.00    -0.041 SA
BRANCH   8  10
HETATM   10  N3  UNL     1       0.449   0.149  -0.796  1.00  0.00    -0.358 N 
ATOM     11  H3  UNL     1       0.577   0.480  -1.752  1.00  0.00     0.162 HD
BRANCH  10  12
HETATM   12  C6  UNL     1      -0.904   0.059  -0.351  1.00  0.00     0.033 C 
HETATM   13  C7  UNL     1      -1.348  -1.314   0.064  1.00  0.00     0.035 C 
HETATM   14  C8  UNL     1      -2.808  -1.265   0.464  1.00  0.00    -0.012 C 
HETATM   15  C9  UNL     1      -3.053  -0.307   1.614  1.00  0.00     0.009 C 
HETATM   16  C13 UNL     1      -3.710  -0.850  -0.661  1.00  0.00     0.009 C 
HETATM   17  C10 UNL     1      -2.630   1.082   1.171  1.00  0.00    -0.012 C 
HETATM   18  C11 UNL     1      -3.405   1.559  -0.007  1.00  0.00     0.009 C 
HETATM   19  C15 UNL     1      -1.144   0.981   0.844  1.00  0.00     0.035 C 
HETATM   20  C12 UNL     1      -3.272   0.526  -1.097  1.00  0.00    -0.012 C 
HETATM   21  C14 UNL     1      -1.840   0.455  -1.502  1.00  0.00     0.035 C 
ENDBRANCH  10  12
ENDBRANCH   8  10
ENDBRANCH   6   8
ENDBRANCH   2   6
TORSDOF 4
