REMARK  7 active torsions:
REMARK  status: ('A' for Active; 'I' for Inactive)
REMARK    1  A    between atoms: O1_2  and  C2_3 
REMARK    2  A    between atoms: C2_3  and  C3_5 
REMARK    3  A    between atoms: C6_8  and  O3_9 
REMARK    4  A    between atoms: C11_15  and  O4_16 
REMARK    5  A    between atoms: O4_16  and  C12_17 
REMARK    6  A    between atoms: C23_30  and  O7_31 
REMARK    7  A    between atoms: C25_34  and  O8_35 
ROOT
HETATM    1  C3  UNL     1       2.023   1.134  -0.254  1.00  0.00     0.174 C 
HETATM    2  C4  UNL     1       2.815   1.248   1.010  1.00  0.00     0.054 C 
HETATM    3  C5  UNL     1       3.044   0.056   1.824  1.00  0.00     0.036 C 
HETATM    4  C6  UNL     1       1.912  -0.689   2.346  1.00  0.00     0.132 C 
HETATM    5  C7  UNL     1       0.681  -0.955   1.594  1.00  0.00     0.039 C 
HETATM    6  C8  UNL     1      -0.359  -1.202   2.714  1.00  0.00     0.024 C 
HETATM    7  C9  UNL     1       0.141   0.332   0.918  1.00  0.00     0.139 C 
HETATM    8  C10 UNL     1      -1.332   0.380   0.941  1.00  0.00     0.066 C 
HETATM    9  C11 UNL     1      -2.109   0.928  -0.210  1.00  0.00     0.142 C 
HETATM   10  C14 UNL     1      -3.007  -0.152  -0.852  1.00  0.00    -0.021 C 
HETATM   11  C15 UNL     1      -4.006  -0.702   0.119  1.00  0.00     0.017 C 
HETATM   12  C16 UNL     1      -3.862   0.627  -1.860  1.00  0.00     0.017 C 
HETATM   13  C17 UNL     1      -2.265  -1.149  -1.654  1.00  0.00     0.013 C 
HETATM   14  C18 UNL     1      -2.242  -2.555  -1.150  1.00  0.00     0.027 C 
HETATM   15  C19 UNL     1      -0.750  -2.913  -1.019  1.00  0.00     0.168 C 
HETATM   16  O6  UNL     1      -0.208  -1.856  -0.351  1.00  0.00    -0.380 OA
HETATM   17  C20 UNL     1       0.690  -2.119   0.637  1.00  0.00     0.071 C 
HETATM   18  C21 UNL     1       0.081  -3.303   1.427  1.00  0.00     0.047 C 
HETATM   19  C22 UNL     1       1.981  -2.571   0.091  1.00  0.00     0.070 C 
HETATM   20  C23 UNL     1       2.499  -2.122  -1.180  1.00  0.00     0.123 C 
HETATM   21  C24 UNL     1       2.174  -0.840  -1.805  1.00  0.00     0.067 C 
HETATM   22  C25 UNL     1       2.880   0.377  -1.295  1.00  0.00     0.165 C 
HETATM   23  O9  UNL     1       0.816   0.544  -0.214  1.00  0.00    -0.361 OA
ENDROOT
BRANCH   1  24
HETATM   24  C2  UNL     1       1.877   2.548  -0.692  1.00  0.00     0.296 C 
HETATM   25  O2  UNL     1       0.775   3.007  -0.958  1.00  0.00    -0.262 OA
BRANCH  24  26
HETATM   26  O1  UNL     1       2.993   3.350  -0.802  1.00  0.00    -0.324 OA
HETATM   27  C1  UNL     1       2.900   4.721  -1.222  1.00  0.00     0.213 C 
ENDBRANCH  24  26
ENDBRANCH   1  24
BRANCH  22  28
HETATM   28  O8  UNL     1       4.177   0.202  -0.925  1.00  0.00    -0.392 OA
ATOM     29  H8  UNL     1       4.704  -0.263  -1.565  1.00  0.00     0.210 HD
ENDBRANCH  22  28
BRANCH   4  30
HETATM   30  O3  UNL     1       1.550  -0.041   3.571  1.00  0.00    -0.395 OA
ATOM     31  H3  UNL     1       0.809  -0.528   3.912  1.00  0.00     0.210 HD
ENDBRANCH   4  30
BRANCH  20  32
HETATM   32  O7  UNL     1       3.923  -2.158  -1.092  1.00  0.00    -0.395 OA
ATOM     33  H7  UNL     1       4.264  -1.863  -1.928  1.00  0.00     0.210 HD
ENDBRANCH  20  32
BRANCH   9  34
HETATM   34  O4  UNL     1      -3.080   1.880   0.231  1.00  0.00    -0.315 OA
BRANCH  34  35
HETATM   35  C12 UNL     1      -3.254   3.145  -0.265  1.00  0.00     0.255 C 
HETATM   36  C13 UNL     1      -4.300   4.078   0.259  1.00  0.00     0.126 C 
HETATM   37  O5  UNL     1      -2.504   3.515  -1.188  1.00  0.00    -0.266 OA
ENDBRANCH  34  35
ENDBRANCH   9  34
TORSDOF 7
