REMARK  5 active torsions:
REMARK  status: ('A' for Active; 'I' for Inactive)
REMARK    1  A    between atoms: C3_4  and  O2_6 
REMARK    2  A    between atoms: C7_10  and  O3_11 
REMARK    3  A    between atoms: O3_11  and  C8_12 
REMARK    4  A    between atoms: C11_17  and  O6_18 
REMARK    5  A    between atoms: C17_25  and  O7_26 
ROOT
HETATM    1  C1  UNL     1      -1.797  -3.177   1.310  1.00  0.00     0.047 C 
HETATM    2  C2  UNL     1      -2.129  -2.279   0.443  1.00  0.00     0.051 C 
HETATM    3  O1  UNL     1      -3.512  -2.015   0.185  1.00  0.00    -0.318 OA
HETATM    4  C3  UNL     1      -3.654  -0.618  -0.197  1.00  0.00     0.174 C 
HETATM    5  C4  UNL     1      -4.761  -0.071   0.650  1.00  0.00     0.080 C 
HETATM    6  C5  UNL     1      -2.288  -0.169   0.215  1.00  0.00     0.056 C 
HETATM    7  C6  UNL     1      -2.303  -0.328   1.725  1.00  0.00     0.025 C 
HETATM    8  C7  UNL     1      -1.768   1.141  -0.104  1.00  0.00     0.178 C 
HETATM    9  C10 UNL     1      -0.358   1.038   0.487  1.00  0.00     0.188 C 
HETATM   10  O5  UNL     1       0.285  -0.115   0.245  1.00  0.00    -0.343 OA
HETATM   11  C11 UNL     1      -0.183  -0.980  -0.722  1.00  0.00     0.183 C 
HETATM   12  C12 UNL     1      -1.529  -1.334  -0.465  1.00  0.00     0.121 C 
HETATM   13  C13 UNL     1       0.849  -2.003  -1.120  1.00  0.00     0.030 C 
HETATM   14  C14 UNL     1       0.163  -3.368  -1.401  1.00  0.00     0.025 C 
HETATM   15  C15 UNL     1       1.510  -1.748  -2.460  1.00  0.00     0.025 C 
HETATM   16  C16 UNL     1       1.945  -2.156  -0.125  1.00  0.00     0.024 C 
HETATM   17  C17 UNL     1       2.924  -1.505   0.326  1.00  0.00     0.067 C 
HETATM   18  C18 UNL     1       3.637  -0.239   0.213  1.00  0.00    -0.018 C 
HETATM   19  C19 UNL     1       3.566   0.566   1.503  1.00  0.00     0.043 C 
HETATM   20  C20 UNL     1       2.234   1.176   1.828  1.00  0.00     0.056 C 
HETATM   21  C21 UNL     1       1.759   2.167   0.848  1.00  0.00     0.177 A 
HETATM   22  O8  UNL     1       0.809   3.093   1.323  1.00  0.00    -0.355 OA
HETATM   23  C22 UNL     1       0.492   2.214   0.287  1.00  0.00     0.199 A 
HETATM   24  C23 UNL     1       3.005   2.750   0.231  1.00  0.00     0.297 C 
HETATM   25  O9  UNL     1       3.217   3.944   0.391  1.00  0.00    -0.262 OA
HETATM   26  O10 UNL     1       3.902   1.993  -0.498  1.00  0.00    -0.309 OA
HETATM   27  C24 UNL     1       3.598   0.634  -0.948  1.00  0.00     0.159 C 
HETATM   28  C25 UNL     1       4.720   0.386  -1.974  1.00  0.00     0.045 C 
ENDROOT
BRANCH   8  29
HETATM   29  O3  UNL     1      -2.504   2.100   0.686  1.00  0.00    -0.313 OA
BRANCH  29  30
HETATM   30  C8  UNL     1      -3.092   3.227   0.150  1.00  0.00     0.255 C 
HETATM   31  C9  UNL     1      -3.849   4.216   0.954  1.00  0.00     0.126 C 
HETATM   32  O4  UNL     1      -2.949   3.384  -1.111  1.00  0.00    -0.266 OA
ENDBRANCH  29  30
ENDBRANCH   8  29
BRANCH   4  33
HETATM   33  O2  UNL     1      -3.923  -0.489  -1.534  1.00  0.00    -0.364 OA
ATOM     34  H2  UNL     1      -4.016   0.423  -1.783  1.00  0.00     0.213 HD
ENDBRANCH   4  33
BRANCH  11  35
HETATM   35  O6  UNL     1      -0.211  -0.119  -1.871  1.00  0.00    -0.364 OA
ATOM     36  H6  UNL     1      -0.533  -0.715  -2.537  1.00  0.00     0.213 HD
ENDBRANCH  11  35
BRANCH  17  37
HETATM   37  O7  UNL     1       3.655  -2.259   1.356  1.00  0.00    -0.361 OA
ATOM     38  H7  UNL     1       4.394  -1.768   1.696  1.00  0.00     0.217 HD
ENDBRANCH  17  37
TORSDOF 5
