REMARK  5 active torsions:
REMARK  status: ('A' for Active; 'I' for Inactive)
REMARK    1  A    between atoms: O1_2  and  C2_3 
REMARK    2  A    between atoms: C2_3  and  C3_4 
REMARK    3  A    between atoms: N1_10  and  C9_11 
REMARK    4  A    between atoms: C9_11  and  N2_13 
REMARK    5  A    between atoms: N2_13  and  C10_15 
ROOT
HETATM    1  C3  UNL     1       1.683   0.397  -0.647  1.00  0.00     0.110 C 
HETATM    2  C4  UNL     1       2.784  -0.666  -0.603  1.00  0.00     0.031 C 
HETATM    3  C5  UNL     1       2.156  -2.033  -0.757  1.00  0.00    -0.015 C 
HETATM    4  C6  UNL     1       3.267  -3.016  -1.030  1.00  0.00     0.010 C 
HETATM    5  C7  UNL     1       1.438  -2.348   0.552  1.00  0.00     0.024 C 
HETATM    6  C8  UNL     1       0.824  -1.065   1.125  1.00  0.00     0.126 C 
HETATM    7  N1  UNL     1       0.525  -0.128   0.075  1.00  0.00    -0.351 N 
ENDROOT
BRANCH   7   8
HETATM    8  C9  UNL     1      -0.780   0.282  -0.268  1.00  0.00     0.170 C 
HETATM    9  S1  UNL     1      -1.006   1.376  -1.505  1.00  0.00    -0.041 SA
BRANCH   8  10
HETATM   10  N2  UNL     1      -1.936  -0.195   0.397  1.00  0.00    -0.359 N 
ATOM     11  H2  UNL     1      -1.819  -0.865   1.157  1.00  0.00     0.162 HD
BRANCH  10  12
HETATM   12  C10 UNL     1      -3.268   0.224   0.048  1.00  0.00     0.021 C 
HETATM   13  C11 UNL     1      -4.260  -0.474   0.949  1.00  0.00     0.037 C 
HETATM   14  C12 UNL     1      -3.431   1.728   0.294  1.00  0.00     0.037 C 
HETATM   15  C13 UNL     1      -3.635  -0.116  -1.376  1.00  0.00     0.037 C 
ENDBRANCH  10  12
ENDBRANCH   8  10
ENDBRANCH   7   8
BRANCH   1  16
HETATM   16  C2  UNL     1       2.251   1.616   0.050  1.00  0.00     0.192 C 
BRANCH  16  17
HETATM   17  O1  UNL     1       1.342   2.651   0.154  1.00  0.00    -0.394 OA
HETATM   18  C1  UNL     1       1.979   3.701   0.806  1.00  0.00     0.201 C 
ENDBRANCH  16  17
ENDBRANCH   1  16
TORSDOF 5
