REMARK  1 active torsions:
REMARK  status: ('A' for Active; 'I' for Inactive)
REMARK       I    between atoms: N1_4  and  C4_5 
REMARK    1  A    between atoms: N3_7  and  N4_9 
ROOT
HETATM    1  C1  UNL     1       3.879   2.575  -0.259  1.00  0.00     0.041 C 
HETATM    2  C2  UNL     1       3.147   1.614   0.652  1.00  0.00     0.136 C 
HETATM    3  C3  UNL     1       1.805   1.212   0.113  1.00  0.00     0.157 C 
HETATM    4  N1  UNL     1       1.609  -0.214   0.072  1.00  0.00    -0.350 N 
HETATM    5  C4  UNL     1       0.287  -0.750   0.108  1.00  0.00     0.205 C 
HETATM    6  N2  UNL     1       0.031  -2.127   0.358  1.00  0.00    -0.062 NA
HETATM    7  N3  UNL     1      -0.735   0.016  -0.090  1.00  0.00    -0.276 N 
ATOM      8  H3  UNL     1      -0.573   1.006  -0.272  1.00  0.00     0.189 HD
HETATM    9  C11 UNL     1       2.703  -1.164  -0.006  1.00  0.00     0.157 C 
HETATM   10  C12 UNL     1       3.972  -0.329  -0.161  1.00  0.00     0.136 C 
HETATM   11  C13 UNL     1       5.169  -1.246  -0.153  1.00  0.00     0.041 C 
HETATM   12  O1  UNL     1       3.988   0.547   0.900  1.00  0.00    -0.378 OA
ENDROOT
BRANCH   7  13
HETATM   13  N4  UNL     1      -2.034  -0.445  -0.066  1.00  0.00    -0.326 N 
HETATM   14  C5  UNL     1      -2.574  -0.879   1.216  1.00  0.00     0.142 C 
HETATM   15  C6  UNL     1      -3.693   0.027   1.668  1.00  0.00     0.021 C 
HETATM   16  C7  UNL     1      -3.992   1.108   0.661  1.00  0.00     0.002 C 
HETATM   17  C8  UNL     1      -4.776   0.636  -0.517  1.00  0.00     0.002 C 
HETATM   18  C9  UNL     1      -4.240  -0.634  -1.114  1.00  0.00     0.021 C 
HETATM   19  C10 UNL     1      -2.744  -0.458  -1.316  1.00  0.00     0.142 C 
ENDBRANCH   7  13
TORSDOF 1
