REMARK  3 active torsions:
REMARK  status: ('A' for Active; 'I' for Inactive)
REMARK    1  A    between atoms: O1_2  and  C2_3 
REMARK    2  A    between atoms: C5_6  and  C6_7 
REMARK    3  A    between atoms: N2_16  and  C13_17 
ROOT
HETATM    1  C2  UNL     1      -1.516  -0.788  -0.366  1.00  0.00     0.358 C 
HETATM    2  C3  UNL     1      -0.224  -0.641  -1.125  1.00  0.00     0.065 C 
HETATM    3  C4  UNL     1       0.969  -1.098  -0.349  1.00  0.00     0.011 C 
HETATM    4  C5  UNL     1       1.772  -0.132   0.393  1.00  0.00     0.010 C 
HETATM    5  C10 UNL     1       1.299   1.264   0.528  1.00  0.00     0.119 C 
HETATM    6  N1  UNL     1       0.584   1.521   1.763  1.00  0.00    -0.419 N 
ATOM      7  H1  UNL     1       1.014   1.398   2.680  1.00  0.00     0.153 HD
HETATM    8  C11 UNL     1      -0.760   1.957   1.602  1.00  0.00     0.144 C 
HETATM    9  C12 UNL     1      -1.646   0.714   1.535  1.00  0.00     0.295 C 
HETATM   10  N2  UNL     1      -2.037   0.360   0.233  1.00  0.00     0.123 N 
ENDROOT
BRANCH   4  11
HETATM   11  C6  UNL     1       3.228  -0.129  -0.115  1.00  0.00    -0.046 C 
HETATM   12  C7  UNL     1       3.176   0.245  -1.562  1.00  0.00     0.015 C 
HETATM   13  C8  UNL     1       3.802  -1.544   0.015  1.00  0.00     0.015 C 
HETATM   14  C9  UNL     1       4.105   0.791   0.666  1.00  0.00     0.015 C 
ENDBRANCH   4  11
BRANCH   1  15
HETATM   15  O1  UNL     1      -2.476  -1.347  -1.193  1.00  0.00    -0.362 OA
HETATM   16  C1  UNL     1      -2.859  -2.622  -0.846  1.00  0.00     0.204 C 
ENDBRANCH   1  15
BRANCH  10  17
HETATM   17  C13 UNL     1      -3.474   0.352   0.129  1.00  0.00     0.226 A 
HETATM   18  C14 UNL     1      -4.220   0.410  -1.131  1.00  0.00     0.038 A 
HETATM   19  C15 UNL     1      -4.251   1.604  -0.128  1.00  0.00     0.038 A 
ENDBRANCH  10  17
TORSDOF 3
