REMARK  3 active torsions:
REMARK  status: ('A' for Active; 'I' for Inactive)
REMARK    1  A    between atoms: C5_5  and  N1_6 
REMARK    2  A    between atoms: N2_9  and  N3_10 
REMARK    3  A    between atoms: N3_10  and  C8_12 
ROOT
HETATM    1  N1  UNL     1      -0.704  -0.171  -0.022  1.00  0.00    -0.406 N 
HETATM    2  C6  UNL     1       0.058  -1.108  -0.773  1.00  0.00     0.133 C 
HETATM    3  C7  UNL     1       1.407  -0.481  -1.111  1.00  0.00     0.132 C 
HETATM    4  N2  UNL     1       2.143  -0.084   0.056  1.00  0.00    -0.232 NA
HETATM    5  C12 UNL     1       1.271   0.642   0.994  1.00  0.00     0.132 C 
HETATM    6  C13 UNL     1      -0.015   1.049   0.260  1.00  0.00     0.133 C 
ENDROOT
BRANCH   1   7
HETATM    7  C5  UNL     1      -2.077  -0.049  -0.373  1.00  0.00     0.079 C 
HETATM    8  C4  UNL     1      -2.747  -1.390  -0.116  1.00  0.00     0.025 C 
HETATM    9  C3  UNL     1      -4.168  -1.364  -0.610  1.00  0.00     0.006 C 
HETATM   10  C2  UNL     1      -4.767   0.017  -0.506  1.00  0.00    -0.019 C 
HETATM   11  C1  UNL     1      -6.280  -0.064  -0.272  1.00  0.00     0.010 C 
HETATM   12  C15 UNL     1      -4.196   0.729   0.702  1.00  0.00     0.006 C 
HETATM   13  C14 UNL     1      -2.717   0.945   0.601  1.00  0.00     0.025 C 
ENDBRANCH   1   7
BRANCH   4  14
HETATM   14  N3  UNL     1       3.164   0.771  -0.279  1.00  0.00    -0.346 N 
ATOM     15  H3  UNL     1       2.993   1.708  -0.645  1.00  0.00     0.175 HD
BRANCH  14  16
HETATM   16  C8  UNL     1       4.479   0.258  -0.079  1.00  0.00     0.030 C 
HETATM   17  C9  UNL     1       5.509   1.311  -0.488  1.00  0.00     0.039 C 
HETATM   18  C10 UNL     1       4.673  -0.920  -1.035  1.00  0.00     0.039 C 
HETATM   19  C11 UNL     1       4.796  -0.168   1.313  1.00  0.00     0.039 C 
ENDBRANCH  14  16
ENDBRANCH   4  14
TORSDOF 3
