REMARK  2 active torsions:
REMARK  status: ('A' for Active; 'I' for Inactive)
REMARK    1  A    between atoms: C2_2  and  N1_3 
REMARK    2  A    between atoms: N3_10  and  C7_11 
ROOT
HETATM    1  N1  UNL     1      -3.518   0.731  -0.018  1.00  0.00    -0.352 N 
HETATM    2  C3  UNL     1      -4.220   1.050  -1.190  1.00  0.00     0.178 C 
HETATM    3  N2  UNL     1      -3.455   0.643  -2.346  1.00  0.00    -0.385 N 
ATOM      4  H2  UNL     1      -3.651   0.960  -3.296  1.00  0.00     0.160 HD
HETATM    5  C4  UNL     1      -2.374  -0.269  -2.005  1.00  0.00     0.128 C 
HETATM    6  C5  UNL     1      -1.408   0.478  -1.147  1.00  0.00     0.044 C 
HETATM    7  C6  UNL     1      -0.283  -0.427  -0.618  1.00  0.00     0.125 C 
HETATM    8  N3  UNL     1       0.565   0.273   0.260  1.00  0.00    -0.408 N 
HETATM    9  C14 UNL     1      -0.008   1.205   1.141  1.00  0.00     0.119 C 
HETATM   10  C15 UNL     1      -1.480   0.800   1.329  1.00  0.00     0.045 C 
HETATM   11  C16 UNL     1      -2.165   1.082   0.042  1.00  0.00     0.098 C 
ENDROOT
BRANCH   8  12
HETATM   12  C7  UNL     1       1.938   0.051   0.248  1.00  0.00     0.079 C 
HETATM   13  C8  UNL     1       2.273  -1.397   0.644  1.00  0.00     0.025 C 
HETATM   14  C9  UNL     1       3.736  -1.359   1.050  1.00  0.00     0.006 C 
HETATM   15  C10 UNL     1       4.622  -0.888  -0.054  1.00  0.00    -0.019 C 
HETATM   16  C11 UNL     1       5.937  -0.434   0.595  1.00  0.00     0.010 C 
HETATM   17  C12 UNL     1       4.102   0.273  -0.828  1.00  0.00     0.006 C 
HETATM   18  C13 UNL     1       2.613   0.235  -1.094  1.00  0.00     0.025 C 
ENDBRANCH   8  12
BRANCH   1  19
HETATM   19  C2  UNL     1      -4.242   0.409   1.140  1.00  0.00     0.061 C 
HETATM   20  C1  UNL     1      -4.987  -0.903   1.022  1.00  0.00     0.055 C 
ENDBRANCH   1  19
TORSDOF 2
