REMARK  4 active torsions:
REMARK  status: ('A' for Active; 'I' for Inactive)
REMARK    1  A    between atoms: C1_1  and  C7_9 
REMARK    2  A    between atoms: C2_2  and  C3_3 
REMARK    3  A    between atoms: C7_9  and  N1_10 
REMARK    4  A    between atoms: N1_10  and  C8_12 
ROOT
HETATM    1  C7  UNL     1      -0.276  -2.052  -0.355  1.00  0.00     0.209 C 
ENDROOT
BRANCH   1   2
HETATM    2  C1  UNL     1      -1.089  -0.873  -0.090  1.00  0.00    -0.085 C 
HETATM    3  C2  UNL     1      -1.792   0.084   0.126  1.00  0.00    -0.073 C 
BRANCH   3   4
HETATM    4  C3  UNL     1      -2.673   1.225   0.398  1.00  0.00     0.205 C 
HETATM    5  C4  UNL     1      -3.549   1.534  -0.824  1.00  0.00     0.071 C 
HETATM    6  C5  UNL     1      -4.976   1.760  -0.376  1.00  0.00     0.174 C 
HETATM    7  O1  UNL     1      -5.457   0.595   0.214  1.00  0.00    -0.367 OA
HETATM    8  C6  UNL     1      -4.502  -0.020   1.011  1.00  0.00     0.339 C 
HETATM    9  O2  UNL     1      -3.536   0.894   1.452  1.00  0.00    -0.349 OA
ENDBRANCH   3   4
ENDBRANCH   1   2
BRANCH   1  10
HETATM   10  N1  UNL     1       1.073  -1.841  -0.709  1.00  0.00    -0.407 N 
ATOM     11  H1  UNL     1       1.430  -2.031  -1.646  1.00  0.00     0.154 HD
BRANCH  10  12
HETATM   12  C8  UNL     1       1.878  -1.357   0.310  1.00  0.00     0.081 C 
HETATM   13  C9  UNL     1       1.607   0.027   0.850  1.00  0.00     0.029 C 
HETATM   14  C10 UNL     1       2.964   0.587   1.249  1.00  0.00    -0.012 C 
HETATM   15  C11 UNL     1       3.581   1.159  -0.005  1.00  0.00     0.005 C 
HETATM   16  C14 UNL     1       3.793  -0.699   1.362  1.00  0.00     0.011 C 
HETATM   17  C12 UNL     1       3.622  -0.091  -0.895  1.00  0.00     0.007 C 
HETATM   18  C13 UNL     1       3.360  -1.258  -0.009  1.00  0.00     0.008 C 
ENDBRANCH  10  12
ENDBRANCH   1  10
TORSDOF 4
