REMARK  11 active torsions:
REMARK  status: ('A' for Active; 'I' for Inactive)
REMARK    1  A    between atoms: C2_2  and  C3_3 
REMARK    2  A    between atoms: C3_3  and  C5_5 
REMARK    3  A    between atoms: C5_5  and  O1_6 
REMARK    4  A    between atoms: C5_5  and  O2_8 
REMARK    5  A    between atoms: O2_8  and  C6_9 
REMARK    6  A    between atoms: C16_19  and  C17_20 
REMARK    7  A    between atoms: C16_19  and  C20_25 
REMARK    8  A    between atoms: C17_20  and  C18_21 
REMARK    9  A    between atoms: C18_21  and  C19_22 
REMARK   10  A    between atoms: C20_25  and  C21_26 
REMARK   11  A    between atoms: C21_26  and  C23_28 
ROOT
HETATM    1  C6  UNL     1       3.100   1.381   0.984  1.00  0.00     0.128 C 
HETATM    2  C7  UNL     1       2.702   0.317   1.926  1.00  0.00     0.033 C 
HETATM    3  C8  UNL     1       1.792  -0.686   1.206  1.00  0.00     0.016 C 
HETATM    4  C9  UNL     1       0.438  -0.014   1.218  1.00  0.00    -0.016 C 
HETATM    5  C10 UNL     1       0.029   0.157   2.643  1.00  0.00     0.020 C 
HETATM    6  C11 UNL     1       0.632   1.271   0.482  1.00  0.00    -0.072 C 
HETATM    7  C12 UNL     1      -0.473   1.743  -0.078  1.00  0.00    -0.022 C 
HETATM    8  C13 UNL     1      -1.802   1.151  -0.042  1.00  0.00     0.036 C 
HETATM    9  C14 UNL     1      -1.957  -0.234   0.457  1.00  0.00     0.023 C 
HETATM   10  C15 UNL     1      -2.582  -1.222  -0.489  1.00  0.00    -0.073 C 
HETATM   11  C16 UNL     1      -3.984  -1.413  -0.601  1.00  0.00    -0.076 C 
HETATM   12  C24 UNL     1      -1.670  -1.050  -1.670  1.00  0.00     0.035 C 
HETATM   13  C25 UNL     1      -0.291  -1.035  -0.957  1.00  0.00     0.010 C 
HETATM   14  C26 UNL     1      -0.547  -0.865   0.497  1.00  0.00     0.007 C 
HETATM   15  C27 UNL     1       1.896   1.993   0.334  1.00  0.00     0.066 C 
ENDROOT
BRANCH  11  16
HETATM   16  C17 UNL     1      -4.521  -2.403  -1.602  1.00  0.00     0.045 C 
BRANCH  16  17
HETATM   17  C18 UNL     1      -4.281  -2.198  -3.036  1.00  0.00     0.117 C 
BRANCH  17  18
HETATM   18  C19 UNL     1      -4.837  -0.912  -3.590  1.00  0.00     0.172 C 
HETATM   19  O3  UNL     1      -6.069  -0.732  -3.448  1.00  0.00    -0.648 OA
HETATM   20  O4  UNL     1      -4.048   0.026  -4.218  1.00  0.00    -0.648 OA
ENDBRANCH  17  18
ENDBRANCH  16  17
ENDBRANCH  11  16
BRANCH  11  21
HETATM   21  C20 UNL     1      -5.033  -0.395  -0.364  1.00  0.00     0.045 C 
BRANCH  21  22
HETATM   22  C21 UNL     1      -5.186   0.178   1.011  1.00  0.00     0.047 C 
HETATM   23  C22 UNL     1      -6.360   1.201   0.962  1.00  0.00     0.017 C 
BRANCH  22  24
HETATM   24  C23 UNL     1      -5.642  -0.849   2.000  1.00  0.00     0.235 C 
HETATM   25  O5  UNL     1      -6.753  -0.889   2.485  1.00  0.00    -0.306 OA
ENDBRANCH  22  24
ENDBRANCH  21  22
ENDBRANCH  11  21
BRANCH   1  26
HETATM   26  O2  UNL     1       4.001   1.008   0.001  1.00  0.00    -0.356 OA
BRANCH  26  27
HETATM   27  C5  UNL     1       5.157   1.745  -0.019  1.00  0.00     0.261 C 
BRANCH  27  28
HETATM   28  C3  UNL     1       6.432   0.999   0.152  1.00  0.00     0.036 C 
HETATM   29  C4  UNL     1       6.899   0.283  -1.110  1.00  0.00     0.015 C 
BRANCH  28  30
HETATM   30  C2  UNL     1       6.478   0.081   1.351  1.00  0.00     0.004 C 
HETATM   31  C1  UNL     1       7.933  -0.356   1.512  1.00  0.00     0.005 C 
ENDBRANCH  28  30
ENDBRANCH  27  28
BRANCH  27  32
HETATM   32  O1  UNL     1       5.283   2.536  -1.164  1.00  0.00    -0.371 OA
ATOM     33  H1  UNL     1       4.468   3.013  -1.273  1.00  0.00     0.212 HD
ENDBRANCH  27  32
ENDBRANCH  26  27
ENDBRANCH   1  26
TORSDOF 11
