REMARK  12 active torsions:
REMARK  status: ('A' for Active; 'I' for Inactive)
REMARK    1  A    between atoms: C2_2  and  C3_3 
REMARK    2  A    between atoms: C3_3  and  C4_4 
REMARK    3  A    between atoms: C4_4  and  O1_5 
REMARK    4  A    between atoms: O1_5  and  C5_6 
REMARK    5  A    between atoms: C5_6  and  C6_8 
REMARK    6  A    between atoms: C6_8  and  C7_9 
REMARK    7  A    between atoms: C6_8  and  N3_21 
REMARK    8  A    between atoms: C7_9  and  C8_10 
REMARK    9  A    between atoms: C8_10  and  C9_11 
REMARK   10  A    between atoms: C9_11  and  C10_12 
REMARK   11  A    between atoms: N2_17  and  C13_18 
REMARK       I    between atoms: N3_21  and  C16_23 
REMARK       I    between atoms: C16_23  and  N4_25 
REMARK   12  A    between atoms: N4_25  and  C17_27 
ROOT
HETATM    1  C6  UNL     1      -0.625   1.952   1.496  1.00  0.00     0.186 C 
ENDROOT
BRANCH   1   2
HETATM    2  C5  UNL     1      -0.097   3.156   0.756  1.00  0.00     0.281 C 
HETATM    3  O2  UNL     1       1.107   3.287   0.530  1.00  0.00    -0.263 OA
BRANCH   2   4
HETATM    4  O1  UNL     1      -1.008   4.099   0.346  1.00  0.00    -0.320 OA
BRANCH   4   5
HETATM    5  C4  UNL     1      -0.650   5.270  -0.353  1.00  0.00     0.178 C 
BRANCH   5   6
HETATM    6  C3  UNL     1      -1.888   6.090  -0.657  1.00  0.00     0.026 C 
BRANCH   6   7
HETATM    7  C2  UNL     1      -2.830   5.250  -1.512  1.00  0.00    -0.002 C 
HETATM    8  C1  UNL     1      -4.049   6.088  -1.797  1.00  0.00     0.005 C 
ENDBRANCH   6   7
ENDBRANCH   5   6
ENDBRANCH   4   5
ENDBRANCH   2   4
ENDBRANCH   1   2
BRANCH   1   9
HETATM    9  C7  UNL     1      -1.777   1.404   0.722  1.00  0.00     0.036 C 
BRANCH   9  10
HETATM   10  C8  UNL     1      -2.474   0.264   1.329  1.00  0.00     0.010 C 
BRANCH  10  11
HETATM   11  C9  UNL     1      -1.740  -1.002   1.605  1.00  0.00     0.076 C 
BRANCH  11  12
HETATM   12  C10 UNL     1      -2.721  -1.984   2.175  1.00  0.00     0.083 A 
HETATM   13  N1  UNL     1      -2.991  -2.088   3.483  1.00  0.00    -0.354 N 
HETATM   14  C11 UNL     1      -3.913  -3.077   3.623  1.00  0.00     0.106 A 
ATOM     15  H1  UNL     1      -2.582  -1.530   4.233  1.00  0.00     0.166 HD
HETATM   16  C12 UNL     1      -4.167  -3.540   2.363  1.00  0.00     0.110 A 
HETATM   17  N2  UNL     1      -3.432  -2.868   1.457  1.00  0.00    -0.341 N 
BRANCH  17  18
HETATM   18  C13 UNL     1      -3.461  -3.116   0.054  1.00  0.00     0.091 A 
HETATM   19  C14 UNL     1      -4.700  -3.907  -0.437  1.00  0.00     0.028 A 
HETATM   20  C15 UNL     1      -4.392  -2.550  -0.908  1.00  0.00     0.028 A 
ENDBRANCH  17  18
ENDBRANCH  11  12
ENDBRANCH  10  11
ENDBRANCH   9  10
ENDBRANCH   1   9
BRANCH   1  21
HETATM   21  N3  UNL     1       0.446   1.049   1.775  1.00  0.00    -0.329 N 
HETATM   22  C16 UNL     1       1.229   0.433   0.757  1.00  0.00     0.317 C 
HETATM   23  O3  UNL     1       0.953   0.682  -0.440  1.00  0.00    -0.247 OA
HETATM   24  N4  UNL     1       2.308  -0.452   1.084  1.00  0.00    -0.334 N 
ATOM     25  H4  UNL     1       2.496  -0.629   2.071  1.00  0.00     0.165 HD
ATOM     26  H3  UNL     1       0.660   0.835   2.749  1.00  0.00     0.165 HD
BRANCH  24  27
HETATM   27  C17 UNL     1       3.138  -1.103   0.118  1.00  0.00     0.035 C 
HETATM   28  C18 UNL     1       2.373  -1.996  -0.820  1.00  0.00     0.035 C 
HETATM   29  C19 UNL     1       3.336  -2.667  -1.775  1.00  0.00    -0.012 C 
HETATM   30  C20 UNL     1       4.158  -1.673  -2.563  1.00  0.00     0.009 C 
HETATM   31  C24 UNL     1       4.308  -3.556  -1.032  1.00  0.00     0.009 C 
HETATM   32  C21 UNL     1       4.907  -0.790  -1.594  1.00  0.00    -0.012 C 
HETATM   33  C22 UNL     1       5.880  -1.636  -0.837  1.00  0.00     0.009 C 
HETATM   34  C26 UNL     1       3.897  -0.093  -0.717  1.00  0.00     0.035 C 
HETATM   35  C23 UNL     1       5.088  -2.685  -0.082  1.00  0.00    -0.012 C 
HETATM   36  C25 UNL     1       4.159  -1.957   0.847  1.00  0.00     0.035 C 
ENDBRANCH  24  27
ENDBRANCH   1  21
TORSDOF 12
