REMARK  14 active torsions:
REMARK  status: ('A' for Active; 'I' for Inactive)
REMARK    1  A    between atoms: C2_2  and  C3_3 
REMARK    2  A    between atoms: C3_3  and  O1_5 
REMARK    3  A    between atoms: C3_3  and  C16_26 
REMARK    4  A    between atoms: O1_5  and  N1_6 
REMARK    5  A    between atoms: N2_9  and  C7_10 
REMARK    6  A    between atoms: C7_10  and  C8_11 
REMARK    7  A    between atoms: C8_11  and  C9_12 
REMARK    8  A    between atoms: C9_12  and  C10_13 
REMARK    9  A    between atoms: C10_13  and  C11_14 
REMARK   10  A    between atoms: C11_14  and  C12_15 
REMARK   11  A    between atoms: C12_15  and  C13_16 
REMARK   12  A    between atoms: C13_16  and  C14_17 
REMARK   13  A    between atoms: C14_17  and  O2_18 
REMARK   14  A    between atoms: N3_20  and  O3_22 
REMARK       I    between atoms: C16_26  and  N4_28 
ROOT
HETATM    1  N1  UNL     1      -0.197  -1.576  -1.168  1.00  0.00    -0.205 N 
HETATM    2  C5  UNL     1       0.200  -3.024  -0.971  1.00  0.00     0.181 C 
HETATM    3  C6  UNL     1       1.464  -3.033  -1.816  1.00  0.00     0.150 C 
HETATM    4  N2  UNL     1       2.106  -1.752  -1.427  1.00  0.00    -0.331 N 
HETATM    5  C15 UNL     1       1.066  -0.942  -0.953  1.00  0.00     0.344 C 
HETATM    6  O4  UNL     1       1.231   0.167  -0.426  1.00  0.00    -0.245 OA
ENDROOT
BRANCH   1   7
HETATM    7  O1  UNL     1      -1.387  -1.188  -1.473  1.00  0.00    -0.253 OA
BRANCH   7   8
HETATM    8  C3  UNL     1      -2.243  -0.467  -0.764  1.00  0.00     0.165 C 
HETATM    9  C4  UNL     1      -2.551  -1.151   0.594  1.00  0.00     0.059 C 
BRANCH   8  10
HETATM   10  C2  UNL     1      -1.952   0.951  -0.414  1.00  0.00     0.046 C 
HETATM   11  C1  UNL     1      -1.632   1.836  -1.597  1.00  0.00     0.009 C 
ENDBRANCH   8  10
BRANCH   8  12
HETATM   12  C16 UNL     1      -3.591  -0.463  -1.455  1.00  0.00     0.258 C 
HETATM   13  O5  UNL     1      -3.665  -1.255  -2.467  1.00  0.00    -0.270 OA
HETATM   14  N4  UNL     1      -4.660   0.271  -1.116  1.00  0.00    -0.332 N 
HETATM   15  C17 UNL     1      -5.638   0.392  -0.397  1.00  0.00    -0.011 C 
ATOM     16  H4  UNL     1      -4.652   1.087  -1.728  1.00  0.00     0.168 HD
HETATM   17  C18 UNL     1      -6.051  -0.558   0.647  1.00  0.00     0.053 C 
HETATM   18  C23 UNL     1      -6.519   1.606  -0.573  1.00  0.00     0.053 C 
HETATM   19  C19 UNL     1      -7.505  -0.333   0.989  1.00  0.00     0.010 C 
HETATM   20  C20 UNL     1      -7.835   1.063   1.402  1.00  0.00    -0.018 C 
HETATM   21  C21 UNL     1      -9.211   1.401   0.875  1.00  0.00     0.010 C 
HETATM   22  C22 UNL     1      -6.875   2.083   0.819  1.00  0.00     0.010 C 
ENDBRANCH   8  12
ENDBRANCH   7   8
ENDBRANCH   1   7
BRANCH   4  23
HETATM   23  C7  UNL     1       3.525  -1.590  -1.567  1.00  0.00     0.127 C 
BRANCH  23  24
HETATM   24  C8  UNL     1       4.337  -2.093  -0.440  1.00  0.00     0.020 C 
BRANCH  24  25
HETATM   25  C9  UNL     1       4.173  -1.446   0.885  1.00  0.00     0.002 C 
BRANCH  25  26
HETATM   26  C10 UNL     1       4.576  -0.005   0.843  1.00  0.00     0.000 C 
BRANCH  26  27
HETATM   27  C11 UNL     1       6.046   0.192   0.446  1.00  0.00     0.000 C 
BRANCH  27  28
HETATM   28  C12 UNL     1       6.323   1.688   0.454  1.00  0.00     0.008 C 
BRANCH  28  29
HETATM   29  C13 UNL     1       7.713   2.052   0.064  1.00  0.00     0.086 C 
BRANCH  29  30
HETATM   30  C14 UNL     1       8.782   1.515   0.906  1.00  0.00     0.135 C 
HETATM   31  N3  UNL     1       9.579   2.318   1.505  1.00  0.00    -0.251 N 
ATOM     32  H3  UNL     1       9.440   3.320   1.374  1.00  0.00     0.196 HD
BRANCH  30  33
HETATM   33  O2  UNL     1       9.002   0.156   1.107  1.00  0.00    -0.348 OA
ATOM     34  H2  UNL     1       9.696  -0.193   1.654  1.00  0.00     0.219 HD
ENDBRANCH  30  33
BRANCH  31  35
HETATM   35  O3  UNL     1      10.597   1.913   2.304  1.00  0.00    -0.288 OA
ATOM     36  H3  UNL     1      11.188   2.509   2.749  1.00  0.00     0.244 HD
ENDBRANCH  31  35
ENDBRANCH  29  30
ENDBRANCH  28  29
ENDBRANCH  27  28
ENDBRANCH  26  27
ENDBRANCH  25  26
ENDBRANCH  24  25
ENDBRANCH  23  24
ENDBRANCH   4  23
TORSDOF 14
