REMARK  14 active torsions:
REMARK  status: ('A' for Active; 'I' for Inactive)
REMARK    1  A    between atoms: N1_1  and  C1_4 
REMARK    2  A    between atoms: C2_7  and  C3_8 
REMARK    3  A    between atoms: C3_8  and  C4_9 
REMARK    4  A    between atoms: C4_9  and  C5_10 
REMARK    5  A    between atoms: C5_10  and  C6_11 
REMARK    6  A    between atoms: C6_11  and  N3_12 
REMARK    7  A    between atoms: C12_20  and  C13_21 
REMARK    8  A    between atoms: C13_21  and  O1_22 
REMARK    9  A    between atoms: C14_24  and  C15_25 
REMARK   10  A    between atoms: C15_25  and  S1_26 
REMARK   11  A    between atoms: S1_26  and  C16_27 
REMARK   12  A    between atoms: C16_27  and  C17_28 
REMARK   13  A    between atoms: C17_28  and  C18_29 
REMARK   14  A    between atoms: C18_29  and  N5_30 
ROOT
HETATM    1  C1  UNL     1       0.205  -1.713  -0.604  1.00  0.00     0.106 A 
HETATM    2  N2  UNL     1      -0.999  -1.068  -0.735  1.00  0.00    -0.346 N 
ATOM      3  H2  UNL     1      -1.801  -1.582  -1.099  1.00  0.00     0.167 HD
HETATM    4  C2  UNL     1      -1.144   0.188  -0.406  1.00  0.00     0.011 A 
HETATM    5  C11 UNL     1      -0.057   0.916   0.112  1.00  0.00     0.035 A 
HETATM    6  C12 UNL     1       1.168   0.297   0.257  1.00  0.00    -0.022 A 
HETATM    7  C14 UNL     1       1.324  -0.985  -0.102  1.00  0.00     0.003 A 
ENDROOT
BRANCH   4   8
HETATM    8  C3  UNL     1      -2.335   1.043  -0.609  1.00  0.00     0.057 C 
BRANCH   8   9
HETATM    9  C4  UNL     1      -3.070   1.156   0.702  1.00  0.00     0.007 C 
BRANCH   9  10
HETATM   10  C5  UNL     1      -4.186   2.202   0.541  1.00  0.00     0.020 C 
BRANCH  10  11
HETATM   11  C6  UNL     1      -5.130   1.817  -0.549  1.00  0.00     0.117 C 
BRANCH  11  12
HETATM   12  N3  UNL     1      -5.797   0.594  -0.331  1.00  0.00    -0.409 N 
HETATM   13  C7  UNL     1      -6.513  -0.002  -1.409  1.00  0.00     0.136 C 
HETATM   14  C8  UNL     1      -7.403  -1.077  -0.822  1.00  0.00     0.133 C 
HETATM   15  N4  UNL     1      -6.833  -1.756   0.309  1.00  0.00    -0.418 N 
HETATM   16  C9  UNL     1      -6.414  -0.899   1.387  1.00  0.00     0.133 C 
ATOM     17  H4  UNL     1      -6.733  -2.770   0.345  1.00  0.00     0.153 HD
HETATM   18  C10 UNL     1      -6.539   0.537   0.912  1.00  0.00     0.136 C 
ENDBRANCH  11  12
ENDBRANCH  10  11
ENDBRANCH   9  10
ENDBRANCH   8   9
ENDBRANCH   4   8
BRANCH   1  19
HETATM   19  N1  UNL     1       0.346  -2.931  -0.832  1.00  0.00    -0.385 N 
ATOM     20  H12 UNL     1      -0.454  -3.452  -1.191  1.00  0.00     0.157 HD
ATOM     21  H11 UNL     1       1.241  -3.410  -0.735  1.00  0.00     0.157 HD
ENDBRANCH   1  19
BRANCH   6  22
HETATM   22  C13 UNL     1       2.251   0.999   1.003  1.00  0.00     0.203 C 
BRANCH  22  23
HETATM   23  O1  UNL     1       1.800   1.094   2.407  1.00  0.00    -0.396 OA
ATOM     24  H1  UNL     1       2.490   1.541   2.882  1.00  0.00     0.209 HD
ENDBRANCH  22  23
ENDBRANCH   6  22
BRANCH   7  25
HETATM   25  C15 UNL     1       2.607  -1.764   0.004  1.00  0.00     0.116 C 
BRANCH  25  26
HETATM   26  S1  UNL     1       3.974  -1.211  -0.845  1.00  0.00    -0.164 SA
BRANCH  26  27
HETATM   27  C16 UNL     1       4.952   0.183  -0.824  1.00  0.00     0.076 C 
BRANCH  27  28
HETATM   28  C17 UNL     1       6.109   0.089  -1.922  1.00  0.00     0.030 C 
BRANCH  28  29
HETATM   29  C18 UNL     1       6.869  -1.152  -1.485  1.00  0.00     0.122 C 
BRANCH  29  30
HETATM   30  N5  UNL     1       7.335  -1.004  -0.145  1.00  0.00    -0.367 N 
HETATM   31  C19 UNL     1       8.364  -0.355   0.282  1.00  0.00     0.196 C 
HETATM   32  N6  UNL     1       8.650  -0.330   1.639  1.00  0.00    -0.067 NA
HETATM   33  N7  UNL     1       9.248   0.359  -0.613  1.00  0.00    -0.067 NA
ATOM     34  H5  UNL     1       6.780  -1.474   0.570  1.00  0.00     0.161 HD
ENDBRANCH  29  30
ENDBRANCH  28  29
ENDBRANCH  27  28
ENDBRANCH  26  27
ENDBRANCH  25  26
ENDBRANCH   7  25
TORSDOF 14
