REMARK  15 active torsions:
REMARK  status: ('A' for Active; 'I' for Inactive)
REMARK    1  A    between atoms: C2_2  and  C3_3 
REMARK    2  A    between atoms: C4_6  and  N2_7 
REMARK    3  A    between atoms: N2_7  and  C5_9 
REMARK    4  A    between atoms: C5_9  and  C6_10 
REMARK    5  A    between atoms: C6_10  and  C7_11 
REMARK    6  A    between atoms: C7_11  and  C8_12 
REMARK    7  A    between atoms: C8_12  and  C9_13 
REMARK    8  A    between atoms: C9_13  and  C10_14 
REMARK    9  A    between atoms: C10_14  and  N3_15 
REMARK   10  A    between atoms: C11_21  and  N5_22 
REMARK   11  A    between atoms: N5_22  and  C12_24 
REMARK   12  A    between atoms: C12_24  and  C13_25 
REMARK   13  A    between atoms: C13_25  and  N6_26 
REMARK   14  A    between atoms: C17_33  and  C18_34 
REMARK   15  A    between atoms: C19_35  and  C20_36 
ROOT
HETATM    1  C3  UNL     1      -0.204  -0.505  -3.208  1.00  0.00     0.040 A 
HETATM    2  N1  UNL     1       0.781  -0.761  -2.357  1.00  0.00    -0.195 N 
ATOM      3  H1  UNL     1       1.658  -1.116  -2.737  1.00  0.00     0.184 HD
HETATM    4  C4  UNL     1       0.701  -0.585  -1.035  1.00  0.00     0.679 A 
HETATM    5  N4  UNL     1      -0.429  -0.124  -0.514  1.00  0.00    -0.176 N 
ATOM      6  H4  UNL     1      -0.512   0.018   0.493  1.00  0.00     0.186 HD
HETATM    7  C11 UNL     1      -1.480   0.158  -1.339  1.00  0.00     0.129 A 
HETATM    8  C17 UNL     1      -1.432  -0.012  -2.705  1.00  0.00     0.032 A 
ENDROOT
BRANCH   4   9
HETATM    9  N2  UNL     1       1.730  -0.873  -0.321  1.00  0.00    -0.226 N 
ATOM     10  H2  UNL     1       2.585  -1.227  -0.750  1.00  0.00     0.177 HD
BRANCH   9  11
HETATM   11  C5  UNL     1       1.637  -0.679   1.113  1.00  0.00     0.138 C 
BRANCH  11  12
HETATM   12  C6  UNL     1       2.908  -1.104   1.810  1.00  0.00     0.020 C 
BRANCH  12  13
HETATM   13  C7  UNL     1       4.070  -0.278   1.285  1.00  0.00     0.002 C 
BRANCH  13  14
HETATM   14  C8  UNL     1       5.363  -0.666   1.951  1.00  0.00     0.002 C 
BRANCH  14  15
HETATM   15  C9  UNL     1       6.473   0.174   1.390  1.00  0.00     0.027 C 
BRANCH  15  16
HETATM   16  C10 UNL     1       6.268   1.644   1.613  1.00  0.00     0.229 C 
BRANCH  16  17
HETATM   17  N3  UNL     1       6.188   1.854   3.066  1.00  0.00    -0.079 N 
ATOM     18  H33 UNL     1       5.476   1.278   3.515  1.00  0.00     0.274 HD
ATOM     19  H32 UNL     1       6.993   1.482   3.569  1.00  0.00     0.274 HD
ATOM     20  H31 UNL     1       6.049   2.853   3.218  1.00  0.00     0.274 HD
ENDBRANCH  16  17
ENDBRANCH  15  16
ENDBRANCH  14  15
ENDBRANCH  13  14
ENDBRANCH  12  13
ENDBRANCH  11  12
ENDBRANCH   9  11
ENDBRANCH   4   9
BRANCH   1  21
HETATM   21  C2  UNL     1      -0.055  -0.710  -4.684  1.00  0.00     0.054 C 
HETATM   22  C1  UNL     1       0.171   0.580  -5.428  1.00  0.00     0.011 C 
ENDBRANCH   1  21
BRANCH   7  23
HETATM   23  N5  UNL     1      -2.550   0.599  -0.799  1.00  0.00    -0.374 N 
ATOM     24  H5  UNL     1      -3.326   0.805  -1.428  1.00  0.00     0.161 HD
BRANCH  23  25
HETATM   25  C12 UNL     1      -2.779   0.836   0.602  1.00  0.00     0.141 C 
BRANCH  25  26
HETATM   26  C13 UNL     1      -3.257  -0.462   1.213  1.00  0.00     0.145 C 
BRANCH  26  27
HETATM   27  N6  UNL     1      -3.523  -0.367   2.609  1.00  0.00    -0.353 N 
HETATM   28  C14 UNL     1      -2.600  -0.169   3.711  1.00  0.00     0.145 C 
HETATM   29  C15 UNL     1      -3.467   0.166   4.886  1.00  0.00     0.142 C 
HETATM   30  N7  UNL     1      -4.786  -0.161   4.448  1.00  0.00    -0.363 N 
HETATM   31  C16 UNL     1      -4.811  -0.453   3.198  1.00  0.00     0.186 C 
ATOM     32  H7  UNL     1      -5.607  -0.162   5.053  1.00  0.00     0.162 HD
HETATM   33  N8  UNL     1      -6.026  -0.813   2.533  1.00  0.00    -0.064 NA
ENDBRANCH  26  27
ENDBRANCH  25  26
ENDBRANCH  23  25
ENDBRANCH   7  23
BRANCH   8  34
HETATM   34  C18 UNL     1      -2.505   0.252  -3.627  1.00  0.00     0.024 C 
HETATM   35  C19 UNL     1      -3.695   0.717  -3.431  1.00  0.00     0.085 C 
BRANCH  35  36
HETATM   36  C20 UNL     1      -4.633   0.902  -4.567  1.00  0.00     0.198 C 
HETATM   37  O1  UNL     1      -5.768   1.350  -4.338  1.00  0.00    -0.645 OA
HETATM   38  O2  UNL     1      -4.254   0.584  -5.839  1.00  0.00    -0.645 OA
ENDBRANCH  35  36
ENDBRANCH   8  34
TORSDOF 15
