REMARK  15 active torsions:
REMARK  status: ('A' for Active; 'I' for Inactive)
REMARK    1  A    between atoms: C5_6  and  C6_7 
REMARK    2  A    between atoms: C6_7  and  N1_8 
REMARK    3  A    between atoms: N1_8  and  C7_11 
REMARK    4  A    between atoms: C7_11  and  C8_12 
REMARK    5  A    between atoms: C8_12  and  C9_13 
REMARK    6  A    between atoms: C9_13  and  C10_14 
REMARK    7  A    between atoms: C10_14  and  C11_15 
REMARK    8  A    between atoms: C11_15  and  C12_16 
REMARK    9  A    between atoms: C12_16  and  C13_17 
REMARK   10  A    between atoms: C13_17  and  C14_18 
REMARK   11  A    between atoms: C14_18  and  C15_19 
REMARK   12  A    between atoms: C15_19  and  C16_20 
REMARK   13  A    between atoms: C16_20  and  N2_21 
REMARK   14  A    between atoms: C18_29  and  C19_30 
REMARK   15  A    between atoms: C22_38  and  O4_39 
ROOT
HETATM    1  C1  UNL     1      -3.825  -0.080  -3.987  1.00  0.00     0.048 C 
HETATM    2  C2  UNL     1      -3.634   0.605  -2.635  1.00  0.00    -0.025 C 
HETATM    3  C3  UNL     1      -2.425   0.711  -2.132  1.00  0.00     0.062 C 
HETATM    4  C4  UNL     1      -1.979   1.301  -0.888  1.00  0.00     0.185 C 
HETATM    5  O1  UNL     1      -1.375   2.441  -1.011  1.00  0.00    -0.288 OA
HETATM    6  C5  UNL     1      -2.111   0.789   0.487  1.00  0.00     0.085 C 
HETATM    7  C17 UNL     1      -3.241   1.367   1.258  1.00  0.00     0.254 C 
HETATM    8  O2  UNL     1      -3.038   2.582   1.673  1.00  0.00    -0.268 OA
HETATM    9  N3  UNL     1      -4.469   0.810   1.598  1.00  0.00    -0.344 N 
ATOM     10  H3  UNL     1      -5.183   1.504   1.821  1.00  0.00     0.163 HD
HETATM   11  C18 UNL     1      -4.930  -0.531   1.698  1.00  0.00     0.175 C 
HETATM   12  C20 UNL     1      -5.892  -0.912   0.589  1.00  0.00     0.062 C 
HETATM   13  C21 UNL     1      -6.272   0.220  -0.303  1.00  0.00     0.238 C 
HETATM   14  N5  UNL     1      -5.771   0.020  -1.659  1.00  0.00    -0.045 N 
ATOM     15  H51 UNL     1      -6.533  -0.122  -2.322  1.00  0.00     0.280 HD
ATOM     16  H52 UNL     1      -5.307  -0.883  -1.757  1.00  0.00     0.280 HD
HETATM   17  C22 UNL     1      -4.913   1.100  -2.066  1.00  0.00     0.348 C 
ENDROOT
BRANCH   6  18
HETATM   18  C6  UNL     1      -1.887  -0.669   0.684  1.00  0.00     0.280 C 
BRANCH  18  19
HETATM   19  N1  UNL     1      -0.532  -1.028   0.279  1.00  0.00    -0.071 N 
ATOM     20  H12 UNL     1      -0.444  -2.040   0.189  1.00  0.00     0.277 HD
ATOM     21  H11 UNL     1      -0.364  -0.752  -0.688  1.00  0.00     0.277 HD
BRANCH  19  22
HETATM   22  C7  UNL     1       0.494  -0.511   1.131  1.00  0.00     0.232 C 
BRANCH  22  23
HETATM   23  C8  UNL     1       1.808  -1.227   0.803  1.00  0.00     0.027 C 
BRANCH  23  24
HETATM   24  C9  UNL     1       2.908  -0.683   1.736  1.00  0.00     0.002 C 
BRANCH  24  25
HETATM   25  C10 UNL     1       3.169   0.749   1.493  1.00  0.00     0.000 C 
BRANCH  25  26
HETATM   26  C11 UNL     1       3.639   1.093   0.145  1.00  0.00     0.000 C 
BRANCH  26  27
HETATM   27  C12 UNL     1       4.971   0.654  -0.345  1.00  0.00     0.000 C 
BRANCH  27  28
HETATM   28  C13 UNL     1       5.313  -0.763  -0.409  1.00  0.00     0.000 C 
BRANCH  28  29
HETATM   29  C14 UNL     1       6.585  -1.158  -1.070  1.00  0.00     0.002 C 
BRANCH  29  30
HETATM   30  C15 UNL     1       7.892  -0.689  -0.641  1.00  0.00     0.027 C 
BRANCH  30  31
HETATM   31  C16 UNL     1       8.262   0.749  -0.763  1.00  0.00     0.229 C 
BRANCH  31  32
HETATM   32  N2  UNL     1       9.652   0.952  -0.294  1.00  0.00    -0.079 N 
ATOM     33  H23 UNL     1       9.792   0.599   0.653  1.00  0.00     0.274 HD
ATOM     34  H22 UNL     1      10.312   0.344  -0.778  1.00  0.00     0.274 HD
ATOM     35  H21 UNL     1       9.905   1.937  -0.378  1.00  0.00     0.274 HD
ENDBRANCH  31  32
ENDBRANCH  30  31
ENDBRANCH  29  30
ENDBRANCH  28  29
ENDBRANCH  27  28
ENDBRANCH  26  27
ENDBRANCH  25  26
ENDBRANCH  24  25
ENDBRANCH  23  24
ENDBRANCH  22  23
ENDBRANCH  19  22
ENDBRANCH  18  19
ENDBRANCH   6  18
BRANCH  11  36
HETATM   36  C19 UNL     1      -5.769  -0.663   2.965  1.00  0.00     0.254 C 
HETATM   37  N4  UNL     1      -6.206  -2.001   3.222  1.00  0.00    -0.060 NA
HETATM   38  O3  UNL     1      -6.024   0.319   3.676  1.00  0.00    -0.275 OA
ENDBRANCH  11  36
BRANCH  17  39
HETATM   39  O4  UNL     1      -5.630   1.743  -3.125  1.00  0.00    -0.366 OA
ATOM     40  H4  UNL     1      -6.448   2.060  -2.761  1.00  0.00     0.212 HD
ENDBRANCH  17  39
TORSDOF 15
