REMARK  16 active torsions:
REMARK  status: ('A' for Active; 'I' for Inactive)
REMARK    1  A    between atoms: C2_2  and  C3_3 
REMARK    2  A    between atoms: C8_8  and  C9_9 
REMARK    3  A    between atoms: C10_10  and  C11_11 
REMARK    4  A    between atoms: C12_12  and  C13_13 
REMARK    5  A    between atoms: C13_13  and  O1_14 
REMARK    6  A    between atoms: C13_13  and  C14_16 
REMARK    7  A    between atoms: C14_16  and  C15_17 
REMARK    8  A    between atoms: C15_17  and  N1_18 
REMARK    9  A    between atoms: N1_18  and  S1_20 
REMARK   10  A    between atoms: S1_20  and  N2_23 
REMARK   11  A    between atoms: N2_23  and  C16_25 
REMARK   12  A    between atoms: C16_25  and  C17_26 
REMARK   13  A    between atoms: C17_26  and  C18_27 
REMARK   14  A    between atoms: C18_27  and  N3_28 
REMARK   15  A    between atoms: N3_28  and  C19_30 
REMARK   16  A    between atoms: C19_30  and  C20_31 
ROOT
HETATM    1  C15 UNL     1       1.558  -0.450  -1.228  1.00  0.00     0.137 C 
ENDROOT
BRANCH   1   2
HETATM    2  C14 UNL     1       0.244  -1.220  -1.028  1.00  0.00     0.065 C 
BRANCH   2   3
HETATM    3  C13 UNL     1      -0.812  -0.164  -0.821  1.00  0.00     0.198 C 
BRANCH   3   4
HETATM    4  C12 UNL     1      -2.086  -0.853  -0.626  1.00  0.00    -0.070 C 
HETATM    5  C11 UNL     1      -3.153  -1.405  -0.460  1.00  0.00    -0.076 C 
BRANCH   5   6
HETATM    6  C10 UNL     1      -4.392  -2.095  -0.286  1.00  0.00     0.061 C 
HETATM    7  C9  UNL     1      -5.448  -1.772   0.345  1.00  0.00    -0.013 C 
BRANCH   7   8
HETATM    8  C8  UNL     1      -5.768  -0.578   1.114  1.00  0.00     0.016 C 
HETATM    9  C3  UNL     1      -7.104  -0.039   0.626  1.00  0.00     0.015 C 
HETATM   10  C4  UNL     1      -6.933   1.390   0.184  1.00  0.00     0.009 C 
HETATM   11  C5  UNL     1      -6.491   2.219   1.361  1.00  0.00     0.001 C 
HETATM   12  C6  UNL     1      -5.236   1.684   1.977  1.00  0.00     0.001 C 
HETATM   13  C7  UNL     1      -4.706   0.482   1.179  1.00  0.00     0.009 C 
BRANCH   9  14
HETATM   14  C2  UNL     1      -7.551  -0.863  -0.528  1.00  0.00    -0.032 C 
HETATM   15  C1  UNL     1      -8.689  -1.544  -0.523  1.00  0.00     0.007 C 
ENDBRANCH   9  14
ENDBRANCH   7   8
ENDBRANCH   5   6
ENDBRANCH   3   4
BRANCH   3  16
HETATM   16  O1  UNL     1      -0.850   0.609  -2.004  1.00  0.00    -0.383 OA
ATOM     17  H1  UNL     1      -0.022   1.057  -2.131  1.00  0.00     0.211 HD
ENDBRANCH   3  16
ENDBRANCH   2   3
ENDBRANCH   1   2
BRANCH   1  18
HETATM   18  N1  UNL     1       1.760   0.312  -0.034  1.00  0.00    -0.303 N 
ATOM     19  H1  UNL     1       1.109   0.290   0.751  1.00  0.00     0.173 HD
BRANCH  18  20
HETATM   20  S1  UNL     1       3.178   1.260  -0.031  1.00  0.00     0.314 S 
HETATM   21  O2  UNL     1       2.971   2.553   0.722  1.00  0.00    -0.183 OA
HETATM   22  O3  UNL     1       3.513   1.617  -1.473  1.00  0.00    -0.183 OA
BRANCH  20  23
HETATM   23  N2  UNL     1       4.461   0.353   0.673  1.00  0.00    -0.303 N 
ATOM     24  H2  UNL     1       4.658   0.345   1.674  1.00  0.00     0.173 HD
BRANCH  23  25
HETATM   25  C16 UNL     1       5.228  -0.393  -0.292  1.00  0.00     0.135 C 
BRANCH  25  26
HETATM   26  C17 UNL     1       6.341  -1.171   0.379  1.00  0.00     0.039 C 
BRANCH  26  27
HETATM   27  C18 UNL     1       7.299  -0.282   1.111  1.00  0.00     0.116 C 
BRANCH  27  28
HETATM   28  N3  UNL     1       7.961   0.684   0.295  1.00  0.00    -0.412 N 
ATOM     29  H3  UNL     1       7.780   1.684   0.380  1.00  0.00     0.153 HD
BRANCH  28  30
HETATM   30  C19 UNL     1       8.894   0.156  -0.648  1.00  0.00     0.228 C 
BRANCH  30  31
HETATM   31  C20 UNL     1       9.496   1.272  -1.414  1.00  0.00     0.190 C 
HETATM   32  O4  UNL     1       9.155   2.457  -1.183  1.00  0.00    -0.647 OA
HETATM   33  O5  UNL     1      10.438   1.024  -2.391  1.00  0.00    -0.647 OA
ENDBRANCH  30  31
ENDBRANCH  28  30
ENDBRANCH  27  28
ENDBRANCH  26  27
ENDBRANCH  25  26
ENDBRANCH  23  25
ENDBRANCH  20  23
ENDBRANCH  18  20
ENDBRANCH   1  18
TORSDOF 16
