REMARK  18 active torsions:
REMARK  status: ('A' for Active; 'I' for Inactive)
REMARK    1  A    between atoms: C2_2  and  C3_3 
REMARK    2  A    between atoms: C3_3  and  C4_4 
REMARK    3  A    between atoms: C4_4  and  C5_5 
REMARK    4  A    between atoms: C5_5  and  C6_6 
REMARK    5  A    between atoms: C6_6  and  C7_7 
REMARK    6  A    between atoms: C7_7  and  C8_8 
REMARK    7  A    between atoms: C8_8  and  C9_9 
REMARK    8  A    between atoms: C9_9  and  C10_10 
REMARK    9  A    between atoms: C10_10  and  C11_11 
REMARK   10  A    between atoms: C11_11  and  C12_12 
REMARK   11  A    between atoms: C12_12  and  N1_13 
REMARK   12  A    between atoms: N1_13  and  C13_15 
REMARK   13  A    between atoms: C14_18  and  N3_19 
REMARK   14  A    between atoms: C16_25  and  N5_26 
REMARK   15  A    between atoms: C19_29  and  C20_30 
REMARK   16  A    between atoms: C20_30  and  N6_31 
REMARK   17  A    between atoms: C24_42  and  N9_43 
REMARK   18  A    between atoms: N9_43  and  N10_45 
ROOT
HETATM    1  C13 UNL     1      -1.453   0.370  -0.080  1.00  0.00     0.153 C 
HETATM    2  N2  UNL     1      -2.173   1.532  -0.141  1.00  0.00    -0.324 N 
ATOM      3  H2  UNL     1      -1.661   2.372   0.129  1.00  0.00     0.169 HD
HETATM    4  C14 UNL     1      -3.453   1.737  -0.502  1.00  0.00     0.132 C 
HETATM    5  C15 UNL     1      -4.509   0.840  -0.537  1.00  0.00     0.137 A 
HETATM    6  N4  UNL     1      -5.813   1.121  -0.605  1.00  0.00    -0.184 N 
ATOM      7  H4  UNL     1      -6.207   2.061  -0.642  1.00  0.00     0.184 HD
HETATM    8  C16 UNL     1      -6.544  -0.036  -0.618  1.00  0.00     0.682 A 
HETATM    9  N7  UNL     1      -5.655  -1.036  -0.557  1.00  0.00    -0.174 N 
ATOM     10  H7  UNL     1      -5.889  -2.029  -0.550  1.00  0.00     0.186 HD
HETATM   11  C23 UNL     1      -4.397  -0.532  -0.506  1.00  0.00     0.154 A 
HETATM   12  N8  UNL     1      -3.271  -1.283  -0.433  1.00  0.00    -0.322 N 
ATOM     13  H8  UNL     1      -3.343  -2.250  -0.748  1.00  0.00     0.169 HD
HETATM   14  C24 UNL     1      -2.060  -0.878   0.016  1.00  0.00     0.166 C 
ENDROOT
BRANCH   1  15
HETATM   15  N1  UNL     1      -0.211   0.439  -0.109  1.00  0.00    -0.353 N 
ATOM     16  H1  UNL     1       0.133   1.397  -0.178  1.00  0.00     0.166 HD
BRANCH  15  17
HETATM   17  C12 UNL     1       0.824  -0.514  -0.067  1.00  0.00     0.062 C 
BRANCH  17  18
HETATM   18  C11 UNL     1       2.172   0.156  -0.340  1.00  0.00     0.044 C 
BRANCH  18  19
HETATM   19  C10 UNL     1       3.276  -0.857  -0.286  1.00  0.00     0.005 C 
BRANCH  19  20
HETATM   20  C9  UNL     1       4.626  -0.265  -0.545  1.00  0.00     0.000 C 
BRANCH  20  21
HETATM   21  C8  UNL     1       4.981   0.801   0.449  1.00  0.00     0.000 C 
BRANCH  21  22
HETATM   22  C7  UNL     1       6.335   1.383   0.185  1.00  0.00     0.000 C 
BRANCH  22  23
HETATM   23  C6  UNL     1       7.431   0.348   0.263  1.00  0.00     0.000 C 
BRANCH  23  24
HETATM   24  C5  UNL     1       8.757   1.044  -0.019  1.00  0.00     0.000 C 
BRANCH  24  25
HETATM   25  C4  UNL     1       9.850   0.012   0.064  1.00  0.00     0.000 C 
BRANCH  25  26
HETATM   26  C3  UNL     1      11.194   0.653  -0.209  1.00  0.00    -0.000 C 
BRANCH  26  27
HETATM   27  C2  UNL     1      12.296  -0.389  -0.124  1.00  0.00    -0.005 C 
HETATM   28  C1  UNL     1      13.634   0.258  -0.398  1.00  0.00     0.005 C 
ENDBRANCH  26  27
ENDBRANCH  25  26
ENDBRANCH  24  25
ENDBRANCH  23  24
ENDBRANCH  22  23
ENDBRANCH  21  22
ENDBRANCH  20  21
ENDBRANCH  19  20
ENDBRANCH  18  19
ENDBRANCH  17  18
ENDBRANCH  15  17
ENDBRANCH   1  15
BRANCH  14  29
HETATM   29  N9  UNL     1      -1.400  -1.796   0.614  1.00  0.00    -0.289 N 
ATOM     30  H9  UNL     1      -0.477  -1.573   0.986  1.00  0.00     0.188 HD
BRANCH  29  31
HETATM   31  N10 UNL     1      -1.889  -3.075   0.775  1.00  0.00    -0.344 N 
ATOM     32 2H10 UNL     1      -2.814  -3.280   0.397  1.00  0.00     0.176 HD
ATOM     33 1H10 UNL     1      -1.363  -3.807   1.252  1.00  0.00     0.176 HD
ENDBRANCH  29  31
ENDBRANCH  14  29
BRANCH   4  34
HETATM   34  N3  UNL     1      -3.787   2.924  -0.876  1.00  0.00    -0.383 N 
ATOM     35  H32 UNL     1      -3.010   3.584  -0.850  1.00  0.00     0.157 HD
ATOM     36  H31 UNL     1      -4.757   3.079  -1.150  1.00  0.00     0.157 HD
ENDBRANCH   4  34
BRANCH   8  37
HETATM   37  N5  UNL     1      -7.948  -0.155  -0.678  1.00  0.00    -0.217 N 
HETATM   38  C17 UNL     1      -8.561  -1.456  -0.691  1.00  0.00     0.141 C 
HETATM   39  C18 UNL     1      -9.479  -1.483   0.539  1.00  0.00     0.027 C 
HETATM   40  C19 UNL     1     -10.562  -0.483   0.329  1.00  0.00     0.014 C 
HETATM   41  C21 UNL     1     -10.270   0.606  -0.643  1.00  0.00     0.027 C 
HETATM   42  C22 UNL     1      -8.812   1.005  -0.723  1.00  0.00     0.141 C 
BRANCH  40  43
HETATM   43  C20 UNL     1     -11.072   0.084   1.663  1.00  0.00     0.234 C 
BRANCH  43  44
HETATM   44  N6  UNL     1      -9.959   0.713   2.320  1.00  0.00    -0.079 N 
ATOM     45  H63 UNL     1      -9.160   0.089   2.433  1.00  0.00     0.274 HD
ATOM     46  H62 UNL     1      -9.500   1.415   1.740  1.00  0.00     0.274 HD
ATOM     47  H61 UNL     1     -10.298   1.089   3.206  1.00  0.00     0.274 HD
ENDBRANCH  43  44
ENDBRANCH  40  43
ENDBRANCH   8  37
TORSDOF 18
