REMARK  17 active torsions:
REMARK  status: ('A' for Active; 'I' for Inactive)
REMARK    1  A    between atoms: C3_9  and  N4_10 
REMARK    2  A    between atoms: N4_10  and  C4_12 
REMARK    3  A    between atoms: C4_12  and  C5_13 
REMARK    4  A    between atoms: C5_13  and  C6_14 
REMARK    5  A    between atoms: C6_14  and  C7_15 
REMARK    6  A    between atoms: C7_15  and  C8_16 
REMARK    7  A    between atoms: C8_16  and  C9_17 
REMARK    8  A    between atoms: C9_17  and  C10_18 
REMARK    9  A    between atoms: C10_18  and  C11_19 
REMARK   10  A    between atoms: C11_19  and  C12_20 
REMARK   11  A    between atoms: C12_20  and  S1_21 
REMARK   12  A    between atoms: S1_21  and  C13_22 
REMARK   13  A    between atoms: C13_22  and  C14_23 
REMARK   14  A    between atoms: C14_23  and  N5_24 
REMARK   15  A    between atoms: N5_24  and  C15_26 
REMARK   16  A    between atoms: C19_36  and  C20_37 
REMARK   17  A    between atoms: N10_39  and  O1_41 
ROOT
HETATM    1  C13 UNL     1      -3.360  -0.254   1.911  1.00  0.00     0.093 C 
ENDROOT
BRANCH   1   2
HETATM    2  S1  UNL     1      -1.881  -0.693   2.760  1.00  0.00    -0.168 SA
BRANCH   2   3
HETATM    3  C12 UNL     1      -0.953  -2.079   2.203  1.00  0.00     0.074 C 
BRANCH   3   4
HETATM    4  C11 UNL     1      -0.283  -2.002   0.887  1.00  0.00     0.010 C 
BRANCH   4   5
HETATM    5  C10 UNL     1       0.702  -0.891   0.743  1.00  0.00     0.001 C 
BRANCH   5   6
HETATM    6  C9  UNL     1       1.842  -0.891   1.683  1.00  0.00     0.000 C 
BRANCH   6   7
HETATM    7  C8  UNL     1       2.722  -2.110   1.620  1.00  0.00     0.000 C 
BRANCH   7   8
HETATM    8  C7  UNL     1       3.337  -2.295   0.249  1.00  0.00     0.000 C 
BRANCH   8   9
HETATM    9  C6  UNL     1       4.185  -1.131  -0.163  1.00  0.00     0.002 C 
BRANCH   9  10
HETATM   10  C5  UNL     1       5.340  -0.840   0.739  1.00  0.00     0.020 C 
BRANCH  10  11
HETATM   11  C4  UNL     1       6.060   0.375   0.138  1.00  0.00     0.121 C 
BRANCH  11  12
HETATM   12  N4  UNL     1       6.488   0.006  -1.189  1.00  0.00    -0.374 N 
ATOM     13  H4  UNL     1       5.838  -0.504  -1.787  1.00  0.00     0.161 HD
BRANCH  12  14
HETATM   14  C3  UNL     1       7.658   0.293  -1.652  1.00  0.00     0.141 A 
HETATM   15  C2  UNL     1       8.101  -0.041  -2.911  1.00  0.00     0.068 A 
HETATM   16  C1  UNL     1       7.343  -0.773  -3.946  1.00  0.00     0.074 C 
HETATM   17  N1  UNL     1       9.360   0.414  -3.054  1.00  0.00    -0.287 N 
HETATM   18  N2  UNL     1       9.682   1.006  -1.926  1.00  0.00    -0.241 N 
ATOM     19  H1  UNL     1       9.951   0.318  -3.880  1.00  0.00     0.188 HD
HETATM   20  N3  UNL     1       8.669   0.947  -1.062  1.00  0.00    -0.270 N 
ATOM     21  H2  UNL     1      10.581   1.449  -1.738  1.00  0.00     0.208 HD
ATOM     22  H3  UNL     1       8.664   1.332  -0.117  1.00  0.00     0.190 HD
ENDBRANCH  12  14
ENDBRANCH  11  12
ENDBRANCH  10  11
ENDBRANCH   9  10
ENDBRANCH   8   9
ENDBRANCH   7   8
ENDBRANCH   6   7
ENDBRANCH   5   6
ENDBRANCH   4   5
ENDBRANCH   3   4
ENDBRANCH   2   3
ENDBRANCH   1   2
BRANCH   1  23
HETATM   23  C14 UNL     1      -3.240   0.262   0.521  1.00  0.00     0.131 C 
BRANCH  23  24
HETATM   24  N5  UNL     1      -4.611   0.569   0.084  1.00  0.00    -0.375 N 
ATOM     25  H5  UNL     1      -5.148  -0.129  -0.431  1.00  0.00     0.161 HD
BRANCH  24  26
HETATM   26  C15 UNL     1      -5.130   1.702   0.346  1.00  0.00     0.117 A 
HETATM   27  N6  UNL     1      -4.393   2.627   1.037  1.00  0.00    -0.338 N 
HETATM   28  C16 UNL     1      -4.919   3.821   1.326  1.00  0.00     0.183 A 
ATOM     29  H6  UNL     1      -3.442   2.404   1.331  1.00  0.00     0.168 HD
HETATM   30  N7  UNL     1      -6.168   4.090   0.928  1.00  0.00    -0.338 N 
HETATM   31  C17 UNL     1      -6.924   3.207   0.247  1.00  0.00     0.121 A 
ATOM     32  H7  UNL     1      -6.565   5.003   1.150  1.00  0.00     0.168 HD
HETATM   33  N8  UNL     1      -8.159   3.242  -0.244  1.00  0.00    -0.350 N 
HETATM   34  C21 UNL     1      -6.416   1.959  -0.072  1.00  0.00     0.067 A 
HETATM   35  C18 UNL     1      -8.469   2.103  -0.851  1.00  0.00     0.105 A 
ATOM     36  H8  UNL     1      -8.788   4.041  -0.164  1.00  0.00     0.166 HD
HETATM   37  C19 UNL     1      -7.368   1.220  -0.773  1.00  0.00     0.040 A 
BRANCH  37  38
HETATM   38  C20 UNL     1      -7.353  -0.098  -1.327  1.00  0.00     0.148 C 
HETATM   39  N9  UNL     1      -6.318  -1.047  -1.312  1.00  0.00    -0.080 NA
HETATM   40  N10 UNL     1      -8.397  -0.546  -1.938  1.00  0.00    -0.255 N 
ATOM     41  H10 UNL     1      -8.272  -1.495  -2.290  1.00  0.00     0.195 HD
BRANCH  40  42
HETATM   42  O1  UNL     1      -9.572  -0.061  -2.206  1.00  0.00    -0.288 OA
ATOM     43  H1  UNL     1     -10.341  -0.391  -2.656  1.00  0.00     0.244 HD
ENDBRANCH  40  42
ENDBRANCH  37  38
ENDBRANCH  24  26
ENDBRANCH  23  24
ENDBRANCH   1  23
TORSDOF 17
