REMARK  12 active torsions:
REMARK  status: ('A' for Active; 'I' for Inactive)
REMARK    1  A    between atoms: N3_4  and  C2_6 
REMARK    2  A    between atoms: C2_6  and  C3_7 
REMARK    3  A    between atoms: C3_7  and  C4_8 
REMARK    4  A    between atoms: C4_8  and  C5_9 
REMARK    5  A    between atoms: C5_9  and  N4_10 
REMARK    6  A    between atoms: C5_9  and  C12_18 
REMARK    7  A    between atoms: N4_10  and  C6_12 
REMARK    8  A    between atoms: C12_18  and  C13_20 
REMARK    9  A    between atoms: C13_20  and  C14_21 
REMARK   10  A    between atoms: C14_21  and  C15_22 
REMARK   11  A    between atoms: C17_28  and  C18_29 
REMARK   12  A    between atoms: C18_29  and  N7_30 
ROOT
HETATM    1  C5  UNL     1      -0.976  -0.936  -0.356  1.00  0.00     0.147 C 
ENDROOT
BRANCH   1   2
HETATM    2  C4  UNL     1      -1.694   0.111  -1.150  1.00  0.00     0.034 C 
BRANCH   2   3
HETATM    3  C3  UNL     1      -1.791   1.395  -0.315  1.00  0.00     0.022 C 
BRANCH   3   4
HETATM    4  C2  UNL     1      -2.531   2.388  -1.217  1.00  0.00     0.122 C 
BRANCH   4   5
HETATM    5  N3  UNL     1      -2.701   3.671  -0.579  1.00  0.00    -0.367 N 
HETATM    6  C1  UNL     1      -3.844   4.231  -0.539  1.00  0.00     0.196 C 
HETATM    7  N1  UNL     1      -4.960   3.585  -1.129  1.00  0.00    -0.067 NA
HETATM    8  N2  UNL     1      -4.082   5.496   0.071  1.00  0.00    -0.067 NA
ATOM      9  H3  UNL     1      -1.897   4.134  -0.156  1.00  0.00     0.161 HD
ENDBRANCH   4   5
ENDBRANCH   3   4
ENDBRANCH   2   3
ENDBRANCH   1   2
BRANCH   1  10
HETATM   10  N4  UNL     1      -1.627  -1.282   0.833  1.00  0.00    -0.406 N 
ATOM     11  H4  UNL     1      -1.183  -1.031   1.716  1.00  0.00     0.154 HD
BRANCH  10  12
HETATM   12  C6  UNL     1      -2.844  -1.948   0.878  1.00  0.00     0.077 C 
HETATM   13  C7  UNL     1      -2.803  -3.344   0.251  1.00  0.00     0.024 C 
HETATM   14  C8  UNL     1      -3.900  -4.149   0.881  1.00  0.00     0.002 C 
HETATM   15  C9  UNL     1      -4.861  -3.356   1.707  1.00  0.00     0.000 C 
HETATM   16  C10 UNL     1      -5.263  -2.037   1.142  1.00  0.00     0.002 C 
HETATM   17  C11 UNL     1      -4.101  -1.317   0.420  1.00  0.00     0.024 C 
ENDBRANCH  10  12
ENDBRANCH   1  10
BRANCH   1  18
HETATM   18  C12 UNL     1       0.413  -0.391  -0.096  1.00  0.00     0.149 C 
HETATM   19  O1  UNL     1       0.795  -0.319   1.050  1.00  0.00    -0.296 OA
BRANCH  18  20
HETATM   20  C13 UNL     1       1.287   0.042  -1.202  1.00  0.00     0.081 C 
BRANCH  20  21
HETATM   21  C14 UNL     1       2.642   0.470  -0.768  1.00  0.00     0.016 C 
BRANCH  21  22
HETATM   22  C15 UNL     1       3.484  -0.521  -0.092  1.00  0.00     0.031 C 
HETATM   23  C16 UNL     1       3.802  -1.759  -0.894  1.00  0.00     0.145 C 
HETATM   24  N5  UNL     1       4.736  -1.247  -1.851  1.00  0.00    -0.340 N 
HETATM   25  N6  UNL     1       5.360  -0.282  -1.346  1.00  0.00    -0.334 N 
ATOM     26  H5  UNL     1       4.873  -1.609  -2.795  1.00  0.00     0.179 HD
HETATM   27  C17 UNL     1       4.940  -0.027  -0.023  1.00  0.00     0.122 C 
ATOM     28  H6  UNL     1       6.081   0.252  -1.832  1.00  0.00     0.180 HD
BRANCH  27  29
HETATM   29  C18 UNL     1       5.068   1.359   0.456  1.00  0.00     0.149 C 
BRANCH  29  30
HETATM   30  N7  UNL     1       6.476   1.698   0.473  1.00  0.00    -0.365 N 
HETATM   31  C19 UNL     1       7.335   1.262   1.293  1.00  0.00     0.197 C 
HETATM   32  N8  UNL     1       7.089   0.354   2.359  1.00  0.00    -0.067 NA
HETATM   33  N9  UNL     1       8.682   1.717   1.144  1.00  0.00    -0.067 NA
ATOM     34  H7  UNL     1       6.805   2.348  -0.241  1.00  0.00     0.161 HD
ENDBRANCH  29  30
ENDBRANCH  27  29
ENDBRANCH  21  22
ENDBRANCH  20  21
ENDBRANCH  18  20
ENDBRANCH   1  18
TORSDOF 12
