REMARK  10 active torsions:
REMARK  status: ('A' for Active; 'I' for Inactive)
REMARK    1  A    between atoms: C2_2  and  C3_3 
REMARK    2  A    between atoms: C3_3  and  C4_4 
REMARK    3  A    between atoms: C4_4  and  N1_5 
REMARK    4  A    between atoms: N1_5  and  C5_7 
REMARK    5  A    between atoms: C7_12  and  S1_13 
REMARK    6  A    between atoms: S1_13  and  C8_14 
REMARK    7  A    between atoms: C8_14  and  C9_15 
REMARK    8  A    between atoms: N5_22  and  C13_24 
REMARK    9  A    between atoms: C13_24  and  C14_25 
REMARK   10  A    between atoms: C14_25  and  N6_26 
REMARK       I    between atoms: N6_26  and  C15_28 
ROOT
HETATM    1  C5  UNL     1      -1.376  -2.572  -0.471  1.00  0.00     0.681 A 
HETATM    2  N2  UNL     1      -2.187  -1.517  -0.597  1.00  0.00    -0.177 N 
ATOM      3  H2  UNL     1      -3.193  -1.681  -0.645  1.00  0.00     0.185 HD
HETATM    4  C6  UNL     1      -1.735  -0.230  -0.664  1.00  0.00     0.152 A 
HETATM    5  N3  UNL     1      -2.662   0.839  -0.796  1.00  0.00    -0.081 NA
HETATM    6  C7  UNL     1      -0.395   0.039  -0.603  1.00  0.00     0.086 A 
HETATM    7  C12 UNL     1       0.465  -1.068  -0.470  1.00  0.00     0.137 A 
HETATM    8  N5  UNL     1       1.711  -0.991  -0.396  1.00  0.00    -0.373 N 
ATOM      9  H5  UNL     1       2.150  -1.907  -0.302  1.00  0.00     0.161 HD
HETATM   10  N9  UNL     1      -0.069  -2.331  -0.410  1.00  0.00    -0.176 N 
ATOM     11  H9  UNL     1       0.567  -3.123  -0.314  1.00  0.00     0.186 HD
ENDROOT
BRANCH   6  12
HETATM   12  S1  UNL     1       0.274   1.655  -0.683  1.00  0.00    -0.121 SA
BRANCH  12  13
HETATM   13  C8  UNL     1      -0.899   2.975  -0.832  1.00  0.00     0.112 C 
BRANCH  13  14
HETATM   14  C9  UNL     1      -0.155   4.328  -0.925  1.00  0.00     0.197 C 
HETATM   15  C10 UNL     1       0.713   4.608   0.299  1.00  0.00     0.061 C 
HETATM   16  C11 UNL     1       0.207   6.027   0.105  1.00  0.00     0.235 C 
HETATM   17  N4  UNL     1      -0.996   5.423  -0.464  1.00  0.00    -0.070 N 
ATOM     18  H42 UNL     1      -1.588   5.941  -1.113  1.00  0.00     0.277 HD
ATOM     19  H41 UNL     1      -1.819   5.247   0.112  1.00  0.00     0.277 HD
ENDBRANCH  13  14
ENDBRANCH  12  13
ENDBRANCH   6  12
BRANCH   8  20
HETATM   20  C13 UNL     1       2.641   0.038  -0.411  1.00  0.00     0.141 C 
BRANCH  20  21
HETATM   21  C14 UNL     1       4.088  -0.491  -0.292  1.00  0.00     0.142 C 
BRANCH  21  22
HETATM   22  N6  UNL     1       4.951   0.652  -0.311  1.00  0.00    -0.363 N 
HETATM   23  C15 UNL     1       5.022   1.609   0.729  1.00  0.00     0.183 C 
HETATM   24  N7  UNL     1       4.272   2.810   0.687  1.00  0.00    -0.064 NA
HETATM   25  N8  UNL     1       5.780   1.388   1.733  1.00  0.00    -0.369 N 
HETATM   26  C16 UNL     1       6.549   0.166   1.786  1.00  0.00     0.148 C 
ATOM     27  H8  UNL     1       5.842   2.068   2.491  1.00  0.00     0.161 HD
ATOM     28  H6  UNL     1       5.552   0.784  -1.125  1.00  0.00     0.162 HD
ENDBRANCH  21  22
ENDBRANCH  20  21
ENDBRANCH   8  20
BRANCH   1  29
HETATM   29  N1  UNL     1      -1.873  -3.765  -0.418  1.00  0.00    -0.226 N 
ATOM     30  H1  UNL     1      -1.208  -4.532  -0.321  1.00  0.00     0.177 HD
BRANCH  29  31
HETATM   31  C4  UNL     1      -3.244  -4.120  -0.481  1.00  0.00     0.138 C 
BRANCH  31  32
HETATM   32  C3  UNL     1      -3.978  -3.950   0.829  1.00  0.00     0.020 C 
BRANCH  32  33
HETATM   33  C2  UNL     1      -5.430  -4.341   0.717  1.00  0.00    -0.003 C 
HETATM   34  C1  UNL     1      -5.596  -5.786   0.305  1.00  0.00     0.005 C 
ENDBRANCH  32  33
ENDBRANCH  31  32
ENDBRANCH  29  31
ENDBRANCH   1  29
TORSDOF 10
