REMARK  11 active torsions:
REMARK  status: ('A' for Active; 'I' for Inactive)
REMARK    1  A    between atoms: N1_1  and  C1_4 
REMARK    2  A    between atoms: C4_13  and  C5_14 
REMARK       I    between atoms: C5_14  and  N5_16 
REMARK    3  A    between atoms: N5_16  and  C6_18 
REMARK    4  A    between atoms: C6_18  and  C7_19 
REMARK    5  A    between atoms: C6_18  and  C11_27 
REMARK    6  A    between atoms: C7_19  and  C8_20 
REMARK    7  A    between atoms: C8_20  and  C9_21 
REMARK    8  A    between atoms: C9_21  and  N6_22 
REMARK    9  A    between atoms: C11_27  and  C12_28 
REMARK   10  A    between atoms: C12_28  and  C13_29 
REMARK   11  A    between atoms: C13_29  and  N9_30 
ROOT
HETATM    1  C5  UNL     1      -0.039   1.529  -0.677  1.00  0.00     0.286 C 
HETATM    2  O1  UNL     1       0.119   1.586  -1.918  1.00  0.00    -0.264 OA
HETATM    3  N5  UNL     1       0.394   0.397   0.076  1.00  0.00    -0.350 N 
ATOM      4  H5  UNL     1       0.255   0.371   1.086  1.00  0.00     0.163 HD
ENDROOT
BRANCH   1   5
HETATM    5  C4  UNL     1      -0.681   2.656  -0.017  1.00  0.00     0.176 A 
HETATM    6  N4  UNL     1      -0.946   2.824   1.293  1.00  0.00    -0.322 N 
HETATM    7  C3  UNL     1      -1.550   4.002   1.498  1.00  0.00     0.139 A 
ATOM      8  H4  UNL     1      -0.719   2.150   2.025  1.00  0.00     0.169 HD
HETATM    9  N3  UNL     1      -2.030   4.683   2.549  1.00  0.00    -0.337 N 
HETATM   10  C17 UNL     1      -1.682   4.625   0.258  1.00  0.00     0.122 A 
HETATM   11  C2  UNL     1      -2.609   5.889   2.471  1.00  0.00     0.183 A 
ATOM     12  H3  UNL     1      -1.949   4.254   3.471  1.00  0.00     0.168 HD
HETATM   13  N2  UNL     1      -2.741   6.505   1.261  1.00  0.00    -0.337 N 
HETATM   14  C1  UNL     1      -2.279   5.870   0.172  1.00  0.00     0.131 A 
ATOM     15  H2  UNL     1      -3.179   7.423   1.186  1.00  0.00     0.168 HD
HETATM   16  N10 UNL     1      -1.140   3.766  -0.616  1.00  0.00    -0.332 N 
ATOM     17  H10 UNL     1      -1.083   3.936  -1.620  1.00  0.00     0.168 HD
BRANCH  14  18
HETATM   18  N1  UNL     1      -2.402   6.446  -0.969  1.00  0.00    -0.383 N 
ATOM     19  H12 UNL     1      -2.842   7.364  -1.032  1.00  0.00     0.157 HD
ATOM     20  H11 UNL     1      -2.051   5.964  -1.796  1.00  0.00     0.157 HD
ENDBRANCH  14  18
ENDBRANCH   1   5
BRANCH   3  21
HETATM   21  C6  UNL     1       1.032  -0.716  -0.601  1.00  0.00     0.085 C 
BRANCH  21  22
HETATM   22  C7  UNL     1       2.441  -0.834  -0.085  1.00  0.00     0.027 C 
BRANCH  22  23
HETATM   23  C8  UNL     1       3.204  -1.962  -0.722  1.00  0.00     0.022 C 
BRANCH  23  24
HETATM   24  C9  UNL     1       4.596  -1.980  -0.125  1.00  0.00     0.122 C 
BRANCH  24  25
HETATM   25  N6  UNL     1       4.464  -2.184   1.292  1.00  0.00    -0.367 N 
HETATM   26  C10 UNL     1       4.922  -1.354   2.184  1.00  0.00     0.196 C 
HETATM   27  N7  UNL     1       5.592  -0.177   1.762  1.00  0.00    -0.067 NA
HETATM   28  N8  UNL     1       4.729  -1.668   3.550  1.00  0.00    -0.067 NA
ATOM     29  H6  UNL     1       3.986  -3.025   1.616  1.00  0.00     0.161 HD
ENDBRANCH  24  25
ENDBRANCH  23  24
ENDBRANCH  22  23
ENDBRANCH  21  22
BRANCH  21  30
HETATM   30  C11 UNL     1       0.243  -1.982  -0.427  1.00  0.00     0.027 C 
BRANCH  30  31
HETATM   31  C12 UNL     1      -1.159  -1.861  -0.986  1.00  0.00     0.032 C 
BRANCH  31  32
HETATM   32  C13 UNL     1      -1.838  -3.179  -0.754  1.00  0.00     0.272 C 
BRANCH  32  33
HETATM   33  N9  UNL     1      -3.160  -3.287  -1.198  1.00  0.00     0.088 N 
HETATM   34  C14 UNL     1      -3.417  -3.276  -2.624  1.00  0.00     0.274 C 
HETATM   35  C15 UNL     1      -4.833  -2.803  -2.260  1.00  0.00     0.060 C 
HETATM   36  C16 UNL     1      -4.072  -2.211  -1.060  1.00  0.00     0.274 C 
ENDBRANCH  32  33
ENDBRANCH  31  32
ENDBRANCH  30  31
ENDBRANCH  21  30
ENDBRANCH   3  21
TORSDOF 11
