REMARK  14 active torsions:
REMARK  status: ('A' for Active; 'I' for Inactive)
REMARK    1  A    between atoms: N1_1  and  C1_4 
REMARK    2  A    between atoms: C3_8  and  C4_9 
REMARK    3  A    between atoms: C4_9  and  C5_10 
REMARK    4  A    between atoms: C5_10  and  O1_11 
REMARK    5  A    between atoms: O1_11  and  C6_12 
REMARK       I    between atoms: N3_15  and  C9_16 
REMARK       I    between atoms: C9_16  and  N4_18 
REMARK    6  A    between atoms: N4_18  and  C10_20 
REMARK    7  A    between atoms: C10_20  and  C11_21 
REMARK    8  A    between atoms: C11_21  and  C12_22 
REMARK    9  A    between atoms: C12_22  and  O3_23 
REMARK   10  A    between atoms: O3_23  and  C13_24 
REMARK   11  A    between atoms: C13_24  and  C14_25 
REMARK   12  A    between atoms: C14_25  and  C15_26 
REMARK   13  A    between atoms: C15_26  and  O4_27 
REMARK   14  A    between atoms: C18_31  and  N5_32 
ROOT
HETATM    1  C6  UNL     1      -1.765  -0.167   0.966  1.00  0.00     0.124 C 
HETATM    2  C7  UNL     1      -0.883   0.827   0.199  1.00  0.00     0.052 C 
HETATM    3  C8  UNL     1      -0.125   0.003  -0.798  1.00  0.00     0.130 C 
HETATM    4  N3  UNL     1       0.678  -0.967  -0.098  1.00  0.00    -0.334 N 
HETATM    5  C9  UNL     1       1.975  -1.266  -0.654  1.00  0.00     0.318 C 
HETATM    6  O2  UNL     1       2.302  -0.651  -1.692  1.00  0.00    -0.247 OA
HETATM    7  N4  UNL     1       2.838  -2.203  -0.066  1.00  0.00    -0.343 N 
ATOM      8  H4  UNL     1       2.530  -2.685   0.778  1.00  0.00     0.164 HD
HETATM    9  C16 UNL     1       0.275  -1.648   1.103  1.00  0.00     0.130 C 
HETATM   10  C17 UNL     1      -0.894  -1.064   1.822  1.00  0.00     0.052 C 
ENDROOT
BRANCH   1  11
HETATM   11  O1  UNL     1      -2.611   0.583   1.742  1.00  0.00    -0.385 OA
BRANCH  11  12
HETATM   12  C5  UNL     1      -3.938   0.428   1.453  1.00  0.00     0.173 C 
BRANCH  12  13
HETATM   13  C4  UNL     1      -4.322   0.804   0.046  1.00  0.00     0.070 C 
BRANCH  13  14
HETATM   14  C3  UNL     1      -5.778   0.605  -0.178  1.00  0.00     0.004 A 
HETATM   15  C2  UNL     1      -6.265  -0.482  -0.890  1.00  0.00     0.117 A 
HETATM   16  N2  UNL     1      -7.587  -0.661  -1.089  1.00  0.00    -0.202 N 
HETATM   17  C1  UNL     1      -8.494   0.205  -0.609  1.00  0.00     0.677 A 
ATOM     18  H2  UNL     1      -7.905  -1.474  -1.617  1.00  0.00     0.183 HD
HETATM   19  N6  UNL     1      -8.033   1.260   0.081  1.00  0.00    -0.177 N 
HETATM   20  C18 UNL     1      -6.723   1.484   0.308  1.00  0.00     0.122 A 
ATOM     21  H6  UNL     1      -8.709   1.927   0.453  1.00  0.00     0.185 HD
BRANCH  17  22
HETATM   22  N1  UNL     1      -9.773   0.035  -0.801  1.00  0.00    -0.234 N 
ATOM     23  H12 UNL     1     -10.123  -0.767  -1.325  1.00  0.00     0.174 HD
ATOM     24  H11 UNL     1     -10.462   0.693  -0.436  1.00  0.00     0.174 HD
ENDBRANCH  17  22
BRANCH  20  25
HETATM   25  N5  UNL     1      -6.321   2.514   0.977  1.00  0.00    -0.385 N 
ATOM     26  H52 UNL     1      -5.330   2.683   1.149  1.00  0.00     0.157 HD
ATOM     27  H51 UNL     1      -7.020   3.164   1.336  1.00  0.00     0.157 HD
ENDBRANCH  20  25
ENDBRANCH  13  14
ENDBRANCH  12  13
ENDBRANCH  11  12
ENDBRANCH   1  11
BRANCH   7  28
HETATM   28  C10 UNL     1       4.126  -2.512  -0.595  1.00  0.00     0.126 C 
BRANCH  28  29
HETATM   29  C11 UNL     1       5.081  -1.307  -0.632  1.00  0.00     0.046 C 
BRANCH  29  30
HETATM   30  C12 UNL     1       5.229  -0.835   0.751  1.00  0.00     0.169 C 
BRANCH  30  31
HETATM   31  O3  UNL     1       5.982   0.172   1.118  1.00  0.00    -0.391 OA
BRANCH  31  32
HETATM   32  C13 UNL     1       5.919   1.445   0.779  1.00  0.00     0.169 C 
BRANCH  32  33
HETATM   33  C14 UNL     1       6.124   1.821  -0.671  1.00  0.00     0.052 C 
BRANCH  33  34
HETATM   34  C15 UNL     1       7.465   1.410  -1.204  1.00  0.00     0.166 C 
BRANCH  34  35
HETATM   35  O4  UNL     1       7.505   1.820  -2.548  1.00  0.00    -0.401 OA
ATOM     36  H4  UNL     1       8.354   1.560  -2.885  1.00  0.00     0.209 HD
ENDBRANCH  34  35
ENDBRANCH  33  34
ENDBRANCH  32  33
ENDBRANCH  31  32
ENDBRANCH  30  31
ENDBRANCH  29  30
ENDBRANCH  28  29
ENDBRANCH   7  28
TORSDOF 14
