REMARK  11 active torsions:
REMARK  status: ('A' for Active; 'I' for Inactive)
REMARK    1  A    between atoms: N1_2  and  C2_3 
REMARK    2  A    between atoms: C2_3  and  C3_4 
REMARK    3  A    between atoms: C3_4  and  C4_5 
REMARK    4  A    between atoms: C4_5  and  C5_6 
REMARK    5  A    between atoms: C5_6  and  C6_7 
REMARK    6  A    between atoms: C6_7  and  O1_8 
REMARK    7  A    between atoms: O1_8  and  S1_9 
REMARK    8  A    between atoms: S1_9  and  N2_10 
REMARK    9  A    between atoms: C7_17  and  C8_18 
REMARK   10  A    between atoms: C8_18  and  C9_19 
REMARK   11  A    between atoms: C10_24  and  C11_25 
ROOT
HETATM    1  C1  UNL     1      -0.911  -1.227   2.293  1.00  0.00     0.313 C 
HETATM    2  N1  UNL     1      -0.742  -0.714   0.925  1.00  0.00     0.070 N 
HETATM    3  N3  UNL     1      -1.376   0.490   0.858  1.00  0.00    -0.215 N 
ATOM      4  H3  UNL     1      -1.032   1.194   1.511  1.00  0.00     0.194 HD
HETATM    5  C7  UNL     1      -2.316   0.869   0.119  1.00  0.00     0.045 C 
HETATM    6  C10 UNL     1      -2.912  -0.059  -0.889  1.00  0.00     0.168 C 
HETATM    7  N8  UNL     1      -1.980  -1.168  -1.137  1.00  0.00    -0.340 N 
ATOM      8  H8  UNL     1      -1.902  -1.596  -2.060  1.00  0.00     0.163 HD
HETATM    9  C14 UNL     1      -1.190  -1.624  -0.046  1.00  0.00     0.299 C 
HETATM   10  N9  UNL     1      -0.915  -2.888  -0.001  1.00  0.00    -0.363 N 
ATOM     11  H91 UNL     1      -1.240  -3.549  -0.706  1.00  0.00     0.159 HD
ATOM     12  H92 UNL     1      -0.348  -3.215   0.782  1.00  0.00     0.159 HD
ENDROOT
BRANCH   2  13
HETATM   13  C2  UNL     1       0.689  -0.449   0.805  1.00  0.00     0.275 C 
BRANCH  13  14
HETATM   14  C3  UNL     1       1.128  -0.374  -0.622  1.00  0.00     0.031 C 
BRANCH  14  15
HETATM   15  C4  UNL     1       2.609  -0.090  -0.677  1.00  0.00     0.004 C 
BRANCH  15  16
HETATM   16  C5  UNL     1       3.462  -1.125  -0.016  1.00  0.00     0.028 C 
BRANCH  16  17
HETATM   17  C6  UNL     1       4.908  -0.683  -0.175  1.00  0.00     0.192 C 
BRANCH  17  18
HETATM   18  O1  UNL     1       5.055   0.563   0.442  1.00  0.00    -0.260 OA
BRANCH  18  19
HETATM   19  S1  UNL     1       6.609   1.138   0.323  1.00  0.00     0.355 S 
HETATM   20  O2  UNL     1       6.671   2.419  -0.437  1.00  0.00    -0.176 OA
HETATM   21  O3  UNL     1       7.097   1.422   1.725  1.00  0.00    -0.176 OA
BRANCH  19  22
HETATM   22  N2  UNL     1       7.688  -0.008  -0.364  1.00  0.00    -0.306 N 
ATOM     23  H22 UNL     1       7.391  -0.937  -0.662  1.00  0.00     0.171 HD
ATOM     24  H21 UNL     1       8.642   0.345  -0.437  1.00  0.00     0.171 HD
ENDBRANCH  19  22
ENDBRANCH  18  19
ENDBRANCH  17  18
ENDBRANCH  16  17
ENDBRANCH  15  16
ENDBRANCH  14  15
ENDBRANCH  13  14
ENDBRANCH   2  13
BRANCH   5  25
HETATM   25  C8  UNL     1      -2.868   2.249   0.211  1.00  0.00     0.129 C 
BRANCH  25  26
HETATM   26  C9  UNL     1      -2.648   3.071  -0.988  1.00  0.00     0.092 C 
HETATM   27  N4  UNL     1      -1.801   2.728  -1.876  1.00  0.00    -0.391 N 
ATOM     28  H42 UNL     1      -1.280   1.857  -1.771  1.00  0.00     0.157 HD
ATOM     29  H41 UNL     1      -1.648   3.298  -2.708  1.00  0.00     0.157 HD
HETATM   30  N5  UNL     1      -3.367   4.274  -1.133  1.00  0.00    -0.088 NA
ENDBRANCH  25  26
ENDBRANCH   5  25
BRANCH   6  31
HETATM   31  C11 UNL     1      -4.212  -0.608  -0.402  1.00  0.00     0.004 A 
HETATM   32  C12 UNL     1      -5.469  -0.228  -0.809  1.00  0.00     0.118 A 
HETATM   33  N6  UNL     1      -6.365  -0.955  -0.140  1.00  0.00    -0.312 N 
HETATM   34  N7  UNL     1      -5.742  -1.778   0.671  1.00  0.00    -0.312 N 
ATOM     35  H6  UNL     1      -7.377  -0.883  -0.243  1.00  0.00     0.186 HD
HETATM   36  C13 UNL     1      -4.399  -1.593   0.537  1.00  0.00     0.118 A 
ATOM     37  H7  UNL     1      -6.190  -2.446   1.298  1.00  0.00     0.186 HD
ENDBRANCH   6  31
TORSDOF 11
