REMARK  16 active torsions:
REMARK  status: ('A' for Active; 'I' for Inactive)
REMARK    1  A    between atoms: C3_3  and  C4_4 
REMARK    2  A    between atoms: C4_4  and  C5_5 
REMARK    3  A    between atoms: C5_5  and  C6_6 
REMARK    4  A    between atoms: C6_6  and  C7_7 
REMARK    5  A    between atoms: C7_7  and  C8_8 
REMARK    6  A    between atoms: C8_8  and  C9_9 
REMARK    7  A    between atoms: C9_9  and  C10_10 
REMARK    8  A    between atoms: C10_10  and  C11_11 
REMARK    9  A    between atoms: C11_11  and  N1_12 
REMARK       I    between atoms: N1_12  and  C12_14 
REMARK       I    between atoms: C12_14  and  N2_16 
REMARK   10  A    between atoms: N2_16  and  C13_18 
REMARK   11  A    between atoms: C14_23  and  C15_24 
REMARK   12  A    between atoms: C15_24  and  O2_25 
REMARK   13  A    between atoms: C15_24  and  C16_27 
REMARK   14  A    between atoms: C18_29  and  O3_30 
REMARK   15  A    between atoms: C19_32  and  C20_33 
REMARK   16  A    between atoms: C20_33  and  O4_34 
ROOT
HETATM    1  C1  UNL     1      12.107   0.109   2.281  1.00  0.00     0.012 C 
HETATM    2  C2  UNL     1      10.900   0.053   2.274  1.00  0.00    -0.117 C 
HETATM    3  C3  UNL     1       9.428  -0.034   2.271  1.00  0.00     0.093 C 
ENDROOT
BRANCH   3   4
HETATM    4  C4  UNL     1       8.988  -0.016   0.840  1.00  0.00     0.012 C 
BRANCH   4   5
HETATM    5  C5  UNL     1       7.463  -0.103   0.749  1.00  0.00     0.001 C 
BRANCH   5   6
HETATM    6  C6  UNL     1       7.082  -0.080  -0.702  1.00  0.00     0.000 C 
BRANCH   6   7
HETATM    7  C7  UNL     1       5.569  -0.169  -0.904  1.00  0.00     0.000 C 
BRANCH   7   8
HETATM    8  C8  UNL     1       4.936   1.001  -0.223  1.00  0.00     0.000 C 
BRANCH   8   9
HETATM    9  C9  UNL     1       3.387   0.991  -0.370  1.00  0.00     0.002 C 
BRANCH   9  10
HETATM   10  C10 UNL     1       2.988   1.047  -1.772  1.00  0.00     0.020 C 
BRANCH  10  11
HETATM   11  C11 UNL     1       1.593   1.133  -2.186  1.00  0.00     0.124 C 
BRANCH  11  12
HETATM   12  N1  UNL     1       0.714   0.099  -1.777  1.00  0.00    -0.343 N 
HETATM   13  C12 UNL     1       0.245  -0.125  -0.482  1.00  0.00     0.321 C 
HETATM   14  O1  UNL     1       0.517   0.583   0.491  1.00  0.00    -0.247 OA
HETATM   15  N2  UNL     1      -0.624  -1.269  -0.257  1.00  0.00    -0.289 N 
ATOM     16  H2  UNL     1      -0.277  -2.154   0.112  1.00  0.00     0.172 HD
ATOM     17  H1  UNL     1       0.393  -0.545  -2.500  1.00  0.00     0.164 HD
BRANCH  15  18
HETATM   18  C13 UNL     1      -1.866  -1.085  -0.558  1.00  0.00     0.193 A 
HETATM   19  N3  UNL     1      -2.355   0.069  -1.046  1.00  0.00    -0.279 N 
HETATM   20  N4  UNL     1      -3.634   0.225  -1.345  1.00  0.00    -0.285 N 
ATOM     21  H3  UNL     1      -1.717   0.852  -1.191  1.00  0.00     0.189 HD
HETATM   22  C14 UNL     1      -4.544  -0.759  -1.184  1.00  0.00     0.130 A 
ATOM     23  H4  UNL     1      -3.945   1.125  -1.712  1.00  0.00     0.188 HD
HETATM   24  N6  UNL     1      -4.097  -1.931  -0.698  1.00  0.00    -0.307 N 
HETATM   25  C21 UNL     1      -2.800  -2.106  -0.389  1.00  0.00     0.292 A 
ATOM     26  H6  UNL     1      -4.753  -2.700  -0.562  1.00  0.00     0.170 HD
HETATM   27  O5  UNL     1      -2.397  -3.208   0.064  1.00  0.00    -0.264 OA
BRANCH  22  28
HETATM   28  C15 UNL     1      -5.979  -0.543  -1.533  1.00  0.00     0.217 C 
BRANCH  28  29
HETATM   29  O2  UNL     1      -6.139   0.099  -2.752  1.00  0.00    -0.386 OA
ATOM     30  H2  UNL     1      -7.052   0.236  -2.974  1.00  0.00     0.210 HD
ENDBRANCH  28  29
BRANCH  28  31
HETATM   31  C16 UNL     1      -6.587   0.288  -0.430  1.00  0.00     0.225 C 
HETATM   32  C17 UNL     1      -8.105   0.382  -0.590  1.00  0.00     0.070 C 
HETATM   33  C18 UNL     1      -8.512   0.859   0.788  1.00  0.00     0.153 C 
HETATM   34  C19 UNL     1      -7.497   0.219   1.684  1.00  0.00     0.238 C 
HETATM   35  N5  UNL     1      -6.457  -0.315   0.860  1.00  0.00    -0.059 N 
ATOM     36  H52 UNL     1      -6.458  -1.334   0.826  1.00  0.00     0.278 HD
ATOM     37  H51 UNL     1      -5.528  -0.198   1.264  1.00  0.00     0.278 HD
BRANCH  33  38
HETATM   38  O3  UNL     1      -8.329   2.240   0.843  1.00  0.00    -0.393 OA
ATOM     39  H3  UNL     1      -8.584   2.539   1.708  1.00  0.00     0.210 HD
ENDBRANCH  33  38
BRANCH  34  40
HETATM   40  C20 UNL     1      -8.184  -0.971   2.364  1.00  0.00     0.199 C 
BRANCH  40  41
HETATM   41  O4  UNL     1      -7.213  -1.637   3.123  1.00  0.00    -0.399 OA
ATOM     42  H4  UNL     1      -7.639  -2.374   3.544  1.00  0.00     0.209 HD
ENDBRANCH  40  41
ENDBRANCH  34  40
ENDBRANCH  28  31
ENDBRANCH  22  28
ENDBRANCH  15  18
ENDBRANCH  11  12
ENDBRANCH  10  11
ENDBRANCH   9  10
ENDBRANCH   8   9
ENDBRANCH   7   8
ENDBRANCH   6   7
ENDBRANCH   5   6
ENDBRANCH   4   5
ENDBRANCH   3   4
TORSDOF 16
