REMARK  17 active torsions:
REMARK  status: ('A' for Active; 'I' for Inactive)
REMARK    1  A    between atoms: C2_2  and  C3_3 
REMARK    2  A    between atoms: C3_3  and  C4_4 
REMARK    3  A    between atoms: C4_4  and  C5_5 
REMARK    4  A    between atoms: C5_5  and  C6_6 
REMARK    5  A    between atoms: C8_8  and  N1_9 
REMARK    6  A    between atoms: N1_9  and  C9_11 
REMARK    7  A    between atoms: C9_11  and  C10_12 
REMARK    8  A    between atoms: C10_12  and  O1_13 
REMARK    9  A    between atoms: C11_17  and  C12_18 
REMARK   10  A    between atoms: C12_18  and  N3_19 
REMARK   11  A    between atoms: C12_18  and  C13_23 
REMARK   12  A    between atoms: C13_23  and  C14_24 
REMARK   13  A    between atoms: C14_24  and  C15_25 
REMARK   14  A    between atoms: C15_25  and  N4_26 
REMARK   15  A    between atoms: C15_25  and  C16_30 
REMARK       I    between atoms: C16_30  and  N5_32 
REMARK   16  A    between atoms: C19_35  and  O3_36 
REMARK   17  A    between atoms: C21_39  and  C22_40 
ROOT
HETATM    1  C12 UNL     1      -0.549  -1.018  -0.445  1.00  0.00     0.250 C 
ENDROOT
BRANCH   1   2
HETATM    2  C11 UNL     1      -2.062  -0.867  -0.447  1.00  0.00     0.114 A 
HETATM    3  N2  UNL     1      -2.853  -1.738   0.185  1.00  0.00    -0.331 N 
HETATM    4  C8  UNL     1      -4.195  -1.592   0.178  1.00  0.00     0.104 A 
ATOM      5  H2  UNL     1      -2.436  -2.526   0.681  1.00  0.00     0.168 HD
HETATM    6  C7  UNL     1      -4.746  -0.523  -0.494  1.00  0.00     0.073 A 
HETATM    7  C6  UNL     1      -3.937   0.386  -1.152  1.00  0.00     0.014 A 
HETATM    8  N8  UNL     1      -2.611   0.168  -1.097  1.00  0.00    -0.347 N 
ATOM      9  H8  UNL     1      -1.992   0.824  -1.574  1.00  0.00     0.167 HD
BRANCH   4  10
HETATM   10  N1  UNL     1      -4.999  -2.404   0.778  1.00  0.00    -0.374 N 
ATOM     11  H1  UNL     1      -6.008  -2.254   0.754  1.00  0.00     0.161 HD
BRANCH  10  12
HETATM   12  C9  UNL     1      -4.436  -3.529   1.484  1.00  0.00     0.147 C 
BRANCH  12  13
HETATM   13  C10 UNL     1      -5.507  -4.297   2.230  1.00  0.00     0.183 C 
BRANCH  13  14
HETATM   14  O1  UNL     1      -4.865  -5.356   2.875  1.00  0.00    -0.399 OA
ATOM     15  H1  UNL     1      -5.537  -5.838   3.343  1.00  0.00     0.209 HD
ENDBRANCH  13  14
ENDBRANCH  12  13
ENDBRANCH  10  12
ENDBRANCH   4  10
BRANCH   7  16
HETATM   16  C5  UNL     1      -4.528   1.530  -1.877  1.00  0.00     0.057 C 
BRANCH  16  17
HETATM   17  C4  UNL     1      -4.698   2.760  -1.023  1.00  0.00     0.006 C 
BRANCH  17  18
HETATM   18  C3  UNL     1      -5.605   2.482   0.154  1.00  0.00     0.000 C 
BRANCH  18  19
HETATM   19  C2  UNL     1      -5.730   3.774   0.965  1.00  0.00    -0.005 C 
HETATM   20  C1  UNL     1      -6.322   4.851   0.082  1.00  0.00     0.005 C 
ENDBRANCH  18  19
ENDBRANCH  17  18
ENDBRANCH  16  17
ENDBRANCH   7  16
ENDBRANCH   1   2
BRANCH   1  21
HETATM   21  N3  UNL     1      -0.292  -2.417  -0.708  1.00  0.00    -0.068 N 
ATOM     22  H33 UNL     1      -0.766  -3.048  -0.061  1.00  0.00     0.275 HD
ATOM     23  H32 UNL     1      -0.735  -2.760  -1.560  1.00  0.00     0.275 HD
ATOM     24  H31 UNL     1       0.723  -2.518  -0.707  1.00  0.00     0.275 HD
ENDBRANCH   1  21
BRANCH   1  25
HETATM   25  C13 UNL     1       0.012  -0.640   0.871  1.00  0.00     0.043 C 
BRANCH  25  26
HETATM   26  C14 UNL     1       1.479  -0.785   0.969  1.00  0.00     0.045 C 
BRANCH  26  27
HETATM   27  C15 UNL     1       2.355   0.021   0.068  1.00  0.00     0.275 C 
BRANCH  27  28
HETATM   28  N4  UNL     1       2.214  -0.191  -1.311  1.00  0.00    -0.067 N 
ATOM     29  H43 UNL     1       2.334  -1.183  -1.517  1.00  0.00     0.275 HD
ATOM     30  H42 UNL     1       1.238  -0.060  -1.578  1.00  0.00     0.275 HD
ATOM     31  H41 UNL     1       2.813   0.360  -1.927  1.00  0.00     0.275 HD
ENDBRANCH  27  28
BRANCH  27  32
HETATM   32  C16 UNL     1       3.766   0.028   0.546  1.00  0.00     0.251 C 
HETATM   33  O2  UNL     1       3.915  -0.373   1.735  1.00  0.00    -0.271 OA
HETATM   34  N5  UNL     1       4.868   0.426  -0.202  1.00  0.00    -0.339 N 
HETATM   35  C17 UNL     1       4.724   1.017  -1.491  1.00  0.00     0.129 C 
HETATM   36  C21 UNL     1       6.212   0.213   0.328  1.00  0.00     0.153 C 
HETATM   37  C18 UNL     1       5.902   1.855  -1.953  1.00  0.00     0.051 C 
HETATM   38  C19 UNL     1       7.226   1.284  -1.589  1.00  0.00     0.122 C 
HETATM   39  C20 UNL     1       7.095  -0.063  -0.913  1.00  0.00     0.064 C 
BRANCH  38  40
HETATM   40  O3  UNL     1       8.020   2.120  -0.828  1.00  0.00    -0.395 OA
ATOM     41  H3  UNL     1       8.866   1.755  -0.595  1.00  0.00     0.210 HD
ENDBRANCH  38  40
BRANCH  36  42
HETATM   42  C22 UNL     1       6.309  -0.956   1.214  1.00  0.00     0.110 C 
HETATM   43  N6  UNL     1       6.738  -0.778   2.434  1.00  0.00    -0.389 N 
ATOM     44  H62 UNL     1       6.985   0.153   2.769  1.00  0.00     0.157 HD
ATOM     45  H61 UNL     1       6.805  -1.589   3.049  1.00  0.00     0.157 HD
HETATM   46  N7  UNL     1       5.967  -2.247   0.750  1.00  0.00    -0.086 NA
ENDBRANCH  36  42
ENDBRANCH  27  32
ENDBRANCH  26  27
ENDBRANCH  25  26
ENDBRANCH   1  25
TORSDOF 17
