REMARK  2 active torsions:
REMARK  status: ('A' for Active; 'I' for Inactive)
REMARK    1  A    between atoms: O1_2  and  C2_3 
REMARK    2  A    between atoms: C23_26  and  O3_27 
ROOT
HETATM    1  C2  UNL     1       0.529   2.254  -0.261  1.00  0.00     0.151 C 
HETATM    2  C3  UNL     1      -0.913   2.122   0.309  1.00  0.00     0.113 C 
HETATM    3  C4  UNL     1      -0.467   1.505   1.676  1.00  0.00     0.033 C 
HETATM    4  C5  UNL     1      -0.600   0.143   1.301  1.00  0.00     0.007 C 
HETATM    5  C6  UNL     1      -0.306  -1.213   1.667  1.00  0.00     0.026 C 
HETATM    6  C7  UNL     1      -1.379  -2.109   1.002  1.00  0.00     0.009 C 
HETATM    7  C8  UNL     1      -2.729  -1.535   0.812  1.00  0.00     0.014 C 
HETATM    8  C9  UNL     1      -3.283  -0.641  -0.162  1.00  0.00    -0.016 C 
HETATM    9  C10 UNL     1      -4.751  -0.457   0.422  1.00  0.00     0.020 C 
HETATM   10  C11 UNL     1      -3.783  -1.286  -1.472  1.00  0.00     0.020 C 
HETATM   11  C12 UNL     1      -2.963   0.820  -0.323  1.00  0.00     0.067 C 
HETATM   12  N1  UNL     1      -1.704   1.323  -0.510  1.00  0.00    -0.385 N 
HETATM   13  C13 UNL     1      -1.128   0.806  -1.713  1.00  0.00     0.123 C 
HETATM   14  C14 UNL     1      -0.299  -0.390  -1.224  1.00  0.00     0.033 C 
HETATM   15  C15 UNL     1       0.160  -0.107   0.105  1.00  0.00     0.005 C 
HETATM   16  C16 UNL     1       1.246   0.980  -0.140  1.00  0.00     0.060 C 
HETATM   17  C17 UNL     1       2.340   0.688   0.754  1.00  0.00     0.159 C 
HETATM   18  O2  UNL     1       1.870  -0.311   1.610  1.00  0.00    -0.371 OA
HETATM   19  C18 UNL     1       0.967  -1.081   0.892  1.00  0.00     0.074 C 
HETATM   20  C19 UNL     1       1.546  -2.253   0.226  1.00  0.00     0.040 C 
HETATM   21  C20 UNL     1       3.022  -2.225   0.416  1.00  0.00     0.010 C 
HETATM   22  C21 UNL     1       3.765  -1.158  -0.311  1.00  0.00     0.013 C 
HETATM   23  C22 UNL     1       3.601  -1.266  -1.825  1.00  0.00     0.012 C 
HETATM   24  C23 UNL     1       3.636   0.218   0.174  1.00  0.00     0.151 C 
ENDROOT
BRANCH   1  25
HETATM   25  O1  UNL     1       1.139   3.159   0.643  1.00  0.00    -0.388 OA
HETATM   26  C1  UNL     1       1.518   4.334  -0.000  1.00  0.00     0.202 C 
ENDBRANCH   1  25
BRANCH  24  27
HETATM   27  O3  UNL     1       4.645   0.461   1.139  1.00  0.00    -0.393 OA
ATOM     28  H3  UNL     1       5.468   0.162   0.771  1.00  0.00     0.210 HD
ENDBRANCH  24  27
TORSDOF 2
