REMARK  5 active torsions:
REMARK  status: ('A' for Active; 'I' for Inactive)
REMARK    1  A    between atoms: N1_6  and  C6_7 
REMARK    2  A    between atoms: C9_10  and  C10_11 
REMARK       I    between atoms: C10_11  and  N2_13 
REMARK    3  A    between atoms: N2_13  and  C11_15 
REMARK    4  A    between atoms: C14_18  and  C15_20 
REMARK    5  A    between atoms: C15_20  and  N3_21 
REMARK       I    between atoms: N3_21  and  C16_23 
ROOT
HETATM    1  C10 UNL     1      -0.059   0.974   0.387  1.00  0.00     0.258 C 
HETATM    2  O1  UNL     1      -0.037   1.973   1.144  1.00  0.00    -0.267 OA
HETATM    3  N2  UNL     1       1.143   0.415  -0.112  1.00  0.00    -0.352 N 
ATOM      4  H2  UNL     1       1.094  -0.397  -0.727  1.00  0.00     0.163 HD
ENDROOT
BRANCH   3   5
HETATM    5  C11 UNL     1       2.434   0.963   0.226  1.00  0.00     0.085 C 
HETATM    6  C12 UNL     1       3.201   1.442  -0.961  1.00  0.00     0.028 C 
HETATM    7  C13 UNL     1       4.151   0.445  -1.536  1.00  0.00     0.047 C 
HETATM    8  C14 UNL     1       5.069  -0.184  -0.532  1.00  0.00     0.119 C 
HETATM    9  F1  UNL     1       4.843  -1.547  -0.528  1.00  0.00    -0.241 F 
HETATM   10  C17 UNL     1       4.709   0.341   0.842  1.00  0.00     0.047 C 
HETATM   11  C18 UNL     1       3.239  -0.039   1.063  1.00  0.00     0.028 C 
BRANCH   8  12
HETATM   12  C15 UNL     1       6.528   0.093  -0.835  1.00  0.00     0.165 C 
BRANCH  12  13
HETATM   13  N3  UNL     1       7.352  -0.544   0.173  1.00  0.00    -0.362 N 
HETATM   14  C16 UNL     1       8.768  -0.411   0.085  1.00  0.00     0.181 C 
HETATM   15  N4  UNL     1       9.288   0.652   0.560  1.00  0.00    -0.374 N 
HETATM   16  N5  UNL     1       9.596  -1.396  -0.498  1.00  0.00    -0.064 NA
ATOM     17  H42 UNL     1       8.690   1.363   0.981  1.00  0.00     0.158 HD
ATOM     18  H41 UNL     1      10.302   0.747   0.497  1.00  0.00     0.158 HD
ATOM     19  H3  UNL     1       6.926  -1.077   0.931  1.00  0.00     0.162 HD
ENDBRANCH  12  13
ENDBRANCH   8  12
ENDBRANCH   3   5
BRANCH   1  20
HETATM   20  C9  UNL     1      -1.373   0.418   0.045  1.00  0.00     0.074 A 
HETATM   21  C8  UNL     1      -1.624  -0.660  -0.758  1.00  0.00     0.027 A 
HETATM   22  C7  UNL     1      -2.898  -1.013  -0.948  1.00  0.00     0.038 A 
HETATM   23  C6  UNL     1      -3.868  -0.275  -0.328  1.00  0.00     0.073 A 
HETATM   24  S1  UNL     1      -2.931   0.912   0.516  1.00  0.00    -0.067 SA
BRANCH  23  25
HETATM   25  N1  UNL     1      -5.285  -0.427  -0.356  1.00  0.00    -0.367 N 
HETATM   26  C5  UNL     1      -5.863  -1.487  -1.130  1.00  0.00     0.128 C 
HETATM   27  C4  UNL     1      -6.668  -2.310  -0.107  1.00  0.00     0.047 C 
HETATM   28  C3  UNL     1      -7.695  -1.381   0.430  1.00  0.00    -0.021 C 
HETATM   29  C2  UNL     1      -7.469  -0.098   0.665  1.00  0.00    -0.065 C 
HETATM   30  C1  UNL     1      -8.557   0.796   1.214  1.00  0.00     0.045 C 
HETATM   31  C19 UNL     1      -6.129   0.472   0.387  1.00  0.00     0.109 C 
HETATM   32  C20 UNL     1      -6.218   1.834  -0.268  1.00  0.00     0.037 C 
ENDBRANCH  23  25
ENDBRANCH   1  20
TORSDOF 5
