REMARK  9 active torsions:
REMARK  status: ('A' for Active; 'I' for Inactive)
REMARK    1  A    between atoms: C2_2  and  C5_5 
REMARK    2  A    between atoms: C5_5  and  N1_6 
REMARK    3  A    between atoms: C8_12  and  C9_13 
REMARK    4  A    between atoms: C9_13  and  N2_14 
REMARK    5  A    between atoms: N2_14  and  C10_16 
REMARK    6  A    between atoms: C11_19  and  C12_20 
REMARK    7  A    between atoms: C12_20  and  C13_21 
REMARK    8  A    between atoms: C13_21  and  C14_22 
REMARK    9  A    between atoms: C22_32  and  N5_33 
ROOT
HETATM    1  C10 UNL     1       0.842  -1.308   0.414  1.00  0.00     0.679 A 
HETATM    2  N3  UNL     1       1.995  -0.849  -0.053  1.00  0.00    -0.194 N 
ATOM      3  H3  UNL     1       1.965  -0.175  -0.818  1.00  0.00     0.184 HD
HETATM    4  C11 UNL     1       3.212  -1.217   0.420  1.00  0.00     0.051 A 
HETATM    5  C20 UNL     1       3.239  -2.129   1.454  1.00  0.00     0.111 A 
HETATM    6  C21 UNL     1       4.494  -2.561   1.996  1.00  0.00     0.105 C 
HETATM    7  N4  UNL     1       5.504  -2.927   2.424  1.00  0.00    -0.191 NA
HETATM    8  C22 UNL     1       2.045  -2.626   1.962  1.00  0.00     0.137 A 
HETATM    9  N6  UNL     1       0.892  -2.204   1.432  1.00  0.00    -0.176 N 
ATOM     10  H6  UNL     1       0.017  -2.570   1.807  1.00  0.00     0.186 HD
ENDROOT
BRANCH   4  11
HETATM   11  C12 UNL     1       4.437  -0.630  -0.179  1.00  0.00     0.064 C 
BRANCH  11  12
HETATM   12  C13 UNL     1       4.979   0.426   0.732  1.00  0.00     0.044 C 
BRANCH  12  13
HETATM   13  C14 UNL     1       6.202   1.008   0.128  1.00  0.00    -0.058 A 
HETATM   14  C15 UNL     1       7.437   0.454   0.405  1.00  0.00     0.010 A 
HETATM   15  C16 UNL     1       8.540   1.023  -0.174  1.00  0.00     0.043 A 
HETATM   16  C17 UNL     1       8.457   2.123  -1.019  1.00  0.00     0.116 A 
HETATM   17  F1  UNL     1       9.596   2.633  -1.556  1.00  0.00    -0.206 F 
HETATM   18  C18 UNL     1       7.219   2.654  -1.278  1.00  0.00     0.043 A 
HETATM   19  C19 UNL     1       6.101   2.089  -0.701  1.00  0.00     0.010 A 
ENDBRANCH  12  13
ENDBRANCH  11  12
ENDBRANCH   4  11
BRANCH   8  20
HETATM   20  N5  UNL     1       2.044  -3.481   2.931  1.00  0.00    -0.384 N 
ATOM     21  H52 UNL     1       2.923  -3.803   3.335  1.00  0.00     0.157 HD
ATOM     22  H51 UNL     1       1.168  -3.846   3.304  1.00  0.00     0.157 HD
ENDBRANCH   8  20
BRANCH   1  23
HETATM   23  N2  UNL     1      -0.297  -0.933  -0.059  1.00  0.00    -0.226 N 
ATOM     24  H2  UNL     1      -1.169  -1.302   0.320  1.00  0.00     0.177 HD
BRANCH  23  25
HETATM   25  C9  UNL     1      -0.304   0.028  -1.144  1.00  0.00     0.142 C 
BRANCH  25  26
HETATM   26  C8  UNL     1      -1.767   0.460  -1.321  1.00  0.00     0.004 C 
HETATM   27  C7  UNL     1      -2.559  -0.773  -1.653  1.00  0.00     0.009 C 
HETATM   28  C6  UNL     1      -4.030  -0.345  -1.666  1.00  0.00     0.040 C 
HETATM   29  C5  UNL     1      -4.423  -0.170  -0.215  1.00  0.00     0.130 C 
HETATM   30  C24 UNL     1      -3.357   0.429   0.629  1.00  0.00     0.040 C 
HETATM   31  C23 UNL     1      -2.301   1.170  -0.127  1.00  0.00     0.009 C 
BRANCH  29  32
HETATM   32  C2  UNL     1      -5.742   0.559  -0.130  1.00  0.00    -0.018 C 
HETATM   33  C1  UNL     1      -5.659   1.984  -0.612  1.00  0.00     0.017 C 
HETATM   34  C3  UNL     1      -6.786  -0.137  -0.984  1.00  0.00     0.017 C 
HETATM   35  C4  UNL     1      -6.283   0.592   1.280  1.00  0.00     0.017 C 
ENDBRANCH  29  32
BRANCH  29  36
HETATM   36  N1  UNL     1      -4.683  -1.529   0.289  1.00  0.00    -0.070 N 
ATOM     37  H13 UNL     1      -5.100  -1.546   1.220  1.00  0.00     0.275 HD
ATOM     38  H12 UNL     1      -5.444  -2.005  -0.195  1.00  0.00     0.275 HD
ATOM     39  H11 UNL     1      -3.792  -2.022   0.232  1.00  0.00     0.275 HD
ENDBRANCH  29  36
ENDBRANCH  25  26
ENDBRANCH  23  25
ENDBRANCH   1  23
TORSDOF 9
