REMARK  6 active torsions:
REMARK  status: ('A' for Active; 'I' for Inactive)
REMARK    1  A    between atoms: C2_2  and  C4_4 
REMARK       I    between atoms: N1_6  and  C6_7 
REMARK    2  A    between atoms: C8_13  and  N4_14 
REMARK    3  A    between atoms: N4_14  and  C9_16 
REMARK    4  A    between atoms: C10_19  and  N6_20 
REMARK    5  A    between atoms: N6_20  and  C11_22 
REMARK    6  A    between atoms: N7_30  and  C18_31 
ROOT
HETATM    1  C9  UNL     1      -0.135  -1.813   0.191  1.00  0.00     0.684 A 
HETATM    2  N5  UNL     1       0.856  -0.916   0.012  1.00  0.00    -0.174 N 
ATOM      3  H5  UNL     1       0.739   0.097   0.034  1.00  0.00     0.186 HD
HETATM    4  C10 UNL     1       2.019  -1.551  -0.200  1.00  0.00     0.157 A 
HETATM    5  C17 UNL     1       1.700  -2.904  -0.142  1.00  0.00     0.166 A 
HETATM    6 CL1  UNL     1       2.833  -4.220  -0.348  1.00  0.00    -0.060 Cl
HETATM    7  N7  UNL     1       0.390  -3.077   0.096  1.00  0.00    -0.164 N 
ENDROOT
BRANCH   1   8
HETATM    8  N4  UNL     1      -1.368  -1.514   0.413  1.00  0.00    -0.219 N 
ATOM      9  H4  UNL     1      -2.065  -2.248   0.539  1.00  0.00     0.178 HD
BRANCH   8  10
HETATM   10  C8  UNL     1      -1.746  -0.128   0.480  1.00  0.00     0.123 C 
HETATM   11  C4  UNL     1      -3.215   0.000   0.256  1.00  0.00     0.032 C 
HETATM   12  C5  UNL     1      -3.728   0.859   1.355  1.00  0.00     0.132 C 
HETATM   13  N1  UNL     1      -2.588   1.274   2.108  1.00  0.00    -0.353 N 
HETATM   14  C6  UNL     1      -2.569   2.426   2.962  1.00  0.00     0.184 C 
HETATM   15  C7  UNL     1      -1.471   0.370   1.883  1.00  0.00     0.151 C 
HETATM   16  N2  UNL     1      -1.862   2.370   4.026  1.00  0.00    -0.374 N 
HETATM   17  N3  UNL     1      -3.338   3.556   2.571  1.00  0.00    -0.064 NA
ATOM     18  H22 UNL     1      -1.310   1.559   4.307  1.00  0.00     0.158 HD
ATOM     19  H21 UNL     1      -1.848   3.189   4.633  1.00  0.00     0.158 HD
BRANCH  11  20
HETATM   20  C2  UNL     1      -3.578   0.488  -1.130  1.00  0.00    -0.015 C 
HETATM   21  C1  UNL     1      -5.088   0.518  -1.216  1.00  0.00     0.010 C 
HETATM   22  C3  UNL     1      -3.038   1.843  -1.452  1.00  0.00     0.010 C 
ENDBRANCH  11  20
ENDBRANCH   8  10
ENDBRANCH   1   8
BRANCH   7  23
HETATM   23  C18 UNL     1      -0.366  -4.281   0.233  1.00  0.00     0.109 A 
HETATM   24  C19 UNL     1       0.175  -5.456   1.026  1.00  0.00     0.028 A 
HETATM   25  C20 UNL     1      -0.106  -5.523  -0.486  1.00  0.00     0.028 A 
ENDBRANCH   7  23
BRANCH   4  26
HETATM   26  N6  UNL     1       3.321  -1.063  -0.421  1.00  0.00    -0.369 N 
ATOM     27  H6  UNL     1       4.070  -1.747  -0.529  1.00  0.00     0.161 HD
BRANCH  26  28
HETATM   28  C11 UNL     1       3.673   0.337  -0.506  1.00  0.00     0.083 C 
HETATM   29  C12 UNL     1       3.090   0.921  -1.760  1.00  0.00     0.025 C 
HETATM   30  C13 UNL     1       3.215   2.432  -1.782  1.00  0.00     0.002 C 
HETATM   31  C14 UNL     1       4.489   2.836  -1.038  1.00  0.00     0.000 C 
HETATM   32  C15 UNL     1       5.507   1.747  -1.263  1.00  0.00     0.002 C 
HETATM   33  C16 UNL     1       5.169   0.512  -0.438  1.00  0.00     0.025 C 
ENDBRANCH  26  28
ENDBRANCH   4  26
TORSDOF 6
