REMARK  9 active torsions:
REMARK  status: ('A' for Active; 'I' for Inactive)
REMARK    1  A    between atoms: N1_1  and  C1_4 
REMARK    2  A    between atoms: C2_10  and  N4_11 
REMARK    3  A    between atoms: C3_12  and  N5_13 
REMARK    4  A    between atoms: C9_22  and  N7_23 
REMARK    5  A    between atoms: C10_28  and  S1_29 
REMARK    6  A    between atoms: S1_29  and  C11_30 
REMARK    7  A    between atoms: C11_30  and  C12_31 
REMARK    8  A    between atoms: C12_31  and  N9_32 
REMARK    9  A    between atoms: C12_31  and  C13_36 
ROOT
HETATM    1  N4  UNL     1      -1.381  -0.852   0.016  1.00  0.00    -0.109 N 
HETATM    2  C3  UNL     1      -2.081   0.296  -0.076  1.00  0.00     0.691 A 
HETATM    3  N6  UNL     1      -1.198   1.335   0.086  1.00  0.00    -0.184 N 
ATOM      4  H6  UNL     1      -1.445   2.325   0.066  1.00  0.00     0.184 HD
HETATM    5  C8  UNL     1       0.031   0.853   0.273  1.00  0.00     0.138 A 
HETATM    6  C9  UNL     1       1.247   1.475   0.471  1.00  0.00     0.132 A 
HETATM    7  N8  UNL     1       2.307   0.678   0.618  1.00  0.00    -0.321 N 
ATOM      8  H8  UNL     1       3.216   1.117   0.765  1.00  0.00     0.169 HD
HETATM    9  C10 UNL     1       2.257  -0.670   0.585  1.00  0.00     0.147 A 
HETATM   10  N11 UNL     1       1.051  -1.235   0.390  1.00  0.00    -0.320 N 
ATOM     11  H11 UNL     1       0.992  -2.253   0.363  1.00  0.00     0.169 HD
HETATM   12  C14 UNL     1      -0.090  -0.519   0.228  1.00  0.00     0.164 A 
ENDROOT
BRANCH   1  13
HETATM   13  C2  UNL     1      -1.908  -2.161  -0.101  1.00  0.00     0.198 A 
HETATM   14  C1  UNL     1      -2.626  -2.879   0.829  1.00  0.00     0.168 A 
HETATM   15  N2  UNL     1      -2.924  -4.077   0.296  1.00  0.00    -0.222 N 
HETATM   16  O1  UNL     1      -2.422  -4.114  -0.904  1.00  0.00    -0.153 OA
ATOM     17  H2  UNL     1      -3.450  -4.823   0.751  1.00  0.00     0.198 HD
HETATM   18  N3  UNL     1      -1.814  -2.995  -1.173  1.00  0.00    -0.221 N 
ATOM     19  H3  UNL     1      -1.341  -2.777  -2.050  1.00  0.00     0.198 HD
BRANCH  14  20
HETATM   20  N1  UNL     1      -2.981  -2.536   2.018  1.00  0.00    -0.381 N 
ATOM     21  H12 UNL     1      -3.513  -3.068   2.707  1.00  0.00     0.157 HD
ATOM     22  H11 UNL     1      -2.755  -1.627   2.422  1.00  0.00     0.157 HD
ENDBRANCH  14  20
ENDBRANCH   1  13
BRANCH   2  23
HETATM   23  N5  UNL     1      -3.438   0.525  -0.297  1.00  0.00    -0.213 N 
HETATM   24  C4  UNL     1      -4.352   0.786   0.779  1.00  0.00     0.167 C 
HETATM   25  C5  UNL     1      -5.576   1.531   0.308  1.00  0.00     0.188 C 
HETATM   26  O2  UNL     1      -5.520   2.161  -0.872  1.00  0.00    -0.388 OA
HETATM   27  C6  UNL     1      -4.597   1.895  -1.812  1.00  0.00     0.188 C 
HETATM   28  C7  UNL     1      -3.995   0.522  -1.621  1.00  0.00     0.167 C 
ENDBRANCH   2  23
BRANCH   6  29
HETATM   29  N7  UNL     1       1.380   2.756   0.522  1.00  0.00    -0.383 N 
ATOM     30  H72 UNL     1       0.570   3.365   0.410  1.00  0.00     0.157 HD
ATOM     31  H71 UNL     1       2.279   3.216   0.668  1.00  0.00     0.157 HD
ENDBRANCH   6  29
BRANCH   9  32
HETATM   32  S1  UNL     1       3.733  -1.651   0.811  1.00  0.00    -0.091 SA
BRANCH  32  33
HETATM   33  C11 UNL     1       5.169  -0.560   0.939  1.00  0.00     0.124 C 
BRANCH  33  34
HETATM   34  C12 UNL     1       5.433   0.095  -0.416  1.00  0.00     0.281 C 
BRANCH  34  35
HETATM   35  N9  UNL     1       5.692  -0.930  -1.395  1.00  0.00    -0.066 N 
ATOM     36  H93 UNL     1       6.448  -1.553  -1.112  1.00  0.00     0.275 HD
ATOM     37  H92 UNL     1       4.944  -1.622  -1.439  1.00  0.00     0.275 HD
ATOM     38  H91 UNL     1       5.868  -0.493  -2.300  1.00  0.00     0.275 HD
ENDBRANCH  34  35
BRANCH  34  39
HETATM   39  C13 UNL     1       6.531   1.087  -0.340  1.00  0.00     0.262 C 
HETATM   40  N10 UNL     1       6.471   2.242   0.467  1.00  0.00    -0.060 NA
HETATM   41  O3  UNL     1       7.554   0.852  -1.051  1.00  0.00    -0.275 OA
ENDBRANCH  34  39
ENDBRANCH  33  34
ENDBRANCH  32  33
ENDBRANCH   9  32
TORSDOF 9
