REMARK  8 active torsions:
REMARK  status: ('A' for Active; 'I' for Inactive)
REMARK    1  A    between atoms: C2_2  and  O1_3 
REMARK    2  A    between atoms: O1_3  and  C3_4 
REMARK    3  A    between atoms: C3_4  and  O2_5 
REMARK    4  A    between atoms: C3_4  and  C5_7 
REMARK    5  A    between atoms: N1_9  and  C7_10 
REMARK    6  A    between atoms: N4_17  and  C9_19 
REMARK    7  A    between atoms: C14_26  and  N6_27 
REMARK    8  A    between atoms: C15_32  and  N8_33 
REMARK       I    between atoms: N8_33  and  C16_35 
REMARK       I    between atoms: C16_35  and  N9_36 
REMARK       I    between atoms: C16_35  and  N10_40 
ROOT
HETATM    1  C5  UNL     1      -1.533   0.184  -0.723  1.00  0.00     0.123 A 
HETATM    2  C6  UNL     1      -0.560   0.585  -1.521  1.00  0.00     0.149 A 
HETATM    3  N1  UNL     1       0.411  -0.398  -1.553  1.00  0.00    -0.134 N 
HETATM    4  C13 UNL     1      -0.048  -1.373  -0.742  1.00  0.00     0.726 A 
HETATM    5  N5  UNL     1       0.460  -2.549  -0.398  1.00  0.00    -0.020 N 
ATOM      6  H5  UNL     1       1.366  -2.819  -0.782  1.00  0.00     0.203 HD
HETATM    7  C14 UNL     1      -0.168  -3.409   0.440  1.00  0.00     0.705 A 
HETATM    8  N7  UNL     1      -1.348  -3.044   0.938  1.00  0.00    -0.021 N 
ATOM      9  H7  UNL     1      -1.845  -3.670   1.572  1.00  0.00     0.203 HD
HETATM   10  C15 UNL     1      -1.891  -1.856   0.612  1.00  0.00     0.717 A 
HETATM   11  N11 UNL     1      -1.272  -0.982  -0.232  1.00  0.00     0.027 N 
ENDROOT
BRANCH   3  12
HETATM   12  C7  UNL     1       1.607  -0.299  -2.296  1.00  0.00     0.195 A 
HETATM   13  N2  UNL     1       1.775  -0.439  -3.614  1.00  0.00    -0.221 N 
HETATM   14  O3  UNL     1       3.021  -0.270  -3.930  1.00  0.00    -0.153 OA
ATOM     15  H2  UNL     1       1.029  -0.649  -4.277  1.00  0.00     0.198 HD
HETATM   16  N3  UNL     1       3.702  -0.015  -2.851  1.00  0.00    -0.222 N 
HETATM   17  C8  UNL     1       2.892  -0.016  -1.787  1.00  0.00     0.171 A 
ATOM     18  H3  UNL     1       4.706   0.160  -2.821  1.00  0.00     0.198 HD
HETATM   19  N4  UNL     1       3.062   0.165  -0.550  1.00  0.00    -0.364 N 
ATOM     20  H4  UNL     1       2.216   0.089   0.014  1.00  0.00     0.162 HD
BRANCH  19  21
HETATM   21  C9  UNL     1       4.247   0.459   0.186  1.00  0.00     0.021 C 
HETATM   22  C10 UNL     1       4.002   0.065   1.639  1.00  0.00     0.037 C 
HETATM   23  C11 UNL     1       5.472  -0.289  -0.258  1.00  0.00     0.037 C 
HETATM   24  C12 UNL     1       4.505   1.956   0.194  1.00  0.00     0.037 C 
ENDBRANCH  19  21
ENDBRANCH   3  12
BRANCH   1  25
HETATM   25  C3  UNL     1      -2.954   1.032  -0.395  1.00  0.00     0.313 C 
BRANCH  25  26
HETATM   26  O1  UNL     1      -2.125   2.433  -0.460  1.00  0.00    -0.356 OA
BRANCH  26  27
HETATM   27  C2  UNL     1      -1.707   2.613   0.819  1.00  0.00     0.167 C 
HETATM   28  C1  UNL     1      -0.908   3.895   0.859  1.00  0.00     0.033 C 
ENDBRANCH  26  27
ENDBRANCH  25  26
BRANCH  25  29
HETATM   29  O2  UNL     1      -3.229   1.168  -1.709  1.00  0.00    -0.360 OA
HETATM   30  C4  UNL     1      -4.060   2.207  -2.071  1.00  0.00     0.205 C 
ENDBRANCH  25  29
ENDBRANCH   1  25
BRANCH   7  31
HETATM   31  N6  UNL     1       0.376  -4.552   0.741  1.00  0.00    -0.234 N 
ATOM     32  H62 UNL     1       1.280  -4.832   0.360  1.00  0.00     0.174 HD
ATOM     33  H61 UNL     1      -0.097  -5.199   1.372  1.00  0.00     0.174 HD
ENDBRANCH   7  31
BRANCH  10  34
HETATM   34  N8  UNL     1      -3.029  -1.478   1.065  1.00  0.00    -0.172 N 
HETATM   35  C16 UNL     1      -3.781  -2.316   1.953  1.00  0.00     0.494 C 
HETATM   36  N9  UNL     1      -4.521  -3.363   1.314  1.00  0.00    -0.032 N 
HETATM   37  N10 UNL     1      -4.727  -1.395   2.626  1.00  0.00    -0.032 N 
ATOM     38  H93 UNL     1      -5.131  -2.975   0.595  1.00  0.00     0.278 HD
ATOM     39  H92 UNL     1      -3.901  -3.930   0.735  1.00  0.00     0.278 HD
ATOM     40  H91 UNL     1      -5.056  -3.959   1.946  1.00  0.00     0.278 HD
ATOM     41 3H10 UNL     1      -4.279  -0.601   3.084  1.00  0.00     0.278 HD
ATOM     42 2H10 UNL     1      -5.302  -0.848   1.985  1.00  0.00     0.278 HD
ATOM     43 1H10 UNL     1      -5.262  -1.991   3.258  1.00  0.00     0.278 HD
ATOM     44  H8  UNL     1      -3.404  -0.570   0.790  1.00  0.00     0.181 HD
ENDBRANCH  10  34
TORSDOF 8
