REMARK  8 active torsions:
REMARK  status: ('A' for Active; 'I' for Inactive)
REMARK    1  A    between atoms: S1_2  and  O2_6 
REMARK    2  A    between atoms: O2_6  and  N2_7 
REMARK    3  A    between atoms: N2_7  and  C3_9 
REMARK    4  A    between atoms: C4_12  and  C5_13 
REMARK    5  A    between atoms: C5_13  and  S2_14 
REMARK    6  A    between atoms: S2_14  and  C6_15 
REMARK    7  A    between atoms: C9_25  and  N7_26 
REMARK    8  A    between atoms: C11_33  and  N9_34 
ROOT
HETATM    1  C1  UNL     1      -4.840  -2.051   0.817  1.00  0.00     0.162 C 
HETATM    2  S1  UNL     1      -5.102  -1.045  -0.755  1.00  0.00     0.172 S 
HETATM    3  O1  UNL     1      -5.059  -0.475  -2.224  1.00  0.00    -0.227 OA
HETATM    4  C2  UNL     1      -7.131  -1.051  -0.567  1.00  0.00     0.180 C 
HETATM    5  N1  UNL     1      -8.299  -1.031  -0.460  1.00  0.00    -0.180 NA
ENDROOT
BRANCH   2   6
HETATM    6  O2  UNL     1      -4.290   0.226  -0.196  1.00  0.00    -0.159 OA
BRANCH   6   7
HETATM    7  N2  UNL     1      -3.515   0.762   0.743  1.00  0.00    -0.081 N 
ATOM      8  H2  UNL     1      -3.868   0.847   1.696  1.00  0.00     0.214 HD
BRANCH   7   9
HETATM    9  C3  UNL     1      -2.328   1.175   0.469  1.00  0.00     0.719 A 
HETATM   10  N3  UNL     1      -1.524   1.721   1.401  1.00  0.00    -0.177 N 
HETATM   11  C4  UNL     1      -0.303   2.130   1.052  1.00  0.00     0.123 A 
ATOM     12  H3  UNL     1      -1.845   1.821   2.364  1.00  0.00     0.185 HD
HETATM   13  N8  UNL     1       0.131   2.004  -0.212  1.00  0.00    -0.179 N 
HETATM   14  C11 UNL     1      -0.630   1.469  -1.167  1.00  0.00     0.691 A 
ATOM     15  H8  UNL     1       1.069   2.327  -0.448  1.00  0.00     0.185 HD
HETATM   16  N10 UNL     1      -1.872   1.059  -0.790  1.00  0.00    -0.021 N 
ATOM     17  H10 UNL     1      -2.484   0.646  -1.494  1.00  0.00     0.203 HD
BRANCH  11  18
HETATM   18  C5  UNL     1       0.633   2.744   2.034  1.00  0.00     0.159 C 
BRANCH  18  19
HETATM   19  S2  UNL     1       1.668   1.533   2.849  1.00  0.00    -0.097 SA
BRANCH  19  20
HETATM   20  C6  UNL     1       2.814   0.743   1.707  1.00  0.00     0.114 A 
HETATM   21  N4  UNL     1       2.647  -0.347   0.978  1.00  0.00    -0.330 N 
HETATM   22  C7  UNL     1       3.595  -0.773   0.203  1.00  0.00     0.131 A 
ATOM     23  H4  UNL     1       1.765  -0.857   1.026  1.00  0.00     0.168 HD
HETATM   24  N5  UNL     1       3.570  -1.883  -0.610  1.00  0.00    -0.293 N 
HETATM   25  C10 UNL     1       4.763  -0.055   0.175  1.00  0.00     0.095 A 
HETATM   26  C8  UNL     1       4.613  -2.207  -1.353  1.00  0.00     0.327 A 
ATOM     27  H5  UNL     1       2.733  -2.465  -0.639  1.00  0.00     0.172 HD
HETATM   28  O3  UNL     1       4.517  -3.248  -2.081  1.00  0.00    -0.247 OA
HETATM   29  N6  UNL     1       5.764  -1.533  -1.406  1.00  0.00    -0.294 N 
HETATM   30  C9  UNL     1       5.848  -0.442  -0.635  1.00  0.00     0.124 A 
ATOM     31  H6  UNL     1       6.536  -1.833  -2.001  1.00  0.00     0.172 HD
HETATM   32  S3  UNL     1       4.417   1.205   1.279  1.00  0.00    -0.058 SA
BRANCH  30  33
HETATM   33  N7  UNL     1       6.884   0.307  -0.577  1.00  0.00    -0.384 N 
ATOM     34  H72 UNL     1       7.670   0.027  -1.164  1.00  0.00     0.157 HD
ATOM     35  H71 UNL     1       6.948   1.138   0.011  1.00  0.00     0.157 HD
ENDBRANCH  30  33
ENDBRANCH  19  20
ENDBRANCH  18  19
ENDBRANCH  11  18
BRANCH  14  36
HETATM   36  N9  UNL     1      -0.209   1.354  -2.366  1.00  0.00    -0.234 N 
ATOM     37  H92 UNL     1       0.722   1.661  -2.649  1.00  0.00     0.174 HD
ATOM     38  H91 UNL     1      -0.791   0.945  -3.097  1.00  0.00     0.174 HD
ENDBRANCH  14  36
ENDBRANCH   7   9
ENDBRANCH   6   7
ENDBRANCH   2   6
TORSDOF 8
