REMARK  9 active torsions:
REMARK  status: ('A' for Active; 'I' for Inactive)
REMARK    1  A    between atoms: C1_4  and  C2_5 
REMARK    2  A    between atoms: C1_4  and  C3_8 
REMARK    3  A    between atoms: C3_8  and  C4_10 
REMARK    4  A    between atoms: C4_10  and  N3_11 
REMARK    5  A    between atoms: C4_10  and  C5_15 
REMARK    6  A    between atoms: C5_15  and  C6_16 
REMARK    7  A    between atoms: C6_16  and  O3_17 
REMARK    8  A    between atoms: C6_16  and  C7_19 
REMARK    9  A    between atoms: C7_19  and  N4_20 
ROOT
HETATM    1  C6  UNL     1       1.165   1.591   0.831  1.00  0.00     0.148 C 
ENDROOT
BRANCH   1   2
HETATM    2  C5  UNL     1       2.463   1.022   0.448  1.00  0.00     0.074 C 
BRANCH   2   3
HETATM    3  C4  UNL     1       2.600  -0.390   0.018  1.00  0.00     0.261 C 
BRANCH   3   4
HETATM    4  C3  UNL     1       4.093  -0.590  -0.207  1.00  0.00     0.210 C 
HETATM    5  O2  UNL     1       4.509  -0.534  -1.386  1.00  0.00    -0.288 OA
BRANCH   4   6
HETATM    6  C1  UNL     1       5.013  -0.836   0.871  1.00  0.00     0.140 C 
HETATM    7  N1  UNL     1       4.607  -0.916   2.078  1.00  0.00    -0.392 N 
ATOM      8  H12 UNL     1       5.259  -1.090   2.842  1.00  0.00     0.156 HD
ATOM      9  H11 UNL     1       3.614  -0.812   2.289  1.00  0.00     0.156 HD
BRANCH   6  10
HETATM   10  C2  UNL     1       6.427  -0.984   0.571  1.00  0.00     0.284 C 
HETATM   11  N2  UNL     1       6.941  -0.905  -0.752  1.00  0.00    -0.056 NA
HETATM   12  O1  UNL     1       7.226  -1.189   1.510  1.00  0.00    -0.269 OA
ENDBRANCH   6  10
ENDBRANCH   4   6
ENDBRANCH   3   4
BRANCH   3  13
HETATM   13  N3  UNL     1       2.064  -0.587  -1.350  1.00  0.00    -0.068 N 
ATOM     14  H33 UNL     1       2.479   0.006  -2.069  1.00  0.00     0.275 HD
ATOM     15  H32 UNL     1       2.322  -1.467  -1.795  1.00  0.00     0.275 HD
ATOM     16  H31 UNL     1       1.064  -0.453  -1.199  1.00  0.00     0.275 HD
ENDBRANCH   3  13
ENDBRANCH   2   3
ENDBRANCH   1   2
BRANCH   1  17
HETATM   17  O3  UNL     1       1.500   2.972   1.166  1.00  0.00    -0.394 OA
ATOM     18  H3  UNL     1       0.660   3.340   1.414  1.00  0.00     0.210 HD
ENDBRANCH   1  17
BRANCH   1  19
HETATM   19  C7  UNL     1       0.018   1.605  -0.092  1.00  0.00     0.303 C 
BRANCH  19  20
HETATM   20  N4  UNL     1      -0.545   0.346  -0.477  1.00  0.00     0.090 N 
HETATM   21  C8  UNL     1      -1.199  -0.318   0.642  1.00  0.00     0.273 C 
HETATM   22  C9  UNL     1      -2.355  -1.132   0.124  1.00  0.00     0.041 C 
HETATM   23  C10 UNL     1      -3.452  -0.232  -0.374  1.00  0.00    -0.012 C 
HETATM   24  C11 UNL     1      -4.310  -0.984  -1.333  1.00  0.00     0.039 C 
HETATM   25  C13 UNL     1      -4.339   0.263   0.748  1.00  0.00     0.241 C 
HETATM   26  C14 UNL     1      -2.824   1.007  -0.999  1.00  0.00     0.041 C 
HETATM   27  C12 UNL     1      -5.665  -0.947  -0.680  1.00  0.00     0.233 C 
HETATM   28  N5  UNL     1      -5.431  -0.681   0.724  1.00  0.00    -0.074 N 
ATOM     29  H52 UNL     1      -6.260  -0.367   1.229  1.00  0.00     0.277 HD
ATOM     30  H51 UNL     1      -5.265  -1.519   1.281  1.00  0.00     0.277 HD
HETATM   31  C15 UNL     1      -1.498   0.612  -1.562  1.00  0.00     0.273 C 
ENDBRANCH  19  20
ENDBRANCH   1  19
TORSDOF 9
