REMARK  8 active torsions:
REMARK  status: ('A' for Active; 'I' for Inactive)
REMARK    1  A    between atoms: C2_2  and  C3_4 
REMARK    2  A    between atoms: C3_4  and  N1_5 
REMARK    3  A    between atoms: C3_4  and  C8_18 
REMARK       I    between atoms: N1_5  and  C4_7 
REMARK    4  A    between atoms: C4_7  and  C5_9 
REMARK    5  A    between atoms: C5_9  and  N2_10 
REMARK    6  A    between atoms: C5_9  and  C6_14 
REMARK    7  A    between atoms: C6_14  and  C7_15 
REMARK       I    between atoms: C8_18  and  N3_20 
REMARK    8  A    between atoms: N3_20  and  C9_22 
ROOT
HETATM    1  C3  UNL     1      -0.845  -1.049  -0.024  1.00  0.00     0.246 C 
ENDROOT
BRANCH   1   2
HETATM    2  C2  UNL     1      -0.905  -2.138  -0.995  1.00  0.00     0.154 C 
HETATM    3  C1  UNL     1      -0.036  -3.325  -1.077  1.00  0.00     0.093 C 
HETATM    4  O1  UNL     1      -1.790  -2.072  -1.860  1.00  0.00    -0.296 OA
ENDBRANCH   1   2
BRANCH   1   5
HETATM    5  N1  UNL     1      -1.944  -0.097  -0.188  1.00  0.00    -0.340 N 
HETATM    6  C4  UNL     1      -2.725   0.343   0.909  1.00  0.00     0.249 C 
HETATM    7  O2  UNL     1      -2.495  -0.095   2.091  1.00  0.00    -0.271 OA
ATOM      8  H1  UNL     1      -2.154   0.260  -1.120  1.00  0.00     0.163 HD
BRANCH   6   9
HETATM    9  C5  UNL     1      -3.807   1.311   0.731  1.00  0.00     0.284 C 
BRANCH   9  10
HETATM   10  N2  UNL     1      -4.071   1.888   2.060  1.00  0.00    -0.066 N 
ATOM     11  H23 UNL     1      -4.269   1.187   2.773  1.00  0.00     0.275 HD
ATOM     12  H22 UNL     1      -3.241   2.285   2.501  1.00  0.00     0.275 HD
ATOM     13  H21 UNL     1      -4.826   2.563   1.936  1.00  0.00     0.275 HD
ENDBRANCH   9  10
BRANCH   9  14
HETATM   14  C6  UNL     1      -5.071   0.820   0.124  1.00  0.00     0.155 C 
BRANCH  14  15
HETATM   15  C7  UNL     1      -4.853   0.277  -1.219  1.00  0.00     0.175 C 
HETATM   16  O3  UNL     1      -4.850  -0.971  -1.350  1.00  0.00    -0.648 OA
HETATM   17  O4  UNL     1      -4.655   1.090  -2.316  1.00  0.00    -0.648 OA
ENDBRANCH  14  15
ENDBRANCH   9  14
ENDBRANCH   6   9
ENDBRANCH   1   5
BRANCH   1  18
HETATM   18  C8  UNL     1       0.427  -0.261  -0.071  1.00  0.00     0.252 C 
HETATM   19  O5  UNL     1       0.330   0.968  -0.249  1.00  0.00    -0.270 OA
HETATM   20  N3  UNL     1       1.681  -0.868   0.076  1.00  0.00    -0.325 N 
ATOM     21  H3  UNL     1       1.696  -1.879   0.213  1.00  0.00     0.169 HD
BRANCH  20  22
HETATM   22  C9  UNL     1       2.935  -0.196   0.051  1.00  0.00     0.034 A 
HETATM   23  C10 UNL     1       4.050  -0.898  -0.438  1.00  0.00     0.031 A 
HETATM   24  C11 UNL     1       5.261  -0.279  -0.446  1.00  0.00     0.029 A 
HETATM   25  C12 UNL     1       5.393   1.006   0.014  1.00  0.00     0.046 A 
HETATM   26  N4  UNL     1       6.669   1.651   0.000  1.00  0.00    -0.102 NA
HETATM   27  C13 UNL     1       4.315   1.706   0.494  1.00  0.00     0.029 A 
HETATM   28  C14 UNL     1       3.069   1.076   0.506  1.00  0.00     0.031 A 
ENDBRANCH  20  22
ENDBRANCH   1  18
TORSDOF 8
