REMARK  8 active torsions:
REMARK  status: ('A' for Active; 'I' for Inactive)
REMARK    1  A    between atoms: C2_2  and  C3_3 
REMARK    2  A    between atoms: C3_3  and  N1_4 
REMARK    3  A    between atoms: N1_4  and  C4_5 
REMARK    4  A    between atoms: N1_4  and  C7_9 
REMARK    5  A    between atoms: C4_5  and  C5_6 
REMARK    6  A    between atoms: C8_12  and  N4_13 
REMARK    7  A    between atoms: C11_20  and  C12_21 
REMARK    8  A    between atoms: C12_21  and  C13_23 
ROOT
HETATM    1  C5  UNL     1       3.179  -1.813  -2.377  1.00  0.00     0.143 C 
HETATM    2  C6  UNL     1       3.013  -2.450  -3.727  1.00  0.00     0.060 C 
HETATM    3  N2  UNL     1       2.884  -2.925  -4.775  1.00  0.00    -0.197 NA
ENDROOT
BRANCH   1   4
HETATM    4  C4  UNL     1       1.855  -1.227  -2.054  1.00  0.00     0.138 C 
BRANCH   4   5
HETATM    5  N1  UNL     1       1.692  -0.508  -0.843  1.00  0.00    -0.365 N 
BRANCH   5   6
HETATM    6  C3  UNL     1       1.700  -1.084   0.455  1.00  0.00     0.124 C 
BRANCH   6   7
HETATM    7  C2  UNL     1       2.991  -1.634   0.970  1.00  0.00     0.015 C 
HETATM    8  C1  UNL     1       2.651  -2.134   2.400  1.00  0.00     0.006 C 
ENDBRANCH   6   7
ENDBRANCH   5   6
BRANCH   5   9
HETATM    9  C7  UNL     1       1.494   0.900  -0.952  1.00  0.00     0.135 A 
HETATM   10  N3  UNL     1       2.619   1.636  -1.201  1.00  0.00    -0.176 N 
HETATM   11  C8  UNL     1       2.515   2.978  -1.299  1.00  0.00     0.677 A 
ATOM     12  H3  UNL     1       3.524   1.178  -1.311  1.00  0.00     0.186 HD
HETATM   13  N5  UNL     1       1.319   3.549  -1.152  1.00  0.00    -0.195 N 
HETATM   14  C9  UNL     1       0.208   2.832  -0.907  1.00  0.00     0.040 A 
ATOM     15  H5  UNL     1       1.244   4.563  -1.228  1.00  0.00     0.184 HD
HETATM   16  C10 UNL     1      -1.068   3.561  -0.759  1.00  0.00     0.070 C 
HETATM   17  C11 UNL     1       0.273   1.452  -0.800  1.00  0.00     0.077 A 
BRANCH  11  18
HETATM   18  N4  UNL     1       3.605   3.667  -1.538  1.00  0.00    -0.234 N 
ATOM     19  H42 UNL     1       4.520   3.230  -1.650  1.00  0.00     0.174 HD
ATOM     20  H41 UNL     1       3.526   4.681  -1.612  1.00  0.00     0.174 HD
ENDBRANCH  11  18
BRANCH  17  21
HETATM   21  C12 UNL     1      -0.925   0.702  -0.559  1.00  0.00     0.170 C 
HETATM   22  O1  UNL     1      -1.542   0.326  -1.618  1.00  0.00    -0.292 OA
BRANCH  21  23
HETATM   23  C13 UNL     1      -1.520   0.322   0.718  1.00  0.00     0.078 A 
HETATM   24  C14 UNL     1      -2.164  -0.978   0.933  1.00  0.00    -0.029 A 
HETATM   25  C15 UNL     1      -2.445  -1.934  -0.192  1.00  0.00     0.016 C 
HETATM   26  C16 UNL     1      -1.997  -1.686   2.270  1.00  0.00     0.016 C 
HETATM   27  C17 UNL     1      -2.947   0.304   1.041  1.00  0.00    -0.029 A 
HETATM   28  C18 UNL     1      -4.076   0.421   0.086  1.00  0.00     0.016 C 
HETATM   29  C19 UNL     1      -3.344   0.799   2.445  1.00  0.00     0.016 C 
ENDBRANCH  21  23
ENDBRANCH  17  21
ENDBRANCH   5   9
ENDBRANCH   4   5
ENDBRANCH   1   4
TORSDOF 8
