REMARK  10 active torsions:
REMARK  status: ('A' for Active; 'I' for Inactive)
REMARK    1  A    between atoms: C2_2  and  C4_4 
REMARK    2  A    between atoms: C4_4  and  C5_5 
REMARK    3  A    between atoms: C6_6  and  C7_7 
REMARK    4  A    between atoms: C7_7  and  C9_9 
REMARK    5  A    between atoms: C18_18  and  C19_19 
REMARK    6  A    between atoms: C19_19  and  O1_20 
REMARK    7  A    between atoms: C25_30  and  O5_31 
REMARK    8  A    between atoms: O5_31  and  C26_32 
REMARK    9  A    between atoms: C26_32  and  C27_34 
REMARK   10  A    between atoms: C27_34  and  O7_36 
ROOT
HETATM    1  C9  UNL     1       0.785  -0.048   0.028  1.00  0.00     0.004 C 
HETATM    2  C10 UNL     1       1.048  -1.463  -0.438  1.00  0.00     0.006 C 
HETATM    3  C11 UNL     1      -0.258  -1.924  -1.146  1.00  0.00     0.007 C 
HETATM    4  C12 UNL     1      -1.167  -0.865  -0.635  1.00  0.00     0.005 C 
HETATM    5  C13 UNL     1      -2.566  -0.824  -0.936  1.00  0.00    -0.029 C 
HETATM    6  C14 UNL     1      -3.043  -0.420  -2.305  1.00  0.00     0.016 C 
HETATM    7  C15 UNL     1      -3.181  -2.171  -0.682  1.00  0.00     0.011 C 
HETATM    8  C16 UNL     1      -3.411  -2.611   0.691  1.00  0.00     0.012 C 
HETATM    9  C17 UNL     1      -4.882  -2.911   0.993  1.00  0.00     0.072 A 
HETATM   10  C18 UNL     1      -5.462  -2.484   2.273  1.00  0.00     0.130 A 
HETATM   11  O2  UNL     1      -5.615  -1.198   2.669  1.00  0.00    -0.351 OA
HETATM   12  C20 UNL     1      -5.725  -1.747   1.260  1.00  0.00     0.170 A 
HETATM   13  C21 UNL     1      -5.617  -0.646   0.375  1.00  0.00     0.233 C 
HETATM   14  O3  UNL     1      -6.717  -0.321  -0.134  1.00  0.00    -0.286 OA
HETATM   15  C22 UNL     1      -4.570   0.262  -0.143  1.00  0.00     0.203 C 
HETATM   16  O4  UNL     1      -5.044   1.190  -0.834  1.00  0.00    -0.289 OA
HETATM   17  C23 UNL     1      -3.101   0.244   0.023  1.00  0.00     0.074 C 
HETATM   18  C24 UNL     1      -2.468   1.541  -0.194  1.00  0.00     0.046 C 
HETATM   19  C25 UNL     1      -1.046   1.615  -0.685  1.00  0.00     0.141 C 
HETATM   20  C29 UNL     1      -0.296   0.384  -0.901  1.00  0.00    -0.009 C 
HETATM   21  C30 UNL     1       0.250   0.281  -2.331  1.00  0.00     0.018 C 
ENDROOT
BRANCH   1  22
HETATM   22  C7  UNL     1       1.995   0.732   0.259  1.00  0.00     0.009 C 
HETATM   23  C8  UNL     1       2.771   1.164  -0.945  1.00  0.00     0.014 C 
BRANCH  22  24
HETATM   24  C6  UNL     1       2.946   0.213   1.287  1.00  0.00    -0.026 C 
HETATM   25  C5  UNL     1       3.829  -0.914   1.117  1.00  0.00    -0.030 C 
BRANCH  25  26
HETATM   26  C4  UNL     1       4.926  -0.970   0.133  1.00  0.00     0.030 C 
BRANCH  26  27
HETATM   27  C2  UNL     1       6.016   0.063   0.290  1.00  0.00    -0.019 C 
HETATM   28  C1  UNL     1       6.682  -0.088   1.663  1.00  0.00     0.010 C 
HETATM   29  C3  UNL     1       7.094  -0.303  -0.733  1.00  0.00     0.010 C 
ENDBRANCH  26  27
ENDBRANCH  25  26
ENDBRANCH  22  24
ENDBRANCH   1  22
BRANCH  19  30
HETATM   30  O5  UNL     1      -0.373   2.731  -0.135  1.00  0.00    -0.313 OA
BRANCH  30  31
HETATM   31  C26 UNL     1      -0.088   3.914  -0.774  1.00  0.00     0.287 C 
HETATM   32  O6  UNL     1      -0.473   3.949  -1.966  1.00  0.00    -0.262 OA
BRANCH  31  33
HETATM   33  C27 UNL     1       0.600   5.064  -0.156  1.00  0.00     0.213 C 
HETATM   34  C28 UNL     1       1.998   4.765   0.256  1.00  0.00     0.050 C 
BRANCH  33  35
HETATM   35  O7  UNL     1       0.675   6.104  -1.112  1.00  0.00    -0.386 OA
ATOM     36  H7  UNL     1       1.118   6.844  -0.714  1.00  0.00     0.210 HD
ENDBRANCH  33  35
ENDBRANCH  31  33
ENDBRANCH  30  31
ENDBRANCH  19  30
BRANCH  10  37
HETATM   37  C19 UNL     1      -6.370  -3.478   2.965  1.00  0.00     0.206 C 
BRANCH  37  38
HETATM   38  O1  UNL     1      -6.172  -4.774   2.519  1.00  0.00    -0.398 OA
ATOM     39  H1  UNL     1      -6.742  -5.398   2.953  1.00  0.00     0.209 HD
ENDBRANCH  37  38
ENDBRANCH  10  37
TORSDOF 10
