REMARK  10 active torsions:
REMARK  status: ('A' for Active; 'I' for Inactive)
REMARK    1  A    between atoms: C2_2  and  C4_4 
REMARK    2  A    between atoms: C10_10  and  O1_11 
REMARK    3  A    between atoms: C13_16  and  C14_17 
REMARK    4  A    between atoms: C14_17  and  C15_19 
REMARK    5  A    between atoms: C18_23  and  C19_24 
REMARK    6  A    between atoms: C18_23  and  C21_26 
REMARK    7  A    between atoms: C24_30  and  C25_31 
REMARK    8  A    between atoms: C25_31  and  C27_33 
REMARK    9  A    between atoms: C27_33  and  C28_34 
REMARK   10  A    between atoms: C28_34  and  C30_36 
ROOT
HETATM    1  C4  UNL     1      -2.867   3.144  -0.008  1.00  0.00     0.047 C 
HETATM    2  C5  UNL     1      -2.725   1.684  -0.342  1.00  0.00     0.026 C 
HETATM    3  C6  UNL     1      -1.431   1.225  -0.862  1.00  0.00    -0.013 C 
HETATM    4  C7  UNL     1      -1.192   1.721  -2.309  1.00  0.00     0.021 C 
HETATM    5  C8  UNL     1      -0.375   1.858  -0.044  1.00  0.00    -0.059 C 
HETATM    6  C9  UNL     1      -0.512   3.189   0.159  1.00  0.00     0.009 C 
HETATM    7  C10 UNL     1      -1.657   3.952  -0.413  1.00  0.00     0.149 C 
HETATM    8  C11 UNL     1       0.625   0.858   0.355  1.00  0.00     0.115 C 
HETATM    9  C12 UNL     1       2.021   1.367   0.225  1.00  0.00     0.156 C 
HETATM   10  O2  UNL     1       2.183   2.535   0.381  1.00  0.00    -0.296 OA
HETATM   11  C13 UNL     1       3.223   0.541  -0.083  1.00  0.00     0.198 C 
HETATM   12  C17 UNL     1       2.951  -0.850   0.287  1.00  0.00     0.179 C 
HETATM   13  O4  UNL     1       3.467  -1.233   1.307  1.00  0.00    -0.293 OA
HETATM   14  C18 UNL     1       2.123  -1.848  -0.428  1.00  0.00     0.122 C 
HETATM   15  O5  UNL     1       0.810  -1.502  -0.221  1.00  0.00    -0.366 OA
HETATM   16  C23 UNL     1       0.409  -0.274  -0.620  1.00  0.00     0.144 C 
HETATM   17  C24 UNL     1      -1.115  -0.206  -0.817  1.00  0.00     0.032 C 
ENDROOT
BRANCH  17  18
HETATM   18  C25 UNL     1      -1.844  -1.202  -0.045  1.00  0.00    -0.010 C 
HETATM   19  C26 UNL     1      -3.306  -1.302  -0.418  1.00  0.00     0.010 C 
BRANCH  18  20
HETATM   20  C27 UNL     1      -1.683  -1.358   1.410  1.00  0.00     0.019 C 
BRANCH  20  21
HETATM   21  C28 UNL     1      -2.571  -2.455   1.959  1.00  0.00     0.083 C 
HETATM   22  C29 UNL     1      -2.305  -2.457   3.495  1.00  0.00     0.021 C 
BRANCH  21  23
HETATM   23  C30 UNL     1      -2.194  -3.823   1.567  1.00  0.00     0.176 C 
HETATM   24  O6  UNL     1      -1.098  -4.021   1.004  1.00  0.00    -0.648 OA
HETATM   25  O7  UNL     1      -3.061  -4.904   1.828  1.00  0.00    -0.648 OA
ENDBRANCH  21  23
ENDBRANCH  20  21
ENDBRANCH  18  20
ENDBRANCH  17  18
BRANCH   1  26
HETATM   26  C2  UNL     1      -4.116   3.771  -0.509  1.00  0.00    -0.086 C 
HETATM   27  C1  UNL     1      -5.091   4.170   0.319  1.00  0.00     0.014 C 
HETATM   28  C3  UNL     1      -4.357   3.995  -1.965  1.00  0.00     0.043 C 
ENDBRANCH   1  26
BRANCH  14  29
HETATM   29  C19 UNL     1       2.521  -1.925  -1.873  1.00  0.00     0.042 C 
HETATM   30  C20 UNL     1       1.737  -2.907  -2.670  1.00  0.00     0.009 C 
ENDBRANCH  14  29
BRANCH  14  31
HETATM   31  C21 UNL     1       2.370  -3.193   0.212  1.00  0.00     0.042 C 
HETATM   32  C22 UNL     1       3.791  -3.630   0.146  1.00  0.00     0.009 C 
ENDBRANCH  14  31
BRANCH   7  33
HETATM   33  O1  UNL     1      -1.724   5.168   0.309  1.00  0.00    -0.391 OA
ATOM     34  H1  UNL     1      -0.963   5.676   0.054  1.00  0.00     0.210 HD
ENDBRANCH   7  33
BRANCH  11  35
HETATM   35  C14 UNL     1       4.377   1.052   0.678  1.00  0.00     0.145 C 
HETATM   36  O3  UNL     1       4.223   1.996   1.427  1.00  0.00    -0.297 OA
BRANCH  35  37
HETATM   37  C15 UNL     1       5.743   0.460   0.574  1.00  0.00     0.075 C 
HETATM   38  C16 UNL     1       6.681   1.219   1.481  1.00  0.00     0.013 C 
ENDBRANCH  35  37
ENDBRANCH  11  35
TORSDOF 10
