REMARK  11 active torsions:
REMARK  status: ('A' for Active; 'I' for Inactive)
REMARK    1  A    between atoms: C3_3  and  O1_4 
REMARK    2  A    between atoms: C6_8  and  C7_9 
REMARK    3  A    between atoms: C7_9  and  C8_10 
REMARK    4  A    between atoms: C8_10  and  C9_11 
REMARK    5  A    between atoms: C9_11  and  C10_12 
REMARK    6  A    between atoms: C11_14  and  C12_15 
REMARK    7  A    between atoms: C17_21  and  C18_22 
REMARK    8  A    between atoms: C18_22  and  C19_23 
REMARK    9  A    between atoms: C21_26  and  O5_27 
REMARK   10  A    between atoms: O5_27  and  C22_28 
REMARK   11  A    between atoms: C30_37  and  O7_38 
ROOT
HETATM    1  C9  UNL     1       1.600  -0.560  -1.939  1.00  0.00     0.058 C 
HETATM    2  C11 UNL     1       0.645  -1.681  -2.313  1.00  0.00     0.033 C 
HETATM    3  C13 UNL     1      -0.034  -2.197  -1.049  1.00  0.00     0.024 C 
HETATM    4  C14 UNL     1      -0.987  -1.196  -0.608  1.00  0.00     0.003 C 
HETATM    5  C15 UNL     1      -0.310   0.157  -0.614  1.00  0.00     0.027 C 
HETATM    6  C16 UNL     1      -1.551   0.967  -0.390  1.00  0.00     0.021 C 
HETATM    7  C17 UNL     1      -2.231   0.200   0.734  1.00  0.00     0.001 C 
HETATM    8  C21 UNL     1      -3.680   0.092   0.305  1.00  0.00     0.141 C 
HETATM    9  C24 UNL     1      -4.491  -0.765   1.246  1.00  0.00     0.034 C 
HETATM   10  C25 UNL     1      -3.802  -1.947   1.781  1.00  0.00     0.007 C 
HETATM   11  C26 UNL     1      -2.603  -2.311   0.948  1.00  0.00    -0.009 C 
HETATM   12  C27 UNL     1      -3.052  -3.078  -0.245  1.00  0.00     0.011 C 
HETATM   13  C28 UNL     1      -1.605  -1.214   0.724  1.00  0.00    -0.026 C 
HETATM   14  C29 UNL     1      -0.604  -1.351   1.878  1.00  0.00     0.017 C 
HETATM   15  C30 UNL     1       0.385   0.328  -1.909  1.00  0.00     0.078 C 
HETATM   16  C31 UNL     1      -0.117  -0.579  -3.018  1.00  0.00     0.057 C 
ENDROOT
BRANCH   1  17
HETATM   17  C8  UNL     1       2.452  -0.737  -0.787  1.00  0.00     0.022 C 
BRANCH  17  18
HETATM   18  C7  UNL     1       3.263   0.545  -0.528  1.00  0.00     0.010 C 
BRANCH  18  19
HETATM   19  C6  UNL     1       4.134   0.294   0.686  1.00  0.00     0.016 C 
HETATM   20  C2  UNL     1       4.980   1.448   1.056  1.00  0.00    -0.057 C 
HETATM   21  C1  UNL     1       4.842   2.711   0.712  1.00  0.00     0.017 C 
HETATM   22  C3  UNL     1       6.059   0.910   1.924  1.00  0.00     0.146 C 
HETATM   23  C4  UNL     1       6.329  -0.462   1.337  1.00  0.00     0.037 C 
HETATM   24  C5  UNL     1       5.177  -0.774   0.408  1.00  0.00     0.012 C 
BRANCH  22  25
HETATM   25  O1  UNL     1       7.170   1.717   1.965  1.00  0.00    -0.391 OA
ATOM     26  H1  UNL     1       7.860   1.373   2.520  1.00  0.00     0.210 HD
ENDBRANCH  22  25
ENDBRANCH  18  19
ENDBRANCH  17  18
ENDBRANCH   1  17
BRANCH   1  27
HETATM   27  C10 UNL     1       2.420  -0.247  -3.159  1.00  0.00     0.245 C 
HETATM   28  O2  UNL     1       3.045  -1.087  -3.750  1.00  0.00    -0.306 OA
ENDBRANCH   1  27
BRANCH   2  29
HETATM   29  C12 UNL     1       1.181  -2.731  -3.190  1.00  0.00     0.242 C 
HETATM   30  O3  UNL     1       0.659  -2.914  -4.274  1.00  0.00    -0.306 OA
ENDBRANCH   2  29
BRANCH  15  31
HETATM   31  O7  UNL     1       0.599   1.608  -2.371  1.00  0.00    -0.388 OA
ATOM     32  H7  UNL     1      -0.168   2.168  -2.352  1.00  0.00     0.210 HD
ENDBRANCH  15  31
BRANCH   7  33
HETATM   33  C18 UNL     1      -2.102   0.841   2.058  1.00  0.00     0.090 C 
BRANCH  33  34
HETATM   34  C19 UNL     1      -2.645   2.182   2.273  1.00  0.00     0.123 C 
HETATM   35  C20 UNL     1      -1.946   3.441   1.892  1.00  0.00     0.091 C 
HETATM   36  O4  UNL     1      -3.738   2.343   2.795  1.00  0.00    -0.298 OA
ENDBRANCH  33  34
ENDBRANCH   7  33
BRANCH   8  37
HETATM   37  O5  UNL     1      -4.278   1.354   0.257  1.00  0.00    -0.316 OA
BRANCH  37  38
HETATM   38  C22 UNL     1      -4.868   1.859  -0.881  1.00  0.00     0.255 C 
HETATM   39  C23 UNL     1      -5.512   3.218  -0.938  1.00  0.00     0.126 C 
HETATM   40  O6  UNL     1      -4.895   1.178  -1.960  1.00  0.00    -0.266 OA
ENDBRANCH  37  38
ENDBRANCH   8  37
TORSDOF 11
