REMARK  8 active torsions:
REMARK  status: ('A' for Active; 'I' for Inactive)
REMARK    1  A    between atoms: C2_2  and  C3_3 
REMARK    2  A    between atoms: C3_3  and  C4_4 
REMARK    3  A    between atoms: C4_4  and  N1_5 
REMARK    4  A    between atoms: C8_9  and  O1_10 
REMARK    5  A    between atoms: C10_13  and  O2_14 
REMARK    6  A    between atoms: C12_16  and  O3_17 
REMARK    7  A    between atoms: C14_20  and  O4_21 
REMARK    8  A    between atoms: C16_24  and  O5_25 
ROOT
HETATM    1  N1  UNL     1       2.093  -0.909  -0.372  1.00  0.00     0.097 N 
HETATM    2  C5  UNL     1       1.189  -2.085  -0.609  1.00  0.00     0.315 C 
HETATM    3  C6  UNL     1      -0.162  -1.421  -0.653  1.00  0.00     0.015 A 
HETATM    4  C7  UNL     1      -0.041  -0.383   0.240  1.00  0.00     0.015 A 
HETATM    5  C8  UNL     1      -1.122   0.447   0.433  1.00  0.00     0.088 A 
HETATM    6  C9  UNL     1      -2.327   0.308  -0.211  1.00  0.00     0.050 A 
HETATM    7  C10 UNL     1      -3.401   1.147  -0.026  1.00  0.00     0.115 A 
HETATM    8  C12 UNL     1      -4.584   0.979  -0.708  1.00  0.00     0.102 A 
HETATM    9  C13 UNL     1      -4.692  -0.075  -1.606  1.00  0.00     0.077 A 
HETATM   10  C14 UNL     1      -3.617  -0.930  -1.802  1.00  0.00     0.082 A 
HETATM   11  C15 UNL     1      -2.425  -0.759  -1.117  1.00  0.00     0.047 A 
HETATM   12  C16 UNL     1      -1.342  -1.609  -1.326  1.00  0.00     0.088 A 
HETATM   13  C17 UNL     1       1.348  -0.414   0.817  1.00  0.00     0.315 C 
ENDROOT
BRANCH   1  14
HETATM   14  C4  UNL     1       3.366  -1.367   0.083  1.00  0.00     0.273 C 
BRANCH  14  15
HETATM   15  C3  UNL     1       4.501  -0.419  -0.012  1.00  0.00     0.030 C 
BRANCH  15  16
HETATM   16  C2  UNL     1       4.341   0.882   0.685  1.00  0.00    -0.003 C 
HETATM   17  C1  UNL     1       5.606   1.736   0.572  1.00  0.00     0.005 C 
ENDBRANCH  15  16
ENDBRANCH  14  15
ENDBRANCH   1  14
BRANCH  12  18
HETATM   18  O5  UNL     1      -1.468  -2.644  -2.216  1.00  0.00    -0.359 OA
ATOM     19  H5  UNL     1      -2.285  -2.774  -2.682  1.00  0.00     0.217 HD
ENDBRANCH  12  18
BRANCH   5  20
HETATM   20  O1  UNL     1      -0.953   1.491   1.348  1.00  0.00    -0.359 OA
ATOM     21  H1  UNL     1      -1.699   2.064   1.481  1.00  0.00     0.217 HD
ENDBRANCH   5  20
BRANCH  10  22
HETATM   22  O4  UNL     1      -3.753  -1.981  -2.714  1.00  0.00    -0.360 OA
ATOM     23  H4  UNL     1      -3.017  -2.566  -2.848  1.00  0.00     0.217 HD
ENDBRANCH  10  22
BRANCH   7  24
HETATM   24  O2  UNL     1      -3.321   2.195   0.866  1.00  0.00    -0.352 OA
HETATM   25  C11 UNL     1      -3.726   2.106   2.218  1.00  0.00     0.210 C 
ENDBRANCH   7  24
BRANCH   8  26
HETATM   26  O3  UNL     1      -5.698   1.795  -0.565  1.00  0.00    -0.358 OA
ATOM     27  H3  UNL     1      -6.515   1.679  -1.036  1.00  0.00     0.217 HD
ENDBRANCH   8  26
TORSDOF 8
