REMARK  8 active torsions:
REMARK  status: ('A' for Active; 'I' for Inactive)
REMARK    1  A    between atoms: O1_1  and  C1_3 
REMARK    2  A    between atoms: C1_3  and  C2_4 
REMARK    3  A    between atoms: C2_4  and  O2_5 
REMARK    4  A    between atoms: C2_4  and  C3_7 
REMARK    5  A    between atoms: C7_11  and  O3_12 
REMARK    6  A    between atoms: C8_15  and  O5_16 
REMARK    7  A    between atoms: O5_16  and  C9_17 
REMARK    8  A    between atoms: C17_25  and  O6_26 
ROOT
HETATM    1  C3  UNL     1       3.002  -0.074  -0.650  1.00  0.00     0.050 C 
HETATM    2  C4  UNL     1       3.804  -1.244  -0.141  1.00  0.00     0.015 C 
HETATM    3  C5  UNL     1       3.083  -2.012   0.950  1.00  0.00     0.045 C 
HETATM    4  C6  UNL     1       1.734  -2.318   0.431  1.00  0.00     0.014 A 
HETATM    5  C7  UNL     1       0.950  -3.437   0.297  1.00  0.00     0.192 A 
HETATM    6  O4  UNL     1      -0.205  -3.106  -0.254  1.00  0.00    -0.264 OA
HETATM    7  C8  UNL     1      -0.197  -1.797  -0.484  1.00  0.00     0.197 A 
HETATM    8  C16 UNL     1       0.992  -1.272  -0.072  1.00  0.00     0.040 A 
HETATM    9  C17 UNL     1       1.649   0.060  -0.031  1.00  0.00     0.163 C 
ENDROOT
BRANCH   7  10
HETATM   10  O5  UNL     1      -1.232  -1.110  -1.047  1.00  0.00    -0.324 OA
BRANCH  10  11
HETATM   11  C9  UNL     1      -2.248  -0.416  -0.369  1.00  0.00     0.131 C 
HETATM   12  C10 UNL     1      -2.232   1.010  -0.822  1.00  0.00     0.032 C 
HETATM   13  C11 UNL     1      -2.516   1.951   0.339  1.00  0.00     0.002 C 
HETATM   14  C12 UNL     1      -4.023   2.123   0.483  1.00  0.00     0.000 C 
HETATM   15  C13 UNL     1      -4.579   0.772   0.856  1.00  0.00     0.000 C 
HETATM   16  C14 UNL     1      -4.734  -0.078  -0.366  1.00  0.00     0.002 C 
HETATM   17  C15 UNL     1      -3.602  -1.066  -0.551  1.00  0.00     0.032 C 
ENDBRANCH  10  11
ENDBRANCH   7  10
BRANCH   5  18
HETATM   18  O3  UNL     1       1.340  -4.707   0.691  1.00  0.00    -0.340 OA
ATOM     19  H3  UNL     1       0.797  -5.481   0.598  1.00  0.00     0.220 HD
ENDBRANCH   5  18
BRANCH   9  20
HETATM   20  O6  UNL     1       1.661   0.469   1.286  1.00  0.00    -0.390 OA
ATOM     21  H6  UNL     1       0.801   0.554   1.680  1.00  0.00     0.210 HD
ENDBRANCH   9  20
BRANCH   1  22
HETATM   22  C2  UNL     1       3.861   1.147  -0.536  1.00  0.00     0.148 C 
BRANCH  22  23
HETATM   23  C1  UNL     1       3.199   2.407  -1.008  1.00  0.00     0.196 C 
BRANCH  23  24
HETATM   24  O1  UNL     1       2.721   2.321  -2.301  1.00  0.00    -0.398 OA
ATOM     25  H1  UNL     1       2.302   3.119  -2.600  1.00  0.00     0.209 HD
ENDBRANCH  23  24
ENDBRANCH  22  23
BRANCH  22  26
HETATM   26  O2  UNL     1       4.304   1.330   0.765  1.00  0.00    -0.393 OA
ATOM     27  H2  UNL     1       4.723   0.532   1.064  1.00  0.00     0.210 HD
ENDBRANCH  22  26
ENDBRANCH   1  22
TORSDOF 8
