REMARK  8 active torsions:
REMARK  status: ('A' for Active; 'I' for Inactive)
REMARK       I    between atoms: C2_2  and  N1_4 
REMARK    1  A    between atoms: N1_4  and  C3_6 
REMARK    2  A    between atoms: C3_6  and  C4_7 
REMARK    3  A    between atoms: C4_7  and  C5_8 
REMARK    4  A    between atoms: C5_8  and  C6_9 
REMARK    5  A    between atoms: C6_9  and  C7_10 
REMARK    6  A    between atoms: C7_10  and  O3_12 
REMARK    7  A    between atoms: O3_12  and  C8_13 
REMARK    8  A    between atoms: N2_19  and  C15_21 
ROOT
HETATM    1  C6  UNL     1      -0.015   0.499   0.127  1.00  0.00     0.218 C 
HETATM    2  C12 UNL     1      -0.181   0.966   1.535  1.00  0.00     0.078 C 
HETATM    3  C13 UNL     1      -0.975   2.082   0.843  1.00  0.00     0.242 C 
HETATM    4  N2  UNL     1      -1.182   1.160  -0.296  1.00  0.00    -0.043 N 
HETATM    5  C14 UNL     1      -0.968   1.920  -1.515  1.00  0.00     0.275 C 
ENDROOT
BRANCH   1   6
HETATM    6  C5  UNL     1       1.237   1.233  -0.429  1.00  0.00     0.052 C 
BRANCH   6   7
HETATM    7  C4  UNL     1       2.499   0.812   0.236  1.00  0.00     0.023 C 
BRANCH   7   8
HETATM    8  C3  UNL     1       3.671   1.622  -0.362  1.00  0.00     0.122 C 
BRANCH   8   9
HETATM    9  N1  UNL     1       4.908   1.253   0.246  1.00  0.00    -0.361 N 
HETATM   10  C2  UNL     1       6.126   1.858  -0.136  1.00  0.00     0.213 C 
HETATM   11  C1  UNL     1       7.431   1.499   0.476  1.00  0.00     0.117 C 
HETATM   12  O1  UNL     1       6.129   2.740  -1.029  1.00  0.00    -0.274 OA
ATOM     13  H1  UNL     1       4.913   0.537   0.972  1.00  0.00     0.162 HD
ENDBRANCH   8   9
ENDBRANCH   7   8
ENDBRANCH   6   7
ENDBRANCH   1   6
BRANCH   1  14
HETATM   14  C7  UNL     1       0.247  -0.902  -0.128  1.00  0.00     0.296 C 
HETATM   15  O2  UNL     1      -0.242  -1.485  -1.110  1.00  0.00    -0.262 OA
BRANCH  14  16
HETATM   16  O3  UNL     1       1.051  -1.659   0.709  1.00  0.00    -0.309 OA
BRANCH  16  17
HETATM   17  C8  UNL     1       1.333  -3.015   0.511  1.00  0.00     0.060 C 
HETATM   18  C9  UNL     1       2.022  -3.308  -0.794  1.00  0.00     0.045 C 
HETATM   19  C10 UNL     1       2.255  -3.472   1.624  1.00  0.00     0.045 C 
HETATM   20  C11 UNL     1       0.065  -3.845   0.569  1.00  0.00     0.045 C 
ENDBRANCH  16  17
ENDBRANCH  14  16
ENDBRANCH   1  14
BRANCH   4  21
HETATM   21  C15 UNL     1      -2.495   0.674  -0.250  1.00  0.00     0.135 C 
HETATM   22  C16 UNL     1      -3.403   1.899   0.003  1.00  0.00     0.044 C 
HETATM   23  C17 UNL     1      -4.728   1.465  -0.636  1.00  0.00    -0.011 C 
HETATM   24  C18 UNL     1      -5.227   0.326   0.234  1.00  0.00     0.009 C 
HETATM   25  C22 UNL     1      -4.269   0.915  -1.931  1.00  0.00     0.012 C 
HETATM   26  C19 UNL     1      -4.227  -0.777   0.329  1.00  0.00    -0.011 C 
HETATM   27  C20 UNL     1      -3.758  -1.230  -1.058  1.00  0.00     0.012 C 
HETATM   28  C23 UNL     1      -2.882  -0.266   0.844  1.00  0.00     0.044 C 
HETATM   29  C21 UNL     1      -3.078   0.083  -1.495  1.00  0.00     0.023 C 
ENDBRANCH   4  21
TORSDOF 8
