REMARK  0 active torsions:
REMARK  status: ('A' for Active; 'I' for Inactive)
ROOT
HETATM    1  C1  UNL     1       4.585   0.441  -0.514  1.00  0.00     0.015 C 
HETATM    2  C2  UNL     1       3.514   0.026   0.502  1.00  0.00    -0.047 C 
HETATM    3  C3  UNL     1       4.297  -0.470   1.724  1.00  0.00     0.015 C 
HETATM    4  C4  UNL     1       2.709   1.209   0.964  1.00  0.00     0.009 C 
HETATM    5  C5  UNL     1       1.212   0.879   1.037  1.00  0.00     0.011 C 
HETATM    6  C6  UNL     1       0.792   0.560  -0.351  1.00  0.00    -0.032 C 
HETATM    7  C7  UNL     1       0.969   1.847  -1.170  1.00  0.00     0.016 C 
HETATM    8  C8  UNL     1       1.635  -0.481  -1.000  1.00  0.00    -0.005 C 
HETATM    9  C9  UNL     1       0.669  -1.521  -1.515  1.00  0.00     0.006 C 
HETATM   10  C10 UNL     1      -0.564  -0.676  -1.752  1.00  0.00     0.011 C 
HETATM   11  C11 UNL     1      -0.667   0.079  -0.441  1.00  0.00    -0.028 C 
HETATM   12  C12 UNL     1      -1.503   1.311  -0.525  1.00  0.00     0.010 C 
HETATM   13  C13 UNL     1      -2.794   1.283   0.205  1.00  0.00     0.001 C 
HETATM   14  C14 UNL     1      -3.894   0.833  -0.767  1.00  0.00     0.002 C 
HETATM   15  C15 UNL     1      -4.955   0.106  -0.001  1.00  0.00     0.020 C 
HETATM   16  C16 UNL     1      -4.300  -1.091   0.668  1.00  0.00     0.118 C 
HETATM   17  N1  UNL     1      -3.171  -1.476  -0.140  1.00  0.00    -0.402 N 
ATOM     18  H1  UNL     1      -3.210  -1.506  -1.159  1.00  0.00     0.158 HD
HETATM   19  C17 UNL     1      -2.009  -1.808   0.585  1.00  0.00     0.056 C 
HETATM   20  C18 UNL     1      -0.945  -0.804   0.719  1.00  0.00     0.054 C 
HETATM   21  C19 UNL     1       2.707  -1.062  -0.117  1.00  0.00     0.014 C 
ENDROOT
TORSDOF 0
