REMARK  1 active torsions:
REMARK  status: ('A' for Active; 'I' for Inactive)
REMARK    1  A    between atoms: C12_12  and  N1_13 
ROOT
HETATM    1  C1  UNL     1      -3.675   0.263  -0.687  1.00  0.00     0.015 C 
HETATM    2  C2  UNL     1      -2.519   0.434   0.313  1.00  0.00    -0.043 C 
HETATM    3  C3  UNL     1      -2.867   1.764   1.018  1.00  0.00     0.015 C 
HETATM    4  C4  UNL     1      -2.687  -0.598   1.358  1.00  0.00     0.009 C 
HETATM    5  C5  UNL     1      -1.336  -1.204   1.764  1.00  0.00     0.002 C 
HETATM    6  C6  UNL     1      -0.827  -1.804   0.469  1.00  0.00     0.010 C 
HETATM    7  C7  UNL     1      -0.395  -0.704  -0.520  1.00  0.00    -0.030 C 
HETATM    8  C8  UNL     1      -0.801  -1.359  -1.865  1.00  0.00     0.016 C 
HETATM    9  C9  UNL     1      -1.204   0.519  -0.384  1.00  0.00     0.002 C 
HETATM   10  C10 UNL     1      -0.491   1.727   0.191  1.00  0.00     0.008 C 
HETATM   11  C11 UNL     1       0.729   1.931  -0.713  1.00  0.00     0.040 C 
HETATM   12  C12 UNL     1       1.644   0.813  -0.350  1.00  0.00     0.131 C 
HETATM   13  C13 UNL     1       2.082   1.041   1.100  1.00  0.00     0.039 C 
HETATM   14  C14 UNL     1       3.424   0.322   1.219  1.00  0.00     0.002 C 
HETATM   15  C15 UNL     1       3.251  -1.040   0.637  1.00  0.00     0.001 C 
HETATM   16  C16 UNL     1       1.815  -1.456   0.427  1.00  0.00     0.012 C 
HETATM   17  C17 UNL     1       1.086  -0.553  -0.573  1.00  0.00    -0.003 C 
HETATM   18  C18 UNL     1       1.673  -0.987  -1.934  1.00  0.00     0.018 C 
ENDROOT
BRANCH  12  19
HETATM   19  N1  UNL     1       2.874   1.055  -1.127  1.00  0.00    -0.070 N 
ATOM     20  H13 UNL     1       2.716   1.150  -2.130  1.00  0.00     0.275 HD
ATOM     21  H12 UNL     1       3.277   1.981  -0.983  1.00  0.00     0.275 HD
ATOM     22  H11 UNL     1       3.501   0.289  -0.878  1.00  0.00     0.275 HD
ENDBRANCH  12  19
TORSDOF 1
