REMARK  3 active torsions:
REMARK  status: ('A' for Active; 'I' for Inactive)
REMARK    1  A    between atoms: C3_6  and  C4_7 
REMARK    2  A    between atoms: C4_7  and  O1_8 
REMARK    3  A    between atoms: C11_19  and  N4_20 
ROOT
HETATM    1  C1  UNL     1       4.123   1.949  -0.299  1.00  0.00     0.197 C 
HETATM    2  N1  UNL     1       3.149   0.872  -0.194  1.00  0.00    -0.126 N 
HETATM    3  N2  UNL     1       1.883   0.962   0.151  1.00  0.00    -0.267 N 
ATOM      4  H2  UNL     1       1.403   1.827   0.398  1.00  0.00     0.189 HD
HETATM    5  C2  UNL     1       1.305  -0.281   0.129  1.00  0.00     0.162 A 
HETATM    6  C3  UNL     1       0.041  -0.747   0.396  1.00  0.00     0.066 A 
HETATM    7  S1  UNL     1       0.220  -2.424   0.114  1.00  0.00    -0.057 SA
HETATM    8  C10 UNL     1       1.874  -2.428  -0.321  1.00  0.00     0.168 A 
HETATM    9  S2  UNL     1       2.748  -3.751  -0.736  1.00  0.00    -0.051 SA
HETATM   10  N3  UNL     1       2.211  -1.137  -0.229  1.00  0.00    -0.112 N 
HETATM   11  C11 UNL     1       3.369  -0.432  -0.435  1.00  0.00     0.702 A 
ENDROOT
BRANCH   6  12
HETATM   12  C4  UNL     1      -1.195  -0.038   0.820  1.00  0.00     0.095 C 
HETATM   13  C5  UNL     1      -1.567   1.008  -0.205  1.00  0.00     0.043 C 
HETATM   14  C6  UNL     1      -3.074   1.238  -0.219  1.00  0.00     0.003 C 
HETATM   15  C7  UNL     1      -3.795  -0.021  -0.654  1.00  0.00     0.000 C 
HETATM   16  C8  UNL     1      -2.981  -1.266  -0.357  1.00  0.00     0.003 C 
HETATM   17  C9  UNL     1      -2.304  -1.015   0.996  1.00  0.00     0.043 C 
BRANCH  12  18
HETATM   18  O1  UNL     1      -1.001   0.619   2.046  1.00  0.00    -0.384 OA
ATOM     19  H1  UNL     1      -1.791   1.072   2.317  1.00  0.00     0.211 HD
ENDBRANCH  12  18
ENDBRANCH   6  12
BRANCH  11  20
HETATM   20  N4  UNL     1       4.533  -0.850  -0.799  1.00  0.00    -0.233 N 
ATOM     21  H42 UNL     1       5.394  -0.326  -0.952  1.00  0.00     0.174 HD
ATOM     22  H41 UNL     1       4.700  -1.839  -0.982  1.00  0.00     0.174 HD
ENDBRANCH  11  20
TORSDOF 3
