REMARK  1 active torsions:
REMARK  status: ('A' for Active; 'I' for Inactive)
REMARK    1  A    between atoms: C8_20  and  C9_21 
ROOT
HETATM    1  C1  UNL     1       0.802  -2.020  -1.348  1.00  0.00     0.069 C 
HETATM    2  C2  UNL     1      -0.033  -1.194  -0.368  1.00  0.00     0.017 C 
HETATM    3  N1  UNL     1      -0.824  -1.781   0.451  1.00  0.00    -0.388 N 
ATOM      4  H1  UNL     1      -0.855  -2.799   0.393  1.00  0.00     0.159 HD
HETATM    5  C3  UNL     1      -1.670  -1.180   1.439  1.00  0.00     0.164 C 
HETATM    6  C4  UNL     1      -3.072  -1.511   1.061  1.00  0.00     0.083 C 
HETATM    7  N2  UNL     1      -3.615  -0.454   0.373  1.00  0.00    -0.343 N 
ATOM      8  H2  UNL     1      -4.620  -0.456   0.549  1.00  0.00     0.167 HD
HETATM    9  C5  UNL     1      -3.370   0.497  -0.373  1.00  0.00     0.193 C 
HETATM   10  N3  UNL     1      -4.684   1.193  -0.661  1.00  0.00    -0.063 NA
HETATM   11  N4  UNL     1      -2.218   1.015  -0.974  1.00  0.00    -0.316 N 
ATOM     12  H4  UNL     1      -2.468   1.388  -1.890  1.00  0.00     0.170 HD
HETATM   13  C6  UNL     1      -0.854   1.205  -0.773  1.00  0.00     0.124 A 
HETATM   14  N5  UNL     1      -0.336   2.485  -0.961  1.00  0.00    -0.318 N 
ATOM     15  H5  UNL     1      -1.003   3.227  -1.176  1.00  0.00     0.170 HD
HETATM   16  C7  UNL     1       0.921   2.823  -0.888  1.00  0.00     0.177 A 
HETATM   17  S1  UNL     1       1.460   4.348  -1.122  1.00  0.00    -0.040 SA
HETATM   18  N6  UNL     1       1.828   1.890  -0.608  1.00  0.00    -0.335 N 
ATOM     19  H6  UNL     1       2.810   2.159  -0.553  1.00  0.00     0.168 HD
HETATM   20  C8  UNL     1       1.485   0.572  -0.390  1.00  0.00     0.035 A 
HETATM   21  C13 UNL     1       0.145   0.260  -0.481  1.00  0.00     0.053 A 
ENDROOT
BRANCH  20  22
HETATM   22  C9  UNL     1       2.579  -0.325   0.077  1.00  0.00    -0.000 A 
HETATM   23  C10 UNL     1       4.007   0.396  -0.149  1.00  0.00     0.022 C 
HETATM   24  C11 UNL     1       2.460  -0.092   1.670  1.00  0.00     0.016 A 
HETATM   25  C12 UNL     1       2.622  -1.377   1.102  1.00  0.00     0.016 A 
ENDBRANCH  20  22
TORSDOF 1
