REMARK  3 active torsions:
REMARK  status: ('A' for Active; 'I' for Inactive)
REMARK    1  A    between atoms: C2_2  and  O1_5 
REMARK    2  A    between atoms: O1_5  and  C5_6 
REMARK    3  A    between atoms: C5_6  and  C6_8 
ROOT
HETATM    1  C6  UNL     1      -0.482   0.214   1.517  1.00  0.00     0.215 C 
HETATM    2  S1  UNL     1      -0.513   1.905   2.193  1.00  0.00    -0.070 SA
HETATM    3  S2  UNL     1      -2.185   2.865   1.228  1.00  0.00    -0.021 SA
HETATM    4  C7  UNL     1      -2.108   2.206  -0.424  1.00  0.00     0.146 C 
HETATM    5  N1  UNL     1      -2.488   2.939  -1.394  1.00  0.00    -0.379 N 
ATOM      6  H11 UNL     1      -2.444   2.561  -2.341  1.00  0.00     0.158 HD
ATOM      7  H12 UNL     1      -2.838   3.892  -1.296  1.00  0.00     0.158 HD
HETATM    8  N2  UNL     1      -1.624   0.890  -0.559  1.00  0.00    -0.336 N 
ATOM      9  H2  UNL     1      -1.271   0.580  -1.465  1.00  0.00     0.164 HD
HETATM   10  C8  UNL     1      -1.615  -0.032   0.554  1.00  0.00     0.221 C 
HETATM   11  C9  UNL     1      -1.530  -1.416   0.021  1.00  0.00     0.065 C 
HETATM   12  C10 UNL     1      -2.987  -1.762  -0.239  1.00  0.00     0.032 C 
HETATM   13  C11 UNL     1      -3.677  -1.054   0.896  1.00  0.00     0.235 C 
HETATM   14  N3  UNL     1      -2.888   0.096   1.238  1.00  0.00    -0.047 N 
ATOM     15  H31 UNL     1      -3.361   0.977   1.038  1.00  0.00     0.280 HD
ATOM     16  H32 UNL     1      -2.788   0.225   2.245  1.00  0.00     0.280 HD
ENDROOT
BRANCH   1  17
HETATM   17  C5  UNL     1       0.831  -0.155   0.985  1.00  0.00     0.278 C 
HETATM   18  O2  UNL     1       1.501  -1.146   1.439  1.00  0.00    -0.264 OA
BRANCH  17  19
HETATM   19  O1  UNL     1       1.477   0.518  -0.052  1.00  0.00    -0.310 OA
BRANCH  19  20
HETATM   20  C2  UNL     1       2.742   0.140  -0.545  1.00  0.00     0.060 C 
HETATM   21  C1  UNL     1       3.110   1.100  -1.658  1.00  0.00     0.045 C 
HETATM   22  C3  UNL     1       2.767  -1.257  -1.105  1.00  0.00     0.045 C 
HETATM   23  C4  UNL     1       3.793   0.227   0.551  1.00  0.00     0.045 C 
ENDBRANCH  19  20
ENDBRANCH  17  19
ENDBRANCH   1  17
TORSDOF 3
