REMARK  3 active torsions:
REMARK  status: ('A' for Active; 'I' for Inactive)
REMARK    1  A    between atoms: C2_2  and  C4_4 
REMARK    2  A    between atoms: C14_15  and  N1_16 
REMARK    3  A    between atoms: C15_20  and  O2_21 
ROOT
HETATM    1  C4  UNL     1      -1.919  -0.237   0.092  1.00  0.00     0.164 C 
HETATM    2  C5  UNL     1      -2.459   1.012  -0.549  1.00  0.00     0.043 C 
HETATM    3  C6  UNL     1      -1.665   2.198  -0.036  1.00  0.00     0.085 C 
HETATM    4  C7  UNL     1      -0.919   2.919  -1.071  1.00  0.00     0.149 C 
HETATM    5  O1  UNL     1      -1.642   3.459  -1.989  1.00  0.00    -0.293 OA
HETATM    6  C8  UNL     1       0.512   3.101  -1.188  1.00  0.00     0.046 C 
HETATM    7  C9  UNL     1       1.422   2.174  -1.392  1.00  0.00    -0.020 C 
HETATM    8  C10 UNL     1       1.207   0.723  -1.556  1.00  0.00     0.071 C 
HETATM    9  C11 UNL     1       1.491   0.031  -0.264  1.00  0.00     0.127 C 
HETATM   10  C12 UNL     1       1.923  -1.402  -0.463  1.00  0.00     0.046 C 
HETATM   11  C13 UNL     1       3.239  -1.557   0.225  1.00  0.00     0.038 C 
HETATM   12  C14 UNL     1       3.296  -0.410   1.223  1.00  0.00     0.215 C 
HETATM   13  C15 UNL     1       2.566   0.732   0.530  1.00  0.00     0.186 C 
HETATM   14  O3  UNL     1       0.286  -0.029   0.460  1.00  0.00    -0.226 OA
HETATM   15  O4  UNL     1      -0.625  -0.431  -0.397  1.00  0.00    -0.234 OA
ENDROOT
BRANCH  13  16
HETATM   16  O2  UNL     1       2.104   1.696   1.386  1.00  0.00    -0.390 OA
ATOM     17  H2  UNL     1       2.781   2.137   1.886  1.00  0.00     0.210 HD
ENDBRANCH  13  16
BRANCH  12  18
HETATM   18  N1  UNL     1       2.598  -0.709   2.434  1.00  0.00    -0.072 N 
ATOM     19  H13 UNL     1       1.634  -0.985   2.245  1.00  0.00     0.274 HD
ATOM     20  H12 UNL     1       2.937  -1.576   2.850  1.00  0.00     0.274 HD
ATOM     21  H11 UNL     1       2.636   0.060   3.103  1.00  0.00     0.274 HD
ENDBRANCH  12  18
BRANCH   1  22
HETATM   22  C2  UNL     1      -2.711  -1.469  -0.259  1.00  0.00     0.009 C 
HETATM   23  C1  UNL     1      -2.064  -2.639   0.448  1.00  0.00     0.012 C 
HETATM   24  C3  UNL     1      -4.164  -1.357   0.115  1.00  0.00     0.012 C 
ENDBRANCH   1  22
TORSDOF 3
