REMARK  2 active torsions:
REMARK  status: ('A' for Active; 'I' for Inactive)
REMARK    1  A    between atoms: N4_10  and  C5_11 
REMARK    2  A    between atoms: C9_15  and  O1_16 
ROOT
HETATM    1  N1  UNL     1       1.834  -1.769  -2.358  1.00  0.00    -0.063 NA
HETATM    2  C1  UNL     1       1.759  -0.954  -1.194  1.00  0.00     0.192 C 
HETATM    3  N2  UNL     1       0.549  -0.690  -0.778  1.00  0.00    -0.315 N 
ATOM      4  H2  UNL     1      -0.238  -1.075  -1.301  1.00  0.00     0.170 HD
HETATM    5  C2  UNL     1       0.269   0.120   0.385  1.00  0.00     0.134 A 
HETATM    6  C3  UNL     1       1.079   0.499   1.419  1.00  0.00     0.057 A 
HETATM    7  N3  UNL     1       0.366   1.242   2.251  1.00  0.00    -0.352 N 
ATOM      8  H3  UNL     1       0.712   1.664   3.113  1.00  0.00     0.166 HD
HETATM    9  C4  UNL     1      -0.896   1.352   1.774  1.00  0.00     0.185 A 
HETATM   10  N4  UNL     1      -0.941   0.656   0.625  1.00  0.00    -0.323 N 
HETATM   11  C11 UNL     1       2.532   0.135   1.585  1.00  0.00     0.086 C 
HETATM   12  C12 UNL     1       3.211   0.530   0.291  1.00  0.00     0.092 C 
HETATM   13  C13 UNL     1       4.685   0.637   0.501  1.00  0.00     0.027 C 
HETATM   14  C14 UNL     1       5.255  -0.014  -0.749  1.00  0.00     0.022 C 
HETATM   15  C15 UNL     1       4.302  -1.153  -0.968  1.00  0.00     0.126 C 
HETATM   16  N5  UNL     1       3.011  -0.548  -0.654  1.00  0.00    -0.350 N 
ENDROOT
BRANCH  10  17
HETATM   17  C5  UNL     1      -2.148   0.536  -0.196  1.00  0.00     0.094 C 
HETATM   18  C6  UNL     1      -3.074   1.690   0.108  1.00  0.00     0.026 C 
HETATM   19  C7  UNL     1      -4.082   1.189   1.130  1.00  0.00     0.004 C 
HETATM   20  C8  UNL     1      -5.039   0.295   0.329  1.00  0.00     0.032 C 
HETATM   21  C9  UNL     1      -4.265  -0.808  -0.327  1.00  0.00     0.120 C 
HETATM   22  C10 UNL     1      -2.806  -0.808   0.001  1.00  0.00     0.057 C 
BRANCH  21  23
HETATM   23  O1  UNL     1      -4.795  -2.018   0.130  1.00  0.00    -0.396 OA
ATOM     24  H1  UNL     1      -4.304  -2.717  -0.286  1.00  0.00     0.210 HD
ENDBRANCH  21  23
ENDBRANCH  10  17
TORSDOF 2
