REMARK  3 active torsions:
REMARK  status: ('A' for Active; 'I' for Inactive)
REMARK    1  A    between atoms: C1_2  and  N2_4 
REMARK    2  A    between atoms: N2_4  and  N3_6 
REMARK    3  A    between atoms: N3_6  and  C2_8 
ROOT
HETATM    1  C2  UNL     1       0.057  -0.480  -0.241  1.00  0.00     0.063 A 
HETATM    2  C3  UNL     1       1.341  -0.338   0.043  1.00  0.00     0.101 A 
HETATM    3  C4  UNL     1       2.052  -0.158  -1.147  1.00  0.00     0.120 A 
HETATM    4  N4  UNL     1       3.380   0.004  -1.057  1.00  0.00    -0.338 N 
ATOM      5  H4  UNL     1       3.915   0.137  -1.915  1.00  0.00     0.168 HD
HETATM    6  C5  UNL     1       4.037  -0.001   0.115  1.00  0.00     0.184 A 
HETATM    7  N5  UNL     1       3.389  -0.172   1.282  1.00  0.00    -0.319 N 
ATOM      8  H5  UNL     1       3.891  -0.176   2.170  1.00  0.00     0.169 HD
HETATM    9  C6  UNL     1       2.055  -0.338   1.236  1.00  0.00     0.262 A 
HETATM   10  O1  UNL     1       1.419  -0.499   2.288  1.00  0.00    -0.267 OA
HETATM   11  N6  UNL     1       1.259  -0.183  -2.145  1.00  0.00    -0.370 N 
ATOM     12  H6  UNL     1       1.542  -0.073  -3.119  1.00  0.00     0.161 HD
HETATM   13  C7  UNL     1      -0.103  -0.390  -1.696  1.00  0.00     0.181 A 
ENDROOT
BRANCH   1  14
HETATM   14  N3  UNL     1      -1.006  -0.685   0.677  1.00  0.00    -0.300 N 
ATOM     15  H3  UNL     1      -0.994  -1.465   1.334  1.00  0.00     0.186 HD
BRANCH  14  16
HETATM   16  N2  UNL     1      -2.070   0.220   0.648  1.00  0.00    -0.278 N 
ATOM     17  H2  UNL     1      -1.969   1.148   1.060  1.00  0.00     0.189 HD
BRANCH  16  18
HETATM   18  C1  UNL     1      -3.286  -0.164   0.042  1.00  0.00     0.199 C 
HETATM   19  N1  UNL     1      -4.377   0.734   0.000  1.00  0.00    -0.068 NA
HETATM   20  S1  UNL     1      -3.455  -1.646  -0.619  1.00  0.00    -0.043 SA
ENDBRANCH  16  18
ENDBRANCH  14  16
ENDBRANCH   1  14
TORSDOF 3
