REMARK  3 active torsions:
REMARK  status: ('A' for Active; 'I' for Inactive)
REMARK       I    between atoms: C1_2  and  N2_4 
REMARK    1  A    between atoms: N2_4  and  C2_6 
REMARK    2  A    between atoms: C2_6  and  O2_7 
REMARK    3  A    between atoms: C3_11  and  C4_12 
ROOT
HETATM    1  C2  UNL     1      -0.430  -0.953   0.420  1.00  0.00     0.347 C 
HETATM    2  N3  UNL     1       0.324   0.126   0.919  1.00  0.00    -0.308 N 
ATOM      3  H3  UNL     1       0.026   0.608   1.767  1.00  0.00     0.167 HD
HETATM    4  C3  UNL     1       1.356   0.491   0.324  1.00  0.00     0.181 C 
HETATM    5  N5  UNL     1       1.710  -0.225  -0.849  1.00  0.00    -0.260 N 
ATOM      6  H5  UNL     1       2.380   0.039  -1.571  1.00  0.00     0.180 HD
HETATM    7  S1  UNL     1       0.734  -1.656  -0.764  1.00  0.00     0.307 S 
HETATM    8  O4  UNL     1       1.427  -2.772  -0.089  1.00  0.00    -0.198 OA
HETATM    9  O5  UNL     1       0.094  -1.996  -2.042  1.00  0.00    -0.198 OA
ENDROOT
BRANCH   1  10
HETATM   10  N2  UNL     1      -1.615  -0.491  -0.270  1.00  0.00    -0.281 N 
HETATM   11  C1  UNL     1      -2.704   0.117   0.399  1.00  0.00     0.333 C 
HETATM   12  N1  UNL     1      -3.851   0.559  -0.298  1.00  0.00    -0.040 NA
HETATM   13  O1  UNL     1      -2.668   0.275   1.638  1.00  0.00    -0.251 OA
ATOM     14  H2  UNL     1      -1.668  -0.609  -1.282  1.00  0.00     0.169 HD
ENDBRANCH   1  10
BRANCH   1  15
HETATM   15  O2  UNL     1      -0.813  -1.897   1.349  1.00  0.00    -0.340 OA
ATOM     16  H2  UNL     1      -0.035  -2.200   1.802  1.00  0.00     0.215 HD
ENDBRANCH   1  15
BRANCH   4  17
HETATM   17  C4  UNL     1       2.192   1.619   0.800  1.00  0.00     0.299 C 
HETATM   18  N4  UNL     1       3.355   2.027   0.123  1.00  0.00    -0.054 NA
HETATM   19  O3  UNL     1       1.881   2.259   1.843  1.00  0.00    -0.268 OA
ENDBRANCH   4  17
TORSDOF 3
