REMARK  5 active torsions:
REMARK  status: ('A' for Active; 'I' for Inactive)
REMARK    1  A    between atoms: N1_1  and  N2_4 
REMARK    2  A    between atoms: C3_11  and  N5_12 
REMARK    3  A    between atoms: N6_16  and  O1_17 
REMARK    4  A    between atoms: C4_19  and  N7_20 
REMARK    5  A    between atoms: N7_20  and  C5_22 
ROOT
HETATM    1  N2  UNL     1       0.406   1.723   1.606  1.00  0.00    -0.289 N 
ATOM      2  H2  UNL     1       1.422   1.752   1.690  1.00  0.00     0.188 HD
HETATM    3  C1  UNL     1      -0.178   0.798   0.931  1.00  0.00     0.167 A 
HETATM    4  N3  UNL     1      -1.572   0.684   0.765  1.00  0.00    -0.327 N 
ATOM      5  H3  UNL     1      -2.166   1.384   1.210  1.00  0.00     0.168 HD
HETATM    6  C2  UNL     1      -2.136  -0.238   0.094  1.00  0.00     0.147 A 
HETATM    7  N4  UNL     1      -3.591  -0.281  -0.027  1.00  0.00    -0.083 NA
HETATM    8  C3  UNL     1      -1.343  -1.276  -0.573  1.00  0.00     0.376 A 
HETATM    9  N6  UNL     1       0.068  -1.123  -0.379  1.00  0.00    -0.202 N 
HETATM   10  C4  UNL     1       0.664  -0.202   0.294  1.00  0.00     0.178 A 
ENDROOT
BRANCH   1  11
HETATM   11  N1  UNL     1      -0.398   2.688   2.221  1.00  0.00    -0.344 N 
ATOM     12  H12 UNL     1      -1.413   2.645   2.127  1.00  0.00     0.176 HD
ATOM     13  H11 UNL     1       0.065   3.422   2.757  1.00  0.00     0.176 HD
ENDBRANCH   1  11
BRANCH  10  14
HETATM   14  N7  UNL     1       2.095  -0.168   0.407  1.00  0.00    -0.317 N 
ATOM     15  H7  UNL     1       2.511  -0.436   1.299  1.00  0.00     0.169 HD
BRANCH  14  16
HETATM   16  C5  UNL     1       2.960   0.213  -0.639  1.00  0.00     0.186 C 
HETATM   17  N8  UNL     1       4.362   0.210  -0.418  1.00  0.00    -0.070 NA
HETATM   18  S1  UNL     1       2.435   0.666  -2.112  1.00  0.00    -0.044 SA
ENDBRANCH  14  16
ENDBRANCH  10  14
BRANCH   9  19
HETATM   19  O1  UNL     1       0.925  -2.062  -0.973  1.00  0.00    -0.283 OA
ATOM     20  H1  UNL     1       1.861  -1.961  -0.844  1.00  0.00     0.245 HD
ENDBRANCH   9  19
BRANCH   8  21
HETATM   21  N5  UNL     1      -1.673  -1.248  -2.016  1.00  0.00    -0.049 N 
ATOM     22  H53 UNL     1      -2.673  -1.341  -2.194  1.00  0.00     0.277 HD
ATOM     23  H52 UNL     1      -1.545  -0.326  -2.432  1.00  0.00     0.277 HD
ATOM     24  H51 UNL     1      -1.122  -1.970  -2.480  1.00  0.00     0.277 HD
ENDBRANCH   8  21
TORSDOF 5
