REMARK  3 active torsions:
REMARK  status: ('A' for Active; 'I' for Inactive)
REMARK    1  A    between atoms: N1_1  and  N2_4 
REMARK       I    between atoms: N2_4  and  C1_6 
REMARK    2  A    between atoms: C1_6  and  C2_8 
REMARK    3  A    between atoms: N3_10  and  N4_11 
REMARK       I    between atoms: N5_15  and  C5_16 
REMARK       I    between atoms: C5_16  and  N6_18 
ROOT
HETATM    1  C2  UNL     1      -1.230  -0.709   0.311  1.00  0.00     0.131 A 
HETATM    2  C3  UNL     1      -2.240  -1.657   0.026  1.00  0.00     0.152 A 
HETATM    3  N3  UNL     1      -1.733  -2.607  -0.754  1.00  0.00    -0.267 N 
HETATM    4  C4  UNL     1      -0.462  -2.288  -0.959  1.00  0.00     0.218 A 
HETATM    5  N5  UNL     1      -0.123  -1.121  -0.311  1.00  0.00    -0.251 N 
HETATM    6  C5  UNL     1       1.179  -0.573  -0.326  1.00  0.00     0.334 C 
HETATM    7  O2  UNL     1       2.082  -1.178  -0.994  1.00  0.00    -0.246 OA
HETATM    8  N6  UNL     1       1.582   0.581   0.333  1.00  0.00    -0.284 N 
ATOM      9  H6  UNL     1       1.088   0.818   1.193  1.00  0.00     0.172 HD
HETATM   10  C6  UNL     1       2.514   1.374  -0.038  1.00  0.00     0.204 C 
HETATM   11  N7  UNL     1       2.832   2.515   0.714  1.00  0.00    -0.066 NA
HETATM   12  N8  UNL     1       3.227   1.087  -1.226  1.00  0.00    -0.066 NA
ENDROOT
BRANCH   1  13
HETATM   13  C1  UNL     1      -1.453   0.444   1.171  1.00  0.00     0.288 C 
HETATM   14  N2  UNL     1      -1.182   1.750   0.747  1.00  0.00    -0.271 N 
ATOM     15  H2  UNL     1      -0.820   1.911  -0.193  1.00  0.00     0.189 HD
HETATM   16  O1  UNL     1      -1.910   0.247   2.317  1.00  0.00    -0.264 OA
BRANCH  14  17
HETATM   17  N1  UNL     1      -1.404   2.845   1.607  1.00  0.00    -0.342 N 
ATOM     18  H12 UNL     1      -1.766   2.666   2.544  1.00  0.00     0.176 HD
ATOM     19  H11 UNL     1      -1.206   3.797   1.298  1.00  0.00     0.176 HD
ENDBRANCH  14  17
ENDBRANCH   1  13
BRANCH   3  20
HETATM   20  N4  UNL     1      -2.434  -3.731  -1.255  1.00  0.00    -0.338 N 
ATOM     21  H42 UNL     1      -3.411  -3.976  -1.097  1.00  0.00     0.177 HD
ATOM     22  H41 UNL     1      -2.045  -4.460  -1.853  1.00  0.00     0.177 HD
ENDBRANCH   3  20
TORSDOF 3
