REMARK  2 active torsions:
REMARK  status: ('A' for Active; 'I' for Inactive)
REMARK    1  A    between atoms: C6_6  and  C7_7 
REMARK    2  A    between atoms: C7_7  and  N1_8 
ROOT
HETATM    1  C1  UNL     1      -4.366  -0.637   0.680  1.00  0.00     0.049 C 
HETATM    2  C2  UNL     1      -2.907  -0.356   0.371  1.00  0.00     0.093 C 
HETATM    3  C3  UNL     1      -2.610  -0.601  -1.096  1.00  0.00     0.041 C 
HETATM    4  C4  UNL     1      -1.828   0.589  -1.602  1.00  0.00     0.006 C 
HETATM    5  C5  UNL     1      -0.515   0.758  -0.910  1.00  0.00     0.047 C 
HETATM    6  C6  UNL     1      -0.460   0.466   0.538  1.00  0.00     0.128 C 
HETATM    7  C12 UNL     1      -0.595  -0.951   0.953  1.00  0.00     0.050 C 
HETATM    8  C13 UNL     1      -2.050  -1.304   1.160  1.00  0.00     0.044 C 
HETATM    9  O1  UNL     1      -1.500   1.168   1.213  1.00  0.00    -0.223 OA
HETATM   10  O2  UNL     1      -2.665   0.955   0.702  1.00  0.00    -0.229 OA
ENDROOT
BRANCH   6  11
HETATM   11  C7  UNL     1       0.823   1.126   1.064  1.00  0.00     0.099 C 
BRANCH  11  12
HETATM   12  N1  UNL     1       2.028   0.706   0.569  1.00  0.00    -0.387 N 
HETATM   13  C8  UNL     1       2.646  -0.521   0.810  1.00  0.00     0.149 C 
HETATM   14  C9  UNL     1       3.056  -1.158  -0.529  1.00  0.00     0.252 C 
HETATM   15  N2  UNL     1       3.972  -0.291  -1.207  1.00  0.00    -0.072 N 
HETATM   16  C10 UNL     1       3.296   0.955  -1.489  1.00  0.00     0.252 C 
ATOM     17  H22 UNL     1       4.841  -0.157  -0.690  1.00  0.00     0.277 HD
ATOM     18  H21 UNL     1       4.371  -0.718  -2.043  1.00  0.00     0.277 HD
HETATM   19  C11 UNL     1       2.843   1.595  -0.199  1.00  0.00     0.149 C 
ENDBRANCH  11  12
ENDBRANCH   6  11
TORSDOF 2
