REMARK  6 active torsions:
REMARK  status: ('A' for Active; 'I' for Inactive)
REMARK    1  A    between atoms: C3_7  and  N3_8 
REMARK    2  A    between atoms: N3_8  and  C4_10 
REMARK    3  A    between atoms: C4_10  and  C5_11 
REMARK    4  A    between atoms: C5_11  and  S1_12 
REMARK    5  A    between atoms: S1_12  and  N4_13 
REMARK    6  A    between atoms: N5_18  and  O3_19 
ROOT
HETATM    1  C1  UNL     1      -4.200  -0.569   1.052  1.00  0.00     0.093 C 
HETATM    2  C2  UNL     1      -2.950  -0.174   0.377  1.00  0.00     0.139 A 
HETATM    3  N1  UNL     1      -2.786   0.966  -0.308  1.00  0.00    -0.273 N 
ATOM      4  H1  UNL     1      -3.497   1.686  -0.441  1.00  0.00     0.189 HD
HETATM    5  N2  UNL     1      -1.543   1.006  -0.787  1.00  0.00    -0.129 N 
ATOM      6  H2  UNL     1      -1.125   1.749  -1.347  1.00  0.00     0.205 HD
HETATM    7  C3  UNL     1      -0.951  -0.132  -0.382  1.00  0.00     0.720 A 
HETATM    8  N5  UNL     1      -1.806  -0.879   0.341  1.00  0.00    -0.038 N 
ENDROOT
BRANCH   7   9
HETATM    9  N3  UNL     1       0.264  -0.472  -0.643  1.00  0.00    -0.222 N 
ATOM     10  H3  UNL     1       0.595  -1.364  -0.276  1.00  0.00     0.177 HD
BRANCH   9  11
HETATM   11  C4  UNL     1       1.179   0.310  -1.408  1.00  0.00     0.155 C 
BRANCH  11  12
HETATM   12  C5  UNL     1       2.328   0.774  -0.507  1.00  0.00     0.183 C 
BRANCH  12  13
HETATM   13  S1  UNL     1       3.112  -0.700   0.110  1.00  0.00     0.226 S 
HETATM   14  O1  UNL     1       2.121  -1.477   0.928  1.00  0.00    -0.206 OA
HETATM   15  O2  UNL     1       3.608  -1.570  -0.984  1.00  0.00    -0.206 OA
BRANCH  13  16
HETATM   16  N4  UNL     1       4.430  -0.300   1.142  1.00  0.00    -0.328 N 
ATOM     17  H42 UNL     1       4.711   0.656   1.360  1.00  0.00     0.168 HD
ATOM     18  H41 UNL     1       4.879  -1.145   1.496  1.00  0.00     0.168 HD
ENDBRANCH  13  16
ENDBRANCH  12  13
ENDBRANCH  11  12
ENDBRANCH   9  11
ENDBRANCH   7   9
BRANCH   8  19
HETATM   19  O3  UNL     1      -1.565  -2.112   0.928  1.00  0.00    -0.268 OA
ATOM     20  H3  UNL     1      -0.757  -2.610   0.903  1.00  0.00     0.246 HD
ENDBRANCH   8  19
TORSDOF 6
