REMARK  3 active torsions:
REMARK  status: ('A' for Active; 'I' for Inactive)
REMARK    1  A    between atoms: N3_8  and  C3_10 
REMARK    2  A    between atoms: C3_10  and  C4_11 
REMARK    3  A    between atoms: N5_16  and  O2_17 
ROOT
HETATM    1  O1  UNL     1      -5.297   1.069   0.312  1.00  0.00    -0.245 OA
HETATM    2  C1  UNL     1      -4.045   0.876   0.214  1.00  0.00     0.341 A 
HETATM    3  N1  UNL     1      -3.203   1.858  -0.179  1.00  0.00    -0.250 N 
ATOM      4  H1  UNL     1      -3.576   2.780  -0.405  1.00  0.00     0.192 HD
HETATM    5  N2  UNL     1      -1.903   1.640  -0.275  1.00  0.00    -0.277 N 
ATOM      6  H2  UNL     1      -1.281   2.392  -0.573  1.00  0.00     0.189 HD
HETATM    7  C2  UNL     1      -1.390   0.408   0.024  1.00  0.00     0.186 A 
HETATM    8  N3  UNL     1      -0.138   0.241  -0.081  1.00  0.00    -0.364 N 
ATOM      9  H3  UNL     1       0.391   1.058  -0.386  1.00  0.00     0.161 HD
HETATM   10  C7  UNL     1      -2.215  -0.605   0.424  1.00  0.00     0.294 A 
HETATM   11  O3  UNL     1      -1.805  -1.771   0.716  1.00  0.00    -0.264 OA
HETATM   12  N6  UNL     1      -3.545  -0.326   0.506  1.00  0.00    -0.271 N 
ATOM     13  H6  UNL     1      -4.184  -1.064   0.802  1.00  0.00     0.174 HD
ENDROOT
BRANCH   8  14
HETATM   14  C3  UNL     1       0.636  -0.940   0.171  1.00  0.00     0.200 C 
BRANCH  14  15
HETATM   15  C4  UNL     1       2.098  -0.658  -0.081  1.00  0.00     0.126 A 
HETATM   16  N4  UNL     1       2.767  -0.801  -1.237  1.00  0.00    -0.351 N 
HETATM   17  C5  UNL     1       4.060  -0.449  -1.068  1.00  0.00     0.109 A 
ATOM     18  H4  UNL     1       2.359  -1.127  -2.113  1.00  0.00     0.166 HD
HETATM   19  C6  UNL     1       4.197  -0.072   0.247  1.00  0.00     0.141 A 
HETATM   20  N5  UNL     1       2.964  -0.217   0.817  1.00  0.00    -0.221 N 
BRANCH  20  21
HETATM   21  O2  UNL     1       2.679   0.060   2.134  1.00  0.00    -0.282 OA
ATOM     22  H2  UNL     1       3.301   0.377   2.779  1.00  0.00     0.245 HD
ENDBRANCH  20  21
ENDBRANCH  14  15
ENDBRANCH   8  14
TORSDOF 3
