REMARK  4 active torsions:
REMARK  status: ('A' for Active; 'I' for Inactive)
REMARK    1  A    between atoms: C2_2  and  O1_3 
REMARK    2  A    between atoms: C2_2  and  C3_5 
REMARK    3  A    between atoms: C9_13  and  O2_14 
REMARK    4  A    between atoms: O2_14  and  S1_15 
ROOT
HETATM    1  C3  UNL     1      -2.011   0.247  -0.555  1.00  0.00     0.287 C 
HETATM    2  C4  UNL     1      -1.654   1.311   0.450  1.00  0.00     0.227 C 
HETATM    3  C5  UNL     1      -2.706   1.494   1.451  1.00  0.00     0.087 C 
HETATM    4  N1  UNL     1      -3.525   1.653   2.244  1.00  0.00    -0.195 NA
HETATM    5  N2  UNL     1      -0.385   1.045   1.067  1.00  0.00    -0.368 N 
HETATM    6  C6  UNL     1       0.059   1.758   2.243  1.00  0.00     0.151 C 
HETATM    7  C7  UNL     1       0.461   0.073   0.521  1.00  0.00     0.040 C 
HETATM    8  C8  UNL     1       1.785   0.100   0.636  1.00  0.00     0.033 C 
HETATM    9  C9  UNL     1       2.549  -1.000   0.003  1.00  0.00     0.165 C 
HETATM   10  C11 UNL     1       1.957  -2.337   0.255  1.00  0.00     0.040 C 
HETATM   11  C12 UNL     1       0.463  -2.302   0.437  1.00  0.00     0.045 C 
HETATM   12  C13 UNL     1      -0.090  -1.081  -0.225  1.00  0.00     0.272 C 
HETATM   13  N3  UNL     1      -1.532  -1.055  -0.165  1.00  0.00     0.104 N 
HETATM   14  C14 UNL     1      -1.971  -1.553   1.082  1.00  0.00     0.311 C 
ENDROOT
BRANCH   1  15
HETATM   15  C2  UNL     1      -3.419   0.275  -1.020  1.00  0.00     0.150 C 
HETATM   16  C1  UNL     1      -3.747   1.659  -1.579  1.00  0.00     0.041 C 
BRANCH  15  17
HETATM   17  O1  UNL     1      -4.387  -0.125  -0.153  1.00  0.00    -0.394 OA
ATOM     18  H1  UNL     1      -4.183  -0.985   0.194  1.00  0.00     0.210 HD
ENDBRANCH  15  17
ENDBRANCH   1  15
BRANCH   9  19
HETATM   19  O2  UNL     1       2.663  -0.678  -1.343  1.00  0.00    -0.289 OA
BRANCH  19  20
HETATM   20  S1  UNL     1       4.225  -0.446  -1.847  1.00  0.00     0.120 S 
HETATM   21  C10 UNL     1       4.766   1.144  -1.265  1.00  0.00     0.157 C 
HETATM   22  O3  UNL     1       4.227  -0.379  -3.353  1.00  0.00    -0.232 OA
HETATM   23  S2  UNL     1       5.309  -1.608  -1.265  1.00  0.00     0.036 SA
ENDBRANCH  19  20
ENDBRANCH   9  19
TORSDOF 4
