REMARK  1 active torsions:
REMARK  status: ('A' for Active; 'I' for Inactive)
REMARK    1  A    between atoms: O1_2  and  C2_3 
ROOT
HETATM    1  C2  UNL     1       1.589  -0.536  -0.273  1.00  0.00     0.131 C 
HETATM    2  C3  UNL     1       1.620  -0.897  -1.717  1.00  0.00     0.034 C 
HETATM    3  C4  UNL     1       0.409  -0.002  -1.923  1.00  0.00     0.017 C 
HETATM    4  C5  UNL     1       0.100  -0.228  -0.485  1.00  0.00     0.016 C 
HETATM    5  C6  UNL     1      -0.816  -1.377  -0.159  1.00  0.00     0.047 C 
HETATM    6  C7  UNL     1      -1.808  -0.726   0.790  1.00  0.00     0.187 C 
HETATM    7  C8  UNL     1      -2.694   0.253   0.086  1.00  0.00     0.035 C 
HETATM    8  C9  UNL     1      -1.729   1.386  -0.293  1.00  0.00     0.036 C 
HETATM    9  C10 UNL     1      -0.424   0.920   0.304  1.00  0.00     0.197 C 
HETATM   10  N1  UNL     1      -0.912   0.208   1.501  1.00  0.00    -0.066 N 
ATOM     11  H11 UNL     1      -0.211  -0.199   2.120  1.00  0.00     0.278 HD
ATOM     12  H12 UNL     1      -1.322   0.773   2.245  1.00  0.00     0.278 HD
ENDROOT
BRANCH   1  13
HETATM   13  O1  UNL     1       2.195   0.587   0.161  1.00  0.00    -0.390 OA
HETATM   14  C1  UNL     1       2.871   0.537   1.346  1.00  0.00     0.202 C 
ENDBRANCH   1  13
TORSDOF 1
