REMARK  10 active torsions:
REMARK  status: ('A' for Active; 'I' for Inactive)
REMARK    1  A    between atoms: C2_2  and  O1_3 
REMARK    2  A    between atoms: C2_2  and  C20_26 
REMARK    3  A    between atoms: O1_3  and  C3_4 
REMARK    4  A    between atoms: C8_11  and  C10_13 
REMARK    5  A    between atoms: C18_22  and  O5_24 
REMARK    6  A    between atoms: C23_29  and  N1_30 
REMARK    7  A    between atoms: N1_30  and  C24_31 
REMARK    8  A    between atoms: N1_30  and  C26_34 
REMARK    9  A    between atoms: C24_31  and  C25_32 
REMARK   10  A    between atoms: C26_34  and  C27_35 
ROOT
HETATM    1  C3  UNL     1      -0.201  -0.095  -1.801  1.00  0.00     0.190 C 
HETATM    2  C4  UNL     1      -0.720  -0.577  -0.423  1.00  0.00     0.049 C 
HETATM    3  C5  UNL     1      -0.282  -1.948  -0.114  1.00  0.00     0.015 C 
HETATM    4  C6  UNL     1      -2.188  -0.288  -0.328  1.00  0.00     0.172 C 
HETATM    5  O2  UNL     1      -2.655  -0.621   0.940  1.00  0.00    -0.312 OA
HETATM    6  C7  UNL     1      -3.764  -0.167   1.678  1.00  0.00     0.268 C 
HETATM    7  O3  UNL     1      -3.597  -0.349   2.907  1.00  0.00    -0.264 OA
HETATM    8  C8  UNL     1      -5.038   0.462   1.252  1.00  0.00     0.047 C 
HETATM    9  C9  UNL     1      -4.867   1.891   0.785  1.00  0.00     0.026 C 
HETATM   10  C13 UNL     1      -5.674  -0.422   0.241  1.00  0.00     0.020 C 
HETATM   11  C14 UNL     1      -5.420  -0.206  -1.175  1.00  0.00     0.004 C 
HETATM   12  C15 UNL     1      -4.119  -0.007  -1.768  1.00  0.00     0.040 C 
HETATM   13  C16 UNL     1      -2.989  -0.937  -1.441  1.00  0.00     0.088 C 
HETATM   14  C17 UNL     1      -3.518  -2.307  -0.977  1.00  0.00     0.049 C 
HETATM   15  O4  UNL     1      -2.278  -1.173  -2.556  1.00  0.00    -0.340 OA
HETATM   16  C18 UNL     1      -1.010  -0.882  -2.786  1.00  0.00     0.185 C 
HETATM   17  C19 UNL     1      -1.021  -0.052  -4.094  1.00  0.00     0.082 C 
ENDROOT
BRANCH   1  18
HETATM   18  O1  UNL     1       1.111  -0.400  -1.876  1.00  0.00    -0.370 OA
BRANCH  18  19
HETATM   19  C2  UNL     1       2.069   0.545  -1.954  1.00  0.00     0.151 C 
HETATM   20  C1  UNL     1       2.659   0.724  -3.356  1.00  0.00     0.045 C 
BRANCH  19  21
HETATM   21  C20 UNL     1       3.193   0.476  -0.998  1.00  0.00    -0.030 A 
HETATM   22  C21 UNL     1       3.003   0.242   0.336  1.00  0.00     0.012 A 
HETATM   23  C22 UNL     1       4.060   0.167   1.265  1.00  0.00     0.030 A 
HETATM   24  C23 UNL     1       5.332   0.331   0.843  1.00  0.00     0.030 A 
HETATM   25  C28 UNL     1       5.567   0.568  -0.487  1.00  0.00     0.030 A 
HETATM   26  C29 UNL     1       4.521   0.640  -1.396  1.00  0.00     0.012 A 
BRANCH  24  27
HETATM   27  N1  UNL     1       6.406   0.238   1.822  1.00  0.00    -0.379 N 
BRANCH  27  28
HETATM   28  C24 UNL     1       7.100  -1.006   1.834  1.00  0.00     0.138 C 
BRANCH  28  29
HETATM   29  C25 UNL     1       8.514  -1.025   1.383  1.00  0.00     0.134 C 
HETATM   30 CL1  UNL     1       9.027  -2.764   1.479  1.00  0.00    -0.129 Cl
ENDBRANCH  28  29
ENDBRANCH  27  28
BRANCH  27  31
HETATM   31  C26 UNL     1       6.616   1.382   2.636  1.00  0.00     0.138 C 
BRANCH  31  32
HETATM   32  C27 UNL     1       7.853   2.177   2.405  1.00  0.00     0.134 C 
HETATM   33 CL2  UNL     1       7.815   3.554   3.566  1.00  0.00    -0.129 Cl
ENDBRANCH  31  32
ENDBRANCH  27  31
ENDBRANCH  24  27
ENDBRANCH  19  21
ENDBRANCH  18  19
ENDBRANCH   1  18
BRANCH  16  34
HETATM   34  O5  UNL     1      -0.209  -1.988  -3.135  1.00  0.00    -0.363 OA
ATOM     35  H5  UNL     1      -0.722  -2.487  -3.760  1.00  0.00     0.213 HD
ENDBRANCH  16  34
BRANCH   8  36
HETATM   36  C10 UNL     1      -5.934   0.545   2.484  1.00  0.00    -0.005 C 
HETATM   37  C11 UNL     1      -5.358   1.358   3.591  1.00  0.00     0.011 C 
HETATM   38  C12 UNL     1      -6.349  -0.799   3.002  1.00  0.00     0.011 C 
ENDBRANCH   8  36
TORSDOF 10
