REMARK  11 active torsions:
REMARK  status: ('A' for Active; 'I' for Inactive)
REMARK    1  A    between atoms: C2_2  and  C3_3 
REMARK    2  A    between atoms: C4_4  and  C5_5 
REMARK    3  A    between atoms: C8_8  and  N1_9 
REMARK    4  A    between atoms: C10_11  and  C11_12 
REMARK    5  A    between atoms: C12_17  and  C13_18 
REMARK    6  A    between atoms: N3_21  and  C16_22 
REMARK    7  A    between atoms: C29_36  and  O2_37 
REMARK    8  A    between atoms: O2_37  and  C30_38 
REMARK    9  A    between atoms: C30_38  and  C31_39 
REMARK   10  A    between atoms: C31_39  and  C32_40 
REMARK   11  A    between atoms: C32_40  and  O3_41 
ROOT
HETATM    1  N1  UNL     1      -1.602   2.378  -1.011  1.00  0.00    -0.309 N 
HETATM    2  C9  UNL     1      -1.910   3.382  -1.892  1.00  0.00     0.129 A 
HETATM    3  C10 UNL     1      -0.799   3.751  -2.608  1.00  0.00     0.091 A 
HETATM    4  N2  UNL     1       0.168   2.955  -2.140  1.00  0.00    -0.343 N 
ATOM      5  H2  UNL     1       1.135   2.972  -2.465  1.00  0.00     0.167 HD
HETATM    6  C12 UNL     1      -0.306   2.115  -1.169  1.00  0.00     0.092 A 
ENDROOT
BRANCH   6   7
HETATM    7  C13 UNL     1       0.556   1.157  -0.501  1.00  0.00     0.057 C 
HETATM    8  C14 UNL     1       0.117  -0.276  -0.511  1.00  0.00     0.032 C 
HETATM    9  C15 UNL     1       1.398  -1.095  -0.258  1.00  0.00     0.118 C 
HETATM   10  N3  UNL     1       2.461  -0.312   0.227  1.00  0.00    -0.408 N 
HETATM   11  C26 UNL     1       2.215   0.665   1.189  1.00  0.00     0.118 C 
HETATM   12  C27 UNL     1       0.918   1.462   0.935  1.00  0.00     0.032 C 
BRANCH  10  13
HETATM   13  C16 UNL     1       3.691  -0.394  -0.427  1.00  0.00     0.082 C 
HETATM   14  C17 UNL     1       4.747   0.507   0.099  1.00  0.00     0.062 C 
HETATM   15  C18 UNL     1       6.075   0.309  -0.613  1.00  0.00     0.056 C 
HETATM   16  C19 UNL     1       5.953   0.726  -2.078  1.00  0.00     0.045 C 
HETATM   17  C20 UNL     1       7.098   1.236   0.009  1.00  0.00     0.045 C 
HETATM   18  O1  UNL     1       6.547  -0.965  -0.573  1.00  0.00    -0.375 OA
HETATM   19  C21 UNL     1       6.385  -1.624   0.619  1.00  0.00     0.131 A 
HETATM   20  C22 UNL     1       6.207  -3.129   0.465  1.00  0.00     0.044 A 
HETATM   21  C23 UNL     1       5.035  -2.162   0.776  1.00  0.00    -0.014 A 
HETATM   22  C24 UNL     1       4.401  -2.446   2.095  1.00  0.00     0.018 C 
HETATM   23  C25 UNL     1       4.190  -1.812  -0.417  1.00  0.00     0.036 C 
ENDBRANCH  10  13
ENDBRANCH   6   7
BRANCH   1  24
HETATM   24  C8  UNL     1      -2.520   1.763  -0.122  1.00  0.00     0.043 A 
HETATM   25  C7  UNL     1      -2.614   2.251   1.151  1.00  0.00     0.031 A 
HETATM   26  C6  UNL     1      -3.507   1.688   2.043  1.00  0.00     0.026 A 
HETATM   27  C5  UNL     1      -4.302   0.630   1.635  1.00  0.00     0.051 A 
HETATM   28  C29 UNL     1      -4.229   0.117   0.357  1.00  0.00     0.089 A 
HETATM   29  C28 UNL     1      -3.321   0.715  -0.494  1.00  0.00     0.068 A 
BRANCH  27  30
HETATM   30  C4  UNL     1      -5.223   0.072   2.606  1.00  0.00    -0.064 C 
HETATM   31  C3  UNL     1      -5.984  -0.385   3.429  1.00  0.00    -0.101 C 
BRANCH  31  32
HETATM   32  C2  UNL     1      -6.887  -0.937   4.415  1.00  0.00     0.090 C 
HETATM   33  C1  UNL     1      -7.933   0.069   4.843  1.00  0.00     0.018 C 
ENDBRANCH  31  32
ENDBRANCH  27  30
BRANCH  28  34
HETATM   34  O2  UNL     1      -5.047  -0.945  -0.006  1.00  0.00    -0.349 OA
BRANCH  34  35
HETATM   35  C30 UNL     1      -4.917  -1.419  -1.332  1.00  0.00     0.178 C 
BRANCH  35  36
HETATM   36  C31 UNL     1      -5.861  -2.574  -1.605  1.00  0.00     0.053 C 
BRANCH  36  37
HETATM   37  C32 UNL     1      -5.716  -3.073  -3.023  1.00  0.00     0.166 C 
BRANCH  37  38
HETATM   38  O3  UNL     1      -6.582  -4.117  -3.242  1.00  0.00    -0.401 OA
ATOM     39  H3  UNL     1      -6.491  -4.431  -4.134  1.00  0.00     0.209 HD
ENDBRANCH  37  38
ENDBRANCH  36  37
ENDBRANCH  35  36
ENDBRANCH  34  35
ENDBRANCH  28  34
ENDBRANCH   1  24
BRANCH   3  40
HETATM   40  C11 UNL     1      -0.689   4.794  -3.661  1.00  0.00     0.404 C 
HETATM   41  F1  UNL     1      -0.163   4.295  -4.839  1.00  0.00    -0.207 F 
HETATM   42  F2  UNL     1       0.175   5.785  -3.237  1.00  0.00    -0.207 F 
ENDBRANCH   3  40
TORSDOF 11
