REMARK  10 active torsions:
REMARK  status: ('A' for Active; 'I' for Inactive)
REMARK    1  A    between atoms: O1_2  and  C2_3 
REMARK    2  A    between atoms: C6_7  and  C7_8 
REMARK    3  A    between atoms: C8_9  and  C9_10 
REMARK    4  A    between atoms: C10_11  and  C11_12 
REMARK    5  A    between atoms: C11_12  and  O3_14 
REMARK    6  A    between atoms: O3_14  and  C12_15 
REMARK    7  A    between atoms: C13_16  and  O4_17 
REMARK    8  A    between atoms: C15_20  and  O5_21 
REMARK    9  A    between atoms: O5_21  and  C16_22 
REMARK   10  A    between atoms: C19_25  and  O6_26 
ROOT
HETATM    1  C12 UNL     1       0.275  -0.047  -0.194  1.00  0.00     0.105 C 
HETATM    2  C13 UNL     1      -0.407   0.629  -1.326  1.00  0.00     0.156 C 
HETATM    3  C14 UNL     1      -1.875   0.615  -1.411  1.00  0.00     0.067 C 
HETATM    4  C15 UNL     1      -2.621   0.073  -0.232  1.00  0.00     0.125 C 
HETATM    5  C23 UNL     1      -1.963  -1.171   0.319  1.00  0.00     0.039 C 
HETATM    6  C24 UNL     1      -0.494  -1.041   0.579  1.00  0.00     0.026 C 
HETATM    7  C25 UNL     1      -0.378  -0.914   2.097  1.00  0.00     0.009 C 
HETATM    8  C26 UNL     1       1.041  -0.777   2.534  1.00  0.00     0.016 C 
HETATM    9  C27 UNL     1       1.765   0.329   1.821  1.00  0.00     0.028 C 
HETATM   10  C28 UNL     1       3.177  -0.118   1.536  1.00  0.00     0.022 C 
HETATM   11  C29 UNL     1       1.077   0.935   0.665  1.00  0.00     0.038 C 
HETATM   12  C30 UNL     1       0.387   2.154   1.057  1.00  0.00     0.014 C 
HETATM   13  C31 UNL     1       0.656   2.316   2.535  1.00  0.00     0.080 C 
HETATM   14  C32 UNL     1       1.917   1.514   2.794  1.00  0.00     0.251 C 
HETATM   15  F1  UNL     1       2.993   2.303   2.451  1.00  0.00    -0.205 F 
HETATM   16  F2  UNL     1       2.055   1.122   4.087  1.00  0.00    -0.205 F 
ENDROOT
BRANCH   1  17
HETATM   17  O3  UNL     1       1.387  -0.755  -0.856  1.00  0.00    -0.303 OA
BRANCH  17  18
HETATM   18  C11 UNL     1       1.186  -1.719  -1.751  1.00  0.00     0.283 C 
HETATM   19  O2  UNL     1      -0.043  -2.003  -1.968  1.00  0.00    -0.260 OA
BRANCH  18  20
HETATM   20  C10 UNL     1       2.144  -2.470  -2.490  1.00  0.00     0.082 C 
HETATM   21  C9  UNL     1       3.428  -2.441  -2.574  1.00  0.00     0.006 C 
BRANCH  21  22
HETATM   22  C8  UNL     1       4.399  -1.587  -1.918  1.00  0.00     0.001 C 
HETATM   23  C7  UNL     1       5.697  -1.725  -2.130  1.00  0.00     0.011 C 
BRANCH  23  24
HETATM   24  C6  UNL     1       6.767  -0.960  -1.561  1.00  0.00    -0.034 A 
HETATM   25  C5  UNL     1       8.084  -1.314  -1.899  1.00  0.00     0.011 A 
HETATM   26  C4  UNL     1       9.165  -0.618  -1.404  1.00  0.00     0.004 A 
HETATM   27  C3  UNL     1       8.997   0.438  -0.569  1.00  0.00     0.037 A 
HETATM   28  C2  UNL     1       7.723   0.826  -0.207  1.00  0.00     0.069 A 
HETATM   29  C33 UNL     1       6.642   0.113  -0.715  1.00  0.00     0.048 A 
BRANCH  28  30
HETATM   30  O1  UNL     1       7.614   1.903   0.640  1.00  0.00    -0.356 OA
HETATM   31  C1  UNL     1       6.390   2.409   1.092  1.00  0.00     0.210 C 
ENDBRANCH  28  30
ENDBRANCH  23  24
ENDBRANCH  21  22
ENDBRANCH  18  20
ENDBRANCH  17  18
ENDBRANCH   1  17
BRANCH   2  32
HETATM   32  O4  UNL     1       0.047   1.978  -1.364  1.00  0.00    -0.392 OA
ATOM     33  H4  UNL     1      -0.389   2.411  -2.088  1.00  0.00     0.210 HD
ENDBRANCH   2  32
BRANCH   4  34
HETATM   34  O5  UNL     1      -3.923  -0.283  -0.530  1.00  0.00    -0.381 OA
BRANCH  34  35
HETATM   35  C16 UNL     1      -4.910   0.302   0.212  1.00  0.00     0.122 C 
HETATM   36  C17 UNL     1      -5.784   1.077  -0.757  1.00  0.00     0.034 C 
HETATM   37  C18 UNL     1      -7.225   1.121  -0.356  1.00  0.00     0.034 C 
HETATM   38  C19 UNL     1      -7.886  -0.237  -0.280  1.00  0.00     0.120 C 
HETATM   39  C21 UNL     1      -6.796  -1.293  -0.043  1.00  0.00     0.034 C 
HETATM   40  C22 UNL     1      -5.818  -0.663   0.927  1.00  0.00     0.034 C 
BRANCH  38  41
HETATM   41  O6  UNL     1      -8.600  -0.553  -1.404  1.00  0.00    -0.391 OA
HETATM   42  C20 UNL     1      -9.911  -0.855  -1.049  1.00  0.00     0.202 C 
ENDBRANCH  38  41
ENDBRANCH  34  35
ENDBRANCH   4  34
TORSDOF 10
