REMARK  6 active torsions:
REMARK  status: ('A' for Active; 'I' for Inactive)
REMARK    1  A    between atoms: C6_7  and  N2_8 
REMARK    2  A    between atoms: N2_8  and  C7_10 
REMARK    3  A    between atoms: C7_10  and  O1_11 
REMARK    4  A    between atoms: C7_10  and  C8_13 
REMARK    5  A    between atoms: C8_13  and  N3_14 
REMARK    6  A    between atoms: N5_20  and  O2_21 
ROOT
HETATM    1  C1  UNL     1       3.464  -0.289  -1.409  1.00  0.00     0.075 C 
HETATM    2  C2  UNL     1       2.121  -0.320  -0.781  1.00  0.00     0.078 A 
HETATM    3  C3  UNL     1       1.802   0.691   0.100  1.00  0.00     0.051 A 
HETATM    4  C4  UNL     1       2.813   1.769   0.386  1.00  0.00     0.071 C 
HETATM    5  N1  UNL     1       0.606   0.671   0.665  1.00  0.00    -0.189 N 
HETATM    6  C5  UNL     1       0.261   1.724   1.588  1.00  0.00     0.175 C 
HETATM    7  C6  UNL     1      -0.341  -0.287   0.434  1.00  0.00     0.698 A 
HETATM    8  N4  UNL     1       0.010  -1.251  -0.428  1.00  0.00    -0.105 N 
ATOM      9  H4  UNL     1      -0.658  -1.993  -0.637  1.00  0.00     0.208 HD
HETATM   10  N5  UNL     1       1.214  -1.273  -1.027  1.00  0.00    -0.152 N 
ENDROOT
BRANCH   7  11
HETATM   11  N2  UNL     1      -1.461  -0.216   1.027  1.00  0.00    -0.197 N 
ATOM     12  H2  UNL     1      -1.550   0.588   1.648  1.00  0.00     0.180 HD
BRANCH  11  13
HETATM   13  C7  UNL     1      -2.601  -1.036   0.990  1.00  0.00     0.260 C 
BRANCH  13  14
HETATM   14  O1  UNL     1      -2.212  -2.368   1.130  1.00  0.00    -0.374 OA
ATOM     15  H1  UNL     1      -2.983  -2.923   1.105  1.00  0.00     0.212 HD
ENDBRANCH  13  14
BRANCH  13  16
HETATM   16  C8  UNL     1      -3.386  -0.878  -0.290  1.00  0.00     0.283 C 
BRANCH  16  17
HETATM   17  N3  UNL     1      -3.829   0.461  -0.519  1.00  0.00    -0.075 N 
ATOM     18  H33 UNL     1      -4.362   0.808   0.278  1.00  0.00     0.274 HD
ATOM     19  H32 UNL     1      -3.044   1.112  -0.492  1.00  0.00     0.274 HD
ATOM     20  H31 UNL     1      -4.359   0.568  -1.384  1.00  0.00     0.274 HD
ENDBRANCH  16  17
ENDBRANCH  13  16
ENDBRANCH  11  13
ENDBRANCH   7  11
BRANCH  10  21
HETATM   21  O2  UNL     1       1.545  -2.280  -1.911  1.00  0.00    -0.267 OA
ATOM     22  H2  UNL     1       0.901  -2.956  -2.086  1.00  0.00     0.247 HD
ENDBRANCH  10  21
TORSDOF 6
