REMARK  3 active torsions:
REMARK  status: ('A' for Active; 'I' for Inactive)
REMARK    1  A    between atoms: N3_8  and  C3_9 
REMARK    2  A    between atoms: C3_9  and  C4_10 
REMARK    3  A    between atoms: N5_18  and  O3_19 
ROOT
HETATM    1  N1  UNL     1       4.317   1.076  -0.634  1.00  0.00    -0.232 N 
ATOM      2  H11 UNL     1       4.534   1.850  -1.262  1.00  0.00     0.174 HD
ATOM      3  H12 UNL     1       5.102   0.511  -0.309  1.00  0.00     0.174 HD
HETATM    4  C1  UNL     1       3.108   0.806  -0.253  1.00  0.00     0.704 A 
HETATM    5  N2  UNL     1       2.822  -0.215   0.576  1.00  0.00    -0.186 N 
ATOM      6  H2  UNL     1       3.591  -0.795   0.913  1.00  0.00     0.185 HD
HETATM    7  C2  UNL     1       1.576  -0.510   0.983  1.00  0.00     0.201 A 
HETATM    8  N3  UNL     1       0.539   0.241   0.551  1.00  0.00    -0.334 N 
HETATM    9  C7  UNL     1       0.821   1.264  -0.279  1.00  0.00     0.236 A 
HETATM   10  N5  UNL     1       2.071   1.553  -0.682  1.00  0.00    -0.048 N 
ENDROOT
BRANCH   8  11
HETATM   11  C3  UNL     1      -0.801  -0.039   0.959  1.00  0.00     0.157 C 
BRANCH  11  12
HETATM   12  C4  UNL     1      -1.494  -1.016   0.001  1.00  0.00     0.129 C 
HETATM   13  C5  UNL     1      -2.898  -1.218   0.558  1.00  0.00     0.207 C 
HETATM   14  O1  UNL     1      -3.702  -0.213  -0.066  1.00  0.00    -0.302 OA
HETATM   15  C6  UNL     1      -3.046   0.175  -1.245  1.00  0.00     0.361 C 
HETATM   16  O2  UNL     1      -3.585   0.907  -2.120  1.00  0.00    -0.239 OA
HETATM   17  N4  UNL     1      -1.739  -0.382  -1.264  1.00  0.00    -0.329 N 
ATOM     18  H4  UNL     1      -1.085  -0.339  -2.045  1.00  0.00     0.165 HD
ENDBRANCH  11  12
ENDBRANCH   8  11
BRANCH  10  19
HETATM   19  O3  UNL     1       2.359   2.599  -1.531  1.00  0.00    -0.269 OA
ATOM     20  H3  UNL     1       1.628   3.125  -1.833  1.00  0.00     0.246 HD
ENDBRANCH  10  19
TORSDOF 3
