REMARK  8 active torsions:
REMARK  status: ('A' for Active; 'I' for Inactive)
REMARK    1  A    between atoms: C2_2  and  C3_3 
REMARK    2  A    between atoms: C3_3  and  C4_4 
REMARK    3  A    between atoms: C3_3  and  C7_7 
REMARK    4  A    between atoms: C7_7  and  C9_9 
REMARK    5  A    between atoms: C12_13  and  N1_14 
REMARK    6  A    between atoms: N1_14  and  C13_16 
REMARK    7  A    between atoms: C14_19  and  N3_20 
REMARK    8  A    between atoms: C21_34  and  S1_35 
ROOT
HETATM    1  C9  UNL     1      -1.354   0.116  -0.491  1.00  0.00    -0.011 A 
HETATM    2  C10 UNL     1      -0.692   0.536  -1.689  1.00  0.00     0.044 A 
HETATM    3 CL1  UNL     1      -1.592   0.521  -3.222  1.00  0.00    -0.084 Cl
HETATM    4  C11 UNL     1       0.584   0.948  -1.754  1.00  0.00     0.054 A 
HETATM    5  C12 UNL     1       1.311   0.969  -0.582  1.00  0.00     0.052 A 
HETATM    6  C20 UNL     1       0.716   0.575   0.562  1.00  0.00     0.054 A 
HETATM    7  C21 UNL     1      -0.650   0.126   0.660  1.00  0.00     0.069 A 
ENDROOT
BRANCH   5   8
HETATM    8  N1  UNL     1       2.662   1.405  -0.606  1.00  0.00    -0.192 N 
ATOM      9  H1  UNL     1       2.811   2.372  -0.894  1.00  0.00     0.184 HD
BRANCH   8  10
HETATM   10  C13 UNL     1       3.699   0.754  -0.318  1.00  0.00     0.684 A 
HETATM   11  N2  UNL     1       3.674  -0.516   0.077  1.00  0.00    -0.176 N 
HETATM   12  C14 UNL     1       4.843  -1.135   0.325  1.00  0.00     0.127 A 
ATOM     13  H2  UNL     1       2.789  -1.010   0.189  1.00  0.00     0.186 HD
HETATM   14  C15 UNL     1       6.057  -0.498   0.183  1.00  0.00     0.042 A 
HETATM   15  C16 UNL     1       7.269  -1.102   0.428  1.00  0.00     0.035 A 
HETATM   16  C19 UNL     1       6.056   0.815  -0.227  1.00  0.00     0.131 A 
HETATM   17  C17 UNL     1       8.468  -0.395   0.262  1.00  0.00     0.092 A 
HETATM   18  N4  UNL     1       8.444   0.880  -0.138  1.00  0.00    -0.332 N 
HETATM   19  C18 UNL     1       7.270   1.488  -0.382  1.00  0.00     0.273 A 
ATOM     20  H4  UNL     1       9.318   1.393  -0.258  1.00  0.00     0.168 HD
HETATM   21  O1  UNL     1       7.254   2.684  -0.756  1.00  0.00    -0.266 OA
HETATM   22  N5  UNL     1       4.890   1.431  -0.472  1.00  0.00    -0.185 N 
ATOM     23  H5  UNL     1       4.884   2.405  -0.774  1.00  0.00     0.184 HD
BRANCH  12  24
HETATM   24  N3  UNL     1       4.814  -2.359   0.709  1.00  0.00    -0.384 N 
ATOM     25  H32 UNL     1       3.916  -2.830   0.814  1.00  0.00     0.157 HD
ATOM     26  H31 UNL     1       5.700  -2.828   0.897  1.00  0.00     0.157 HD
ENDBRANCH  12  24
ENDBRANCH   8  10
ENDBRANCH   5   8
BRANCH   7  27
HETATM   27  S1  UNL     1      -1.092  -0.413   2.180  1.00  0.00     0.172 S 
HETATM   28  C22 UNL     1      -1.840   0.688   3.339  1.00  0.00     0.167 C 
HETATM   29  O2  UNL     1       0.213  -0.772   2.989  1.00  0.00    -0.223 OA
HETATM   30  O3  UNL     1      -1.678  -1.805   2.296  1.00  0.00    -0.223 OA
ENDBRANCH   7  27
BRANCH   1  31
HETATM   31  C7  UNL     1      -2.682  -0.483  -0.679  1.00  0.00     0.022 C 
HETATM   32  C8  UNL     1      -2.390  -1.985  -0.787  1.00  0.00     0.015 C 
BRANCH  31  33
HETATM   33  C3  UNL     1      -3.786  -0.121   0.229  1.00  0.00    -0.003 C 
BRANCH  33  34
HETATM   34  C2  UNL     1      -4.068   1.385   0.042  1.00  0.00     0.001 C 
HETATM   35  C1  UNL     1      -3.106   2.426   0.263  1.00  0.00     0.005 C 
ENDBRANCH  33  34
BRANCH  33  36
HETATM   36  C4  UNL     1      -5.129  -0.717  -0.141  1.00  0.00    -0.018 C 
HETATM   37  C5  UNL     1      -5.278  -2.187  -0.004  1.00  0.00     0.010 C 
HETATM   38  C6  UNL     1      -5.683  -0.245  -1.482  1.00  0.00     0.010 C 
ENDBRANCH  33  36
ENDBRANCH  31  33
ENDBRANCH   1  31
TORSDOF 8
