REMARK  10 active torsions:
REMARK  status: ('A' for Active; 'I' for Inactive)
REMARK    1  A    between atoms: O1_2  and  C2_3 
REMARK    2  A    between atoms: C3_4  and  O2_5 
REMARK    3  A    between atoms: O2_5  and  C4_6 
REMARK    4  A    between atoms: C9_13  and  N2_14 
REMARK    5  A    between atoms: N2_14  and  N3_16 
REMARK    6  A    between atoms: N3_16  and  C10_18 
REMARK    7  A    between atoms: C10_18  and  O3_19 
REMARK    8  A    between atoms: C10_18  and  C11_21 
REMARK    9  A    between atoms: C15_26  and  C16_27 
REMARK   10  A    between atoms: C16_27  and  N4_28 
ROOT
HETATM    1  N2  UNL     1       1.225   1.281  -1.399  1.00  0.00    -0.130 N 
ATOM      2  H2  UNL     1       1.338   1.911  -2.194  1.00  0.00     0.205 HD
ENDROOT
BRANCH   1   3
HETATM    3  C9  UNL     1       0.029   0.938  -1.043  1.00  0.00     0.698 A 
HETATM    4  N1  UNL     1      -1.145   1.298  -1.581  1.00  0.00    -0.188 N 
HETATM    5  C8  UNL     1      -2.176   0.738  -0.933  1.00  0.00     0.080 A 
ATOM      6  H1  UNL     1      -1.242   1.920  -2.383  1.00  0.00     0.184 HD
HETATM    7  C7  UNL     1      -3.568   0.790  -1.090  1.00  0.00     0.072 A 
HETATM    8  C19 UNL     1      -1.622  -0.016   0.068  1.00  0.00     0.085 A 
HETATM    9  C3  UNL     1      -4.441   0.109  -0.275  1.00  0.00     0.105 A 
HETATM   10  C2  UNL     1      -3.843  -0.659   0.746  1.00  0.00     0.109 A 
HETATM   11  C20 UNL     1      -2.477  -0.707   0.897  1.00  0.00     0.004 A 
HETATM   12  C21 UNL     1      -1.876  -1.531   1.991  1.00  0.00     0.054 C 
HETATM   13  N5  UNL     1      -0.289   0.121  -0.018  1.00  0.00    -0.188 N 
ATOM     14  H5  UNL     1       0.385  -0.328   0.602  1.00  0.00     0.184 HD
BRANCH   9  15
HETATM   15  O2  UNL     1      -5.809   0.107  -0.362  1.00  0.00    -0.344 OA
BRANCH  15  16
HETATM   16  C4  UNL     1      -6.534   0.816  -1.318  1.00  0.00     0.121 C 
HETATM   17  C5  UNL     1      -7.368  -0.107  -2.198  1.00  0.00     0.040 C 
HETATM   18  C6  UNL     1      -7.493   1.809  -0.667  1.00  0.00     0.040 C 
ENDBRANCH  15  16
ENDBRANCH   9  15
BRANCH  10  19
HETATM   19  O1  UNL     1      -4.695  -1.362   1.590  1.00  0.00    -0.352 OA
HETATM   20  C1  UNL     1      -5.132  -2.670   1.356  1.00  0.00     0.210 C 
ENDBRANCH  10  19
ENDBRANCH   1   3
BRANCH   1  21
HETATM   21  N3  UNL     1       2.366   0.823  -0.738  1.00  0.00    -0.265 N 
ATOM     22  H3  UNL     1       2.286   0.445   0.206  1.00  0.00     0.189 HD
BRANCH  21  23
HETATM   23  C10 UNL     1       3.602   0.877  -1.352  1.00  0.00     0.166 C 
BRANCH  23  24
HETATM   24  O3  UNL     1       3.548   1.374  -2.566  1.00  0.00    -0.344 OA
ATOM     25  H3  UNL     1       4.398   1.411  -2.988  1.00  0.00     0.219 HD
ENDBRANCH  23  24
BRANCH  23  26
HETATM   26  C11 UNL     1       4.907   0.492  -0.910  1.00  0.00     0.024 A 
HETATM   27  C12 UNL     1       5.872   0.173  -1.879  1.00  0.00     0.035 A 
HETATM   28  C13 UNL     1       7.141  -0.250  -1.570  1.00  0.00     0.012 A 
HETATM   29 BR1  UNL     1       8.340  -0.648  -2.991  1.00  0.00    -0.051 Br
HETATM   30  C14 UNL     1       7.511  -0.374  -0.253  1.00  0.00     0.028 A 
HETATM   31  C15 UNL     1       6.610  -0.076   0.712  1.00  0.00    -0.025 A 
HETATM   32  C17 UNL     1       5.311   0.358   0.384  1.00  0.00    -0.040 A 
HETATM   33  C18 UNL     1       4.401   0.694   1.484  1.00  0.00     0.050 C 
BRANCH  31  34
HETATM   34  C16 UNL     1       6.974  -0.193   2.153  1.00  0.00     0.268 C 
BRANCH  34  35
HETATM   35  N4  UNL     1       8.368  -0.669   2.198  1.00  0.00    -0.075 N 
ATOM     36  H43 UNL     1       8.517  -1.531   1.673  1.00  0.00     0.274 HD
ATOM     37  H42 UNL     1       9.011  -0.083   1.666  1.00  0.00     0.274 HD
ATOM     38  H41 UNL     1       8.617  -0.749   3.184  1.00  0.00     0.274 HD
ENDBRANCH  34  35
ENDBRANCH  31  34
ENDBRANCH  23  26
ENDBRANCH  21  23
ENDBRANCH   1  21
TORSDOF 10
