REMARK  8 active torsions:
REMARK  status: ('A' for Active; 'I' for Inactive)
REMARK    1  A    between atoms: O1_2  and  C2_3 
REMARK    2  A    between atoms: C5_6  and  O2_7 
REMARK    3  A    between atoms: O2_7  and  C6_8 
REMARK    4  A    between atoms: C6_8  and  C7_9 
REMARK    5  A    between atoms: C7_9  and  C8_10 
REMARK    6  A    between atoms: C8_10  and  N1_11 
REMARK    7  A    between atoms: C20_26  and  N3_27 
REMARK    8  A    between atoms: C21_32  and  N5_33 
ROOT
HETATM    1  C2  UNL     1      -4.190   0.259  -0.270  1.00  0.00     0.095 A 
HETATM    2  C3  UNL     1      -3.134  -0.428   0.338  1.00  0.00     0.011 A 
HETATM    3  C4  UNL     1      -1.843   0.087   0.339  1.00  0.00     0.053 A 
HETATM    4  C5  UNL     1      -0.790  -0.575   0.928  1.00  0.00     0.087 A 
HETATM    5  C15 UNL     1      -1.067  -1.783   1.525  1.00  0.00     0.045 A 
HETATM    6 BR1  UNL     1       0.304  -2.814   2.384  1.00  0.00    -0.048 Br
HETATM    7  C16 UNL     1      -2.338  -2.321   1.540  1.00  0.00     0.034 A 
HETATM    8  C17 UNL     1      -3.362  -1.622   0.937  1.00  0.00    -0.019 A 
HETATM    9  C18 UNL     1      -4.622  -2.195   0.969  1.00  0.00     0.043 A 
HETATM   10  C19 UNL     1      -5.660  -1.515   0.365  1.00  0.00     0.066 A 
HETATM   11  N2  UNL     1      -6.852  -2.122   0.407  1.00  0.00    -0.191 N 
ATOM     12  H2  UNL     1      -6.977  -3.020   0.874  1.00  0.00     0.184 HD
HETATM   13  C20 UNL     1      -7.879  -1.491  -0.196  1.00  0.00     0.677 A 
HETATM   14  N4  UNL     1      -7.720  -0.323  -0.804  1.00  0.00    -0.176 N 
ATOM     15  H4  UNL     1      -8.537   0.103  -1.243  1.00  0.00     0.186 HD
HETATM   16  C21 UNL     1      -6.527   0.348  -0.880  1.00  0.00     0.130 A 
HETATM   17  C22 UNL     1      -5.447  -0.280  -0.261  1.00  0.00     0.070 A 
ENDROOT
BRANCH   4  18
HETATM   18  O2  UNL     1       0.457  -0.047   0.913  1.00  0.00    -0.350 OA
BRANCH  18  19
HETATM   19  C6  UNL     1       0.825   1.176   0.328  1.00  0.00     0.177 C 
BRANCH  19  20
HETATM   20  C7  UNL     1       2.314   1.414   0.523  1.00  0.00     0.057 C 
BRANCH  20  21
HETATM   21  C8  UNL     1       3.048   0.297  -0.128  1.00  0.00     0.274 C 
BRANCH  21  22
HETATM   22  N1  UNL     1       4.470   0.363  -0.039  1.00  0.00     0.088 N 
HETATM   23  C9  UNL     1       4.986  -0.817  -0.735  1.00  0.00     0.272 C 
HETATM   24  C10 UNL     1       6.415  -0.684  -1.127  1.00  0.00     0.034 C 
HETATM   25  C11 UNL     1       7.143   0.238  -0.186  1.00  0.00    -0.015 C 
HETATM   26  C12 UNL     1       7.092  -0.328   1.195  1.00  0.00     0.010 C 
HETATM   27  C13 UNL     1       6.519   1.600  -0.297  1.00  0.00     0.034 C 
HETATM   28  C14 UNL     1       5.041   1.559  -0.566  1.00  0.00     0.272 C 
ENDBRANCH  21  22
ENDBRANCH  20  21
ENDBRANCH  19  20
ENDBRANCH  18  19
ENDBRANCH   4  18
BRANCH   1  29
HETATM   29  O1  UNL     1      -3.878   1.473  -0.849  1.00  0.00    -0.354 OA
HETATM   30  C1  UNL     1      -3.826   2.610   0.050  1.00  0.00     0.210 C 
ENDBRANCH   1  29
BRANCH  16  31
HETATM   31  N5  UNL     1      -6.423   1.389  -1.495  1.00  0.00    -0.384 N 
ATOM     32  H52 UNL     1      -7.213   1.848  -1.948  1.00  0.00     0.157 HD
ATOM     33  H51 UNL     1      -5.535   1.888  -1.552  1.00  0.00     0.157 HD
ENDBRANCH  16  31
BRANCH  13  34
HETATM   34  N3  UNL     1      -9.041  -2.094  -0.148  1.00  0.00    -0.234 N 
ATOM     35  H32 UNL     1      -9.163  -2.992   0.320  1.00  0.00     0.174 HD
ATOM     36  H31 UNL     1      -9.818  -1.616  -0.604  1.00  0.00     0.174 HD
ENDBRANCH  13  34
TORSDOF 8
