REMARK  11 active torsions:
REMARK  status: ('A' for Active; 'I' for Inactive)
REMARK    1  A    between atoms: O1_2  and  C2_3 
REMARK    2  A    between atoms: C10_13  and  N2_14 
REMARK    3  A    between atoms: N2_14  and  C11_16 
REMARK    4  A    between atoms: C12_19  and  N4_20 
REMARK    5  A    between atoms: N4_20  and  C13_22 
REMARK    6  A    between atoms: C16_26  and  N5_27 
REMARK    7  A    between atoms: N5_27  and  C17_29 
REMARK    8  A    between atoms: C17_29  and  C18_30 
REMARK    9  A    between atoms: C18_30  and  C19_31 
REMARK   10  A    between atoms: C19_31  and  C20_32 
REMARK   11  A    between atoms: C20_32  and  N6_34 
ROOT
HETATM    1  C11 UNL     1      -1.343  -0.073  -1.912  1.00  0.00     0.131 C 
HETATM    2  N3  UNL     1      -0.931  -0.415  -0.676  1.00  0.00    -0.324 N 
ATOM      3  H3  UNL     1      -1.675  -0.674  -0.028  1.00  0.00     0.169 HD
HETATM    4  C12 UNL     1       0.312  -0.467  -0.168  1.00  0.00     0.149 C 
HETATM    5  C16 UNL     1       1.453   0.114  -0.743  1.00  0.00     0.145 C 
HETATM    6  N7  UNL     1       1.670   0.389  -2.042  1.00  0.00    -0.348 N 
ATOM      7  H7  UNL     1       2.642   0.570  -2.294  1.00  0.00     0.167 HD
HETATM    8  C22 UNL     1       0.774   0.460  -3.072  1.00  0.00     0.117 C 
HETATM    9  C23 UNL     1      -0.571   0.170  -3.056  1.00  0.00     0.093 C 
HETATM   10 CL2  UNL     1      -1.459   0.080  -4.558  1.00  0.00    -0.079 Cl
ENDROOT
BRANCH   1  11
HETATM   11  N2  UNL     1      -2.599   0.066  -2.135  1.00  0.00    -0.338 N 
ATOM     12  H2  UNL     1      -2.900   0.325  -3.074  1.00  0.00     0.167 HD
BRANCH  11  13
HETATM   13  C10 UNL     1      -3.590  -0.124  -1.134  1.00  0.00     0.074 A 
HETATM   14  C2  UNL     1      -4.131  -1.383  -0.921  1.00  0.00     0.097 A 
HETATM   15  C3  UNL     1      -5.093  -1.601   0.040  1.00  0.00     0.069 A 
HETATM   16  C4  UNL     1      -5.556  -0.547   0.838  1.00  0.00     0.045 A 
HETATM   17  N1  UNL     1      -6.462  -0.461   1.828  1.00  0.00    -0.365 N 
HETATM   18  C7  UNL     1      -5.003   0.719   0.614  1.00  0.00     0.000 A 
HETATM   19  C5  UNL     1      -6.512   0.821   2.251  1.00  0.00     0.089 A 
ATOM     20  H1  UNL     1      -7.017  -1.233   2.197  1.00  0.00     0.165 HD
HETATM   21  C6  UNL     1      -5.615   1.574   1.513  1.00  0.00     0.031 A 
HETATM   22  C8  UNL     1      -4.039   0.938  -0.348  1.00  0.00    -0.020 A 
HETATM   23  C9  UNL     1      -3.471   2.278  -0.570  1.00  0.00     0.052 C 
BRANCH  14  24
HETATM   24  O1  UNL     1      -3.691  -2.442  -1.696  1.00  0.00    -0.354 OA
HETATM   25  C1  UNL     1      -4.208  -3.730  -1.518  1.00  0.00     0.210 C 
ENDBRANCH  14  24
ENDBRANCH  11  13
ENDBRANCH   1  11
BRANCH   4  26
HETATM   26  N4  UNL     1       0.570  -1.072   0.912  1.00  0.00    -0.351 N 
ATOM     27  H4  UNL     1       1.550  -1.040   1.193  1.00  0.00     0.163 HD
BRANCH  26  28
HETATM   28  C13 UNL     1      -0.277  -1.789   1.801  1.00  0.00     0.102 C 
HETATM   29  C14 UNL     1       0.558  -2.527   2.871  1.00  0.00     0.056 C 
HETATM   30  C15 UNL     1      -1.259  -0.930   2.557  1.00  0.00     0.056 C 
HETATM   31 CL1  UNL     1      -1.135  -3.089   0.931  1.00  0.00    -0.096 Cl
ENDBRANCH  26  28
ENDBRANCH   4  26
BRANCH   5  32
HETATM   32  N5  UNL     1       2.411   0.430   0.031  1.00  0.00    -0.373 N 
ATOM     33  H5  UNL     1       2.291   0.241   1.026  1.00  0.00     0.161 HD
BRANCH  32  34
HETATM   34  C17 UNL     1       3.645   1.030  -0.381  1.00  0.00     0.121 C 
BRANCH  34  35
HETATM   35  C18 UNL     1       4.445   1.561   0.790  1.00  0.00     0.022 C 
BRANCH  35  36
HETATM   36  C19 UNL     1       5.736   2.189   0.353  1.00  0.00     0.034 C 
BRANCH  36  37
HETATM   37  C20 UNL     1       6.654   1.250  -0.374  1.00  0.00     0.179 C 
HETATM   38  C21 UNL     1       7.900   2.031  -0.743  1.00  0.00     0.039 C 
BRANCH  37  39
HETATM   39  N6  UNL     1       6.947   0.056   0.360  1.00  0.00    -0.075 N 
ATOM     40  H63 UNL     1       7.318   0.281   1.283  1.00  0.00     0.274 HD
ATOM     41  H62 UNL     1       6.087  -0.419   0.634  1.00  0.00     0.274 HD
ATOM     42  H61 UNL     1       7.571  -0.582  -0.134  1.00  0.00     0.274 HD
ENDBRANCH  37  39
ENDBRANCH  36  37
ENDBRANCH  35  36
ENDBRANCH  34  35
ENDBRANCH  32  34
ENDBRANCH   5  32
TORSDOF 11
