REMARK  8 active torsions:
REMARK  status: ('A' for Active; 'I' for Inactive)
REMARK    1  A    between atoms: C2_2  and  C3_3 
REMARK    2  A    between atoms: C7_8  and  C8_9 
REMARK    3  A    between atoms: C8_9  and  N1_10 
REMARK    4  A    between atoms: N1_10  and  C9_12 
REMARK    5  A    between atoms: N3_16  and  C11_18 
REMARK    6  A    between atoms: C18_29  and  N6_30 
REMARK    7  A    between atoms: N6_30  and  C19_32 
REMARK    8  A    between atoms: C23_38  and  O1_39 
ROOT
HETATM    1  C9  UNL     1      -0.557  -0.591   1.298  1.00  0.00     0.130 C 
HETATM    2  N2  UNL     1      -0.755  -1.714   0.605  1.00  0.00    -0.325 N 
ATOM      3  H2  UNL     1       0.112  -2.124   0.258  1.00  0.00     0.169 HD
HETATM    4  C10 UNL     1      -1.859  -2.435   0.258  1.00  0.00     0.132 C 
HETATM    5  N3  UNL     1      -1.632  -3.513  -0.226  1.00  0.00    -0.370 N 
ATOM      6  H3  UNL     1      -0.612  -3.517  -0.208  1.00  0.00     0.161 HD
HETATM    7  C14 UNL     1      -3.170  -1.971   0.441  1.00  0.00     0.103 A 
HETATM    8  N4  UNL     1      -4.246  -2.633  -0.007  1.00  0.00    -0.297 N 
ATOM      9  H4  UNL     1      -4.242  -3.518  -0.514  1.00  0.00     0.187 HD
HETATM   10  N5  UNL     1      -5.310  -1.931   0.328  1.00  0.00    -0.310 N 
ATOM     11  H5  UNL     1      -6.269  -2.203   0.112  1.00  0.00     0.186 HD
HETATM   12  C15 UNL     1      -4.975  -0.817   0.987  1.00  0.00     0.121 A 
HETATM   13  C16 UNL     1      -3.602  -0.825   1.070  1.00  0.00     0.015 A 
HETATM   14  C17 UNL     1      -2.889   0.186   1.692  1.00  0.00     0.048 C 
HETATM   15  C18 UNL     1      -1.528   0.326   1.651  1.00  0.00     0.079 C 
ENDROOT
BRANCH   1  16
HETATM   16  N1  UNL     1       0.598  -0.263   1.717  1.00  0.00    -0.370 N 
ATOM     17  H1  UNL     1       0.646   0.614   2.235  1.00  0.00     0.161 HD
BRANCH  16  18
HETATM   18  C8  UNL     1       1.835  -0.956   1.561  1.00  0.00     0.163 C 
BRANCH  18  19
HETATM   19  C7  UNL     1       2.529  -0.457   0.332  1.00  0.00    -0.001 A 
HETATM   20  C6  UNL     1       1.979   0.528  -0.461  1.00  0.00     0.015 A 
HETATM   21  C5  UNL     1       2.647   0.962  -1.578  1.00  0.00     0.043 A 
HETATM   22  C4  UNL     1       3.866   0.428  -1.926  1.00  0.00     0.125 A 
HETATM   23  C3  UNL     1       4.422  -0.562  -1.132  1.00  0.00     0.019 A 
HETATM   24  F1  UNL     1       4.542   0.850  -3.034  1.00  0.00    -0.205 F 
HETATM   25  C25 UNL     1       3.768  -1.019   0.004  1.00  0.00     0.133 A 
HETATM   26  F2  UNL     1       4.337  -1.985   0.757  1.00  0.00    -0.205 F 
BRANCH  23  27
HETATM   27  C2  UNL     1       5.747  -1.135  -1.516  1.00  0.00     0.040 C 
HETATM   28  C1  UNL     1       6.783  -0.091  -1.125  1.00  0.00     0.010 C 
ENDBRANCH  23  27
ENDBRANCH  18  19
ENDBRANCH  16  18
ENDBRANCH   1  16
BRANCH  15  29
HETATM   29  N6  UNL     1      -1.078   1.607   2.035  1.00  0.00    -0.339 N 
ATOM     30  H6  UNL     1      -0.622   1.690   2.943  1.00  0.00     0.167 HD
BRANCH  29  31
HETATM   31  C19 UNL     1      -1.195   2.670   1.339  1.00  0.00     0.110 A 
HETATM   32  C20 UNL     1      -1.795   2.692   0.086  1.00  0.00     0.073 A 
HETATM   33  C21 UNL     1      -1.907   3.848  -0.634  1.00  0.00     0.012 A 
HETATM   34  C22 UNL     1      -2.556   3.868  -1.988  1.00  0.00     0.068 C 
HETATM   35  N7  UNL     1      -1.419   4.984  -0.105  1.00  0.00    -0.326 N 
HETATM   36  C23 UNL     1      -0.831   5.000   1.106  1.00  0.00     0.224 A 
ATOM     37  H7  UNL     1      -1.496   5.853  -0.633  1.00  0.00     0.169 HD
HETATM   38  N8  UNL     1      -0.735   3.850   1.792  1.00  0.00    -0.308 N 
ATOM     39  H8  UNL     1      -0.288   3.872   2.709  1.00  0.00     0.171 HD
BRANCH  36  40
HETATM   40  O1  UNL     1      -0.331   6.207   1.631  1.00  0.00    -0.327 OA
HETATM   41  C24 UNL     1      -0.459   7.385   0.868  1.00  0.00     0.213 C 
ENDBRANCH  36  40
ENDBRANCH  29  31
ENDBRANCH  15  29
BRANCH   5  42
HETATM   42  C11 UNL     1      -1.876  -4.719  -0.777  1.00  0.00     0.075 C 
HETATM   43  C12 UNL     1      -0.623  -5.354  -1.459  1.00  0.00     0.031 C 
HETATM   44  C13 UNL     1      -2.223  -5.719   0.351  1.00  0.00     0.031 C 
ENDBRANCH   5  42
TORSDOF 8
