REMARK  9 active torsions:
REMARK  status: ('A' for Active; 'I' for Inactive)
REMARK    1  A    between atoms: N1_4  and  C4_5 
REMARK    2  A    between atoms: C4_5  and  C5_6 
REMARK    3  A    between atoms: C5_6  and  O1_7 
REMARK    4  A    between atoms: C5_6  and  C6_9 
REMARK    5  A    between atoms: C6_9  and  O2_10 
REMARK    6  A    between atoms: O2_10  and  C7_11 
REMARK    7  A    between atoms: C9_15  and  N3_16 
REMARK    8  A    between atoms: N3_16  and  C10_18 
REMARK    9  A    between atoms: C14_22  and  O3_23 
ROOT
HETATM    1  C7  UNL     1       0.556   1.356   0.175  1.00  0.00     0.097 A 
HETATM    2  C8  UNL     1       0.757   0.010   0.171  1.00  0.00     0.127 A 
HETATM    3  N2  UNL     1       1.946  -0.574   0.257  1.00  0.00    -0.348 N 
ATOM      4  H2  UNL     1       2.021  -1.591   0.248  1.00  0.00     0.167 HD
HETATM    5  C9  UNL     1       3.072   0.200   0.358  1.00  0.00     0.129 A 
HETATM    6  C16 UNL     1       2.974   1.583   0.372  1.00  0.00     0.090 A 
HETATM    7  N4  UNL     1       3.888   2.582   0.463  1.00  0.00    -0.343 N 
ATOM      8  H4  UNL     1       4.897   2.459   0.543  1.00  0.00     0.167 HD
HETATM    9  C17 UNL     1       3.232   3.777   0.430  1.00  0.00     0.104 A 
HETATM   10 CL1  UNL     1       3.982   5.335   0.517  1.00  0.00    -0.065 Cl
HETATM   11  C18 UNL     1       1.890   3.503   0.317  1.00  0.00     0.059 A 
HETATM   12  C19 UNL     1       1.719   2.132   0.280  1.00  0.00     0.032 A 
ENDROOT
BRANCH   1  13
HETATM   13  O2  UNL     1      -0.628   1.989   0.091  1.00  0.00    -0.346 OA
BRANCH  13  14
HETATM   14  C6  UNL     1      -1.934   1.656  -0.023  1.00  0.00     0.209 C 
BRANCH  14  15
HETATM   15  C5  UNL     1      -2.385   0.893  -1.229  1.00  0.00     0.160 C 
BRANCH  15  16
HETATM   16  C4  UNL     1      -3.920   0.737  -1.191  1.00  0.00     0.155 C 
BRANCH  16  17
HETATM   17  N1  UNL     1      -4.387   0.062  -0.038  1.00  0.00    -0.390 N 
HETATM   18  C3  UNL     1      -4.092  -1.306   0.105  1.00  0.00     0.064 C 
HETATM   19  C2  UNL     1      -5.269  -2.226  -0.116  1.00  0.00     0.038 C 
HETATM   20  C1  UNL     1      -5.765  -2.147  -1.542  1.00  0.00     0.017 C 
HETATM   21  C23 UNL     1      -6.363  -1.814   0.847  1.00  0.00     0.096 C 
HETATM   22  C21 UNL     1      -6.734  -0.399   0.550  1.00  0.00     0.018 C 
HETATM   23 CL2  UNL     1      -7.838  -2.805   0.576  1.00  0.00    -0.124 Cl
HETATM   24  C20 UNL     1      -5.572   0.553   0.553  1.00  0.00     0.127 C 
HETATM   25  C22 UNL     1      -7.678   0.064   1.667  1.00  0.00     0.013 C 
ENDBRANCH  16  17
ENDBRANCH  15  16
BRANCH  15  26
HETATM   26  O1  UNL     1      -2.093   1.592  -2.423  1.00  0.00    -0.392 OA
ATOM     27  H1  UNL     1      -1.148   1.688  -2.446  1.00  0.00     0.210 HD
ENDBRANCH  15  26
ENDBRANCH  14  15
ENDBRANCH  13  14
ENDBRANCH   1  13
BRANCH   5  28
HETATM   28  N3  UNL     1       4.142  -0.398   0.423  1.00  0.00    -0.370 N 
ATOM     29  H3  UNL     1       3.931  -1.395   0.385  1.00  0.00     0.161 HD
BRANCH  28  30
HETATM   30  C10 UNL     1       5.517  -0.277   0.527  1.00  0.00     0.085 C 
HETATM   31  C11 UNL     1       6.070  -1.622   1.012  1.00  0.00     0.025 C 
HETATM   32  C12 UNL     1       7.565  -1.610   1.098  1.00  0.00     0.004 C 
HETATM   33  C13 UNL     1       8.203  -0.825  -0.027  1.00  0.00     0.032 C 
HETATM   34  C14 UNL     1       7.280  -0.775  -1.202  1.00  0.00     0.120 C 
HETATM   35  C15 UNL     1       6.085   0.061  -0.839  1.00  0.00     0.056 C 
BRANCH  34  36
HETATM   36  O3  UNL     1       6.926  -2.033  -1.686  1.00  0.00    -0.396 OA
ATOM     37  H3  UNL     1       6.339  -2.001  -2.433  1.00  0.00     0.210 HD
ENDBRANCH  34  36
ENDBRANCH  28  30
ENDBRANCH   5  28
TORSDOF 9
