REMARK  8 active torsions:
REMARK  status: ('A' for Active; 'I' for Inactive)
REMARK    1  A    between atoms: C3_5  and  N2_6 
REMARK    2  A    between atoms: C4_11  and  C5_12 
REMARK    3  A    between atoms: C5_12  and  C6_13 
REMARK    4  A    between atoms: C6_13  and  C7_14 
REMARK    5  A    between atoms: C7_14  and  N4_15 
REMARK    6  A    between atoms: C12_20  and  C13_21 
REMARK    7  A    between atoms: C17_26  and  C18_27 
REMARK    8  A    between atoms: C18_27  and  O1_28 
ROOT
HETATM    1  C1  UNL     1      -1.923   4.013   0.300  1.00  0.00     0.070 C 
HETATM    2  C2  UNL     1      -0.489   3.664   0.236  1.00  0.00     0.035 A 
HETATM    3  N1  UNL     1       0.437   4.566  -0.101  1.00  0.00    -0.195 N 
ATOM      4  H1  UNL     1       0.152   5.516  -0.339  1.00  0.00     0.184 HD
HETATM    5  C3  UNL     1       1.729   4.238  -0.130  1.00  0.00     0.676 A 
HETATM    6  N3  UNL     1       2.103   3.004   0.180  1.00  0.00    -0.195 N 
ATOM      7  H3  UNL     1       3.097   2.779   0.151  1.00  0.00     0.184 HD
HETATM    8  C4  UNL     1       1.217   2.007   0.540  1.00  0.00     0.039 A 
HETATM    9  C12 UNL     1      -0.084   2.370   0.559  1.00  0.00     0.023 A 
ENDROOT
BRANCH   9  10
HETATM   10  C13 UNL     1      -1.123   1.458   0.983  1.00  0.00     0.018 A 
HETATM   11  C14 UNL     1      -1.342   1.374   2.369  1.00  0.00     0.034 A 
HETATM   12  C15 UNL     1      -2.309   0.529   2.831  1.00  0.00     0.012 A 
HETATM   13 BR1  UNL     1      -2.650   0.379   4.690  1.00  0.00    -0.051 Br
HETATM   14  C16 UNL     1      -3.047  -0.220   1.945  1.00  0.00     0.032 A 
HETATM   15  C17 UNL     1      -2.851  -0.155   0.584  1.00  0.00     0.017 A 
HETATM   16  C23 UNL     1      -1.861   0.709   0.099  1.00  0.00     0.137 A 
HETATM   17  F1  UNL     1      -1.683   0.789  -1.259  1.00  0.00    -0.204 F 
BRANCH  15  18
HETATM   18  C18 UNL     1      -3.617  -0.946  -0.406  1.00  0.00     0.092 C 
HETATM   19  C19 UNL     1      -4.653  -1.765   0.354  1.00  0.00     0.069 C 
HETATM   20  C20 UNL     1      -5.552  -2.521  -0.599  1.00  0.00     0.171 C 
HETATM   21  O2  UNL     1      -4.837  -3.107  -1.611  1.00  0.00    -0.391 OA
HETATM   22  C21 UNL     1      -3.493  -3.232  -1.372  1.00  0.00     0.171 C 
HETATM   23  C22 UNL     1      -2.785  -1.901  -1.203  1.00  0.00     0.069 C 
BRANCH  18  24
HETATM   24  O1  UNL     1      -4.274  -0.089  -1.305  1.00  0.00    -0.385 OA
ATOM     25  H1  UNL     1      -4.765  -0.596  -1.940  1.00  0.00     0.211 HD
ENDBRANCH  18  24
ENDBRANCH  15  18
ENDBRANCH   9  10
BRANCH   8  26
HETATM   26  C5  UNL     1       1.802   0.684   0.840  1.00  0.00     0.060 C 
BRANCH  26  27
HETATM   27  C6  UNL     1       1.847  -0.186  -0.359  1.00  0.00     0.036 C 
BRANCH  27  28
HETATM   28  C7  UNL     1       2.484  -1.544  -0.047  1.00  0.00     0.272 C 
BRANCH  28  29
HETATM   29  N4  UNL     1       3.813  -1.396   0.445  1.00  0.00     0.088 N 
HETATM   30  C8  UNL     1       4.451  -2.642   0.730  1.00  0.00     0.272 C 
HETATM   31  C9  UNL     1       5.952  -2.315   0.746  1.00  0.00     0.032 C 
HETATM   32  C10 UNL     1       6.046  -1.302  -0.364  1.00  0.00     0.032 C 
HETATM   33  C11 UNL     1       4.706  -0.608  -0.328  1.00  0.00     0.272 C 
ENDBRANCH  28  29
ENDBRANCH  27  28
ENDBRANCH  26  27
ENDBRANCH   8  26
BRANCH   5  34
HETATM   34  N2  UNL     1       2.664   5.086  -0.456  1.00  0.00    -0.234 N 
ATOM     35  H22 UNL     1       2.376   6.035  -0.694  1.00  0.00     0.174 HD
ATOM     36  H21 UNL     1       3.652   4.835  -0.478  1.00  0.00     0.174 HD
ENDBRANCH   5  34
TORSDOF 8
