REMARK  8 active torsions:
REMARK  status: ('A' for Active; 'I' for Inactive)
REMARK    1  A    between atoms: C7_9  and  N1_10 
REMARK    2  A    between atoms: C8_13  and  C9_14 
REMARK    3  A    between atoms: N3_20  and  C15_22 
REMARK    4  A    between atoms: C15_22  and  C16_23 
REMARK    5  A    between atoms: C16_23  and  N4_24 
REMARK    6  A    between atoms: N4_24  and  C17_26 
REMARK    7  A    between atoms: C19_28  and  C20_29 
REMARK    8  A    between atoms: C22_33  and  N6_34 
ROOT
HETATM    1  C1  UNL     1      -6.440  -1.496   0.266  1.00  0.00     0.210 C 
HETATM    2  O1  UNL     1      -5.506  -2.118  -0.411  1.00  0.00    -0.354 OA
HETATM    3  C2  UNL     1      -4.617  -2.744  -1.083  1.00  0.00     0.097 A 
HETATM    4  C3  UNL     1      -4.805  -3.838  -1.863  1.00  0.00     0.042 A 
HETATM    5  C4  UNL     1      -3.795  -4.480  -2.551  1.00  0.00     0.045 A 
HETATM    6  C5  UNL     1      -2.516  -4.001  -2.431  1.00  0.00     0.118 A 
HETATM    7  F1  UNL     1      -1.504  -4.619  -3.063  1.00  0.00    -0.206 F 
HETATM    8  C6  UNL     1      -2.296  -2.912  -1.655  1.00  0.00     0.076 A 
HETATM    9  C7  UNL     1      -3.237  -2.264  -1.001  1.00  0.00     0.094 A 
ENDROOT
BRANCH   9  10
HETATM   10  N1  UNL     1      -3.012  -0.941  -0.503  1.00  0.00    -0.237 N 
HETATM   11  N2  UNL     1      -3.880   0.052  -0.786  1.00  0.00    -0.295 N 
HETATM   12  C8  UNL     1      -3.481   1.229  -0.252  1.00  0.00     0.037 A 
ATOM     13  H2  UNL     1      -4.731  -0.070  -1.334  1.00  0.00     0.187 HD
HETATM   14  C13 UNL     1      -2.299   0.956   0.351  1.00  0.00     0.077 A 
HETATM   15  C14 UNL     1      -2.013  -0.388   0.182  1.00  0.00     0.125 A 
HETATM   16  N3  UNL     1      -0.934  -1.019   0.655  1.00  0.00    -0.373 N 
ATOM     17  H3  UNL     1      -0.785  -2.025   0.581  1.00  0.00     0.161 HD
BRANCH  12  18
HETATM   18  C9  UNL     1      -4.299   2.458  -0.215  1.00  0.00    -0.007 C 
HETATM   19  C10 UNL     1      -5.211   2.503  -1.468  1.00  0.00     0.021 C 
HETATM   20  C11 UNL     1      -3.512   3.692  -0.052  1.00  0.00     0.021 C 
HETATM   21  C12 UNL     1      -5.313   2.324   0.931  1.00  0.00     0.021 C 
ENDBRANCH  12  18
BRANCH  16  22
HETATM   22  C15 UNL     1      -0.005  -0.113   1.281  1.00  0.00     0.141 C 
BRANCH  22  23
HETATM   23  C16 UNL     1       1.116  -0.598   2.086  1.00  0.00     0.141 C 
BRANCH  23  24
HETATM   24  N4  UNL     1       2.247  -1.111   1.282  1.00  0.00    -0.375 N 
ATOM     25  H4  UNL     1       2.315  -2.074   0.953  1.00  0.00     0.161 HD
BRANCH  24  26
HETATM   26  C17 UNL     1       3.189  -0.158   1.028  1.00  0.00     0.101 A 
HETATM   27  C18 UNL     1       4.275  -0.620   0.271  1.00  0.00     0.060 A 
HETATM   28  C19 UNL     1       5.342   0.260   0.038  1.00  0.00    -0.020 A 
HETATM   29  C25 UNL     1       5.119   1.542   0.605  1.00  0.00     0.029 A 
HETATM   30  C26 UNL     1       4.074   1.930   1.325  1.00  0.00     0.090 A 
HETATM   31  N7  UNL     1       3.047   1.028   1.539  1.00  0.00    -0.353 N 
ATOM     32  H7  UNL     1       2.216   1.282   2.074  1.00  0.00     0.166 HD
BRANCH  28  33
HETATM   33  C20 UNL     1       6.639  -0.012  -0.503  1.00  0.00    -0.007 A 
HETATM   34  C21 UNL     1       7.334   0.977  -1.180  1.00  0.00     0.102 A 
HETATM   35  N5  UNL     1       8.643   0.823  -1.451  1.00  0.00    -0.349 N 
HETATM   36  C22 UNL     1       9.298  -0.267  -1.080  1.00  0.00     0.138 A 
ATOM     37  H5  UNL     1       9.140   1.560  -1.952  1.00  0.00     0.167 HD
HETATM   38  C23 UNL     1       8.654  -1.289  -0.435  1.00  0.00     0.160 A 
HETATM   39  F2  UNL     1       9.348  -2.421  -0.113  1.00  0.00    -0.202 F 
HETATM   40  C24 UNL     1       7.345  -1.155  -0.157  1.00  0.00     0.059 A 
BRANCH  36  41
HETATM   41  N6  UNL     1      10.627  -0.346  -1.109  1.00  0.00    -0.383 N 
ATOM     42  H62 UNL     1      11.107   0.415  -1.589  1.00  0.00     0.157 HD
ATOM     43  H61 UNL     1      11.131  -1.185  -0.823  1.00  0.00     0.157 HD
ENDBRANCH  36  41
ENDBRANCH  28  33
ENDBRANCH  24  26
ENDBRANCH  23  24
ENDBRANCH  22  23
ENDBRANCH  16  22
ENDBRANCH   9  10
TORSDOF 8
