REMARK  9 active torsions:
REMARK  status: ('A' for Active; 'I' for Inactive)
REMARK    1  A    between atoms: C5_6  and  O1_7 
REMARK    2  A    between atoms: C7_10  and  O2_11 
REMARK    3  A    between atoms: C9_14  and  O3_16 
REMARK    4  A    between atoms: C11_18  and  C12_19 
REMARK    5  A    between atoms: C12_19  and  C13_20 
REMARK    6  A    between atoms: C13_20  and  C14_21 
REMARK    7  A    between atoms: C14_21  and  C16_23 
REMARK    8  A    between atoms: C17_24  and  C18_25 
REMARK    9  A    between atoms: C19_26  and  C20_27 
ROOT
HETATM    1  C1  UNL     1      -3.813   1.629  -1.818  1.00  0.00     0.016 C 
HETATM    2  C2  UNL     1      -3.515   1.407  -0.578  1.00  0.00    -0.067 C 
HETATM    3  C3  UNL     1      -4.460   1.674   0.515  1.00  0.00     0.093 C 
HETATM    4 BR1  UNL     1      -6.074   2.437  -0.205  1.00  0.00    -0.086 Br
HETATM    5  C4  UNL     1      -4.809   0.349   1.130  1.00  0.00     0.042 C 
HETATM    6  C5  UNL     1      -5.975  -0.207   0.299  1.00  0.00     0.126 C 
HETATM    7  C6  UNL     1      -5.807  -1.685   0.469  1.00  0.00     0.064 C 
HETATM    8  C7  UNL     1      -4.312  -1.861   0.375  1.00  0.00     0.128 C 
HETATM    9  C8  UNL     1      -3.755  -0.659   1.140  1.00  0.00     0.057 C 
HETATM   10  C9  UNL     1      -2.363  -0.310   0.745  1.00  0.00     0.068 C 
HETATM   11  C10 UNL     1      -1.523  -0.086   1.984  1.00  0.00     0.047 C 
HETATM   12  C11 UNL     1      -2.184   0.866  -0.173  1.00  0.00     0.049 C 
ENDROOT
BRANCH  12  13
HETATM   13  C12 UNL     1      -1.403   0.632  -1.405  1.00  0.00     0.013 C 
BRANCH  13  14
HETATM   14  C13 UNL     1      -0.017   0.139  -1.326  1.00  0.00     0.009 C 
BRANCH  14  15
HETATM   15  C14 UNL     1       0.970   1.031  -0.622  1.00  0.00     0.004 C 
HETATM   16  C15 UNL     1       1.088   2.386  -1.290  1.00  0.00     0.014 C 
BRANCH  15  17
HETATM   17  C16 UNL     1       2.309   0.378  -0.796  1.00  0.00    -0.023 C 
HETATM   18  C17 UNL     1       3.037   0.015   0.243  1.00  0.00    -0.004 C 
BRANCH  18  19
HETATM   19  C18 UNL     1       4.326  -0.614   0.142  1.00  0.00    -0.002 C 
HETATM   20  C19 UNL     1       5.023  -0.963   1.205  1.00  0.00     0.008 C 
BRANCH  20  21
HETATM   21  C20 UNL     1       6.344  -1.608   1.109  1.00  0.00     0.179 A 
HETATM   22  O4  UNL     1       7.192  -1.326   2.293  1.00  0.00    -0.366 OA
HETATM   23  C21 UNL     1       7.544  -0.844   0.967  1.00  0.00     0.084 A 
HETATM   24  C22 UNL     1       8.813  -1.468   0.476  1.00  0.00     0.049 C 
HETATM   25  C23 UNL     1       7.511   0.665   0.899  1.00  0.00     0.049 C 
ENDBRANCH  20  21
ENDBRANCH  18  19
ENDBRANCH  15  17
ENDBRANCH  14  15
ENDBRANCH  13  14
ENDBRANCH  12  13
BRANCH  10  26
HETATM   26  O3  UNL     1      -1.860  -1.438   0.099  1.00  0.00    -0.389 OA
ATOM     27  H3  UNL     1      -0.972  -1.215  -0.153  1.00  0.00     0.210 HD
ENDBRANCH  10  26
BRANCH   8  28
HETATM   28  O2  UNL     1      -3.947  -1.895  -0.944  1.00  0.00    -0.395 OA
ATOM     29  H2  UNL     1      -3.005  -2.006  -1.003  1.00  0.00     0.210 HD
ENDBRANCH   8  28
BRANCH   6  30
HETATM   30  O1  UNL     1      -7.191   0.187   0.820  1.00  0.00    -0.395 OA
ATOM     31  H1  UNL     1      -7.912  -0.157   0.306  1.00  0.00     0.210 HD
ENDBRANCH   6  30
TORSDOF 9
