REMARK  8 active torsions:
REMARK  status: ('A' for Active; 'I' for Inactive)
REMARK    1  A    between atoms: C2_2  and  C3_3 
REMARK    2  A    between atoms: C4_4  and  C5_5 
REMARK    3  A    between atoms: C5_5  and  C6_6 
REMARK    4  A    between atoms: C6_6  and  C7_7 
REMARK    5  A    between atoms: C13_17  and  C14_18 
REMARK    6  A    between atoms: C14_18  and  C15_19 
REMARK    7  A    between atoms: C15_19  and  N3_20 
REMARK    8  A    between atoms: C19_24  and  N4_25 
ROOT
HETATM    1  C14 UNL     1       0.058  -0.100  -0.668  1.00  0.00     0.035 C 
ENDROOT
BRANCH   1   2
HETATM    2  C13 UNL     1       1.362   0.692  -0.839  1.00  0.00    -0.012 C 
HETATM    3  C12 UNL     1       1.922   0.499  -2.171  1.00  0.00     0.005 C 
HETATM    4  C11 UNL     1       3.323   0.005  -2.309  1.00  0.00     0.002 C 
HETATM    5  C10 UNL     1       4.293   0.323  -1.237  1.00  0.00     0.017 C 
HETATM    6  C6  UNL     1       3.659   0.998  -0.041  1.00  0.00     0.014 C 
HETATM    7  C25 UNL     1       2.321   0.379   0.265  1.00  0.00     0.021 C 
BRANCH   6   8
HETATM    8  C5  UNL     1       4.617   0.816   1.124  1.00  0.00     0.109 C 
BRANCH   8   9
HETATM    9  C4  UNL     1       4.718  -0.634   1.324  1.00  0.00    -0.105 C 
HETATM   10  C3  UNL     1       4.799  -1.825   1.513  1.00  0.00    -0.107 C 
BRANCH  10  11
HETATM   11  C2  UNL     1       4.876  -3.288   1.769  1.00  0.00     0.089 C 
HETATM   12  C1  UNL     1       5.648  -3.551   3.065  1.00  0.00     0.018 C 
ENDBRANCH  10  11
ENDBRANCH   8   9
ENDBRANCH   6   8
BRANCH   6  13
HETATM   13  C7  UNL     1       3.530   2.454  -0.252  1.00  0.00     0.036 A 
HETATM   14  C8  UNL     1       4.053   3.172  -1.317  1.00  0.00     0.046 A 
HETATM   15  C9  UNL     1       3.708   4.519  -1.134  1.00  0.00     0.109 A 
HETATM   16  N1  UNL     1       3.008   4.572  -0.002  1.00  0.00    -0.312 N 
HETATM   17  N2  UNL     1       2.907   3.361   0.511  1.00  0.00    -0.304 N 
ATOM     18  H1  UNL     1       2.611   5.419   0.405  1.00  0.00     0.186 HD
ATOM     19  H2  UNL     1       2.417   3.143   1.379  1.00  0.00     0.186 HD
ENDBRANCH   6  13
ENDBRANCH   1   2
BRANCH   1  20
HETATM   20  C15 UNL     1      -1.022   0.340  -1.577  1.00  0.00     0.273 C 
BRANCH  20  21
HETATM   21  N3  UNL     1      -2.275  -0.278  -1.516  1.00  0.00     0.090 N 
HETATM   22  C16 UNL     1      -2.540  -1.565  -1.996  1.00  0.00     0.272 C 
HETATM   23  C17 UNL     1      -3.997  -1.517  -2.506  1.00  0.00     0.032 C 
HETATM   24  C18 UNL     1      -4.850  -0.910  -1.444  1.00  0.00     0.029 C 
HETATM   25  C19 UNL     1      -4.183  -0.756  -0.103  1.00  0.00     0.122 C 
HETATM   26  C24 UNL     1      -2.877  -0.109  -0.142  1.00  0.00     0.298 C 
BRANCH  25  27
HETATM   27  N4  UNL     1      -5.078  -0.311   0.902  1.00  0.00    -0.300 N 
HETATM   28  C20 UNL     1      -6.082  -1.124   1.369  1.00  0.00     0.142 A 
HETATM   29  C21 UNL     1      -6.943  -0.767   2.375  1.00  0.00     0.175 A 
HETATM   30  F1  UNL     1      -7.913  -1.670   2.753  1.00  0.00    -0.201 F 
HETATM   31  C22 UNL     1      -6.889   0.402   2.996  1.00  0.00     0.143 A 
HETATM   32  N5  UNL     1      -7.551   0.894   3.969  1.00  0.00    -0.383 N 
HETATM   33  N6  UNL     1      -5.868   1.237   2.523  1.00  0.00    -0.292 N 
ATOM     34  H52 UNL     1      -8.294   0.286   4.313  1.00  0.00     0.157 HD
ATOM     35  H51 UNL     1      -7.509   1.794   4.447  1.00  0.00     0.157 HD
HETATM   36  C23 UNL     1      -5.041   0.894   1.557  1.00  0.00     0.328 A 
ATOM     37  H6  UNL     1      -5.760   2.158   2.949  1.00  0.00     0.172 HD
HETATM   38  O1  UNL     1      -4.180   1.734   1.239  1.00  0.00    -0.246 OA
ENDBRANCH  25  27
ENDBRANCH  20  21
ENDBRANCH   1  20
TORSDOF 8
