REMARK  8 active torsions:
REMARK  status: ('A' for Active; 'I' for Inactive)
REMARK    1  A    between atoms: C2_2  and  C3_3 
REMARK    2  A    between atoms: C2_2  and  C4_6 
REMARK    3  A    between atoms: C3_3  and  O1_4 
REMARK    4  A    between atoms: C15_18  and  C16_19 
REMARK    5  A    between atoms: C16_19  and  O2_20 
REMARK    6  A    between atoms: C19_26  and  N2_27 
REMARK       I    between atoms: N2_27  and  C20_29 
REMARK       I    between atoms: C20_29  and  N3_31 
REMARK    7  A    between atoms: N3_31  and  O4_33 
REMARK    8  A    between atoms: O4_33  and  C21_34 
ROOT
HETATM    1  C4  UNL     1      -2.416  -1.386   0.269  1.00  0.00     0.022 C 
HETATM    2  C5  UNL     1      -1.990  -2.543  -0.782  1.00  0.00     0.010 C 
HETATM    3  C6  UNL     1      -1.722  -1.840  -2.051  1.00  0.00     0.010 C 
HETATM    4  C7  UNL     1      -2.274  -0.472  -1.809  1.00  0.00    -0.038 C 
HETATM    5  C8  UNL     1      -3.793  -0.643  -1.874  1.00  0.00     0.015 C 
HETATM    6  C9  UNL     1      -1.936   0.515  -2.831  1.00  0.00     0.013 C 
HETATM    7  C10 UNL     1      -0.707   1.277  -2.530  1.00  0.00     0.046 C 
HETATM    8  C11 UNL     1      -0.991   1.809  -1.138  1.00  0.00     0.126 C 
HETATM    9  F1  UNL     1      -2.341   2.164  -1.126  1.00  0.00    -0.241 F 
HETATM   10  C12 UNL     1      -0.241   3.065  -0.920  1.00  0.00     0.037 C 
HETATM   11  C13 UNL     1      -1.010   4.098  -0.109  1.00  0.00     0.011 C 
HETATM   12  C14 UNL     1      -0.008   4.615   0.910  1.00  0.00     0.034 C 
HETATM   13  C15 UNL     1       0.751   3.341   1.171  1.00  0.00     0.058 C 
HETATM   14  N1  UNL     1      -0.243   2.426   1.712  1.00  0.00    -0.389 N 
ATOM     15  H1  UNL     1      -0.549   2.631   2.663  1.00  0.00     0.159 HD
HETATM   16  C17 UNL     1      -0.793   1.397   1.170  1.00  0.00     0.076 C 
HETATM   17  C18 UNL     1      -0.762   0.663  -0.113  1.00  0.00     0.075 C 
HETATM   18  C19 UNL     1       0.656   0.375  -0.180  1.00  0.00     0.028 C 
HETATM   19  C23 UNL     1       1.476   1.484  -0.256  1.00  0.00     0.007 C 
HETATM   20  C24 UNL     1       1.046   2.877  -0.265  1.00  0.00     0.047 C 
HETATM   21  C25 UNL     1      -1.850  -0.231  -0.370  1.00  0.00     0.025 C 
ENDROOT
BRANCH  18  22
HETATM   22  N2  UNL     1       1.486  -0.696   0.075  1.00  0.00    -0.310 N 
HETATM   23  C20 UNL     1       2.032  -1.891  -0.300  1.00  0.00     0.344 C 
HETATM   24  O3  UNL     1       1.912  -2.659  -1.210  1.00  0.00    -0.245 OA
HETATM   25  N3  UNL     1       3.053  -2.309   0.744  1.00  0.00    -0.216 N 
ATOM     26  H3  UNL     1       3.242  -1.755   1.579  1.00  0.00     0.199 HD
ATOM     27  H2  UNL     1       1.890  -0.501   0.991  1.00  0.00     0.170 HD
BRANCH  25  28
HETATM   28  O4  UNL     1       3.722  -3.524   0.471  1.00  0.00    -0.277 OA
BRANCH  28  29
HETATM   29  C21 UNL     1       4.939  -2.968  -0.151  1.00  0.00     0.197 C 
HETATM   30  C22 UNL     1       6.050  -3.457   0.714  1.00  0.00     0.036 C 
ENDBRANCH  28  29
ENDBRANCH  25  28
ENDBRANCH  18  22
BRANCH   1  31
HETATM   31  C2  UNL     1      -2.187  -1.990   1.536  1.00  0.00    -0.061 C 
HETATM   32  C1  UNL     1      -2.918  -1.650   2.623  1.00  0.00     0.017 C 
BRANCH  31  33
HETATM   33  C3  UNL     1      -1.352  -3.181   1.763  1.00  0.00     0.198 C 
BRANCH  33  34
HETATM   34  O1  UNL     1      -1.484  -3.735   3.044  1.00  0.00    -0.397 OA
ATOM     35  H1  UNL     1      -0.945  -4.504   3.190  1.00  0.00     0.209 HD
ENDBRANCH  33  34
ENDBRANCH  31  33
ENDBRANCH   1  31
BRANCH  13  36
HETATM   36  C16 UNL     1       1.924   3.453   2.016  1.00  0.00     0.195 C 
BRANCH  36  37
HETATM   37  O2  UNL     1       2.833   4.357   1.498  1.00  0.00    -0.398 OA
ATOM     38  H2  UNL     1       3.602   4.430   2.052  1.00  0.00     0.209 HD
ENDBRANCH  36  37
ENDBRANCH  13  36
TORSDOF 8
