REMARK  7 active torsions:
REMARK  status: ('A' for Active; 'I' for Inactive)
REMARK    1  A    between atoms: N1_1  and  C1_4 
REMARK    2  A    between atoms: N4_14  and  C7_15 
REMARK    3  A    between atoms: C7_15  and  C8_16 
REMARK    4  A    between atoms: N5_27  and  O1_29 
REMARK    5  A    between atoms: O1_29  and  C17_30 
REMARK    6  A    between atoms: C17_30  and  C18_31 
REMARK    7  A    between atoms: C21_35  and  O2_36 
ROOT
HETATM    1  C1  UNL     1      -2.196   2.992  -2.200  1.00  0.00     0.123 A 
HETATM    2  N2  UNL     1      -1.869   4.277  -2.144  1.00  0.00    -0.285 N 
ATOM      3  H2  UNL     1      -2.382   5.033  -2.597  1.00  0.00     0.188 HD
HETATM    4  N3  UNL     1      -0.795   4.427  -1.424  1.00  0.00    -0.299 N 
ATOM      5  H3  UNL     1      -0.345   5.322  -1.230  1.00  0.00     0.186 HD
HETATM    6  C2  UNL     1      -0.361   3.233  -0.971  1.00  0.00     0.076 A 
HETATM    7  C3  UNL     1      -1.268   2.286  -1.469  1.00  0.00     0.029 A 
HETATM    8  C4  UNL     1      -0.811   0.994  -1.011  1.00  0.00     0.040 C 
HETATM    9  C5  UNL     1      -1.023  -0.136  -1.975  1.00  0.00     0.051 C 
HETATM   10  C6  UNL     1      -2.357  -0.763  -1.902  1.00  0.00     0.274 C 
HETATM   11  N4  UNL     1      -3.245  -0.489  -0.842  1.00  0.00     0.092 N 
HETATM   12  C14 UNL     1      -2.735   0.094   0.335  1.00  0.00     0.274 C 
HETATM   13  C15 UNL     1      -1.333   0.500   0.339  1.00  0.00     0.051 C 
HETATM   14  C16 UNL     1       0.635   1.165  -0.754  1.00  0.00     0.063 C 
HETATM   15  N5  UNL     1       1.625   0.494  -0.867  1.00  0.00    -0.270 N 
ATOM     16  H5  UNL     1       2.377   1.109  -0.555  1.00  0.00     0.194 HD
HETATM   17  C23 UNL     1       0.696   2.560  -0.149  1.00  0.00     0.270 C 
HETATM   18  F1  UNL     1       1.883   3.212  -0.486  1.00  0.00    -0.236 F 
ENDROOT
BRANCH   1  19
HETATM   19  N1  UNL     1      -3.236   2.465  -2.807  1.00  0.00    -0.384 N 
ATOM     20  H12 UNL     1      -3.924   2.988  -3.349  1.00  0.00     0.157 HD
ATOM     21  H11 UNL     1      -3.487   1.477  -2.850  1.00  0.00     0.157 HD
ENDBRANCH   1  19
BRANCH  15  22
HETATM   22  O1  UNL     1       2.235  -0.615  -1.183  1.00  0.00    -0.275 OA
BRANCH  22  23
HETATM   23  C17 UNL     1       3.055  -1.225  -0.098  1.00  0.00     0.245 C 
BRANCH  23  24
HETATM   24  C18 UNL     1       4.276  -0.278  -0.184  1.00  0.00     0.086 C 
HETATM   25  N6  UNL     1       5.349  -0.491   0.591  1.00  0.00    -0.389 N 
HETATM   26  C19 UNL     1       5.574  -0.413   1.926  1.00  0.00     0.124 C 
HETATM   27  C22 UNL     1       6.168  -1.623   0.110  1.00  0.00     0.153 C 
HETATM   28  C20 UNL     1       7.087  -0.680   2.037  1.00  0.00     0.053 C 
HETATM   29  C21 UNL     1       7.509  -1.221   0.661  1.00  0.00     0.137 C 
BRANCH  29  30
HETATM   30  O2  UNL     1       8.289  -2.344   0.713  1.00  0.00    -0.394 OA
ATOM     31  H2  UNL     1       8.550  -2.678  -0.137  1.00  0.00     0.210 HD
ENDBRANCH  29  30
ENDBRANCH  23  24
ENDBRANCH  22  23
ENDBRANCH  15  22
BRANCH  11  32
HETATM   32  C7  UNL     1      -4.082  -1.666  -0.527  1.00  0.00     0.311 C 
BRANCH  32  33
HETATM   33  C8  UNL     1      -5.082  -1.424   0.533  1.00  0.00    -0.027 A 
HETATM   34  C9  UNL     1      -5.656  -0.226   0.816  1.00  0.00     0.032 A 
HETATM   35  C10 UNL     1      -6.598  -0.123   1.834  1.00  0.00     0.036 A 
HETATM   36 CL1  UNL     1      -7.284   1.412   2.222  1.00  0.00    -0.084 Cl
HETATM   37  C11 UNL     1      -6.936  -1.248   2.549  1.00  0.00     0.047 A 
HETATM   38  C12 UNL     1      -6.359  -2.460   2.256  1.00  0.00     0.036 A 
HETATM   39 CL2  UNL     1      -6.881  -3.858   3.202  1.00  0.00    -0.084 Cl
HETATM   40  C13 UNL     1      -5.438  -2.577   1.264  1.00  0.00     0.032 A 
ENDBRANCH  32  33
ENDBRANCH  11  32
TORSDOF 7
