REMARK  10 active torsions:
REMARK  status: ('A' for Active; 'I' for Inactive)
REMARK    1  A    between atoms: C2_2  and  N1_3 
REMARK       I    between atoms: N1_3  and  C3_5 
REMARK    2  A    between atoms: C3_5  and  C4_7 
REMARK    3  A    between atoms: C13_16  and  O2_17 
REMARK    4  A    between atoms: O2_17  and  C14_18 
REMARK    5  A    between atoms: C14_18  and  C15_19 
REMARK    6  A    between atoms: C15_19  and  N2_20 
REMARK    7  A    between atoms: C15_19  and  C16_24 
REMARK    8  A    between atoms: C16_24  and  O3_25 
REMARK    9  A    between atoms: C16_24  and  O4_27 
REMARK   10  A    between atoms: C17_29  and  C18_30 
ROOT
HETATM    1  C4  UNL     1      -4.377  -0.179  -0.656  1.00  0.00     0.086 C 
HETATM    2  C5  UNL     1      -4.508  -1.591  -0.177  1.00  0.00     0.015 C 
HETATM    3  C6  UNL     1      -3.172  -2.199  -0.618  1.00  0.00     0.007 C 
HETATM    4  C7  UNL     1      -2.334  -1.102  -1.101  1.00  0.00    -0.001 C 
HETATM    5  C8  UNL     1      -0.878  -1.117  -0.892  1.00  0.00     0.003 C 
HETATM    6  C9  UNL     1      -0.183  -2.198  -1.720  1.00  0.00     0.010 C 
HETATM    7  C10 UNL     1       1.257  -1.861  -1.803  1.00  0.00     0.039 C 
HETATM    8  C11 UNL     1       1.774  -1.086  -0.671  1.00  0.00    -0.048 A 
HETATM    9  C12 UNL     1       3.122  -0.723  -0.720  1.00  0.00     0.045 A 
HETATM   10  C13 UNL     1       3.748   0.001   0.265  1.00  0.00     0.084 A 
HETATM   11  C17 UNL     1       3.032   0.403   1.371  1.00  0.00     0.081 A 
HETATM   12  C19 UNL     1       1.685   0.046   1.430  1.00  0.00     0.027 A 
HETATM   13  C20 UNL     1       1.076  -0.680   0.432  1.00  0.00    -0.042 A 
HETATM   14  C21 UNL     1      -0.371  -1.061   0.502  1.00  0.00    -0.012 C 
HETATM   15  C22 UNL     1      -0.378  -2.401   1.222  1.00  0.00     0.021 C 
HETATM   16  C23 UNL     1      -1.137  -0.113   1.372  1.00  0.00     0.015 C 
HETATM   17  C24 UNL     1      -2.539   0.170   1.043  1.00  0.00     0.011 C 
HETATM   18  C25 UNL     1      -2.919   0.104  -0.395  1.00  0.00    -0.028 C 
HETATM   19  C26 UNL     1      -2.474   1.339  -1.145  1.00  0.00     0.016 C 
ENDROOT
BRANCH  10  20
HETATM   20  O2  UNL     1       5.086   0.352   0.199  1.00  0.00    -0.348 OA
BRANCH  20  21
HETATM   21  C14 UNL     1       5.923  -0.001  -0.880  1.00  0.00     0.213 C 
BRANCH  21  22
HETATM   22  C15 UNL     1       7.335   0.504  -0.701  1.00  0.00     0.262 C 
BRANCH  22  23
HETATM   23  N2  UNL     1       7.963  -0.018   0.498  1.00  0.00    -0.068 N 
ATOM     24  H23 UNL     1       7.396   0.176   1.324  1.00  0.00     0.275 HD
ATOM     25  H22 UNL     1       7.933  -1.037   0.514  1.00  0.00     0.275 HD
ATOM     26  H21 UNL     1       8.917   0.323   0.619  1.00  0.00     0.275 HD
ENDBRANCH  22  23
BRANCH  22  27
HETATM   27  C16 UNL     1       7.460   1.989  -0.840  1.00  0.00     0.286 C 
BRANCH  27  28
HETATM   28  O3  UNL     1       6.888   2.678   0.207  1.00  0.00    -0.369 OA
ATOM     29  H3  UNL     1       6.967   3.621   0.119  1.00  0.00     0.212 HD
ENDBRANCH  27  28
BRANCH  27  30
HETATM   30  O4  UNL     1       6.886   2.334  -2.074  1.00  0.00    -0.369 OA
ATOM     31  H4  UNL     1       6.965   3.277  -2.162  1.00  0.00     0.212 HD
ENDBRANCH  27  30
ENDBRANCH  22  27
ENDBRANCH  21  22
ENDBRANCH  20  21
ENDBRANCH  10  20
BRANCH  11  32
HETATM   32  C18 UNL     1       3.646   1.189   2.470  1.00  0.00     0.420 C 
HETATM   33  F1  UNL     1       4.701   0.523   3.068  1.00  0.00    -0.166 F 
HETATM   34  F2  UNL     1       4.042   2.444   2.089  1.00  0.00    -0.166 F 
HETATM   35  F3  UNL     1       2.689   1.372   3.466  1.00  0.00    -0.166 F 
ENDBRANCH  11  32
BRANCH   1  36
HETATM   36  C3  UNL     1      -5.323   0.772  -0.138  1.00  0.00     0.222 C 
HETATM   37  N1  UNL     1      -6.712   0.588  -0.332  1.00  0.00    -0.361 N 
ATOM     38  H1  UNL     1      -7.038  -0.231  -0.845  1.00  0.00     0.162 HD
HETATM   39  O1  UNL     1      -4.962   1.788   0.495  1.00  0.00    -0.273 OA
BRANCH  37  40
HETATM   40  C2  UNL     1      -7.697   1.545   0.186  1.00  0.00     0.118 C 
HETATM   41  C1  UNL     1      -7.628   1.682   1.675  1.00  0.00     0.026 C 
ENDBRANCH  37  40
ENDBRANCH   1  36
TORSDOF 10
