REMARK  9 active torsions:
REMARK  status: ('A' for Active; 'I' for Inactive)
REMARK    1  A    between atoms: N1_7  and  C7_8 
REMARK    2  A    between atoms: N2_11  and  C10_12 
REMARK    3  A    between atoms: C11_15  and  N4_16 
REMARK    4  A    between atoms: N4_16  and  C12_18 
REMARK    5  A    between atoms: C14_20  and  C15_21 
REMARK    6  A    between atoms: C19_29  and  N7_30 
REMARK    7  A    between atoms: N7_30  and  C20_32 
REMARK    8  A    between atoms: C20_32  and  C21_33 
REMARK    9  A    between atoms: C21_33  and  C22_34 
ROOT
HETATM    1  C10 UNL     1       1.026   0.726  -0.078  1.00  0.00     0.683 A 
HETATM    2  N3  UNL     1       2.100   0.019  -0.412  1.00  0.00    -0.176 N 
ATOM      3  H3  UNL     1       1.970  -0.952  -0.695  1.00  0.00     0.186 HD
HETATM    4  C11 UNL     1       3.349   0.516  -0.397  1.00  0.00     0.126 A 
HETATM    5  C18 UNL     1       3.485   1.837  -0.010  1.00  0.00     0.097 A 
HETATM    6  C19 UNL     1       2.392   2.594   0.341  1.00  0.00     0.120 A 
HETATM    7  N8  UNL     1       1.163   2.000   0.294  1.00  0.00    -0.177 N 
ATOM      8  H8  UNL     1       0.336   2.540   0.548  1.00  0.00     0.185 HD
ENDROOT
BRANCH   1   9
HETATM    9  N2  UNL     1      -0.262   0.097  -0.116  1.00  0.00    -0.217 N 
HETATM   10  C9  UNL     1      -0.928  -0.110   1.143  1.00  0.00     0.143 C 
HETATM   11  C8  UNL     1      -2.387   0.236   0.977  1.00  0.00     0.047 C 
HETATM   12  C7  UNL     1      -3.008  -0.635  -0.124  1.00  0.00     0.106 C 
HETATM   13  C24 UNL     1      -2.322  -0.362  -1.438  1.00  0.00     0.047 C 
HETATM   14  C23 UNL     1      -0.845  -0.342  -1.342  1.00  0.00     0.143 C 
BRANCH  12  15
HETATM   15  N1  UNL     1      -4.354  -0.489  -0.169  1.00  0.00    -0.313 N 
HETATM   16  C6  UNL     1      -4.871   0.876  -0.515  1.00  0.00     0.222 C 
HETATM   17  C5  UNL     1      -6.259   0.811  -0.240  1.00  0.00    -0.162 C 
HETATM   18  C4  UNL     1      -7.622   0.595   0.005  1.00  0.00     0.087 C 
HETATM   19  C3  UNL     1      -7.749  -0.863   0.569  1.00  0.00     0.065 C 
HETATM   20  C2  UNL     1      -6.475  -1.664   0.369  1.00  0.00     0.000 C 
HETATM   21  C1  UNL     1      -6.618  -2.648  -0.808  1.00  0.00     0.065 C 
HETATM   22  N9  UNL     1      -5.212  -1.217   0.560  1.00  0.00    -0.310 N 
ATOM     23  H9  UNL     1      -4.826  -1.497   1.462  1.00  0.00     0.186 HD
ENDBRANCH  12  15
ENDBRANCH   1   9
BRANCH   4  24
HETATM   24  N4  UNL     1       4.490  -0.229  -0.758  1.00  0.00    -0.327 N 
ATOM     25  H4  UNL     1       5.174   0.220  -1.367  1.00  0.00     0.169 HD
BRANCH  24  26
HETATM   26  C12 UNL     1       4.731  -1.425  -0.379  1.00  0.00     0.123 A 
HETATM   27  C13 UNL     1       5.836  -2.155  -0.724  1.00  0.00     0.076 A 
HETATM   28  C14 UNL     1       5.763  -3.398  -0.136  1.00  0.00     0.033 A 
HETATM   29  N5  UNL     1       4.611  -3.392   0.554  1.00  0.00    -0.303 N 
HETATM   30  N6  UNL     1       4.003  -2.227   0.410  1.00  0.00    -0.285 N 
ATOM     31  H5  UNL     1       4.257  -4.172   1.108  1.00  0.00     0.186 HD
ATOM     32  H6  UNL     1       3.111  -1.976   0.837  1.00  0.00     0.188 HD
BRANCH  28  33
HETATM   33  C15 UNL     1       6.761  -4.514  -0.241  1.00  0.00     0.037 A 
HETATM   34  C16 UNL     1       8.216  -4.136  -0.010  1.00  0.00     0.011 A 
HETATM   35  C17 UNL     1       7.712  -4.543  -1.365  1.00  0.00     0.011 A 
ENDBRANCH  28  33
ENDBRANCH  24  26
ENDBRANCH   4  24
BRANCH   6  36
HETATM   36  N7  UNL     1       2.478   3.822   0.709  1.00  0.00    -0.376 N 
ATOM     37  H7  UNL     1       1.626   4.326   0.955  1.00  0.00     0.161 HD
BRANCH  36  38
HETATM   38  C20 UNL     1       3.749   4.511   0.785  1.00  0.00     0.130 C 
BRANCH  38  39
HETATM   39  C21 UNL     1       3.521   6.014   0.815  1.00  0.00     0.137 C 
BRANCH  39  40
HETATM   40  C22 UNL     1       2.796   6.446  -0.450  1.00  0.00     0.389 C 
HETATM   41  F1  UNL     1       3.595   6.102  -1.546  1.00  0.00    -0.171 F 
HETATM   42  F2  UNL     1       1.587   5.809  -0.538  1.00  0.00    -0.171 F 
HETATM   43  F3  UNL     1       2.647   7.821  -0.407  1.00  0.00    -0.171 F 
ENDBRANCH  39  40
ENDBRANCH  38  39
ENDBRANCH  36  38
ENDBRANCH   6  36
TORSDOF 9
