REMARK  13 active torsions:
REMARK  status: ('A' for Active; 'I' for Inactive)
REMARK    1  A    between atoms: C2_2  and  O1_3 
REMARK    2  A    between atoms: C2_2  and  C3_5 
REMARK    3  A    between atoms: C3_5  and  O2_6 
REMARK    4  A    between atoms: C3_5  and  C4_8 
REMARK    5  A    between atoms: C4_8  and  O3_9 
REMARK    6  A    between atoms: C4_8  and  C5_11 
REMARK    7  A    between atoms: C5_11  and  O4_12 
REMARK    8  A    between atoms: C5_11  and  C6_14 
REMARK    9  A    between atoms: C6_14  and  C8_16 
REMARK   10  A    between atoms: C6_14  and  C22_33 
REMARK   11  A    between atoms: C9_17  and  C10_18 
REMARK   12  A    between atoms: C15_24  and  O5_25 
REMARK   13  A    between atoms: O5_25  and  C16_26 
ROOT
HETATM    1  C6  UNL     1      -1.430   0.820  -0.880  1.00  0.00     0.051 C 
HETATM    2  C7  UNL     1      -2.231   2.022  -0.441  1.00  0.00     0.032 C 
ENDROOT
BRANCH   1   3
HETATM    3  C5  UNL     1      -1.687  -0.430  -0.198  1.00  0.00     0.170 C 
BRANCH   3   4
HETATM    4  C4  UNL     1      -2.986  -1.115  -0.119  1.00  0.00     0.179 C 
BRANCH   4   5
HETATM    5  C3  UNL     1      -3.969  -0.474   0.850  1.00  0.00     0.177 C 
BRANCH   5   6
HETATM    6  C2  UNL     1      -5.012  -1.446   1.339  1.00  0.00     0.145 C 
HETATM    7  C1  UNL     1      -5.855  -0.708   2.363  1.00  0.00     0.042 C 
BRANCH   6   8
HETATM    8  O1  UNL     1      -4.405  -2.499   2.040  1.00  0.00    -0.393 OA
ATOM      9  H1  UNL     1      -3.877  -2.961   1.399  1.00  0.00     0.210 HD
ENDBRANCH   6   8
ENDBRANCH   5   6
BRANCH   5  10
HETATM   10  O2  UNL     1      -3.320  -0.001   1.992  1.00  0.00    -0.390 OA
ATOM     11  H2  UNL     1      -2.663   0.612   1.684  1.00  0.00     0.210 HD
ENDBRANCH   5  10
ENDBRANCH   4   5
BRANCH   4  12
HETATM   12  O3  UNL     1      -3.553  -1.609  -1.241  1.00  0.00    -0.390 OA
ATOM     13  H3  UNL     1      -2.939  -2.009  -1.846  1.00  0.00     0.210 HD
ENDBRANCH   4  12
ENDBRANCH   3   4
BRANCH   3  14
HETATM   14  O4  UNL     1      -0.758  -1.378  -0.740  1.00  0.00    -0.391 OA
ATOM     15  H4  UNL     1       0.081  -0.936  -0.791  1.00  0.00     0.210 HD
ENDBRANCH   3  14
ENDBRANCH   1   3
BRANCH   1  16
HETATM   16  C8  UNL     1      -0.032   1.207  -0.368  1.00  0.00    -0.088 C 
HETATM   17  C9  UNL     1       1.072   1.496   0.032  1.00  0.00    -0.063 C 
BRANCH  17  18
HETATM   18  C10 UNL     1       2.381   1.856   0.489  1.00  0.00     0.052 A 
HETATM   19  C11 UNL     1       2.702   3.146   0.859  1.00  0.00     0.042 A 
HETATM   20  C12 UNL     1       3.957   3.507   1.301  1.00  0.00     0.012 A 
HETATM   21 BR1  UNL     1       4.364   5.300   1.804  1.00  0.00    -0.051 Br
HETATM   22  C13 UNL     1       4.927   2.557   1.378  1.00  0.00     0.022 A 
HETATM   23  C14 UNL     1       4.634   1.264   1.015  1.00  0.00     0.040 A 
HETATM   24  C15 UNL     1       3.373   0.901   0.571  1.00  0.00     0.095 A 
BRANCH  24  25
HETATM   25  O5  UNL     1       3.107  -0.429   0.208  1.00  0.00    -0.309 OA
BRANCH  25  26
HETATM   26  C16 UNL     1       4.119  -1.364   0.301  1.00  0.00     0.076 A 
HETATM   27  C17 UNL     1       4.389  -2.127   1.416  1.00  0.00     0.040 A 
HETATM   28  C18 UNL     1       5.425  -3.050   1.437  1.00  0.00     0.045 A 
HETATM   29  C19 UNL     1       6.222  -3.230   0.328  1.00  0.00     0.116 A 
HETATM   30  F1  UNL     1       7.244  -4.123   0.310  1.00  0.00    -0.206 F 
HETATM   31  C20 UNL     1       5.962  -2.476  -0.789  1.00  0.00     0.045 A 
HETATM   32  C21 UNL     1       4.935  -1.570  -0.789  1.00  0.00     0.040 A 
ENDBRANCH  25  26
ENDBRANCH  24  25
ENDBRANCH  17  18
ENDBRANCH   1  16
BRANCH   1  33
HETATM   33  C22 UNL     1      -1.235   0.836  -2.342  1.00  0.00     0.000 C 
HETATM   34  C23 UNL     1      -0.947   2.262  -2.851  1.00  0.00     0.011 C 
HETATM   35  C24 UNL     1      -2.260   0.288  -3.246  1.00  0.00     0.011 C 
ENDBRANCH   1  33
TORSDOF 13
