REMARK  10 active torsions:
REMARK  status: ('A' for Active; 'I' for Inactive)
REMARK    1  A    between atoms: C4_4  and  O1_5 
REMARK    2  A    between atoms: C8_10  and  C9_11 
REMARK    3  A    between atoms: C9_11  and  C10_12 
REMARK    4  A    between atoms: C11_13  and  C12_14 
REMARK    5  A    between atoms: C13_15  and  C14_16 
REMARK    6  A    between atoms: C14_16  and  C16_18 
REMARK    7  A    between atoms: C16_18  and  C17_19 
REMARK    8  A    between atoms: C18_20  and  O2_21 
REMARK    9  A    between atoms: C22_27  and  O3_28 
REMARK   10  A    between atoms: C26_35  and  O6_36 
ROOT
HETATM    1  C12 UNL     1       0.108  -1.393  -1.136  1.00  0.00     0.025 C 
HETATM    2  C13 UNL     1       0.854  -1.811   0.108  1.00  0.00     0.027 C 
HETATM    3  C26 UNL     1       0.881  -3.221  -0.557  1.00  0.00     0.131 C 
HETATM    4  C27 UNL     1      -0.490  -2.780  -1.168  1.00  0.00    -0.014 C 
HETATM    5  C28 UNL     1      -0.768  -3.331  -2.520  1.00  0.00     0.018 C 
HETATM    6  C29 UNL     1      -1.522  -3.090  -0.097  1.00  0.00     0.018 C 
ENDROOT
BRANCH   2   7
HETATM    7  C14 UNL     1       2.290  -1.321   0.206  1.00  0.00    -0.007 C 
HETATM    8  C15 UNL     1       2.879  -1.827   1.477  1.00  0.00     0.011 C 
BRANCH   7   9
HETATM    9  C16 UNL     1       2.394   0.149  -0.046  1.00  0.00     0.052 C 
BRANCH   9  10
HETATM   10  C17 UNL     1       3.760   0.672   0.052  1.00  0.00     0.052 A 
HETATM   11  C18 UNL     1       4.307   1.074   1.244  1.00  0.00     0.091 A 
HETATM   12  C19 UNL     1       5.640   1.485   1.250  1.00  0.00     0.035 A 
HETATM   13  C20 UNL     1       6.268   1.903   2.411  1.00  0.00     0.062 A 
HETATM   14  C24 UNL     1       6.315   1.459   0.054  1.00  0.00     0.095 A 
HETATM   15  C21 UNL     1       7.582   2.310   2.433  1.00  0.00     0.150 A 
HETATM   16  F1  UNL     1       8.212   2.723   3.563  1.00  0.00    -0.203 F 
HETATM   17  C22 UNL     1       8.262   2.287   1.235  1.00  0.00     0.106 A 
HETATM   18  C23 UNL     1       7.648   1.873   0.074  1.00  0.00     0.078 A 
HETATM   19  O4  UNL     1       5.741   1.067  -1.058  1.00  0.00    -0.274 OA
HETATM   20  C25 UNL     1       4.502   0.671  -1.133  1.00  0.00     0.297 A 
HETATM   21  O5  UNL     1       3.980   0.300  -2.217  1.00  0.00    -0.259 OA
BRANCH  11  22
HETATM   22  O2  UNL     1       3.657   1.120   2.445  1.00  0.00    -0.359 OA
ATOM     23  H2  UNL     1       4.036   1.398   3.271  1.00  0.00     0.217 HD
ENDBRANCH  11  22
BRANCH  17  24
HETATM   24  O3  UNL     1       9.604   2.687   1.172  1.00  0.00    -0.358 OA
ATOM     25  H3  UNL     1      10.073   2.671   0.346  1.00  0.00     0.217 HD
ENDBRANCH  17  24
ENDBRANCH   9  10
ENDBRANCH   7   9
ENDBRANCH   2   7
BRANCH   1  26
HETATM   26  C11 UNL     1      -0.825  -0.302  -1.117  1.00  0.00    -0.025 C 
HETATM   27  C10 UNL     1      -2.147  -0.295  -1.180  1.00  0.00    -0.029 C 
BRANCH  27  28
HETATM   28  C9  UNL     1      -2.904   1.006  -1.135  1.00  0.00     0.036 C 
BRANCH  28  29
HETATM   29  C8  UNL     1      -3.854   1.049   0.026  1.00  0.00     0.021 C 
HETATM   30  C2  UNL     1      -4.555   2.358  -0.011  1.00  0.00    -0.082 C 
HETATM   31  C1  UNL     1      -3.880   3.458  -0.200  1.00  0.00     0.015 C 
HETATM   32  C3  UNL     1      -6.040   2.438   0.171  1.00  0.00     0.065 C 
HETATM   33  C4  UNL     1      -6.355   1.493   1.311  1.00  0.00     0.122 C 
HETATM   34  C5  UNL     1      -6.030   0.104   0.917  1.00  0.00     0.037 C 
HETATM   35  C6  UNL     1      -4.829  -0.097   0.041  1.00  0.00    -0.008 C 
HETATM   36  C7  UNL     1      -5.286  -0.541  -1.311  1.00  0.00     0.011 C 
BRANCH  33  37
HETATM   37  O1  UNL     1      -5.679   1.927   2.448  1.00  0.00    -0.395 OA
ATOM     38  H1  UNL     1      -5.877   1.334   3.163  1.00  0.00     0.210 HD
ENDBRANCH  33  37
ENDBRANCH  28  29
ENDBRANCH  27  28
ENDBRANCH   1  26
BRANCH   3  39
HETATM   39  O6  UNL     1       1.811  -3.297  -1.553  1.00  0.00    -0.394 OA
ATOM     40  H6  UNL     1       1.827  -4.156  -1.958  1.00  0.00     0.210 HD
ENDBRANCH   3  39
TORSDOF 10
