REMARK  8 active torsions:
REMARK  status: ('A' for Active; 'I' for Inactive)
REMARK    1  A    between atoms: C2_2  and  O1_3 
REMARK    2  A    between atoms: O1_3  and  N1_4 
REMARK    3  A    between atoms: C3_6  and  C5_8 
REMARK    4  A    between atoms: C9_16  and  O2_17 
REMARK    5  A    between atoms: C14_24  and  C15_25 
REMARK    6  A    between atoms: N4_28  and  C18_29 
REMARK    7  A    between atoms: C18_29  and  C19_30 
REMARK    8  A    between atoms: C24_35  and  O3_36 
ROOT
HETATM    1  C5  UNL     1       2.601  -0.270  -0.415  1.00  0.00     0.092 A 
HETATM    2  N2  UNL     1       3.174   0.884  -0.053  1.00  0.00    -0.338 N 
ATOM      3  H2  UNL     1       4.173   0.890   0.152  1.00  0.00     0.167 HD
HETATM    4  C6  UNL     1       2.496   2.022   0.050  1.00  0.00     0.118 A 
HETATM    5  N3  UNL     1       2.894   3.288   0.360  1.00  0.00    -0.341 N 
ATOM      6  H3  UNL     1       3.838   3.581   0.612  1.00  0.00     0.167 HD
HETATM    7  C7  UNL     1       1.823   4.068   0.272  1.00  0.00     0.047 A 
HETATM    8  C8  UNL     1       1.681   5.441   0.450  1.00  0.00     0.068 A 
HETATM    9  C9  UNL     1       0.480   6.062   0.267  1.00  0.00     0.085 A 
HETATM   10  C10 UNL     1      -0.588   5.311  -0.097  1.00  0.00     0.045 A 
HETATM   11 BR1  UNL     1      -2.275   6.179  -0.358  1.00  0.00    -0.048 Br
HETATM   12  C11 UNL     1      -0.508   3.935  -0.288  1.00  0.00     0.036 A 
HETATM   13  C12 UNL     1       0.702   3.332  -0.094  1.00  0.00     0.007 A 
HETATM   14  C13 UNL     1       1.143   2.028  -0.224  1.00  0.00     0.034 A 
HETATM   15  C14 UNL     1       0.479   0.862  -0.601  1.00  0.00     0.020 A 
HETATM   16  C24 UNL     1       1.256  -0.323  -0.697  1.00  0.00     0.106 A 
ENDROOT
BRANCH  15  17
HETATM   17  C15 UNL     1      -0.942   0.690  -0.642  1.00  0.00    -0.044 C 
HETATM   18  C16 UNL     1      -1.636   0.107  -1.609  1.00  0.00     0.011 C 
HETATM   19  C17 UNL     1      -3.113  -0.011  -1.522  1.00  0.00     0.300 C 
HETATM   20  N4  UNL     1      -3.594  -0.402  -0.249  1.00  0.00     0.092 N 
HETATM   21  C22 UNL     1      -2.640  -0.312   0.818  1.00  0.00     0.277 C 
HETATM   22  C23 UNL     1      -1.803   0.956   0.579  1.00  0.00     0.069 C 
BRANCH  20  23
HETATM   23  C18 UNL     1      -4.151  -1.740  -0.278  1.00  0.00     0.276 C 
BRANCH  23  24
HETATM   24  C19 UNL     1      -4.631  -2.066   1.118  1.00  0.00     0.006 C 
HETATM   25  C20 UNL     1      -5.682  -1.038   1.486  1.00  0.00     0.011 C 
HETATM   26  C21 UNL     1      -5.242  -3.460   1.164  1.00  0.00     0.011 C 
ENDBRANCH  23  24
ENDBRANCH  20  23
ENDBRANCH  15  17
BRANCH  16  27
HETATM   27  O3  UNL     1       0.705  -1.482  -1.051  1.00  0.00    -0.357 OA
ATOM     28  H3  UNL     1      -0.224  -1.519  -1.246  1.00  0.00     0.217 HD
ENDBRANCH  16  27
BRANCH   1  29
HETATM   29  C3  UNL     1       3.452  -1.463  -0.503  1.00  0.00     0.058 C 
HETATM   30  N1  UNL     1       4.711  -1.343  -0.223  1.00  0.00    -0.269 N 
ATOM     31  H1  UNL     1       5.055  -0.422   0.049  1.00  0.00     0.194 HD
HETATM   32  C4  UNL     1       2.916  -2.758  -0.895  1.00  0.00     0.072 C 
BRANCH  30  33
HETATM   33  O1  UNL     1       5.597  -2.364  -0.269  1.00  0.00    -0.281 OA
BRANCH  33  34
HETATM   34  C2  UNL     1       6.405  -2.797   0.785  1.00  0.00     0.196 C 
HETATM   35  C1  UNL     1       7.267  -3.966   0.351  1.00  0.00     0.036 C 
ENDBRANCH  33  34
ENDBRANCH  30  33
ENDBRANCH   1  29
BRANCH   9  36
HETATM   36  O2  UNL     1       0.414   7.443   0.465  1.00  0.00    -0.359 OA
ATOM     37  H2  UNL     1      -0.422   7.875   0.338  1.00  0.00     0.217 HD
ENDBRANCH   9  36
TORSDOF 8
