REMARK  10 active torsions:
REMARK  status: ('A' for Active; 'I' for Inactive)
REMARK    1  A    between atoms: C2_2  and  C3_3 
REMARK    2  A    between atoms: C3_3  and  C4_4 
REMARK    3  A    between atoms: C4_4  and  C5_5 
REMARK    4  A    between atoms: C6_6  and  C7_7 
REMARK    5  A    between atoms: C10_11  and  C11_12 
REMARK    6  A    between atoms: C12_13  and  O2_14 
REMARK    7  A    between atoms: C14_17  and  O3_18 
REMARK    8  A    between atoms: C16_21  and  C17_22 
REMARK    9  A    between atoms: C17_22  and  O4_25 
REMARK   10  A    between atoms: C24_33  and  O6_34 
ROOT
HETATM    1  C7  UNL     1       0.572  -1.010  -0.846  1.00  0.00     0.185 C 
HETATM    2  O1  UNL     1       0.647  -2.389  -0.514  1.00  0.00    -0.368 OA
HETATM    3  C8  UNL     1       0.215  -2.491   0.785  1.00  0.00     0.164 C 
HETATM    4  C9  UNL     1      -0.476  -1.105   1.097  1.00  0.00     0.084 C 
HETATM    5  C10 UNL     1      -0.767  -0.671  -0.232  1.00  0.00     0.130 C 
HETATM    6  O5  UNL     1      -1.570  -1.794  -0.748  1.00  0.00    -0.330 OA
HETATM    7  C20 UNL     1      -1.913  -2.926  -0.131  1.00  0.00     0.099 A 
HETATM    8  C21 UNL     1      -3.093  -3.641  -0.290  1.00  0.00     0.045 A 
HETATM    9 BR1  UNL     1      -4.412  -2.991  -1.502  1.00  0.00    -0.048 Br
HETATM   10  C22 UNL     1      -3.250  -4.800   0.449  1.00  0.00     0.025 A 
HETATM   11  C23 UNL     1      -2.278  -5.266   1.334  1.00  0.00     0.039 A 
HETATM   12  C24 UNL     1      -1.090  -4.550   1.496  1.00  0.00     0.077 A 
HETATM   13  C25 UNL     1      -0.959  -3.426   0.768  1.00  0.00     0.039 A 
ENDROOT
BRANCH   5  14
HETATM   14  C11 UNL     1      -1.502   0.416  -0.745  1.00  0.00     0.022 A 
HETATM   15  C12 UNL     1      -1.688   0.418  -2.153  1.00  0.00     0.078 A 
HETATM   16  C13 UNL     1      -2.334   1.389  -2.860  1.00  0.00     0.073 A 
HETATM   17  C14 UNL     1      -2.857   2.450  -2.199  1.00  0.00     0.069 A 
HETATM   18  C15 UNL     1      -2.706   2.496  -0.833  1.00  0.00     0.047 A 
HETATM   19  C16 UNL     1      -2.032   1.488  -0.089  1.00  0.00    -0.010 A 
BRANCH  15  20
HETATM   20  O2  UNL     1      -1.188  -0.646  -2.915  1.00  0.00    -0.360 OA
ATOM     21  H2  UNL     1      -1.312  -0.645  -3.857  1.00  0.00     0.217 HD
ENDBRANCH  15  20
BRANCH  17  22
HETATM   22  O3  UNL     1      -3.534   3.489  -2.843  1.00  0.00    -0.361 OA
ATOM     23  H3  UNL     1      -3.901   4.233  -2.380  1.00  0.00     0.217 HD
ENDBRANCH  17  22
BRANCH  19  24
HETATM   24  C17 UNL     1      -1.934   1.649   1.331  1.00  0.00     0.078 C 
HETATM   25  C18 UNL     1      -2.265   3.172   1.600  1.00  0.00     0.051 C 
HETATM   26  C19 UNL     1      -3.048   1.097   2.181  1.00  0.00     0.051 C 
BRANCH  24  27
HETATM   27  O4  UNL     1      -0.691   1.723   1.924  1.00  0.00    -0.386 OA
ATOM     28  H4  UNL     1      -0.626   1.830   2.866  1.00  0.00     0.211 HD
ENDBRANCH  24  27
ENDBRANCH  19  24
ENDBRANCH   5  14
BRANCH   1  29
HETATM   29  C6  UNL     1       1.729  -0.412  -0.158  1.00  0.00     0.004 C 
HETATM   30  C5  UNL     1       2.308   0.681  -0.613  1.00  0.00    -0.028 C 
BRANCH  30  31
HETATM   31  C4  UNL     1       3.470   1.285   0.073  1.00  0.00     0.027 C 
BRANCH  31  32
HETATM   32  C3  UNL     1       4.691   1.344  -0.832  1.00  0.00     0.003 C 
BRANCH  32  33
HETATM   33  C2  UNL     1       5.866   1.969  -0.101  1.00  0.00    -0.004 C 
HETATM   34  C1  UNL     1       7.084   2.035  -0.982  1.00  0.00     0.005 C 
ENDBRANCH  32  33
ENDBRANCH  31  32
ENDBRANCH  30  31
ENDBRANCH   1  29
BRANCH  12  35
HETATM   35  O6  UNL     1      -0.072  -4.930   2.345  1.00  0.00    -0.360 OA
ATOM     36  H6  UNL     1       0.736  -4.443   2.455  1.00  0.00     0.217 HD
ENDBRANCH  12  35
TORSDOF 10
