REMARK  10 active torsions:
REMARK  status: ('A' for Active; 'I' for Inactive)
REMARK    1  A    between atoms: C2_2  and  C24_37 
REMARK    2  A    between atoms: C3_3  and  C4_4 
REMARK    3  A    between atoms: C4_4  and  C5_5 
REMARK    4  A    between atoms: C7_8  and  C8_9 
REMARK    5  A    between atoms: C17_18  and  C18_19 
REMARK    6  A    between atoms: C19_24  and  N3_25 
REMARK    7  A    between atoms: C21_30  and  O3_31 
REMARK    8  A    between atoms: C22_33  and  C23_34 
REMARK    9  A    between atoms: C23_34  and  O4_35 
REMARK   10  A    between atoms: C24_37  and  C25_38 
ROOT
HETATM    1  C5  UNL     1      -2.115  -0.307  -0.927  1.00  0.00     0.140 C 
HETATM    2  O1  UNL     1      -0.837  -0.919  -1.010  1.00  0.00    -0.349 OA
HETATM    3  C6  UNL     1       0.302  -0.118  -1.000  1.00  0.00     0.049 C 
HETATM    4  C7  UNL     1       1.498  -0.757  -0.976  1.00  0.00     0.032 C 
HETATM    5  C20 UNL     1       0.241   1.339  -1.010  1.00  0.00     0.096 C 
HETATM    6  C21 UNL     1      -1.140   1.881  -1.045  1.00  0.00     0.133 C 
HETATM    7  C22 UNL     1      -2.052   0.970  -0.172  1.00  0.00     0.068 C 
ENDROOT
BRANCH   4   8
HETATM    8  C8  UNL     1       2.684   0.044  -0.970  1.00  0.00     0.006 C 
HETATM    9  C9  UNL     1       3.941  -0.461  -0.936  1.00  0.00    -0.075 C 
HETATM   10  C10 UNL     1       4.116  -1.898  -0.893  1.00  0.00     0.034 C 
HETATM   11  C15 UNL     1       4.998   0.536  -0.977  1.00  0.00     0.024 C 
HETATM   12  C11 UNL     1       5.500  -2.332  -0.562  1.00  0.00     0.005 C 
HETATM   13  C12 UNL     1       6.365  -1.251   0.042  1.00  0.00     0.011 C 
HETATM   14  C13 UNL     1       6.418  -0.048  -0.829  1.00  0.00    -0.026 C 
HETATM   15  C14 UNL     1       7.060  -0.237  -2.205  1.00  0.00     0.016 C 
HETATM   16  C17 UNL     1       6.751   1.230  -0.164  1.00  0.00     0.072 C 
HETATM   17  C16 UNL     1       5.312   1.269   0.336  1.00  0.00     0.023 C 
BRANCH  16  18
HETATM   18  C18 UNL     1       7.821   1.289   0.825  1.00  0.00     0.147 A 
HETATM   19  N1  UNL     1       8.315   0.480   1.707  1.00  0.00    -0.280 N 
HETATM   20  N2  UNL     1       9.333   1.119   2.350  1.00  0.00    -0.263 N 
ATOM     21  H1  UNL     1       7.997  -0.472   1.889  1.00  0.00     0.189 HD
HETATM   22  C19 UNL     1       9.502   2.241   1.941  1.00  0.00     0.238 A 
ATOM     23  H2  UNL     1       9.889   0.696   3.093  1.00  0.00     0.190 HD
HETATM   24  O2  UNL     1       8.546   2.428   0.933  1.00  0.00    -0.264 OA
BRANCH  22  25
HETATM   25  N3  UNL     1      10.220   3.406   2.044  1.00  0.00    -0.364 N 
ATOM     26  H32 UNL     1      10.916   3.270   2.777  1.00  0.00     0.159 HD
ATOM     27  H31 UNL     1      10.363   4.355   1.698  1.00  0.00     0.159 HD
ENDBRANCH  22  25
ENDBRANCH  16  18
ENDBRANCH   4   8
BRANCH   1  28
HETATM   28  C4  UNL     1      -3.164  -1.297  -0.647  1.00  0.00     0.060 C 
BRANCH  28  29
HETATM   29  C3  UNL     1      -4.524  -0.716  -0.532  1.00  0.00    -0.022 C 
HETATM   30  C2  UNL     1      -5.425  -0.865   0.407  1.00  0.00    -0.087 C 
HETATM   31  C1  UNL     1      -5.176  -1.720   1.577  1.00  0.00     0.043 C 
BRANCH  30  32
HETATM   32  C24 UNL     1      -6.682  -0.093   0.278  1.00  0.00     0.045 C 
BRANCH  32  33
HETATM   33  C25 UNL     1      -7.948  -0.832   0.173  1.00  0.00    -0.009 C 
HETATM   34  C26 UNL     1      -8.008  -1.791  -1.030  1.00  0.00     0.018 C 
HETATM   35  C27 UNL     1      -9.076   0.252  -0.064  1.00  0.00     0.015 C 
HETATM   36  C28 UNL     1      -9.387   0.092   1.397  1.00  0.00     0.039 C 
HETATM   37  C29 UNL     1      -8.745  -1.305   1.291  1.00  0.00     0.178 C 
HETATM   38  F1  UNL     1      -8.218  -1.737   2.464  1.00  0.00    -0.249 F 
ENDBRANCH  32  33
ENDBRANCH  30  32
ENDBRANCH  28  29
ENDBRANCH   1  28
BRANCH   6  39
HETATM   39  O3  UNL     1      -1.260   3.158  -0.559  1.00  0.00    -0.395 OA
ATOM     40  H3  UNL     1      -2.144   3.505  -0.581  1.00  0.00     0.210 HD
ENDBRANCH   6  39
BRANCH   7  41
HETATM   41  C23 UNL     1      -1.443   0.932   1.191  1.00  0.00     0.173 C 
BRANCH  41  42
HETATM   42  O4  UNL     1      -2.103   0.058   2.044  1.00  0.00    -0.400 OA
ATOM     43  H4  UNL     1      -1.716   0.034   2.911  1.00  0.00     0.209 HD
ENDBRANCH  41  42
ENDBRANCH   7  41
TORSDOF 10
