REMARK  7 active torsions:
REMARK  status: ('A' for Active; 'I' for Inactive)
REMARK    1  A    between atoms: C2_2  and  C3_3 
REMARK    2  A    between atoms: C3_3  and  C4_4 
REMARK    3  A    between atoms: N3_17  and  C12_18 
REMARK    4  A    between atoms: C12_18  and  C13_19 
REMARK    5  A    between atoms: C16_22  and  C17_23 
REMARK    6  A    between atoms: N5_26  and  O1_27 
REMARK    7  A    between atoms: C19_30  and  C20_31 
ROOT
HETATM    1  C13 UNL     1       0.109   1.531   0.663  1.00  0.00    -0.040 A 
HETATM    2  C14 UNL     1       0.797   0.814   1.654  1.00  0.00     0.010 A 
HETATM    3  C15 UNL     1       2.176   0.660   1.580  1.00  0.00     0.014 A 
HETATM    4  C16 UNL     1       2.903   1.197   0.548  1.00  0.00    -0.007 A 
HETATM    5  C22 UNL     1       2.233   1.897  -0.418  1.00  0.00     0.014 A 
HETATM    6  C23 UNL     1       0.854   2.062  -0.361  1.00  0.00     0.010 A 
ENDROOT
BRANCH   1   7
HETATM    7  C12 UNL     1      -1.353   1.644   0.812  1.00  0.00     0.170 C 
BRANCH   7   8
HETATM    8  N3  UNL     1      -2.130   0.673   0.085  1.00  0.00    -0.317 N 
HETATM    9  C4  UNL     1      -2.663   0.807  -1.140  1.00  0.00     0.085 A 
HETATM   10  N1  UNL     1      -3.290  -0.379  -1.413  1.00  0.00    -0.342 N 
HETATM   11  C5  UNL     1      -3.138  -1.204  -0.374  1.00  0.00     0.085 A 
ATOM     12  H1  UNL     1      -3.793  -0.598  -2.273  1.00  0.00     0.167 HD
HETATM   13  C6  UNL     1      -3.585  -2.506  -0.156  1.00  0.00    -0.012 A 
HETATM   14  C11 UNL     1      -2.402  -0.562   0.601  1.00  0.00     0.137 A 
HETATM   15  C7  UNL     1      -4.369  -3.177  -1.210  1.00  0.00     0.052 C 
HETATM   16  C8  UNL     1      -3.264  -3.098   1.043  1.00  0.00     0.041 A 
HETATM   17 BR1  UNL     1      -3.885  -4.884   1.323  1.00  0.00    -0.048 Br
HETATM   18  C9  UNL     1      -2.529  -2.457   2.018  1.00  0.00     0.025 A 
HETATM   19  C10 UNL     1      -2.199  -3.134   3.313  1.00  0.00     0.069 C 
HETATM   20  N2  UNL     1      -2.125  -1.204   1.753  1.00  0.00    -0.343 N 
ATOM     21  H2  UNL     1      -1.580  -0.712   2.461  1.00  0.00     0.167 HD
BRANCH   9  22
HETATM   22  C3  UNL     1      -2.647   1.986  -2.056  1.00  0.00     0.076 C 
BRANCH  22  23
HETATM   23  C2  UNL     1      -3.850   2.891  -1.754  1.00  0.00     0.003 C 
HETATM   24  C1  UNL     1      -3.837   4.083  -2.678  1.00  0.00     0.005 C 
ENDBRANCH  22  23
ENDBRANCH   9  22
ENDBRANCH   7   8
ENDBRANCH   1   7
BRANCH   4  25
HETATM   25  C17 UNL     1       4.328   1.040   0.466  1.00  0.00     0.074 A 
HETATM   26  N4  UNL     1       5.240   2.028   0.507  1.00  0.00    -0.273 N 
HETATM   27  N5  UNL     1       6.463   1.548   0.406  1.00  0.00    -0.174 N 
ATOM     28  H4  UNL     1       5.015   3.018   0.604  1.00  0.00     0.189 HD
HETATM   29  C18 UNL     1       6.376   0.208   0.293  1.00  0.00     0.159 A 
HETATM   30  C19 UNL     1       5.044  -0.136   0.329  1.00  0.00     0.042 A 
BRANCH  27  31
HETATM   31  O1  UNL     1       7.672   2.232   0.406  1.00  0.00    -0.268 OA
ATOM     32  H1  UNL     1       8.554   1.886   0.333  1.00  0.00     0.247 HD
ENDBRANCH  27  31
BRANCH  30  33
HETATM   33  C20 UNL     1       4.490  -1.489   0.239  1.00  0.00     0.080 A 
HETATM   34  C21 UNL     1       4.754  -2.515   1.137  1.00  0.00     0.140 A 
HETATM   35  N6  UNL     1       4.080  -3.600   0.742  1.00  0.00    -0.295 N 
HETATM   36  N7  UNL     1       3.427  -3.252  -0.358  1.00  0.00    -0.243 N 
ATOM     37  H6  UNL     1       4.070  -4.513   1.196  1.00  0.00     0.187 HD
HETATM   38  N8  UNL     1       3.661  -2.001  -0.668  1.00  0.00    -0.284 N 
ATOM     39  H7  UNL     1       2.822  -3.876  -0.892  1.00  0.00     0.208 HD
ATOM     40  H8  UNL     1       3.273  -1.503  -1.469  1.00  0.00     0.188 HD
ENDBRANCH  30  33
ENDBRANCH   4  25
TORSDOF 7
