REMARK  8 active torsions:
REMARK  status: ('A' for Active; 'I' for Inactive)
REMARK    1  A    between atoms: O1_2  and  C2_3 
REMARK    2  A    between atoms: C4_5  and  C5_6 
REMARK    3  A    between atoms: C15_17  and  O3_18 
REMARK    4  A    between atoms: C17_20  and  O4_21 
REMARK    5  A    between atoms: C19_23  and  O5_24 
REMARK    6  A    between atoms: C22_27  and  O6_28 
REMARK    7  A    between atoms: O6_28  and  N1_29 
REMARK    8  A    between atoms: C23_33  and  C24_34 
ROOT
HETATM    1  C5  UNL     1      -0.223   1.023   1.269  1.00  0.00     0.113 C 
HETATM    2  C6  UNL     1      -0.646   2.063   0.353  1.00  0.00    -0.034 C 
HETATM    3  C7  UNL     1      -0.232   3.308   0.774  1.00  0.00     0.013 C 
HETATM    4  C8  UNL     1      -0.478   4.574   0.225  1.00  0.00     0.055 C 
HETATM    5  C9  UNL     1      -1.221   4.841  -0.902  1.00  0.00     0.172 C 
HETATM    6  O2  UNL     1      -1.534   6.045  -1.065  1.00  0.00    -0.289 OA
HETATM    7  C10 UNL     1      -1.674   3.952  -1.892  1.00  0.00     0.055 C 
HETATM    8  C11 UNL     1      -1.554   2.578  -1.923  1.00  0.00     0.017 C 
HETATM    9  C12 UNL     1      -1.382   1.790  -0.799  1.00  0.00    -0.018 C 
HETATM   10  C13 UNL     1      -2.042   0.507  -0.908  1.00  0.00    -0.011 A 
HETATM   11  C14 UNL     1      -2.722   0.216  -2.066  1.00  0.00     0.052 A 
HETATM   12  C15 UNL     1      -3.302  -1.044  -2.193  1.00  0.00     0.105 A 
HETATM   13  C17 UNL     1      -3.212  -1.984  -1.206  1.00  0.00     0.135 A 
HETATM   14  C19 UNL     1      -2.514  -1.657  -0.034  1.00  0.00     0.114 A 
HETATM   15  C21 UNL     1      -1.926  -0.431   0.140  1.00  0.00     0.022 A 
HETATM   16  C22 UNL     1      -1.233  -0.117   1.371  1.00  0.00     0.203 C 
ENDROOT
BRANCH   1  17
HETATM   17  C4  UNL     1       1.139   0.545   0.927  1.00  0.00     0.068 A 
HETATM   18  C3  UNL     1       1.476  -0.226  -0.167  1.00  0.00     0.073 A 
HETATM   19  C2  UNL     1       2.862  -0.458  -0.110  1.00  0.00     0.105 A 
HETATM   20  C23 UNL     1       3.298   0.184   1.016  1.00  0.00     0.119 A 
HETATM   21  O7  UNL     1       2.243   0.751   1.578  1.00  0.00    -0.310 OA
BRANCH  19  22
HETATM   22  O1  UNL     1       3.582  -1.187  -1.016  1.00  0.00    -0.353 OA
HETATM   23  C1  UNL     1       3.002  -1.796  -2.164  1.00  0.00     0.210 C 
ENDBRANCH  19  22
BRANCH  20  24
HETATM   24  C24 UNL     1       4.642   0.266   1.548  1.00  0.00     0.001 A 
HETATM   25  C25 UNL     1       4.812   0.995   2.736  1.00  0.00     0.017 A 
HETATM   26  C26 UNL     1       6.066   1.107   3.291  1.00  0.00     0.043 A 
HETATM   27  C27 UNL     1       7.145   0.506   2.683  1.00  0.00     0.116 A 
HETATM   28  F1  UNL     1       8.371   0.618   3.230  1.00  0.00    -0.206 F 
HETATM   29  C28 UNL     1       6.974  -0.207   1.520  1.00  0.00     0.043 A 
HETATM   30  C29 UNL     1       5.706  -0.334   0.937  1.00  0.00     0.017 A 
ENDBRANCH  20  24
ENDBRANCH   1  17
BRANCH  16  31
HETATM   31  O6  UNL     1      -2.111   0.194   2.438  1.00  0.00    -0.276 OA
BRANCH  31  32
HETATM   32  N1  UNL     1      -1.610  -0.278   3.628  1.00  0.00    -0.310 N 
ATOM     33  H12 UNL     1      -0.727  -0.781   3.714  1.00  0.00     0.184 HD
ATOM     34  H11 UNL     1      -2.242  -0.054   4.396  1.00  0.00     0.184 HD
ENDBRANCH  31  32
ENDBRANCH  16  31
BRANCH  14  35
HETATM   35  O5  UNL     1      -2.467  -2.658   0.911  1.00  0.00    -0.352 OA
HETATM   36  C20 UNL     1      -3.508  -2.819   1.841  1.00  0.00     0.210 C 
ENDBRANCH  14  35
BRANCH  13  37
HETATM   37  O4  UNL     1      -3.804  -3.231  -1.374  1.00  0.00    -0.351 OA
HETATM   38  C18 UNL     1      -3.181  -4.314  -1.991  1.00  0.00     0.210 C 
ENDBRANCH  13  37
BRANCH  12  39
HETATM   39  O3  UNL     1      -3.995  -1.374  -3.347  1.00  0.00    -0.353 OA
HETATM   40  C16 UNL     1      -4.107  -0.423  -4.388  1.00  0.00     0.210 C 
ENDBRANCH  12  39
TORSDOF 8
