REMARK  6 active torsions:
REMARK  status: ('A' for Active; 'I' for Inactive)
REMARK    1  A    between atoms: C10_15  and  O2_16 
REMARK    2  A    between atoms: N3_18  and  C11_19 
REMARK    3  A    between atoms: C16_24  and  O3_25 
REMARK    4  A    between atoms: O3_25  and  C17_26 
REMARK    5  A    between atoms: N4_35  and  C24_36 
REMARK    6  A    between atoms: C24_36  and  C25_37 
ROOT
HETATM    1  O1  UNL     1      -2.615   0.620  -1.549  1.00  0.00    -0.267 OA
HETATM    2  C1  UNL     1      -1.608   0.435  -0.818  1.00  0.00     0.270 A 
HETATM    3  C2  UNL     1      -1.422  -0.888  -0.375  1.00  0.00     0.128 A 
HETATM    4  C3  UNL     1      -2.348  -1.928  -0.755  1.00  0.00     0.126 A 
HETATM    5  N1  UNL     1      -3.440  -1.711  -1.548  1.00  0.00    -0.340 N 
ATOM      6  H1  UNL     1      -3.697  -0.805  -1.939  1.00  0.00     0.167 HD
HETATM    7  C4  UNL     1      -4.119  -2.828  -1.742  1.00  0.00     0.060 A 
HETATM    8  C5  UNL     1      -5.265  -3.202  -2.430  1.00  0.00     0.032 A 
HETATM    9  C6  UNL     1      -5.715  -4.520  -2.420  1.00  0.00     0.002 A 
HETATM   10  C7  UNL     1      -5.028  -5.489  -1.722  1.00  0.00     0.002 A 
HETATM   11  C8  UNL     1      -3.889  -5.125  -1.037  1.00  0.00     0.032 A 
HETATM   12  C9  UNL     1      -3.461  -3.815  -1.059  1.00  0.00     0.060 A 
HETATM   13  N2  UNL     1      -2.386  -3.215  -0.473  1.00  0.00    -0.340 N 
ATOM     14  H2  UNL     1      -1.701  -3.699   0.108  1.00  0.00     0.167 HD
HETATM   15  C10 UNL     1      -0.320  -1.083   0.419  1.00  0.00     0.171 A 
HETATM   16  N3  UNL     1       0.522  -0.077   0.750  1.00  0.00    -0.240 N 
HETATM   17  C23 UNL     1       0.264   1.152   0.281  1.00  0.00     0.338 A 
HETATM   18  O4  UNL     1       1.050   2.058   0.595  1.00  0.00    -0.246 OA
HETATM   19  N4  UNL     1      -0.794   1.452  -0.508  1.00  0.00    -0.261 N 
ENDROOT
BRANCH  16  20
HETATM   20  C11 UNL     1       1.634  -0.392   1.579  1.00  0.00     0.080 A 
HETATM   21  C12 UNL     1       1.486  -0.833   2.878  1.00  0.00     0.033 A 
HETATM   22  C13 UNL     1       2.527  -1.147   3.711  1.00  0.00     0.002 A 
HETATM   23  C14 UNL     1       3.815  -1.020   3.238  1.00  0.00     0.003 A 
HETATM   24  C15 UNL     1       4.016  -0.576   1.928  1.00  0.00     0.039 A 
HETATM   25  C16 UNL     1       2.943  -0.270   1.120  1.00  0.00     0.103 A 
BRANCH  25  26
HETATM   26  O3  UNL     1       3.149   0.171  -0.180  1.00  0.00    -0.308 OA
BRANCH  26  27
HETATM   27  C17 UNL     1       4.390   0.330  -0.742  1.00  0.00     0.076 A 
HETATM   28  C18 UNL     1       4.989  -0.706  -1.412  1.00  0.00     0.040 A 
HETATM   29  C19 UNL     1       6.248  -0.574  -1.994  1.00  0.00     0.045 A 
HETATM   30  C20 UNL     1       6.890   0.649  -1.878  1.00  0.00     0.116 A 
HETATM   31  F1  UNL     1       8.123   0.756  -2.455  1.00  0.00    -0.206 F 
HETATM   32  C21 UNL     1       6.311   1.711  -1.209  1.00  0.00     0.045 A 
HETATM   33  C22 UNL     1       5.044   1.531  -0.641  1.00  0.00     0.040 A 
ENDBRANCH  26  27
ENDBRANCH  25  26
ENDBRANCH  16  20
BRANCH  15  34
HETATM   34  O2  UNL     1      -0.049  -2.328   0.902  1.00  0.00    -0.345 OA
ATOM     35  H2  UNL     1       0.714  -2.463   1.452  1.00  0.00     0.219 HD
ENDBRANCH  15  34
BRANCH  19  36
HETATM   36  C24 UNL     1      -1.040   2.788  -0.996  1.00  0.00     0.175 C 
BRANCH  36  37
HETATM   37  C25 UNL     1      -1.883   3.636  -0.128  1.00  0.00    -0.040 A 
HETATM   38  C26 UNL     1      -3.253   3.679  -0.273  1.00  0.00     0.009 A 
HETATM   39  C27 UNL     1      -4.066   4.476   0.535  1.00  0.00     0.001 A 
HETATM   40  C28 UNL     1      -3.521   5.261   1.523  1.00  0.00     0.000 A 
HETATM   41  C29 UNL     1      -2.157   5.233   1.684  1.00  0.00     0.001 A 
HETATM   42  C30 UNL     1      -1.352   4.433   0.871  1.00  0.00     0.009 A 
ENDBRANCH  36  37
ENDBRANCH  19  36
TORSDOF 6
