REMARK  12 active torsions:
REMARK  status: ('A' for Active; 'I' for Inactive)
REMARK    1  A    between atoms: C2_2  and  C3_3 
REMARK    2  A    between atoms: C3_3  and  C4_4 
REMARK    3  A    between atoms: C4_4  and  O2_6 
REMARK    4  A    between atoms: O2_6  and  C5_7 
REMARK    5  A    between atoms: C6_8  and  O3_9 
REMARK    6  A    between atoms: C8_12  and  C9_13 
REMARK    7  A    between atoms: C10_14  and  C11_15 
REMARK    8  A    between atoms: C13_17  and  O4_18 
REMARK    9  A    between atoms: O4_18  and  C14_19 
REMARK   10  A    between atoms: C14_19  and  C15_21 
REMARK   11  A    between atoms: C16_24  and  O8_25 
REMARK   12  A    between atoms: C17_27  and  C18_28 
ROOT
HETATM    1  C11 UNL     1      -1.595   0.621  -0.200  1.00  0.00    -0.033 A 
HETATM    2  C12 UNL     1      -2.185   0.220  -1.373  1.00  0.00     0.051 A 
HETATM    3  C13 UNL     1      -3.519   0.464  -1.629  1.00  0.00     0.114 A 
HETATM    4  C16 UNL     1      -4.242   1.139  -0.641  1.00  0.00     0.106 A 
HETATM    5  C17 UNL     1      -3.693   1.559   0.547  1.00  0.00    -0.014 A 
HETATM    6  C22 UNL     1      -2.354   1.292   0.760  1.00  0.00     0.022 A 
ENDROOT
BRANCH   1   7
HETATM    7  C10 UNL     1      -0.185   0.363   0.074  1.00  0.00     0.012 C 
HETATM    8  C9  UNL     1       0.617  -0.253  -0.747  1.00  0.00     0.012 C 
BRANCH   8   9
HETATM    9  C8  UNL     1       2.024  -0.485  -0.420  1.00  0.00    -0.032 A 
HETATM   10  C7  UNL     1       2.843  -1.154  -1.346  1.00  0.00     0.051 A 
HETATM   11  C6  UNL     1       4.165  -1.395  -1.081  1.00  0.00     0.101 A 
HETATM   12  C5  UNL     1       4.724  -0.984   0.106  1.00  0.00     0.129 A 
HETATM   13  C24 UNL     1       3.946  -0.334   1.015  1.00  0.00     0.048 A 
HETATM   14  C23 UNL     1       2.619  -0.093   0.748  1.00  0.00     0.033 A 
HETATM   15 BR1  UNL     1       4.717   0.250   2.687  1.00  0.00    -0.048 Br
BRANCH  11  16
HETATM   16  O3  UNL     1       4.921  -2.060  -2.034  1.00  0.00    -0.358 OA
ATOM     17  H3  UNL     1       4.535  -2.344  -2.854  1.00  0.00     0.217 HD
ENDBRANCH  11  16
BRANCH  12  18
HETATM   18  O2  UNL     1       6.078  -1.244   0.350  1.00  0.00    -0.274 OA
BRANCH  18  19
HETATM   19  C4  UNL     1       6.509  -2.399   0.967  1.00  0.00     0.267 C 
HETATM   20  O1  UNL     1       5.640  -3.239   1.317  1.00  0.00    -0.265 OA
BRANCH  19  21
HETATM   21  C3  UNL     1       7.930  -2.725   1.251  1.00  0.00     0.138 C 
BRANCH  21  22
HETATM   22  C2  UNL     1       8.839  -1.633   0.774  1.00  0.00    -0.027 C 
HETATM   23  C1  UNL     1       9.619  -1.001   1.633  1.00  0.00     0.007 C 
ENDBRANCH  21  22
ENDBRANCH  19  21
ENDBRANCH  18  19
ENDBRANCH  12  18
ENDBRANCH   8   9
ENDBRANCH   1   7
BRANCH   3  24
HETATM   24  O4  UNL     1      -4.115   0.056  -2.819  1.00  0.00    -0.267 OA
BRANCH  24  25
HETATM   25  C14 UNL     1      -4.689  -1.206  -2.957  1.00  0.00     0.365 C 
HETATM   26  O5  UNL     1      -4.635  -1.952  -1.948  1.00  0.00    -0.252 OA
BRANCH  25  27
HETATM   27  C15 UNL     1      -5.317  -1.658  -4.182  1.00  0.00     0.278 C 
HETATM   28  O6  UNL     1      -5.403  -0.961  -5.219  1.00  0.00    -0.640 OA
HETATM   29  O7  UNL     1      -5.862  -2.933  -4.231  1.00  0.00    -0.640 OA
ENDBRANCH  25  27
ENDBRANCH  24  25
ENDBRANCH   3  24
BRANCH   5  30
HETATM   30  C18 UNL     1      -4.495   2.273   1.605  1.00  0.00    -0.021 C 
HETATM   31  C19 UNL     1      -5.633   1.452   2.117  1.00  0.00     0.019 C 
HETATM   32  C20 UNL     1      -4.971   3.614   1.086  1.00  0.00     0.019 C 
HETATM   33  C21 UNL     1      -3.552   2.556   2.754  1.00  0.00     0.019 C 
ENDBRANCH   5  30
BRANCH   4  34
HETATM   34  O8  UNL     1      -5.556   1.369  -0.918  1.00  0.00    -0.357 OA
ATOM     35  H8  UNL     1      -6.047   1.828  -0.247  1.00  0.00     0.217 HD
ENDBRANCH   4  34
TORSDOF 12
