REMARK  8 active torsions:
REMARK  status: ('A' for Active; 'I' for Inactive)
REMARK    1  A    between atoms: C8_11  and  O2_12 
REMARK    2  A    between atoms: N2_14  and  C9_15 
REMARK    3  A    between atoms: C12_18  and  C13_19 
REMARK    4  A    between atoms: C13_19  and  O3_20 
REMARK    5  A    between atoms: C13_19  and  C14_22 
REMARK    6  A    between atoms: N5_27  and  C15_28 
REMARK    7  A    between atoms: C15_28  and  C16_29 
REMARK    8  A    between atoms: C22_36  and  C23_37 
ROOT
HETATM    1  C13 UNL     1      -1.030  -2.035  -1.120  1.00  0.00     0.205 C 
ENDROOT
BRANCH   1   2
HETATM    2  C12 UNL     1       0.402  -1.574  -0.960  1.00  0.00    -0.024 A 
HETATM    3  C11 UNL     1       0.941  -0.547  -1.693  1.00  0.00     0.012 A 
HETATM    4  C10 UNL     1       2.253  -0.128  -1.541  1.00  0.00     0.031 A 
HETATM    5  C9  UNL     1       3.060  -0.758  -0.620  1.00  0.00     0.046 A 
HETATM    6  C30 UNL     1       2.549  -1.794   0.133  1.00  0.00     0.031 A 
HETATM    7  C29 UNL     1       1.238  -2.184  -0.047  1.00  0.00     0.012 A 
BRANCH   5   8
HETATM    8  N2  UNL     1       4.400  -0.368  -0.428  1.00  0.00    -0.243 N 
HETATM    9  C1  UNL     1       4.763   0.093   0.780  1.00  0.00     0.268 A 
HETATM   10  O1  UNL     1       3.937   0.190   1.750  1.00  0.00    -0.267 OA
HETATM   11  C2  UNL     1       6.061   0.479   1.004  1.00  0.00     0.059 A 
HETATM   12  C3  UNL     1       6.484   0.961   2.234  1.00  0.00     0.019 A 
HETATM   13  C7  UNL     1       6.948   0.370  -0.051  1.00  0.00     0.051 A 
HETATM   14  C4  UNL     1       7.797   1.348   2.452  1.00  0.00     0.001 A 
HETATM   15  C5  UNL     1       8.686   1.241   1.400  1.00  0.00     0.002 A 
HETATM   16  C6  UNL     1       8.250   0.759   0.180  1.00  0.00     0.030 A 
HETATM   17  N1  UNL     1       6.544  -0.097  -1.246  1.00  0.00    -0.321 N 
HETATM   18  C8  UNL     1       5.268  -0.471  -1.449  1.00  0.00     0.231 A 
ATOM     19  H1  UNL     1       7.216  -0.169  -2.010  1.00  0.00     0.169 HD
BRANCH  18  20
HETATM   20  O2  UNL     1       4.854  -0.959  -2.707  1.00  0.00    -0.332 OA
ATOM     21  H2  UNL     1       3.953  -1.223  -2.850  1.00  0.00     0.221 HD
ENDBRANCH  18  20
ENDBRANCH   5   8
ENDBRANCH   1   2
BRANCH   1  22
HETATM   22  O3  UNL     1      -0.962  -3.465  -1.199  1.00  0.00    -0.385 OA
ATOM     23  H3  UNL     1      -1.861  -3.754  -1.299  1.00  0.00     0.211 HD
ENDBRANCH   1  22
BRANCH   1  24
HETATM   24  C14 UNL     1      -1.851  -1.626   0.007  1.00  0.00     0.089 A 
HETATM   25  N3  UNL     1      -2.139  -2.432   1.086  1.00  0.00    -0.285 N 
HETATM   26  N4  UNL     1      -2.829  -1.757   1.956  1.00  0.00    -0.239 N 
ATOM     27  H3  UNL     1      -1.855  -3.407   1.187  1.00  0.00     0.188 HD
HETATM   28  N5  UNL     1      -3.032  -0.487   1.501  1.00  0.00    -0.271 N 
ATOM     29  H4  UNL     1      -3.168  -2.122   2.846  1.00  0.00     0.208 HD
HETATM   30  C22 UNL     1      -2.427  -0.415   0.303  1.00  0.00     0.089 A 
BRANCH  28  31
HETATM   31  C15 UNL     1      -3.838   0.415   2.268  1.00  0.00     0.189 C 
BRANCH  31  32
HETATM   32  C16 UNL     1      -5.267   0.097   1.864  1.00  0.00    -0.038 A 
HETATM   33  C17 UNL     1      -5.907   0.768   0.859  1.00  0.00     0.012 A 
HETATM   34  C18 UNL     1      -7.226   0.452   0.503  1.00  0.00     0.043 A 
HETATM   35  C19 UNL     1      -7.896  -0.549   1.169  1.00  0.00     0.116 A 
HETATM   36  F1  UNL     1      -9.168  -0.878   0.849  1.00  0.00    -0.206 F 
HETATM   37  C20 UNL     1      -7.236  -1.218   2.183  1.00  0.00     0.043 A 
HETATM   38  C21 UNL     1      -5.932  -0.900   2.530  1.00  0.00     0.012 A 
ENDBRANCH  31  32
ENDBRANCH  28  31
BRANCH  30  39
HETATM   39  C23 UNL     1      -2.522   0.742  -0.611  1.00  0.00    -0.006 A 
HETATM   40  C24 UNL     1      -2.732   0.608  -1.971  1.00  0.00     0.014 A 
HETATM   41  C25 UNL     1      -2.691   1.678  -2.826  1.00  0.00     0.001 A 
HETATM   42  C26 UNL     1      -2.433   2.958  -2.350  1.00  0.00     0.000 A 
HETATM   43  C27 UNL     1      -2.226   3.089  -1.006  1.00  0.00     0.001 A 
HETATM   44  C28 UNL     1      -2.260   2.015  -0.113  1.00  0.00     0.014 A 
ENDBRANCH  30  39
ENDBRANCH   1  24
TORSDOF 8
