REMARK  9 active torsions:
REMARK  status: ('A' for Active; 'I' for Inactive)
REMARK    1  A    between atoms: C2_2  and  C3_4 
REMARK    2  A    between atoms: C4_5  and  O1_6 
REMARK    3  A    between atoms: O1_6  and  C5_7 
REMARK    4  A    between atoms: C5_7  and  O2_8 
REMARK    5  A    between atoms: O2_8  and  C6_9 
REMARK    6  A    between atoms: C6_9  and  C7_11 
REMARK    7  A    between atoms: C17_21  and  O4_22 
REMARK    8  A    between atoms: C21_27  and  O5_28 
REMARK    9  A    between atoms: C26_34  and  O6_35 
ROOT
HETATM    1  C3  UNL     1       1.708  -2.916  -0.590  1.00  0.00     0.021 C 
HETATM    2  C4  UNL     1       1.552  -1.626  -0.379  1.00  0.00     0.068 C 
HETATM    3  C10 UNL     1       0.365  -0.843  -0.078  1.00  0.00     0.072 C 
HETATM    4  C11 UNL     1       0.232   0.425  -0.947  1.00  0.00     0.016 C 
HETATM    5  C12 UNL     1      -0.525   1.399  -0.167  1.00  0.00     0.013 C 
HETATM    6  C13 UNL     1      -2.000   1.454  -0.186  1.00  0.00    -0.012 C 
HETATM    7  C14 UNL     1      -2.375   2.599  -1.146  1.00  0.00     0.018 C 
HETATM    8  C15 UNL     1      -2.391   1.991   1.200  1.00  0.00     0.014 C 
HETATM    9  C16 UNL     1      -3.671   1.569   1.760  1.00  0.00     0.033 C 
HETATM   10  C17 UNL     1      -4.722   1.108   0.828  1.00  0.00     0.129 C 
HETATM   11  C18 UNL     1      -4.237   0.339  -0.346  1.00  0.00     0.010 C 
HETATM   12  C19 UNL     1      -4.851  -1.071  -0.269  1.00  0.00     0.020 C 
HETATM   13  C20 UNL     1      -4.890   0.949  -1.577  1.00  0.00     0.020 C 
HETATM   14  C21 UNL     1      -2.745   0.211  -0.477  1.00  0.00     0.078 C 
HETATM   15  C22 UNL     1      -2.204  -0.892   0.439  1.00  0.00     0.074 C 
HETATM   16  C23 UNL     1      -0.946  -1.482  -0.165  1.00  0.00    -0.070 C 
HETATM   17  C24 UNL     1      -1.330  -2.589  -0.748  1.00  0.00    -0.020 C 
HETATM   18  C25 UNL     1      -0.452  -3.524  -1.517  1.00  0.00     0.064 C 
HETATM   19  C26 UNL     1       0.607  -3.961  -0.519  1.00  0.00     0.158 C 
ENDROOT
BRANCH   2  20
HETATM   20  O1  UNL     1       2.715  -0.838  -0.451  1.00  0.00    -0.329 OA
BRANCH  20  21
HETATM   21  C5  UNL     1       3.065  -0.034   0.680  1.00  0.00     0.354 C 
BRANCH  21  22
HETATM   22  O2  UNL     1       4.208   0.718   0.374  1.00  0.00    -0.295 OA
BRANCH  22  23
HETATM   23  C6  UNL     1       4.824   1.596   1.220  1.00  0.00     0.264 C 
HETATM   24  O3  UNL     1       4.353   1.767   2.374  1.00  0.00    -0.265 OA
BRANCH  23  25
HETATM   25  C7  UNL     1       6.049   2.376   0.836  1.00  0.00     0.077 C 
HETATM   26  C8  UNL     1       6.516   3.259   1.943  1.00  0.00     0.020 C 
HETATM   27  C9  UNL     1       7.101   1.459   0.294  1.00  0.00     0.020 C 
ENDBRANCH  23  25
ENDBRANCH  22  23
ENDBRANCH  21  22
ENDBRANCH  20  21
ENDBRANCH   2  20
BRANCH   1  28
HETATM   28  C2  UNL     1       2.990  -3.475  -0.888  1.00  0.00     0.036 C 
HETATM   29  C1  UNL     1       3.210  -4.736  -1.086  1.00  0.00     0.037 C 
HETATM   30 CL1  UNL     1       4.386  -2.418  -1.067  1.00  0.00    -0.084 Cl
ENDBRANCH   1  28
BRANCH  19  31
HETATM   31  O6  UNL     1       0.015  -3.908   0.756  1.00  0.00    -0.390 OA
ATOM     32  H6  UNL     1      -0.673  -4.561   0.800  1.00  0.00     0.210 HD
ENDBRANCH  19  31
BRANCH  14  33
HETATM   33  O5  UNL     1      -2.530  -0.311  -1.743  1.00  0.00    -0.388 OA
ATOM     34  H5  UNL     1      -3.009  -1.110  -1.930  1.00  0.00     0.210 HD
ENDBRANCH  14  33
BRANCH  10  35
HETATM   35  O4  UNL     1      -5.518   2.224   0.462  1.00  0.00    -0.395 OA
ATOM     36  H4  UNL     1      -6.193   1.928  -0.137  1.00  0.00     0.210 HD
ENDBRANCH  10  35
TORSDOF 9
