REMARK  10 active torsions:
REMARK  status: ('A' for Active; 'I' for Inactive)
REMARK    1  A    between atoms: C2_2  and  C3_3 
REMARK    2  A    between atoms: C3_3  and  O1_4 
REMARK    3  A    between atoms: O1_4  and  O2_5 
REMARK    4  A    between atoms: C4_7  and  C5_8 
REMARK    5  A    between atoms: C5_8  and  C6_9 
REMARK    6  A    between atoms: C6_9  and  C7_10 
REMARK    7  A    between atoms: C15_18  and  O3_19 
REMARK    8  A    between atoms: C18_22  and  O4_23 
REMARK    9  A    between atoms: C22_28  and  O5_29 
REMARK   10  A    between atoms: C27_35  and  O6_36 
ROOT
HETATM    1  C3  UNL     1      -1.699  -1.032  -0.093  1.00  0.00     0.145 C 
HETATM    2  C4  UNL     1      -2.349   0.247   0.249  1.00  0.00    -0.042 C 
HETATM    3  C11 UNL     1      -1.703   1.336   0.544  1.00  0.00    -0.020 C 
HETATM    4  C12 UNL     1      -0.206   1.409   0.569  1.00  0.00     0.040 C 
HETATM    5  C13 UNL     1       0.355   0.466  -0.516  1.00  0.00     0.059 C 
HETATM    6  C14 UNL     1      -0.232  -0.850  -0.251  1.00  0.00    -0.001 C 
HETATM    7  C15 UNL     1       0.757  -1.741  -0.191  1.00  0.00     0.062 C 
HETATM    8  C17 UNL     1       2.026  -1.131  -0.409  1.00  0.00     0.111 C 
HETATM    9  C18 UNL     1       3.159  -1.475   0.509  1.00  0.00     0.165 C 
HETATM   10  C19 UNL     1       4.287  -0.541   0.113  1.00  0.00    -0.021 A 
HETATM   11  C20 UNL     1       5.553  -0.932   0.574  1.00  0.00     0.013 A 
HETATM   12  C21 UNL     1       6.617  -0.135   0.252  1.00  0.00     0.039 A 
HETATM   13  C22 UNL     1       6.464   1.022  -0.503  1.00  0.00     0.090 A 
HETATM   14  C24 UNL     1       5.210   1.375  -0.939  1.00  0.00     0.074 A 
HETATM   15 CL1  UNL     1       4.940   2.827  -1.900  1.00  0.00    -0.081 Cl
HETATM   16  C25 UNL     1       4.106   0.593  -0.633  1.00  0.00    -0.022 A 
HETATM   17  C26 UNL     1       2.741   1.030  -1.137  1.00  0.00     0.080 C 
HETATM   18  C27 UNL     1       1.801   0.349  -0.203  1.00  0.00     0.082 C 
ENDROOT
BRANCH   2  19
HETATM   19  C5  UNL     1      -3.876   0.318   0.269  1.00  0.00     0.041 C 
BRANCH  19  20
HETATM   20  C6  UNL     1      -4.373   1.645   0.647  1.00  0.00     0.032 C 
BRANCH  20  21
HETATM   21  C7  UNL     1      -5.818   1.857   0.712  1.00  0.00    -0.024 C 
HETATM   22  C8  UNL     1      -6.815   1.063   0.577  1.00  0.00    -0.091 C 
HETATM   23  C9  UNL     1      -8.203   1.684   0.718  1.00  0.00     0.042 C 
HETATM   24  C10 UNL     1      -6.801  -0.376   0.321  1.00  0.00     0.042 C 
ENDBRANCH  20  21
ENDBRANCH  19  20
ENDBRANCH   2  19
BRANCH   1  25
HETATM   25  C2  UNL     1      -2.317  -1.644  -1.339  1.00  0.00     0.046 C 
HETATM   26  C1  UNL     1      -2.202  -0.757  -2.535  1.00  0.00     0.009 C 
ENDBRANCH   1  25
BRANCH   1  27
HETATM   27  O1  UNL     1      -1.901  -1.997   0.915  1.00  0.00    -0.222 OA
BRANCH  27  28
HETATM   28  O2  UNL     1      -1.412  -1.601   2.064  1.00  0.00    -0.249 OA
ATOM     29  H2  UNL     1      -1.548  -2.251   2.743  1.00  0.00     0.253 HD
ENDBRANCH  27  28
ENDBRANCH   1  27
BRANCH   7  30
HETATM   30  O3  UNL     1       0.476  -3.077   0.054  1.00  0.00    -0.359 OA
HETATM   31  C16 UNL     1       1.397  -4.092   0.315  1.00  0.00     0.209 C 
ENDBRANCH   7  30
BRANCH  18  32
HETATM   32  O6  UNL     1       2.129   0.777   1.082  1.00  0.00    -0.388 OA
ATOM     33  H6  UNL     1       3.055   0.702   1.282  1.00  0.00     0.210 HD
ENDBRANCH  18  32
BRANCH   9  34
HETATM   34  O4  UNL     1       2.906  -1.318   1.846  1.00  0.00    -0.390 OA
ATOM     35  H4  UNL     1       3.624  -1.536   2.428  1.00  0.00     0.210 HD
ENDBRANCH   9  34
BRANCH  13  36
HETATM   36  O5  UNL     1       7.541   1.827  -0.829  1.00  0.00    -0.354 OA
HETATM   37  C23 UNL     1       8.823   1.448  -0.373  1.00  0.00     0.210 C 
ENDBRANCH  13  36
TORSDOF 10
