REMARK  7 active torsions:
REMARK  status: ('A' for Active; 'I' for Inactive)
REMARK    1  A    between atoms: S1_2  and  C2_3 
REMARK    2  A    between atoms: C7_9  and  N1_10 
REMARK    3  A    between atoms: N1_10  and  C8_12 
REMARK    4  A    between atoms: C9_15  and  C10_16 
REMARK    5  A    between atoms: C12_22  and  C13_23 
REMARK    6  A    between atoms: C13_23  and  O1_24 
REMARK    7  A    between atoms: O1_24  and  C14_25 
ROOT
HETATM    1  C8  UNL     1      -2.039  -0.187   0.832  1.00  0.00     0.683 A 
HETATM    2  N2  UNL     1      -0.934   0.518   0.983  1.00  0.00    -0.187 N 
ATOM      3  H2  UNL     1      -1.062   1.461   1.351  1.00  0.00     0.184 HD
HETATM    4  C9  UNL     1       0.348   0.165   0.718  1.00  0.00     0.106 A 
HETATM    5  C17 UNL     1       0.460  -1.103   0.241  1.00  0.00     0.090 A 
HETATM    6  N5  UNL     1       1.484  -1.890  -0.079  1.00  0.00    -0.362 N 
ATOM      7  H5  UNL     1       2.457  -1.586  -0.039  1.00  0.00     0.165 HD
HETATM    8  C18 UNL     1       1.110  -3.135  -0.464  1.00  0.00     0.097 A 
HETATM    9  C19 UNL     1      -0.241  -3.153  -0.383  1.00  0.00    -0.017 A 
HETATM   10  C20 UNL     1      -1.115  -4.317  -0.718  1.00  0.00     0.052 C 
HETATM   11  C21 UNL     1      -0.676  -1.919   0.053  1.00  0.00     0.085 A 
HETATM   12  N6  UNL     1      -1.887  -1.443   0.351  1.00  0.00    -0.189 N 
ATOM     13  H6  UNL     1      -2.708  -2.033   0.215  1.00  0.00     0.184 HD
ENDROOT
BRANCH   4  14
HETATM   14  C10 UNL     1       1.371   1.131   1.061  1.00  0.00     0.087 A 
HETATM   15  N3  UNL     1       0.953   2.265   1.776  1.00  0.00    -0.298 N 
HETATM   16  N4  UNL     1       1.919   3.102   1.835  1.00  0.00    -0.311 N 
ATOM     17  H3  UNL     1       0.028   2.400   2.183  1.00  0.00     0.187 HD
HETATM   18  C11 UNL     1       2.984   2.677   1.233  1.00  0.00     0.118 A 
ATOM     19  H4  UNL     1       1.857   4.005   2.305  1.00  0.00     0.186 HD
HETATM   20  C12 UNL     1       2.645   1.399   0.722  1.00  0.00     0.013 A 
BRANCH  20  21
HETATM   21  C13 UNL     1       3.551   0.622  -0.097  1.00  0.00     0.210 C 
BRANCH  21  22
HETATM   22  O1  UNL     1       4.764   1.328  -0.268  1.00  0.00    -0.382 OA
BRANCH  22  23
HETATM   23  C14 UNL     1       5.620   0.601  -1.073  1.00  0.00     0.113 C 
HETATM   24  C15 UNL     1       5.865   1.278  -2.408  1.00  0.00     0.039 C 
HETATM   25  C16 UNL     1       6.929   0.397  -0.381  1.00  0.00     0.039 C 
ENDBRANCH  22  23
ENDBRANCH  21  22
ENDBRANCH  20  21
ENDBRANCH   4  14
BRANCH   1  26
HETATM   26  N1  UNL     1      -3.086   0.375   1.102  1.00  0.00    -0.190 N 
ATOM     27  H1  UNL     1      -2.825   1.317   1.392  1.00  0.00     0.184 HD
BRANCH  26  28
HETATM   28  C7  UNL     1      -4.413   0.327   1.193  1.00  0.00     0.067 A 
HETATM   29  C2  UNL     1      -5.223   1.310   0.598  1.00  0.00     0.027 A 
HETATM   30  C3  UNL     1      -6.588   1.253   0.701  1.00  0.00     0.022 A 
HETATM   31  C4  UNL     1      -7.214   0.223   1.396  1.00  0.00     0.020 A 
HETATM   32  C5  UNL     1      -6.446  -0.743   1.980  1.00  0.00     0.013 A 
HETATM   33 BR1  UNL     1      -7.358  -2.151   2.929  1.00  0.00    -0.051 Br
HETATM   34  C6  UNL     1      -5.089  -0.681   1.875  1.00  0.00     0.050 A 
BRANCH  29  35
HETATM   35  S1  UNL     1      -4.450   2.644  -0.296  1.00  0.00    -0.132 SA
HETATM   36  C1  UNL     1      -4.227   2.291  -2.045  1.00  0.00     0.095 C 
ENDBRANCH  29  35
ENDBRANCH  26  28
ENDBRANCH   1  26
TORSDOF 7
