REMARK  13 active torsions:
REMARK  status: ('A' for Active; 'I' for Inactive)
REMARK    1  A    between atoms: C3_3  and  C4_4 
REMARK    2  A    between atoms: C4_4  and  C5_5 
REMARK    3  A    between atoms: C5_5  and  C6_6 
REMARK    4  A    between atoms: C8_8  and  N1_9 
REMARK    5  A    between atoms: C10_11  and  C11_12 
REMARK    6  A    between atoms: C11_12  and  O1_13 
REMARK    7  A    between atoms: C11_12  and  N2_15 
REMARK    8  A    between atoms: C14_19  and  C15_20 
REMARK    9  A    between atoms: N4_26  and  C19_27 
REMARK   10  A    between atoms: C19_27  and  C20_28 
REMARK   11  A    between atoms: C20_28  and  C21_29 
REMARK   12  A    between atoms: C21_29  and  O2_30 
REMARK   13  A    between atoms: C24_33  and  O3_34 
ROOT
HETATM    1  C11 UNL     1      -1.182  -0.627   2.018  1.00  0.00     0.255 C 
ENDROOT
BRANCH   1   2
HETATM    2  C10 UNL     1       0.300  -0.476   1.857  1.00  0.00     0.010 A 
HETATM    3  C9  UNL     1       1.139  -1.156   1.012  1.00  0.00     0.111 A 
HETATM    4  N1  UNL     1       2.422  -0.735   1.215  1.00  0.00    -0.302 N 
HETATM    5  C24 UNL     1       2.419   0.187   2.162  1.00  0.00     0.147 A 
HETATM    6  C23 UNL     1       1.110   0.363   2.572  1.00  0.00     0.069 A 
BRANCH   4   7
HETATM    7  C8  UNL     1       3.521  -1.236   0.483  1.00  0.00     0.042 A 
HETATM    8  C7  UNL     1       4.675  -0.534   0.249  1.00  0.00     0.052 A 
HETATM    9  C6  UNL     1       5.683  -1.091  -0.505  1.00  0.00     0.042 A 
HETATM   10  C27 UNL     1       5.581  -2.371  -1.054  1.00  0.00     0.052 A 
HETATM   11  C26 UNL     1       4.440  -3.076  -0.826  1.00  0.00     0.028 A 
HETATM   12 CL1  UNL     1       6.855  -3.078  -2.007  1.00  0.00    -0.083 Cl
HETATM   13  C25 UNL     1       3.451  -2.516  -0.081  1.00  0.00     0.032 A 
BRANCH   9  14
HETATM   14  C5  UNL     1       6.908  -0.376  -0.797  1.00  0.00    -0.060 C 
BRANCH  14  15
HETATM   15  C4  UNL     1       7.930   0.219  -1.081  1.00  0.00    -0.073 C 
BRANCH  15  16
HETATM   16  C3  UNL     1       9.137   0.911  -1.448  1.00  0.00     0.060 C 
HETATM   17  C2  UNL     1       9.987   1.433  -0.598  1.00  0.00    -0.022 C 
HETATM   18  C1  UNL     1       9.790   1.363   0.867  1.00  0.00     0.036 C 
ENDBRANCH  15  16
ENDBRANCH  14  15
ENDBRANCH   9  14
ENDBRANCH   4   7
BRANCH   5  19
HETATM   19  O3  UNL     1       3.526   0.881   2.687  1.00  0.00    -0.346 OA
ATOM     20  H3  UNL     1       3.524   1.544   3.368  1.00  0.00     0.219 HD
ENDBRANCH   5  19
ENDBRANCH   1   2
BRANCH   1  21
HETATM   21  O1  UNL     1      -1.438  -2.018   2.328  1.00  0.00    -0.372 OA
ATOM     22  H1  UNL     1      -2.378  -2.114   2.430  1.00  0.00     0.212 HD
ENDBRANCH   1  21
BRANCH   1  23
HETATM   23  N2  UNL     1      -1.936  -0.359   0.902  1.00  0.00    -0.345 N 
HETATM   24  C12 UNL     1      -2.677   0.421   0.332  1.00  0.00     0.122 A 
HETATM   25  C13 UNL     1      -3.137   1.649   0.721  1.00  0.00     0.077 A 
HETATM   26  N4  UNL     1      -3.270   0.153  -0.871  1.00  0.00    -0.277 N 
HETATM   27  C14 UNL     1      -4.010   2.139  -0.239  1.00  0.00     0.037 A 
HETATM   28  N3  UNL     1      -4.036   1.168  -1.177  1.00  0.00    -0.300 N 
ATOM     29  H3  UNL     1      -4.592   1.220  -2.031  1.00  0.00     0.187 HD
ATOM     30  H2  UNL     1      -1.829  -1.161   0.281  1.00  0.00     0.164 HD
BRANCH  27  31
HETATM   31  C15 UNL     1      -4.758   3.416  -0.305  1.00  0.00    -0.007 C 
HETATM   32  C16 UNL     1      -6.207   3.260   0.114  1.00  0.00     0.021 C 
HETATM   33  C17 UNL     1      -4.781   3.889  -1.751  1.00  0.00     0.021 C 
HETATM   34  C18 UNL     1      -4.138   4.487   0.520  1.00  0.00     0.021 C 
ENDBRANCH  27  31
BRANCH  26  35
HETATM   35  C19 UNL     1      -3.090  -1.088  -1.650  1.00  0.00     0.153 C 
BRANCH  35  36
HETATM   36  C20 UNL     1      -4.143  -2.095  -1.182  1.00  0.00     0.048 C 
BRANCH  36  37
HETATM   37  C21 UNL     1      -4.053  -3.411  -1.908  1.00  0.00     0.168 C 
BRANCH  37  38
HETATM   38  O2  UNL     1      -4.987  -4.319  -1.484  1.00  0.00    -0.396 OA
HETATM   39  C22 UNL     1      -4.917  -4.680  -0.155  1.00  0.00     0.201 C 
ENDBRANCH  37  38
ENDBRANCH  36  37
ENDBRANCH  35  36
ENDBRANCH  26  35
ENDBRANCH   1  23
TORSDOF 13
