REMARK  12 active torsions:
REMARK  status: ('A' for Active; 'I' for Inactive)
REMARK    1  A    between atoms: C9_9  and  O1_10 
REMARK    2  A    between atoms: C11_13  and  O2_14 
REMARK    3  A    between atoms: C13_17  and  O3_18 
REMARK    4  A    between atoms: C17_24  and  C18_25 
REMARK    5  A    between atoms: C18_25  and  O4_26 
REMARK    6  A    between atoms: C18_25  and  C19_28 
REMARK    7  A    between atoms: C19_28  and  C20_29 
REMARK    8  A    between atoms: C20_29  and  C21_30 
REMARK    9  A    between atoms: C21_30  and  C22_31 
REMARK   10  A    between atoms: C22_31  and  O6_33 
REMARK   11  A    between atoms: O6_33  and  C23_34 
REMARK   12  A    between atoms: C23_34  and  C24_35 
ROOT
HETATM    1  C1  UNL     1      -0.363  -2.505   0.282  1.00  0.00     0.016 C 
HETATM    2  C2  UNL     1      -0.887  -1.178  -0.202  1.00  0.00    -0.034 C 
HETATM    3  C3  UNL     1      -2.048  -1.209  -1.119  1.00  0.00     0.011 C 
HETATM    4  C4  UNL     1      -3.371  -1.508  -0.442  1.00  0.00     0.014 C 
HETATM    5  C5  UNL     1      -3.609  -0.751   0.801  1.00  0.00    -0.001 C 
HETATM    6  C6  UNL     1      -3.390  -1.711   1.984  1.00  0.00     0.019 C 
HETATM    7  C7  UNL     1      -2.551   0.363   0.866  1.00  0.00     0.004 C 
HETATM    8  C8  UNL     1      -2.829   1.203   2.074  1.00  0.00     0.038 C 
HETATM    9  C9  UNL     1      -4.052   2.066   1.730  1.00  0.00     0.128 C 
HETATM   10  C10 UNL     1      -4.903   1.417   0.692  1.00  0.00     0.086 C 
HETATM   11  C11 UNL     1      -6.394   1.723   0.889  1.00  0.00     0.130 C 
HETATM   12  C12 UNL     1      -7.124   0.395   0.885  1.00  0.00     0.067 C 
HETATM   13  C13 UNL     1      -6.074  -0.491   0.176  1.00  0.00     0.161 C 
HETATM   14  C14 UNL     1      -4.900  -0.090   0.997  1.00  0.00     0.145 C 
HETATM   15  F1  UNL     1      -5.344  -0.096   2.336  1.00  0.00    -0.239 F 
HETATM   16  C15 UNL     1      -1.145  -0.140   0.850  1.00  0.00    -0.001 C 
HETATM   17  C16 UNL     1      -0.285   0.824   0.024  1.00  0.00     0.013 C 
HETATM   18  C17 UNL     1       0.287  -0.355  -0.678  1.00  0.00     0.023 C 
ENDROOT
BRANCH  18  19
HETATM   19  C18 UNL     1       0.471  -0.258  -2.156  1.00  0.00     0.123 C 
BRANCH  19  20
HETATM   20  O4  UNL     1       0.651  -1.578  -2.634  1.00  0.00    -0.395 OA
ATOM     21  H4  UNL     1       0.768  -1.516  -3.575  1.00  0.00     0.210 HD
ENDBRANCH  19  20
BRANCH  19  22
HETATM   22  C19 UNL     1       1.664   0.534  -2.572  1.00  0.00     0.032 C 
BRANCH  22  23
HETATM   23  C20 UNL     1       2.962  -0.006  -2.077  1.00  0.00     0.012 C 
BRANCH  23  24
HETATM   24  C21 UNL     1       4.136   0.833  -2.530  1.00  0.00     0.111 C 
BRANCH  24  25
HETATM   25  C22 UNL     1       5.418   0.260  -2.018  1.00  0.00     0.259 C 
HETATM   26  O5  UNL     1       5.356  -0.776  -1.319  1.00  0.00    -0.265 OA
BRANCH  25  27
HETATM   27  O6  UNL     1       6.637   0.826  -2.289  1.00  0.00    -0.317 OA
BRANCH  27  28
HETATM   28  C23 UNL     1       7.833   0.298  -1.815  1.00  0.00     0.217 C 
BRANCH  28  29
HETATM   29  C24 UNL     1       7.958   0.238  -0.348  1.00  0.00    -0.034 A 
HETATM   30  C25 UNL     1       7.152   0.887   0.543  1.00  0.00     0.009 A 
HETATM   31  C26 UNL     1       7.336   0.778   1.886  1.00  0.00     0.001 A 
HETATM   32  C27 UNL     1       8.360  -0.007   2.399  1.00  0.00     0.000 A 
HETATM   33  C28 UNL     1       9.179  -0.666   1.522  1.00  0.00     0.001 A 
HETATM   34  C29 UNL     1       8.980  -0.545   0.166  1.00  0.00     0.009 A 
ENDBRANCH  28  29
ENDBRANCH  27  28
ENDBRANCH  25  27
ENDBRANCH  24  25
ENDBRANCH  23  24
ENDBRANCH  22  23
ENDBRANCH  19  22
ENDBRANCH  18  19
BRANCH   9  35
HETATM   35  O1  UNL     1      -3.678   3.366   1.409  1.00  0.00    -0.395 OA
ATOM     36  H1  UNL     1      -4.434   3.900   1.196  1.00  0.00     0.210 HD
ENDBRANCH   9  35
BRANCH  13  37
HETATM   37  O3  UNL     1      -6.074   0.082  -1.119  1.00  0.00    -0.392 OA
ATOM     38  H3  UNL     1      -5.429  -0.462  -1.555  1.00  0.00     0.210 HD
ENDBRANCH  13  37
BRANCH  11  39
HETATM   39  O2  UNL     1      -6.617   2.399   2.081  1.00  0.00    -0.395 OA
ATOM     40  H2  UNL     1      -7.540   2.588   2.203  1.00  0.00     0.210 HD
ENDBRANCH  11  39
TORSDOF 12
