REMARK  10 active torsions:
REMARK  status: ('A' for Active; 'I' for Inactive)
REMARK    1  A    between atoms: N1_2  and  C2_3 
REMARK    2  A    between atoms: N1_2  and  C17_25 
REMARK    3  A    between atoms: C6_7  and  N2_8 
REMARK    4  A    between atoms: N2_8  and  C7_10 
REMARK    5  A    between atoms: C7_10  and  C8_11 
REMARK    6  A    between atoms: C8_11  and  C9_12 
REMARK    7  A    between atoms: C17_25  and  C18_26 
REMARK    8  A    between atoms: C17_25  and  C19_33 
REMARK    9  A    between atoms: C18_26  and  O1_27 
REMARK   10  A    between atoms: N5_29  and  O2_31 
ROOT
HETATM    1  C2  UNL     1      -1.736  -0.456   0.127  1.00  0.00     0.105 A 
HETATM    2  C3  UNL     1      -1.707  -0.882  -1.179  1.00  0.00     0.048 A 
HETATM    3  C4  UNL     1      -0.517  -0.828  -1.871  1.00  0.00     0.007 A 
HETATM    4  C5  UNL     1       0.626  -0.357  -1.268  1.00  0.00     0.048 A 
HETATM    5  C6  UNL     1       0.586   0.066   0.043  1.00  0.00     0.102 A 
HETATM    6  N4  UNL     1      -0.598  -0.004   0.677  1.00  0.00    -0.329 N 
ATOM      7  H4  UNL     1      -0.634   0.309   1.647  1.00  0.00     0.169 HD
ENDROOT
BRANCH   1   8
HETATM    8  N1  UNL     1      -2.953  -0.513   0.853  1.00  0.00    -0.355 N 
HETATM    9  C1  UNL     1      -3.197  -1.714   1.647  1.00  0.00     0.152 C 
BRANCH   8  10
HETATM   10  C17 UNL     1      -3.970   0.504   0.883  1.00  0.00     0.195 C 
BRANCH  10  11
HETATM   11  C18 UNL     1      -3.707   1.673   0.041  1.00  0.00     0.163 C 
HETATM   12  N5  UNL     1      -3.594   2.868   0.526  1.00  0.00    -0.249 N 
ATOM     13  H5  UNL     1      -3.694   2.984   1.534  1.00  0.00     0.196 HD
BRANCH  11  14
HETATM   14  O1  UNL     1      -3.565   1.563  -1.332  1.00  0.00    -0.346 OA
ATOM     15  H1  UNL     1      -3.394   2.321  -1.878  1.00  0.00     0.219 HD
ENDBRANCH  11  14
BRANCH  12  16
HETATM   16  O2  UNL     1      -3.352   3.971  -0.214  1.00  0.00    -0.288 OA
ATOM     17  H2  UNL     1      -3.269   4.848   0.142  1.00  0.00     0.244 HD
ENDBRANCH  12  16
ENDBRANCH  10  11
BRANCH  10  18
HETATM   18  C19 UNL     1      -5.353  -0.037   0.729  1.00  0.00    -0.028 A 
HETATM   19  C20 UNL     1      -5.628  -0.992  -0.207  1.00  0.00     0.010 A 
HETATM   20  C21 UNL     1      -6.909  -1.524  -0.382  1.00  0.00     0.001 A 
HETATM   21  C22 UNL     1      -7.925  -1.062   0.420  1.00  0.00     0.000 A 
HETATM   22  C23 UNL     1      -7.688  -0.100   1.374  1.00  0.00     0.001 A 
HETATM   23  C24 UNL     1      -6.403   0.410   1.525  1.00  0.00     0.010 A 
ENDBRANCH  10  18
ENDBRANCH   8  10
ENDBRANCH   1   8
BRANCH   5  24
HETATM   24  N2  UNL     1       1.650   0.505   0.635  1.00  0.00    -0.376 N 
ATOM     25  H2  UNL     1       1.546   0.803   1.605  1.00  0.00     0.161 HD
BRANCH  24  26
HETATM   26  C7  UNL     1       2.949   0.613   0.067  1.00  0.00     0.126 C 
BRANCH  26  27
HETATM   27  C8  UNL     1       3.700  -0.699   0.042  1.00  0.00     0.060 C 
BRANCH  27  28
HETATM   28  C9  UNL     1       5.055  -0.562  -0.549  1.00  0.00    -0.029 A 
HETATM   29  C10 UNL     1       5.465  -0.935  -1.819  1.00  0.00     0.096 A 
HETATM   30  N3  UNL     1       6.768  -0.622  -1.918  1.00  0.00    -0.365 N 
HETATM   31  C11 UNL     1       7.193  -0.070  -0.767  1.00  0.00     0.043 A 
ATOM     32  H3  UNL     1       7.348  -0.779  -2.742  1.00  0.00     0.165 HD
HETATM   33  C12 UNL     1       8.432   0.422  -0.342  1.00  0.00     0.031 A 
HETATM   34  C16 UNL     1       6.145  -0.013   0.125  1.00  0.00    -0.001 A 
HETATM   35  C13 UNL     1       8.561   0.939   0.937  1.00  0.00     0.021 A 
HETATM   36  C14 UNL     1       7.498   0.988   1.819  1.00  0.00     0.011 A 
HETATM   37 BR1  UNL     1       7.639   1.687   3.575  1.00  0.00    -0.051 Br
HETATM   38  C15 UNL     1       6.273   0.506   1.407  1.00  0.00     0.033 A 
ENDBRANCH  27  28
ENDBRANCH  26  27
ENDBRANCH  24  26
ENDBRANCH   5  24
TORSDOF 10
