REMARK  12 active torsions:
REMARK  status: ('A' for Active; 'I' for Inactive)
REMARK    1  A    between atoms: C2_2  and  C3_3 
REMARK    2  A    between atoms: C3_3  and  C4_4 
REMARK    3  A    between atoms: C4_4  and  O1_5 
REMARK    4  A    between atoms: C4_4  and  C5_7 
REMARK    5  A    between atoms: C5_7  and  C7_9 
REMARK    6  A    between atoms: C8_10  and  C9_11 
REMARK    7  A    between atoms: C9_11  and  N1_12 
REMARK    8  A    between atoms: N1_12  and  C10_15 
REMARK    9  A    between atoms: C10_15  and  C11_16 
REMARK   10  A    between atoms: C15_22  and  O2_23 
REMARK   11  A    between atoms: C20_29  and  O3_30 
REMARK   12  A    between atoms: C30_42  and  O4_43 
ROOT
HETATM    1  C7  UNL     1      -0.777   1.349  -1.004  1.00  0.00     0.008 C 
HETATM    2  C8  UNL     1      -0.992  -0.039  -1.541  1.00  0.00     0.017 C 
HETATM    3  C16 UNL     1       0.329  -0.282  -2.262  1.00  0.00     0.012 C 
HETATM    4  C17 UNL     1       1.174   0.043  -1.114  1.00  0.00     0.001 C 
HETATM    5  C18 UNL     1       2.628   0.045  -1.250  1.00  0.00    -0.002 C 
HETATM    6  C19 UNL     1       3.044  -1.077  -2.167  1.00  0.00     0.037 C 
HETATM    7  C20 UNL     1       4.508  -1.327  -1.852  1.00  0.00     0.123 C 
HETATM    8  C21 UNL     1       4.433  -2.151  -0.559  1.00  0.00     0.024 C 
HETATM    9  C22 UNL     1       5.785  -2.704  -0.171  1.00  0.00     0.028 C 
HETATM   10  C23 UNL     1       6.785  -1.660   0.183  1.00  0.00     0.083 C 
HETATM   11 CL1  UNL     1       8.028  -2.427   1.215  1.00  0.00    -0.125 Cl
HETATM   12  C24 UNL     1       6.097  -0.599   1.007  1.00  0.00     0.021 C 
HETATM   13  C25 UNL     1       4.844  -1.152   1.603  1.00  0.00     0.011 C 
HETATM   14  C26 UNL     1       3.753  -1.388   0.538  1.00  0.00    -0.034 C 
HETATM   15  C27 UNL     1       2.798  -2.365   1.222  1.00  0.00     0.016 C 
HETATM   16  C28 UNL     1       3.156  -0.093   0.166  1.00  0.00     0.001 C 
HETATM   17  C29 UNL     1       2.108   0.293   1.155  1.00  0.00     0.038 C 
HETATM   18  C30 UNL     1       1.248   1.498   0.678  1.00  0.00     0.127 C 
HETATM   19  C31 UNL     1       0.662   1.429  -0.623  1.00  0.00    -0.010 C 
HETATM   20  C32 UNL     1       1.333   2.457  -1.560  1.00  0.00     0.018 C 
ENDROOT
BRANCH   2  21
HETATM   21  C9  UNL     1      -1.566  -1.167  -0.867  1.00  0.00     0.237 C 
BRANCH  21  22
HETATM   22  N1  UNL     1      -2.945  -1.019  -0.531  1.00  0.00    -0.070 N 
ATOM     23  H12 UNL     1      -3.093  -0.170   0.015  1.00  0.00     0.277 HD
ATOM     24  H11 UNL     1      -3.494  -0.788  -1.359  1.00  0.00     0.277 HD
BRANCH  22  25
HETATM   25  C10 UNL     1      -3.504  -2.164   0.147  1.00  0.00     0.286 C 
BRANCH  25  26
HETATM   26  C11 UNL     1      -4.934  -1.872   0.429  1.00  0.00     0.037 C 
HETATM   27  N2  UNL     1      -5.520  -0.780   0.104  1.00  0.00    -0.393 N 
HETATM   28  C12 UNL     1      -6.909  -0.538   0.397  1.00  0.00     0.119 C 
ATOM     29  H2  UNL     1      -4.985  -0.058  -0.378  1.00  0.00     0.159 HD
HETATM   30  C13 UNL     1      -7.782  -1.737   0.248  1.00  0.00     0.022 C 
HETATM   31  C14 UNL     1      -7.031  -3.034   0.258  1.00  0.00     0.039 C 
HETATM   32  C15 UNL     1      -5.813  -2.874   1.136  1.00  0.00     0.165 C 
BRANCH  32  33
HETATM   33  O2  UNL     1      -6.198  -2.306   2.340  1.00  0.00    -0.390 OA
ATOM     34  H2  UNL     1      -6.751  -2.937   2.785  1.00  0.00     0.210 HD
ENDBRANCH  32  33
ENDBRANCH  25  26
ENDBRANCH  22  25
ENDBRANCH  21  22
ENDBRANCH   2  21
BRANCH   1  35
HETATM   35  C5  UNL     1      -1.843   1.864  -0.127  1.00  0.00     0.016 C 
HETATM   36  C6  UNL     1      -1.897   1.247   1.268  1.00  0.00     0.013 C 
BRANCH  35  37
HETATM   37  C4  UNL     1      -1.931   3.322   0.189  1.00  0.00     0.125 C 
BRANCH  37  38
HETATM   38  C3  UNL     1      -0.984   4.073   1.009  1.00  0.00     0.058 C 
BRANCH  38  39
HETATM   39  C2  UNL     1      -1.543   5.489   1.080  1.00  0.00    -0.034 C 
HETATM   40  C1  UNL     1      -0.843   6.485   0.635  1.00  0.00     0.007 C 
ENDBRANCH  38  39
ENDBRANCH  37  38
BRANCH  37  41
HETATM   41  O1  UNL     1      -3.194   3.490   0.935  1.00  0.00    -0.395 OA
ATOM     42  H1  UNL     1      -3.810   3.002   0.402  1.00  0.00     0.210 HD
ENDBRANCH  37  41
ENDBRANCH  35  37
ENDBRANCH   1  35
BRANCH  18  43
HETATM   43  O4  UNL     1       2.229   2.550   0.721  1.00  0.00    -0.395 OA
ATOM     44  H4  UNL     1       1.704   3.286   0.430  1.00  0.00     0.210 HD
ENDBRANCH  18  43
BRANCH   7  45
HETATM   45  O3  UNL     1       5.012  -2.143  -2.854  1.00  0.00    -0.395 OA
ATOM     46  H3  UNL     1       5.928  -2.299  -2.657  1.00  0.00     0.210 HD
ENDBRANCH   7  45
TORSDOF 12
