REMARK  7 active torsions:
REMARK  status: ('A' for Active; 'I' for Inactive)
REMARK    1  A    between atoms: C2_2  and  C3_3 
REMARK    2  A    between atoms: C3_3  and  C4_4 
REMARK    3  A    between atoms: C4_4  and  C5_5 
REMARK    4  A    between atoms: C6_9  and  C7_10 
REMARK    5  A    between atoms: C8_12  and  C9_13 
REMARK    6  A    between atoms: C9_13  and  O3_15 
REMARK    7  A    between atoms: O3_15  and  C10_16 
REMARK       I    between atoms: N2_23  and  C16_24 
ROOT
HETATM    1  C9  UNL     1      -0.921   2.173  -1.032  1.00  0.00     0.300 C 
HETATM    2  O2  UNL     1      -1.068   3.282  -1.543  1.00  0.00    -0.259 OA
ENDROOT
BRANCH   1   3
HETATM    3  C8  UNL     1       0.407   1.679  -0.600  1.00  0.00     0.082 A 
HETATM    4  S1  UNL     1       1.927   2.449  -0.693  1.00  0.00    -0.078 SA
HETATM    5  C7  UNL     1       2.894   1.227  -0.000  1.00  0.00     0.076 A 
HETATM    6  C20 UNL     1       1.991   0.248   0.285  1.00  0.00     0.034 A 
HETATM    7  C19 UNL     1       0.708   0.473  -0.021  1.00  0.00     0.045 A 
HETATM    8 BR1  UNL     1       2.576  -1.411   1.108  1.00  0.00    -0.049 Br
BRANCH   5   9
HETATM    9  C6  UNL     1       4.356   1.237   0.231  1.00  0.00     0.190 A 
HETATM   10  O1  UNL     1       5.184   2.196  -0.057  1.00  0.00    -0.217 OA
HETATM   11  N1  UNL     1       6.400   1.838   0.296  1.00  0.00    -0.247 N 
HETATM   12  C5  UNL     1       6.333   0.598   0.828  1.00  0.00     0.104 A 
ATOM     13  H1  UNL     1       7.245   2.399   0.187  1.00  0.00     0.196 HD
HETATM   14  N5  UNL     1       5.038   0.230   0.781  1.00  0.00    -0.322 N 
ATOM     15  H5  UNL     1       4.650  -0.656   1.106  1.00  0.00     0.169 HD
BRANCH  12  16
HETATM   16  C4  UNL     1       7.430  -0.243   1.372  1.00  0.00     0.078 C 
BRANCH  16  17
HETATM   17  C3  UNL     1       8.035  -1.115   0.276  1.00  0.00     0.007 C 
BRANCH  17  18
HETATM   18  C2  UNL     1       9.139  -1.950   0.866  1.00  0.00    -0.004 C 
HETATM   19  C1  UNL     1       9.723  -2.808  -0.246  1.00  0.00     0.005 C 
ENDBRANCH  17  18
ENDBRANCH  16  17
ENDBRANCH  12  16
ENDBRANCH   5   9
ENDBRANCH   1   3
BRANCH   1  20
HETATM   20  O3  UNL     1      -2.014   1.385  -0.862  1.00  0.00    -0.312 OA
BRANCH  20  21
HETATM   21  C10 UNL     1      -3.333   1.738  -1.230  1.00  0.00     0.134 C 
HETATM   22  C11 UNL     1      -3.692   0.795  -2.342  1.00  0.00     0.033 C 
HETATM   23  C12 UNL     1      -4.090  -0.569  -1.947  1.00  0.00     0.012 C 
HETATM   24  C13 UNL     1      -4.346  -0.592  -0.468  1.00  0.00     0.042 C 
HETATM   25  C14 UNL     1      -5.260  -1.655   0.004  1.00  0.00     0.154 C 
HETATM   26  C17 UNL     1      -5.256   0.634  -0.268  1.00  0.00     0.127 C 
HETATM   27  C15 UNL     1      -4.510  -2.888   0.441  1.00  0.00     0.042 C 
HETATM   28  O4  UNL     1      -5.809  -1.069   1.170  1.00  0.00    -0.270 OA
HETATM   29  N2  UNL     1      -5.961   0.237   0.885  1.00  0.00    -0.224 N 
HETATM   30  C16 UNL     1      -6.755   1.096   1.681  1.00  0.00     0.208 C 
HETATM   31  N3  UNL     1      -6.609   1.202   2.958  1.00  0.00    -0.372 N 
HETATM   32  N4  UNL     1      -7.737   1.851   0.999  1.00  0.00    -0.062 NA
ATOM     33  H32 UNL     1      -5.901   0.657   3.450  1.00  0.00     0.158 HD
ATOM     34  H31 UNL     1      -7.181   1.821   3.532  1.00  0.00     0.158 HD
HETATM   35  C18 UNL     1      -4.295   1.779  -0.101  1.00  0.00     0.061 C 
ENDBRANCH  20  21
ENDBRANCH   1  20
TORSDOF 7
