REMARK  8 active torsions:
REMARK  status: ('A' for Active; 'I' for Inactive)
REMARK    1  A    between atoms: C2_2  and  O1_4 
REMARK    2  A    between atoms: O1_4  and  C4_5 
REMARK    3  A    between atoms: C4_5  and  C5_7 
REMARK    4  A    between atoms: C5_7  and  C6_8 
REMARK    5  A    between atoms: C6_8  and  O3_10 
REMARK    6  A    between atoms: O3_10  and  C8_11 
REMARK    7  A    between atoms: C12_16  and  N1_17 
REMARK       I    between atoms: N1_17  and  C13_19 
REMARK       I    between atoms: C13_19  and  N2_21 
REMARK    8  A    between atoms: N3_23  and  C14_25 
ROOT
HETATM    1  C8  UNL     1      -1.531   0.457  -0.226  1.00  0.00     0.156 C 
HETATM    2  C9  UNL     1      -0.786   0.004   0.973  1.00  0.00     0.147 C 
HETATM    3  C10 UNL     1      -0.457   1.210   1.866  1.00  0.00     0.042 C 
HETATM    4  O4  UNL     1       0.346  -0.713   0.815  1.00  0.00    -0.374 OA
HETATM    5  C11 UNL     1       0.819  -0.800  -0.449  1.00  0.00     0.176 C 
HETATM    6  C12 UNL     1       2.311  -1.082  -0.525  1.00  0.00     0.141 C 
HETATM    7  C21 UNL     1       2.657  -0.401  -1.832  1.00  0.00     0.196 C 
HETATM    8  O6  UNL     1       1.580   0.377  -2.196  1.00  0.00    -0.381 OA
HETATM    9  C22 UNL     1       0.815   0.591  -1.070  1.00  0.00     0.158 C 
HETATM   10  C23 UNL     1      -0.623   0.913  -1.356  1.00  0.00     0.045 C 
HETATM   11  C24 UNL     1      -0.723   2.402  -1.611  1.00  0.00     0.015 C 
ENDROOT
BRANCH   6  12
HETATM   12  N1  UNL     1       2.987  -0.383   0.563  1.00  0.00    -0.333 N 
HETATM   13  C13 UNL     1       3.815  -1.068   1.490  1.00  0.00     0.335 C 
HETATM   14  O5  UNL     1       4.001  -2.330   1.403  1.00  0.00    -0.246 OA
HETATM   15  N2  UNL     1       4.464  -0.376   2.540  1.00  0.00    -0.250 N 
HETATM   16  N3  UNL     1       5.556   0.227   2.446  1.00  0.00    -0.280 N 
ATOM     17  H2  UNL     1       4.003  -0.368   3.450  1.00  0.00     0.192 HD
ATOM     18  H3  UNL     1       5.915   0.687   3.282  1.00  0.00     0.189 HD
ATOM     19  H1  UNL     1       2.861   0.625   0.660  1.00  0.00     0.164 HD
BRANCH  16  20
HETATM   20  C14 UNL     1       6.333   0.318   1.258  1.00  0.00     0.147 A 
HETATM   21  N4  UNL     1       6.025   0.891   0.081  1.00  0.00    -0.283 N 
HETATM   22  N5  UNL     1       7.029   0.749  -0.757  1.00  0.00    -0.298 N 
ATOM     23  H4  UNL     1       5.146   1.364  -0.130  1.00  0.00     0.188 HD
HETATM   24  C15 UNL     1       8.025   0.079  -0.154  1.00  0.00     0.062 A 
ATOM     25  H5  UNL     1       7.048   1.094  -1.717  1.00  0.00     0.187 HD
HETATM   26  C16 UNL     1       9.274  -0.325  -0.577  1.00  0.00     0.035 A 
HETATM   27  C20 UNL     1       7.607  -0.203   1.122  1.00  0.00     0.042 A 
HETATM   28  C17 UNL     1      10.132  -1.022   0.267  1.00  0.00     0.044 A 
HETATM   29  C18 UNL     1       9.718  -1.312   1.554  1.00  0.00     0.117 A 
HETATM   30  F1  UNL     1      10.558  -1.996   2.386  1.00  0.00    -0.206 F 
HETATM   31  C19 UNL     1       8.469  -0.894   1.940  1.00  0.00     0.060 A 
ENDBRANCH  16  20
ENDBRANCH   6  12
BRANCH   1  32
HETATM   32  O3  UNL     1      -2.391  -0.485  -0.765  1.00  0.00    -0.378 OA
BRANCH  32  33
HETATM   33  C6  UNL     1      -3.709  -0.086  -0.812  1.00  0.00     0.127 C 
HETATM   34  C7  UNL     1      -4.189   0.055  -2.233  1.00  0.00     0.040 C 
BRANCH  33  35
HETATM   35  C5  UNL     1      -4.642  -0.906   0.022  1.00  0.00     0.142 C 
BRANCH  35  36
HETATM   36  C4  UNL     1      -5.968  -0.210   0.015  1.00  0.00     0.261 C 
HETATM   37  O2  UNL     1      -6.161   0.870  -0.614  1.00  0.00    -0.265 OA
BRANCH  36  38
HETATM   38  O1  UNL     1      -7.070  -0.713   0.702  1.00  0.00    -0.317 OA
BRANCH  38  39
HETATM   39  C2  UNL     1      -8.334  -0.064   0.705  1.00  0.00     0.123 C 
HETATM   40  C1  UNL     1      -8.740   0.346   2.103  1.00  0.00     0.040 C 
HETATM   41  C3  UNL     1      -9.359  -0.982   0.076  1.00  0.00     0.040 C 
ENDBRANCH  38  39
ENDBRANCH  36  38
ENDBRANCH  35  36
ENDBRANCH  33  35
ENDBRANCH  32  33
ENDBRANCH   1  32
TORSDOF 8
