REMARK  7 active torsions:
REMARK  status: ('A' for Active; 'I' for Inactive)
REMARK    1  A    between atoms: N1_2  and  C3_4 
REMARK    2  A    between atoms: C3_4  and  C4_5 
REMARK    3  A    between atoms: C7_8  and  N2_9 
REMARK    4  A    between atoms: N2_9  and  C8_11 
REMARK    5  A    between atoms: C11_16  and  C12_17 
REMARK    6  A    between atoms: C19_26  and  C20_27 
REMARK    7  A    between atoms: C23_35  and  N7_36 
ROOT
HETATM    1  C20 UNL     1      -4.165  -0.881  -0.181  1.00  0.00     0.130 A 
HETATM    2  N4  UNL     1      -5.449  -0.502  -0.039  1.00  0.00    -0.327 N 
ATOM      3  H4  UNL     1      -5.758   0.451   0.153  1.00  0.00     0.168 HD
HETATM    4  C21 UNL     1      -6.253  -1.542  -0.184  1.00  0.00     0.190 A 
HETATM    5  C22 UNL     1      -7.687  -1.454  -0.087  1.00  0.00     0.137 C 
HETATM    6  N5  UNL     1      -8.852  -1.385  -0.025  1.00  0.00    -0.188 NA
HETATM    7  N6  UNL     1      -5.491  -2.610  -0.422  1.00  0.00    -0.318 N 
ATOM      8  H6  UNL     1      -5.834  -3.558  -0.576  1.00  0.00     0.169 HD
HETATM    9  C23 UNL     1      -4.174  -2.232  -0.427  1.00  0.00     0.136 A 
ENDROOT
BRANCH   1  10
HETATM   10  C19 UNL     1      -2.992   0.004  -0.095  1.00  0.00     0.179 A 
HETATM   11  O1  UNL     1      -2.991   1.294   0.133  1.00  0.00    -0.288 OA
HETATM   12  C18 UNL     1      -1.774   1.795   0.148  1.00  0.00     0.119 A 
HETATM   13  C11 UNL     1      -1.482   3.144   0.370  1.00  0.00     0.012 C 
HETATM   14  C26 UNL     1      -0.924   0.736  -0.091  1.00  0.00     0.114 A 
HETATM   15  C10 UNL     1      -0.301   3.778   0.069  1.00  0.00     0.032 C 
HETATM   16  C9  UNL     1       0.906   3.175  -0.221  1.00  0.00     0.090 C 
HETATM   17  N3  UNL     1       1.237   1.869  -0.112  1.00  0.00    -0.350 N 
HETATM   18  C8  UNL     1       0.455   0.775  -0.167  1.00  0.00     0.135 C 
ATOM     19  H3  UNL     1       2.230   1.685   0.034  1.00  0.00     0.166 HD
HETATM   20  N8  UNL     1      -1.702  -0.325  -0.232  1.00  0.00    -0.329 N 
ATOM     21  H8  UNL     1      -1.363  -1.269  -0.420  1.00  0.00     0.168 HD
BRANCH  13  22
HETATM   22  C12 UNL     1      -2.525   3.931   0.968  1.00  0.00    -0.023 A 
HETATM   23  C13 UNL     1      -3.203   3.400   2.041  1.00  0.00     0.015 A 
HETATM   24  C14 UNL     1      -4.207   4.147   2.623  1.00  0.00     0.043 A 
HETATM   25  C15 UNL     1      -4.505   5.399   2.120  1.00  0.00     0.116 A 
HETATM   26  F1  UNL     1      -5.480   6.135   2.677  1.00  0.00    -0.206 F 
HETATM   27  C16 UNL     1      -3.827   5.939   1.039  1.00  0.00     0.043 A 
HETATM   28  C17 UNL     1      -2.825   5.182   0.467  1.00  0.00     0.015 A 
ENDBRANCH  13  22
BRANCH  18  29
HETATM   29  N2  UNL     1       0.982  -0.382  -0.302  1.00  0.00    -0.341 N 
ATOM     30  H2  UNL     1       0.391  -1.212  -0.343  1.00  0.00     0.167 HD
BRANCH  29  31
HETATM   31  C7  UNL     1       2.391  -0.507  -0.394  1.00  0.00     0.033 A 
HETATM   32  C6  UNL     1       3.137  -0.346   0.750  1.00  0.00     0.030 A 
HETATM   33  C5  UNL     1       4.509  -0.470   0.650  1.00  0.00     0.011 A 
HETATM   34  C4  UNL     1       5.173  -0.742  -0.512  1.00  0.00    -0.030 A 
HETATM   35  C28 UNL     1       4.404  -0.903  -1.670  1.00  0.00     0.011 A 
HETATM   36  C27 UNL     1       3.010  -0.782  -1.593  1.00  0.00     0.030 A 
BRANCH  34  37
HETATM   37  C3  UNL     1       6.642  -0.875  -0.616  1.00  0.00     0.309 C 
BRANCH  37  38
HETATM   38  N1  UNL     1       7.113  -2.226  -0.455  1.00  0.00     0.084 N 
HETATM   39  C1  UNL     1       6.577  -3.128  -1.444  1.00  0.00     0.309 C 
HETATM   40  C2  UNL     1       6.721  -2.715   0.852  1.00  0.00     0.309 C 
ENDBRANCH  37  38
ENDBRANCH  34  37
ENDBRANCH  29  31
ENDBRANCH  18  29
ENDBRANCH   1  10
BRANCH   9  41
HETATM   41  N7  UNL     1      -3.090  -3.126  -0.631  1.00  0.00    -0.374 N 
HETATM   42  C24 UNL     1      -2.170  -3.452   0.437  1.00  0.00     0.150 C 
HETATM   43  C25 UNL     1      -2.887  -3.731  -1.923  1.00  0.00     0.150 C 
ENDBRANCH   9  41
TORSDOF 7
