REMARK  6 active torsions:
REMARK  status: ('A' for Active; 'I' for Inactive)
REMARK    1  A    between atoms: C2_2  and  C4_4 
REMARK    2  A    between atoms: C2_2  and  N1_10 
REMARK    3  A    between atoms: C12_13  and  C13_14 
REMARK    4  A    between atoms: C13_14  and  O1_15 
REMARK    5  A    between atoms: N3_22  and  C18_23 
REMARK    6  A    between atoms: C18_23  and  C19_24 
ROOT
HETATM    1  C13 UNL     1       0.850  -1.256   0.487  1.00  0.00     0.114 C 
HETATM    2  C14 UNL     1       0.858  -2.599  -0.158  1.00  0.00     0.066 C 
HETATM    3  C15 UNL     1       2.164  -3.326  -0.087  1.00  0.00     0.109 C 
HETATM    4  C16 UNL     1       2.458  -3.774  -1.465  1.00  0.00     0.065 C 
HETATM    5  N2  UNL     1       2.676  -4.109  -2.567  1.00  0.00    -0.197 NA
HETATM    6  C17 UNL     1       3.325  -2.350   0.242  1.00  0.00     0.114 C 
HETATM    7  N3  UNL     1       2.962  -1.201  -0.599  1.00  0.00    -0.287 NA
HETATM    8  C24 UNL     1       2.060  -0.433   0.254  1.00  0.00     0.139 C 
ENDROOT
BRANCH   1   9
HETATM    9  C12 UNL     1      -0.293  -0.471  -0.064  1.00  0.00     0.063 A 
HETATM   10  C11 UNL     1      -0.538  -0.252  -1.412  1.00  0.00     0.048 A 
HETATM   11  C10 UNL     1      -1.648   0.525  -1.553  1.00  0.00     0.113 A 
HETATM   12  N1  UNL     1      -2.082   0.779  -0.317  1.00  0.00    -0.289 N 
HETATM   13  N5  UNL     1      -1.271   0.184   0.576  1.00  0.00    -0.299 N 
ATOM     14  H5  UNL     1      -1.384   0.225   1.589  1.00  0.00     0.187 HD
BRANCH  12  15
HETATM   15  C2  UNL     1      -3.209   1.564   0.102  1.00  0.00     0.072 C 
HETATM   16  C1  UNL     1      -2.889   2.302   1.381  1.00  0.00     0.046 C 
HETATM   17  C3  UNL     1      -3.444   2.672  -0.951  1.00  0.00     0.046 C 
BRANCH  15  18
HETATM   18  C4  UNL     1      -4.470   0.817   0.236  1.00  0.00    -0.029 A 
HETATM   19  C5  UNL     1      -5.432   1.228   1.116  1.00  0.00     0.010 A 
HETATM   20  C6  UNL     1      -6.603   0.500   1.215  1.00  0.00     0.001 A 
HETATM   21  C7  UNL     1      -6.846  -0.628   0.463  1.00  0.00     0.000 A 
HETATM   22  C8  UNL     1      -5.888  -1.057  -0.430  1.00  0.00     0.001 A 
HETATM   23  C9  UNL     1      -4.715  -0.325  -0.524  1.00  0.00     0.010 A 
ENDBRANCH  15  18
ENDBRANCH  12  15
ENDBRANCH   1   9
BRANCH   1  24
HETATM   24  O1  UNL     1       0.573  -1.449   1.869  1.00  0.00    -0.382 OA
ATOM     25  H1  UNL     1       1.301  -1.949   2.220  1.00  0.00     0.211 HD
ENDBRANCH   1  24
BRANCH   7  26
HETATM   26  C18 UNL     1       4.019  -0.446  -1.136  1.00  0.00     0.071 C 
BRANCH  26  27
HETATM   27  C19 UNL     1       4.775   0.436  -0.284  1.00  0.00    -0.023 A 
HETATM   28  C20 UNL     1       5.426   0.033   0.838  1.00  0.00     0.029 A 
HETATM   29  C21 UNL     1       6.113   0.972   1.571  1.00  0.00     0.088 A 
HETATM   30  N4  UNL     1       6.148   2.273   1.194  1.00  0.00    -0.375 N 
HETATM   31  C22 UNL     1       5.519   2.713   0.095  1.00  0.00     0.088 A 
ATOM     32  H4  UNL     1       6.669   2.939   1.764  1.00  0.00     0.164 HD
HETATM   33  C23 UNL     1       4.829   1.796  -0.649  1.00  0.00     0.029 A 
ENDBRANCH  26  27
ENDBRANCH   7  26
TORSDOF 6
