REMARK  10 active torsions:
REMARK  status: ('A' for Active; 'I' for Inactive)
REMARK    1  A    between atoms: O1_2  and  C2_3 
REMARK    2  A    between atoms: C2_3  and  C3_5 
REMARK    3  A    between atoms: C7_9  and  O3_10 
REMARK    4  A    between atoms: C8_12  and  O4_14 
REMARK    5  A    between atoms: C14_20  and  C15_21 
REMARK    6  A    between atoms: C15_21  and  C17_23 
REMARK    7  A    between atoms: C17_23  and  C18_24 
REMARK    8  A    between atoms: C18_24  and  C19_25 
REMARK    9  A    between atoms: C23_29  and  C25_31 
REMARK   10  A    between atoms: C25_31  and  C27_33 
ROOT
HETATM    1  C3  UNL     1      -1.750  -0.804  -0.585  1.00  0.00     0.057 C 
HETATM    2  C4  UNL     1      -1.463  -0.382  -2.031  1.00  0.00     0.027 C 
HETATM    3  C5  UNL     1      -2.252   0.453   0.050  1.00  0.00     0.018 C 
HETATM    4  C6  UNL     1      -3.419   1.095  -0.622  1.00  0.00     0.041 C 
HETATM    5  C7  UNL     1      -3.778   2.131   0.470  1.00  0.00     0.153 C 
HETATM    6  C8  UNL     1      -2.461   2.475   1.060  1.00  0.00     0.087 C 
HETATM    7  C9  UNL     1      -2.093   3.915   1.006  1.00  0.00     0.049 C 
HETATM    8  C10 UNL     1      -1.402   1.575   0.353  1.00  0.00    -0.006 C 
HETATM    9  C11 UNL     1      -0.975   2.469  -0.811  1.00  0.00     0.019 C 
HETATM   10  C12 UNL     1      -0.264   1.496   1.272  1.00  0.00     0.013 C 
HETATM   11  C13 UNL     1       0.478   0.255   1.530  1.00  0.00     0.007 C 
HETATM   12  C14 UNL     1       0.608  -0.804   0.441  1.00  0.00    -0.001 C 
HETATM   13  C23 UNL     1      -0.673  -1.507   0.099  1.00  0.00    -0.014 C 
HETATM   14  C24 UNL     1      -1.267  -1.561   1.599  1.00  0.00     0.018 C 
ENDROOT
BRANCH  12  15
HETATM   15  C15 UNL     1       1.811  -0.566  -0.305  1.00  0.00    -0.014 C 
HETATM   16  C16 UNL     1       2.262  -1.344  -1.481  1.00  0.00     0.010 C 
BRANCH  15  17
HETATM   17  C17 UNL     1       3.048  -0.737   0.635  1.00  0.00     0.008 C 
BRANCH  17  18
HETATM   18  C18 UNL     1       4.360  -0.476   0.015  1.00  0.00     0.028 C 
BRANCH  18  19
HETATM   19  C19 UNL     1       4.591   0.904  -0.487  1.00  0.00    -0.025 C 
HETATM   20  C20 UNL     1       5.560   1.689  -0.078  1.00  0.00    -0.091 C 
HETATM   21  C21 UNL     1       6.504   1.188   0.956  1.00  0.00     0.042 C 
HETATM   22  C22 UNL     1       5.750   3.056  -0.608  1.00  0.00     0.042 C 
ENDBRANCH  18  19
ENDBRANCH  17  18
ENDBRANCH  15  17
ENDBRANCH  12  15
BRANCH  13  23
HETATM   23  C25 UNL     1      -0.450  -2.956  -0.035  1.00  0.00     0.053 C 
HETATM   24  C26 UNL     1      -1.453  -3.961   0.472  1.00  0.00     0.018 C 
BRANCH  23  25
HETATM   25  C27 UNL     1      -0.232  -3.486  -1.408  1.00  0.00     0.236 C 
HETATM   26  O5  UNL     1       0.113  -4.618  -1.667  1.00  0.00    -0.306 OA
ENDBRANCH  23  25
ENDBRANCH  13  23
BRANCH   1  27
HETATM   27  C2  UNL     1      -3.001  -1.583  -0.720  1.00  0.00     0.268 C 
HETATM   28  O2  UNL     1      -3.914  -1.730   0.120  1.00  0.00    -0.264 OA
BRANCH  27  29
HETATM   29  O1  UNL     1      -3.319  -2.294  -1.901  1.00  0.00    -0.326 OA
HETATM   30  C1  UNL     1      -4.477  -3.038  -2.100  1.00  0.00     0.213 C 
ENDBRANCH  27  29
ENDBRANCH   1  27
BRANCH   6  31
HETATM   31  O4  UNL     1      -2.542   2.134   2.428  1.00  0.00    -0.387 OA
ATOM     32  H4  UNL     1      -1.699   2.354   2.806  1.00  0.00     0.210 HD
ENDBRANCH   6  31
BRANCH   5  33
HETATM   33  O3  UNL     1      -4.685   1.569   1.366  1.00  0.00    -0.393 OA
ATOM     34  H3  UNL     1      -4.905   2.205   2.036  1.00  0.00     0.210 HD
ENDBRANCH   5  33
TORSDOF 10
