REMARK  2 active torsions:
REMARK  status: ('A' for Active; 'I' for Inactive)
REMARK       I    between atoms: N2_3  and  C2_5 
REMARK    1  A    between atoms: N4_7  and  N5_9 
REMARK       I    between atoms: N5_9  and  C3_11 
REMARK    2  A    between atoms: N7_13  and  N8_15 
ROOT
HETATM    1  N1  UNL     1       4.388   2.263   0.700  1.00  0.00    -0.172 NA
HETATM    2  C1  UNL     1       3.637   1.660   0.047  1.00  0.00     0.184 C 
HETATM    3  N2  UNL     1       2.752   0.928  -0.748  1.00  0.00    -0.266 N 
ATOM      4  H2  UNL     1       2.805   0.970  -1.766  1.00  0.00     0.180 HD
HETATM    5  C2  UNL     1       1.775   0.122  -0.099  1.00  0.00     0.216 C 
HETATM    6  N3  UNL     1       1.847  -1.307  -0.120  1.00  0.00    -0.061 NA
HETATM    7  N4  UNL     1       0.829   0.771   0.502  1.00  0.00    -0.271 N 
ATOM      8  H4  UNL     1       0.793   1.790   0.506  1.00  0.00     0.189 HD
ENDROOT
BRANCH   7   9
HETATM    9  N5  UNL     1      -0.140  -0.004   1.144  1.00  0.00    -0.270 N 
HETATM   10  C3  UNL     1      -1.479  -0.047   0.675  1.00  0.00     0.221 C 
HETATM   11  N6  UNL     1      -2.210  -1.236   0.906  1.00  0.00    -0.061 NA
HETATM   12  N7  UNL     1      -2.032   0.947   0.058  1.00  0.00    -0.279 N 
ATOM     13  H7  UNL     1      -1.504   1.804  -0.108  1.00  0.00     0.189 HD
ATOM     14  H5  UNL     1       0.120  -0.550   1.966  1.00  0.00     0.189 HD
BRANCH  12  15
HETATM   15  N8  UNL     1      -3.348   0.844  -0.378  1.00  0.00    -0.343 N 
ATOM     16  H82 UNL     1      -3.862  -0.020  -0.204  1.00  0.00     0.176 HD
ATOM     17  H81 UNL     1      -3.784   1.628  -0.864  1.00  0.00     0.176 HD
ENDBRANCH  12  15
ENDBRANCH   7   9
TORSDOF 2
