REMARK  0 active torsions:
REMARK  status: ('A' for Active; 'I' for Inactive)
REMARK       I    between atoms: N5_13  and  C3_14 
ROOT
HETATM    1  N1  UNL     1      -0.490   1.843  -0.343  1.00  0.00    -0.379 N 
ATOM      2  H11 UNL     1      -1.496   1.863  -0.175  1.00  0.00     0.158 HD
ATOM      3  H12 UNL     1      -0.059   2.737  -0.578  1.00  0.00     0.158 HD
HETATM    4  C1  UNL     1       0.203   0.760  -0.266  1.00  0.00     0.197 C 
HETATM    5  C2  UNL     1       1.642   0.732  -0.506  1.00  0.00     0.306 C 
HETATM    6  O1  UNL     1       2.236   1.790  -0.799  1.00  0.00    -0.262 OA
HETATM    7  N2  UNL     1       2.268  -0.531  -0.385  1.00  0.00    -0.247 N 
ATOM      8  H2  UNL     1       3.156  -0.713  -0.853  1.00  0.00     0.192 HD
HETATM    9  N3  UNL     1       1.670  -1.505   0.367  1.00  0.00    -0.225 N 
ATOM     10  H3  UNL     1       2.211  -2.094   1.000  1.00  0.00     0.210 HD
HETATM   11  N4  UNL     1       0.327  -1.655   0.237  1.00  0.00    -0.216 N 
ATOM     12  H4  UNL     1      -0.121  -2.571   0.266  1.00  0.00     0.210 HD
HETATM   13  N5  UNL     1      -0.397  -0.486   0.062  1.00  0.00    -0.170 N 
HETATM   14  C3  UNL     1      -1.816  -0.511   0.212  1.00  0.00     0.357 C 
HETATM   15  N6  UNL     1      -2.621   0.651   0.046  1.00  0.00    -0.038 NA
HETATM   16  O2  UNL     1      -2.412  -1.580   0.501  1.00  0.00    -0.248 OA
ENDROOT
TORSDOF 0
