REMARK  0 active torsions:
REMARK  status: ('A' for Active; 'I' for Inactive)
ROOT
HETATM    1  N1  UNL     1      -2.011   2.012  -0.577  1.00  0.00    -0.233 N 
ATOM      2  H11 UNL     1      -1.684   2.978  -0.596  1.00  0.00     0.174 HD
ATOM      3  H12 UNL     1      -2.920   1.621  -0.823  1.00  0.00     0.174 HD
HETATM    4  C1  UNL     1      -1.144   1.140  -0.183  1.00  0.00     0.692 C 
HETATM    5  N2  UNL     1      -1.601  -0.211  -0.157  1.00  0.00    -0.116 N 
ATOM      6  H2  UNL     1      -2.465  -0.306  -0.691  1.00  0.00     0.203 HD
HETATM    7  N3  UNL     1      -1.221  -1.440   0.379  1.00  0.00    -0.005 NA
HETATM    8  N4  UNL     1      -0.020  -1.924  -0.153  1.00  0.00    -0.246 N 
ATOM      9  H4  UNL     1      -0.151  -2.776  -0.698  1.00  0.00     0.187 HD
HETATM   10  C2  UNL     1       1.356  -1.504  -0.113  1.00  0.00     0.314 C 
HETATM   11  O1  UNL     1       2.188  -2.402  -0.394  1.00  0.00    -0.262 OA
HETATM   12  C3  UNL     1       1.974  -0.208   0.199  1.00  0.00     0.308 C 
HETATM   13  O2  UNL     1       3.211  -0.279   0.386  1.00  0.00    -0.276 OA
HETATM   14  C4  UNL     1       1.451   1.150   0.338  1.00  0.00     0.315 C 
HETATM   15  O3  UNL     1       2.291   2.013   0.671  1.00  0.00    -0.263 OA
HETATM   16  N5  UNL     1       0.129   1.688   0.161  1.00  0.00    -0.152 N 
ATOM     17  H5  UNL     1       0.092   2.695   0.318  1.00  0.00     0.187 HD
ENDROOT
TORSDOF 0
