REMARK  2 active torsions:
REMARK  status: ('A' for Active; 'I' for Inactive)
REMARK    1  A    between atoms: C2_2  and  C3_3 
REMARK       I    between atoms: C3_3  and  N1_5 
REMARK    2  A    between atoms: N1_5  and  N2_7 
ROOT
HETATM    1  C1  UNL     1      -0.575  -1.276   1.270  1.00  0.00     0.071 C 
HETATM    2  C2  UNL     1      -0.520  -0.117   0.312  1.00  0.00     0.204 C 
HETATM    3  N3  UNL     1      -1.339   0.944   0.790  1.00  0.00    -0.095 NA
HETATM    4  N4  UNL     1      -1.835   1.630  -0.321  1.00  0.00    -0.253 N 
ATOM      5  H4  UNL     1      -2.089   2.617  -0.366  1.00  0.00     0.187 HD
HETATM    6  C4  UNL     1      -1.916   0.680  -1.378  1.00  0.00     0.333 C 
HETATM    7  O2  UNL     1      -2.537   0.790  -2.483  1.00  0.00    -0.246 OA
HETATM    8  N5  UNL     1      -1.153  -0.449  -0.962  1.00  0.00    -0.309 N 
ATOM      9  H5  UNL     1      -1.064  -1.332  -1.464  1.00  0.00     0.167 HD
ENDROOT
BRANCH   2  10
HETATM   10  C3  UNL     1       0.894   0.259   0.120  1.00  0.00     0.282 C 
HETATM   11  O1  UNL     1       1.239   1.431   0.381  1.00  0.00    -0.267 OA
HETATM   12  N1  UNL     1       1.870  -0.660  -0.350  1.00  0.00    -0.273 N 
ATOM     13  H1  UNL     1       1.591  -1.617  -0.564  1.00  0.00     0.189 HD
BRANCH  12  14
HETATM   14  N2  UNL     1       3.204  -0.283  -0.526  1.00  0.00    -0.343 N 
ATOM     15  H22 UNL     1       3.466   0.678  -0.307  1.00  0.00     0.176 HD
ATOM     16  H21 UNL     1       3.905  -0.943  -0.863  1.00  0.00     0.176 HD
ENDBRANCH  12  14
ENDBRANCH   2  10
TORSDOF 2
