REMARK  2 active torsions:
REMARK  status: ('A' for Active; 'I' for Inactive)
REMARK    1  A    between atoms: N2_4  and  N3_6 
REMARK    2  A    between atoms: C2_13  and  N6_14 
REMARK       I    between atoms: N6_14  and  C3_16 
ROOT
HETATM    1  N3  UNL     1       1.476   0.637  -0.132  1.00  0.00    -0.015 N 
HETATM    2  C1  UNL     1       2.358  -0.350   0.119  1.00  0.00     0.376 A 
HETATM    3  O1  UNL     1       3.614  -0.260   0.055  1.00  0.00    -0.243 OA
HETATM    4  N4  UNL     1       1.655  -1.445   0.451  1.00  0.00    -0.235 N 
ATOM      5  H4  UNL     1       2.065  -2.347   0.694  1.00  0.00     0.192 HD
HETATM    6  N5  UNL     1       0.361  -1.193   0.420  1.00  0.00    -0.126 N 
ATOM      7  H5  UNL     1      -0.399  -1.841   0.626  1.00  0.00     0.206 HD
HETATM    8  C2  UNL     1       0.253   0.095   0.060  1.00  0.00     0.726 A 
ENDROOT
BRANCH   8   9
HETATM    9  N6  UNL     1      -0.844   0.735  -0.087  1.00  0.00    -0.160 N 
HETATM   10  C3  UNL     1      -2.126   0.223   0.098  1.00  0.00     0.200 C 
HETATM   11  N7  UNL     1      -2.893   0.563   1.104  1.00  0.00    -0.373 N 
HETATM   12  N8  UNL     1      -2.636  -0.713  -0.842  1.00  0.00    -0.063 NA
ATOM     13  H72 UNL     1      -2.527   1.235   1.779  1.00  0.00     0.158 HD
ATOM     14  H71 UNL     1      -3.832   0.188   1.239  1.00  0.00     0.158 HD
ATOM     15  H6  UNL     1      -0.774   1.713  -0.366  1.00  0.00     0.187 HD
ENDBRANCH   8   9
BRANCH   1  16
HETATM   16  N2  UNL     1       1.717   1.948  -0.510  1.00  0.00    -0.224 N 
HETATM   17  N1  UNL     1       1.542   2.281  -1.707  1.00  0.00    -0.330 N 
ATOM     18  H12 UNL     1       1.226   1.583  -2.381  1.00  0.00     0.178 HD
ATOM     19  H11 UNL     1       1.719   3.246  -1.985  1.00  0.00     0.178 HD
ATOM     20  H2  UNL     1       2.033   2.634   0.176  1.00  0.00     0.209 HD
ENDBRANCH   1  16
TORSDOF 2
