REMARK  2 active torsions:
REMARK  status: ('A' for Active; 'I' for Inactive)
REMARK       I    between atoms: C1_4  and  N3_6 
REMARK    1  A    between atoms: N3_6  and  N4_8 
REMARK    2  A    between atoms: N4_8  and  C2_10 
ROOT
HETATM    1  C2  UNL     1       0.667   0.317   0.539  1.00  0.00     0.705 A 
HETATM    2  N5  UNL     1       1.234  -0.785   0.018  1.00  0.00    -0.139 N 
ATOM      3  H5  UNL     1       0.681  -1.618  -0.184  1.00  0.00     0.189 HD
HETATM    4  C3  UNL     1       2.555  -0.750  -0.228  1.00  0.00     0.342 A 
HETATM    5  O1  UNL     1       3.136  -1.772  -0.722  1.00  0.00    -0.246 OA
HETATM    6  N6  UNL     1       3.324   0.310   0.015  1.00  0.00    -0.260 N 
ATOM      7  H6  UNL     1       4.323   0.290  -0.188  1.00  0.00     0.175 HD
HETATM    8  C4  UNL     1       2.747   1.404   0.534  1.00  0.00     0.342 A 
HETATM    9  O2  UNL     1       3.426   2.436   0.784  1.00  0.00    -0.246 OA
HETATM   10  N7  UNL     1       1.430   1.412   0.796  1.00  0.00    -0.139 N 
ATOM     11  H7  UNL     1       0.998   2.247   1.191  1.00  0.00     0.189 HD
ENDROOT
BRANCH   1  12
HETATM   12  N4  UNL     1      -0.601   0.317   0.787  1.00  0.00    -0.129 N 
ATOM     13  H4  UNL     1      -1.049   1.144   1.181  1.00  0.00     0.205 HD
BRANCH  12  14
HETATM   14  N3  UNL     1      -1.350  -0.824   0.511  1.00  0.00    -0.260 N 
HETATM   15  C1  UNL     1      -2.763  -0.626   0.332  1.00  0.00     0.201 C 
HETATM   16  N1  UNL     1      -3.508  -0.692   1.378  1.00  0.00    -0.372 N 
HETATM   17  N2  UNL     1      -3.250  -0.371  -0.974  1.00  0.00    -0.062 NA
ATOM     18  H12 UNL     1      -4.510  -0.552   1.251  1.00  0.00     0.158 HD
ATOM     19  H11 UNL     1      -3.157  -0.876   2.318  1.00  0.00     0.158 HD
ATOM     20  H3  UNL     1      -0.921  -1.747   0.440  1.00  0.00     0.190 HD
ENDBRANCH  12  14
ENDBRANCH   1  12
TORSDOF 2
