REMARK  2 active torsions:
REMARK  status: ('A' for Active; 'I' for Inactive)
REMARK    1  A    between atoms: N1_1  and  N2_4 
REMARK    2  A    between atoms: N2_4  and  C1_6 
ROOT
HETATM    1  C1  UNL     1      -1.402  -0.683   0.266  1.00  0.00     0.141 C 
HETATM    2  C2  UNL     1      -0.117  -0.464   0.056  1.00  0.00     0.121 A 
HETATM    3  N3  UNL     1       0.352   0.687  -0.635  1.00  0.00    -0.313 N 
ATOM      4  H3  UNL     1      -0.320   1.371  -0.983  1.00  0.00     0.169 HD
HETATM    5  C3  UNL     1       1.739   0.900  -0.848  1.00  0.00     0.314 A 
HETATM    6  O1  UNL     1       2.131   1.934  -1.468  1.00  0.00    -0.262 OA
HETATM    7  C4  UNL     1       2.750  -0.037  -0.376  1.00  0.00     0.316 A 
HETATM    8  O2  UNL     1       3.981   0.183  -0.582  1.00  0.00    -0.262 OA
HETATM    9  N4  UNL     1       2.297  -1.192   0.318  1.00  0.00    -0.284 N 
ATOM     10  H4  UNL     1       2.974  -1.871   0.665  1.00  0.00     0.172 HD
HETATM   11  C5  UNL     1       0.910  -1.408   0.532  1.00  0.00     0.276 A 
HETATM   12  O3  UNL     1       0.483  -2.435   1.151  1.00  0.00    -0.266 OA
ENDROOT
BRANCH   1  13
HETATM   13  N2  UNL     1      -2.329   0.268  -0.220  1.00  0.00    -0.316 N 
ATOM     14  H2  UNL     1      -2.395   0.403  -1.229  1.00  0.00     0.185 HD
BRANCH  13  15
HETATM   15  N1  UNL     1      -3.162   1.035   0.605  1.00  0.00    -0.345 N 
ATOM     16  H12 UNL     1      -3.083   0.887   1.611  1.00  0.00     0.176 HD
ATOM     17  H11 UNL     1      -3.831   1.721   0.254  1.00  0.00     0.176 HD
ENDBRANCH  13  15
ENDBRANCH   1  13
TORSDOF 2
