REMARK  5 active torsions:
REMARK  status: ('A' for Active; 'I' for Inactive)
REMARK    1  A    between atoms: N1_1  and  N2_4 
REMARK       I    between atoms: N2_4  and  C1_6 
REMARK    2  A    between atoms: C1_6  and  C2_8 
REMARK    3  A    between atoms: C2_8  and  N3_9 
REMARK    4  A    between atoms: C2_8  and  C5_20 
REMARK    5  A    between atoms: N3_9  and  C3_11 
ROOT
HETATM    1  C2  UNL     1      -0.513   0.651   0.474  1.00  0.00     0.282 C 
ENDROOT
BRANCH   1   2
HETATM    2  C1  UNL     1      -1.415  -0.518   0.286  1.00  0.00     0.267 C 
HETATM    3  N2  UNL     1      -2.333  -0.920   1.279  1.00  0.00    -0.274 N 
ATOM      4  H2  UNL     1      -2.383  -0.396   2.153  1.00  0.00     0.189 HD
HETATM    5  O1  UNL     1      -1.371  -1.181  -0.782  1.00  0.00    -0.269 OA
BRANCH   3   6
HETATM    6  N1  UNL     1      -3.169  -2.012   1.094  1.00  0.00    -0.343 N 
ATOM      7  H12 UNL     1      -3.106  -2.525   0.215  1.00  0.00     0.176 HD
ATOM      8  H11 UNL     1      -3.833  -2.303   1.812  1.00  0.00     0.176 HD
ENDBRANCH   3   6
ENDBRANCH   1   2
BRANCH   1   9
HETATM    9  N3  UNL     1       0.316   0.798  -0.685  1.00  0.00    -0.203 N 
ATOM     10  H3  UNL     1       0.038   1.458  -1.412  1.00  0.00     0.179 HD
BRANCH   9  11
HETATM   11  C3  UNL     1       1.398   0.125  -0.837  1.00  0.00     0.698 A 
HETATM   12  N4  UNL     1       2.237   0.192  -1.882  1.00  0.00    -0.128 N 
HETATM   13  N5  UNL     1       3.215  -0.658  -1.638  1.00  0.00    -0.237 N 
ATOM     14  H4  UNL     1       2.137   0.785  -2.706  1.00  0.00     0.205 HD
HETATM   15  C4  UNL     1       3.008  -1.271  -0.443  1.00  0.00     0.353 A 
ATOM     16  H5  UNL     1       4.009  -0.830  -2.255  1.00  0.00     0.192 HD
HETATM   17  O2  UNL     1       3.795  -2.125   0.020  1.00  0.00    -0.245 OA
HETATM   18  N6  UNL     1       1.868  -0.770   0.045  1.00  0.00    -0.139 N 
ATOM     19  H6  UNL     1       1.433  -1.024   0.932  1.00  0.00     0.189 HD
ENDBRANCH   9  11
ENDBRANCH   1   9
BRANCH   1  20
HETATM   20  C5  UNL     1      -1.243   1.914   0.694  1.00  0.00     0.263 C 
HETATM   21  N7  UNL     1      -1.076   3.022  -0.169  1.00  0.00    -0.060 NA
HETATM   22  O3  UNL     1      -2.025   1.994   1.671  1.00  0.00    -0.274 OA
ENDBRANCH   1  20
TORSDOF 5
