REMARK  2 active torsions:
REMARK  status: ('A' for Active; 'I' for Inactive)
REMARK    1  A    between atoms: C3_9  and  C4_10 
REMARK    2  A    between atoms: C5_15  and  N6_16 
ROOT
HETATM    1  C1  UNL     1      -0.853  -2.779   0.274  1.00  0.00     0.197 C 
HETATM    2  N1  UNL     1      -0.078  -1.557   0.224  1.00  0.00    -0.126 N 
HETATM    3  N2  UNL     1       1.219  -1.634   0.465  1.00  0.00    -0.268 N 
ATOM      4  H2  UNL     1       1.633  -2.541   0.678  1.00  0.00     0.189 HD
HETATM    5  C2  UNL     1       2.007  -0.540   0.436  1.00  0.00     0.147 A 
HETATM    6  N3  UNL     1       3.260  -0.537   0.657  1.00  0.00    -0.382 N 
ATOM      7  H31 UNL     1       3.856   0.290   0.635  1.00  0.00     0.157 HD
ATOM      8  H32 UNL     1       3.707  -1.429   0.872  1.00  0.00     0.157 HD
HETATM    9  C3  UNL     1       1.400   0.672   0.144  1.00  0.00     0.158 A 
HETATM   10  N5  UNL     1       0.079   0.701  -0.093  1.00  0.00    -0.181 N 
ATOM     11  H5  UNL     1      -0.354   1.599  -0.307  1.00  0.00     0.184 HD
HETATM   12  C5  UNL     1      -0.703  -0.394  -0.063  1.00  0.00     0.701 A 
ENDROOT
BRANCH  12  13
HETATM   13  N6  UNL     1      -2.103  -0.351  -0.317  1.00  0.00    -0.164 N 
HETATM   14  C6  UNL     1      -2.754   0.707  -0.593  1.00  0.00     0.215 C 
HETATM   15  N7  UNL     1      -4.163   0.601  -0.825  1.00  0.00    -0.066 NA
HETATM   16  N8  UNL     1      -2.092   1.960  -0.668  1.00  0.00    -0.066 NA
ATOM     17  H6  UNL     1      -2.620  -1.229  -0.275  1.00  0.00     0.186 HD
ENDBRANCH  12  13
BRANCH   9  18
HETATM   18  C4  UNL     1       2.204   1.882   0.101  1.00  0.00     0.285 C 
HETATM   19  N4  UNL     1       3.601   1.878   0.348  1.00  0.00    -0.056 NA
HETATM   20  O1  UNL     1       1.628   2.964  -0.165  1.00  0.00    -0.269 OA
ENDBRANCH   9  18
TORSDOF 2
