REMARK  9 active torsions:
REMARK  status: ('A' for Active; 'I' for Inactive)
REMARK    1  A    between atoms: C2_5  and  C3_6 
REMARK    2  A    between atoms: C3_6  and  C4_7 
REMARK    3  A    between atoms: C4_7  and  N2_8 
REMARK    4  A    between atoms: N2_8  and  C5_10 
REMARK    5  A    between atoms: C7_14  and  C8_15 
REMARK       I    between atoms: C8_15  and  N4_17 
REMARK    6  A    between atoms: N4_17  and  C9_19 
REMARK    7  A    between atoms: C9_19  and  C10_20 
REMARK    8  A    between atoms: C14_25  and  N5_26 
REMARK    9  A    between atoms: N5_26  and  C15_28 
ROOT
HETATM    1  C5  UNL     1       0.787  -0.673  -0.937  1.00  0.00     0.679 A 
HETATM    2  N3  UNL     1       0.470   0.296  -1.837  1.00  0.00    -0.201 N 
ATOM      3  H3  UNL     1       1.196   0.662  -2.453  1.00  0.00     0.183 HD
HETATM    4  C6  UNL     1      -0.770   0.779  -1.932  1.00  0.00     0.127 A 
HETATM    5  C7  UNL     1      -1.745   0.299  -1.117  1.00  0.00     0.092 A 
HETATM    6  C14 UNL     1      -1.468  -0.696  -0.178  1.00  0.00     0.134 A 
HETATM    7  N6  UNL     1      -0.199  -1.138  -0.134  1.00  0.00    -0.176 N 
ATOM      8  H6  UNL     1       0.034  -1.865   0.543  1.00  0.00     0.186 HD
ENDROOT
BRANCH   1   9
HETATM    9  N2  UNL     1       1.974  -1.090  -0.889  1.00  0.00    -0.226 N 
ATOM     10  H2  UNL     1       2.620  -0.651  -1.545  1.00  0.00     0.177 HD
BRANCH   9  11
HETATM   11  C4  UNL     1       2.543  -2.093  -0.044  1.00  0.00     0.140 C 
BRANCH  11  12
HETATM   12  C3  UNL     1       4.029  -2.219  -0.392  1.00  0.00     0.045 C 
BRANCH  12  13
HETATM   13  C2  UNL     1       4.813  -0.977  -0.094  1.00  0.00     0.088 C 
HETATM   14  N1  UNL     1       4.785  -0.666   1.311  1.00  0.00    -0.332 N 
HETATM   15  C1  UNL     1       5.385   0.460   1.926  1.00  0.00     0.360 C 
ATOM     16  H1  UNL     1       4.287  -1.316   1.920  1.00  0.00     0.165 HD
HETATM   17  O1  UNL     1       4.846   0.780   3.048  1.00  0.00    -0.239 OA
HETATM   18  O5  UNL     1       6.415   1.133   1.397  1.00  0.00    -0.304 OA
HETATM   19  C24 UNL     1       6.592   2.032   0.377  1.00  0.00     0.180 C 
HETATM   20  C23 UNL     1       7.308   1.500  -0.835  1.00  0.00     0.027 C 
HETATM   21  C22 UNL     1       6.277   1.085  -1.860  1.00  0.00     0.002 C 
HETATM   22  C21 UNL     1       6.289  -0.398  -2.008  1.00  0.00     0.002 C 
HETATM   23  C20 UNL     1       6.184  -1.124  -0.667  1.00  0.00     0.025 C 
ENDBRANCH  12  13
ENDBRANCH  11  12
ENDBRANCH   9  11
ENDBRANCH   1   9
BRANCH   6  24
HETATM   24  N5  UNL     1      -2.406  -1.146   0.555  1.00  0.00    -0.370 N 
ATOM     25  H5  UNL     1      -3.337  -0.752   0.423  1.00  0.00     0.161 HD
BRANCH  24  26
HETATM   26  C15 UNL     1      -2.255  -2.157   1.545  1.00  0.00     0.087 C 
HETATM   27  C16 UNL     1      -3.347  -1.940   2.573  1.00  0.00     0.051 C 
HETATM   28  C17 UNL     1      -4.158  -3.135   2.911  1.00  0.00     0.169 C 
HETATM   29  O4  UNL     1      -4.371  -3.974   1.808  1.00  0.00    -0.391 OA
HETATM   30  C18 UNL     1      -3.102  -4.542   1.558  1.00  0.00     0.169 C 
HETATM   31  C19 UNL     1      -2.274  -3.497   0.895  1.00  0.00     0.051 C 
ENDBRANCH  24  26
ENDBRANCH   6  24
BRANCH   5  32
HETATM   32  C8  UNL     1      -3.138   0.821  -1.095  1.00  0.00     0.260 C 
HETATM   33  O2  UNL     1      -3.707   0.777  -2.196  1.00  0.00    -0.267 OA
HETATM   34  N4  UNL     1      -3.655   1.296   0.108  1.00  0.00    -0.334 N 
ATOM     35  H4  UNL     1      -2.989   1.237   0.879  1.00  0.00     0.168 HD
BRANCH  34  36
HETATM   36  C9  UNL     1      -4.895   1.839   0.493  1.00  0.00     0.096 C 
BRANCH  36  37
HETATM   37  C10 UNL     1      -5.328   3.102  -0.142  1.00  0.00     0.159 C 
HETATM   38  C11 UNL     1      -5.956   2.972  -1.528  1.00  0.00     0.039 C 
HETATM   39  C12 UNL     1      -6.701   4.332  -1.626  1.00  0.00     0.029 C 
HETATM   40  C13 UNL     1      -6.811   4.708  -0.168  1.00  0.00     0.168 C 
HETATM   41  O3  UNL     1      -6.534   3.539   0.536  1.00  0.00    -0.381 OA
ENDBRANCH  36  37
ENDBRANCH  34  36
ENDBRANCH   5  32
TORSDOF 9
