REMARK  11 active torsions:
REMARK  status: ('A' for Active; 'I' for Inactive)
REMARK    1  A    between atoms: N1_2  and  C3_4 
REMARK    2  A    between atoms: C5_6  and  N2_7 
REMARK    3  A    between atoms: N2_7  and  C6_9 
REMARK    4  A    between atoms: C8_15  and  N5_16 
REMARK    5  A    between atoms: N5_16  and  C9_18 
REMARK    6  A    between atoms: C9_18  and  C10_19 
REMARK    7  A    between atoms: C10_19  and  N6_20 
REMARK    8  A    between atoms: C12_27  and  C13_28 
REMARK       I    between atoms: C13_28  and  N8_30 
REMARK    9  A    between atoms: N8_30  and  C14_32 
REMARK   10  A    between atoms: C16_36  and  C17_37 
REMARK   11  A    between atoms: C18_38  and  C19_39 
ROOT
HETATM    1  C3  UNL     1      -1.677  -4.394   0.325  1.00  0.00     0.032 A 
HETATM    2  C4  UNL     1      -2.535  -3.331   0.388  1.00  0.00     0.059 A 
HETATM    3  C5  UNL     1      -2.166  -2.129  -0.250  1.00  0.00     0.052 A 
HETATM    4  C11 UNL     1      -0.953  -2.062  -0.916  1.00  0.00     0.047 A 
HETATM    5  C12 UNL     1      -0.081  -3.138  -0.982  1.00  0.00     0.036 A 
HETATM    6  C24 UNL     1      -0.482  -4.289  -0.347  1.00  0.00     0.046 A 
ENDROOT
BRANCH   3   7
HETATM    7  N2  UNL     1      -3.083  -1.056  -0.160  1.00  0.00    -0.191 N 
ATOM      8  H2  UNL     1      -4.075  -1.288  -0.209  1.00  0.00     0.184 HD
BRANCH   7   9
HETATM    9  C6  UNL     1      -2.781   0.175  -0.023  1.00  0.00     0.698 A 
HETATM   10  N3  UNL     1      -1.546   0.690   0.062  1.00  0.00    -0.187 N 
HETATM   11  C7  UNL     1      -1.277   1.996   0.206  1.00  0.00     0.215 A 
ATOM     12  H3  UNL     1      -0.758   0.045   0.014  1.00  0.00     0.185 HD
HETATM   13  N4  UNL     1      -2.317   2.866   0.271  1.00  0.00    -0.187 N 
HETATM   14  C8  UNL     1      -3.583   2.404   0.191  1.00  0.00     0.693 A 
ATOM     15  H4  UNL     1      -2.143   3.865   0.380  1.00  0.00     0.185 HD
HETATM   16  N7  UNL     1      -3.786   1.086   0.048  1.00  0.00    -0.022 N 
ATOM     17  H7  UNL     1      -4.747   0.750  -0.011  1.00  0.00     0.203 HD
BRANCH  14  18
HETATM   18  N5  UNL     1      -4.600   3.226   0.260  1.00  0.00    -0.224 N 
ATOM     19  H5  UNL     1      -4.450   4.228   0.377  1.00  0.00     0.177 HD
BRANCH  18  20
HETATM   20  C9  UNL     1      -5.943   2.688   0.168  1.00  0.00     0.165 C 
BRANCH  20  21
HETATM   21  C10 UNL     1      -6.973   3.820   0.202  1.00  0.00     0.249 C 
BRANCH  21  22
HETATM   22  N6  UNL     1      -6.680   4.665  -0.945  1.00  0.00    -0.078 N 
ATOM     23  H63 UNL     1      -5.715   4.994  -0.972  1.00  0.00     0.274 HD
ATOM     24  H62 UNL     1      -6.662   4.158  -1.830  1.00  0.00     0.274 HD
ATOM     25  H61 UNL     1      -7.366   5.419  -0.922  1.00  0.00     0.274 HD
ENDBRANCH  21  22
ENDBRANCH  20  21
ENDBRANCH  18  20
ENDBRANCH  14  18
ENDBRANCH   7   9
ENDBRANCH   3   7
BRANCH   1  26
HETATM   26  N1  UNL     1      -2.043  -5.599   0.955  1.00  0.00    -0.389 N 
HETATM   27  C1  UNL     1      -1.675  -5.839   2.318  1.00  0.00     0.149 C 
HETATM   28  C2  UNL     1      -2.788  -6.587   0.225  1.00  0.00     0.149 C 
ENDBRANCH   1  26
BRANCH   5  29
HETATM   29  C13 UNL     1       1.195  -3.038  -1.673  1.00  0.00     0.258 C 
HETATM   30  O1  UNL     1       1.914  -4.070  -1.717  1.00  0.00    -0.267 OA
HETATM   31  N8  UNL     1       1.625  -1.814  -2.281  1.00  0.00    -0.288 N 
ATOM     32  H8  UNL     1       1.251  -1.480  -3.169  1.00  0.00     0.172 HD
BRANCH  31  33
HETATM   33  C14 UNL     1       2.544  -1.152  -1.601  1.00  0.00     0.231 A 
HETATM   34  N9  UNL     1       3.105  -1.500  -0.425  1.00  0.00    -0.329 N 
HETATM   35  C15 UNL     1       3.986  -0.551  -0.088  1.00  0.00     0.129 A 
ATOM     36  H9  UNL     1       2.894  -2.340   0.114  1.00  0.00     0.168 HD
HETATM   37  C16 UNL     1       3.942   0.378  -1.092  1.00  0.00     0.094 A 
HETATM   38  O2  UNL     1       3.075  -0.016  -1.970  1.00  0.00    -0.278 OA
BRANCH  37  39
HETATM   39  C17 UNL     1       4.754   1.605  -1.137  1.00  0.00     0.040 C 
HETATM   40  C18 UNL     1       5.590   1.861  -0.156  1.00  0.00     0.015 C 
BRANCH  40  41
HETATM   41  C19 UNL     1       6.404   3.055  -0.163  1.00  0.00    -0.021 A 
HETATM   42  C20 UNL     1       7.230   3.254   0.857  1.00  0.00     0.014 A 
HETATM   43  C21 UNL     1       8.057   4.423   0.896  1.00  0.00     0.018 A 
HETATM   44  C22 UNL     1       7.965   5.291  -0.121  1.00  0.00     0.087 A 
HETATM   45  N10 UNL     1       7.078   5.063  -1.201  1.00  0.00    -0.374 N 
HETATM   46  C23 UNL     1       6.311   4.009  -1.267  1.00  0.00     0.099 A 
ATOM     47  H10 UNL     1       7.037   5.748  -1.956  1.00  0.00     0.164 HD
ENDBRANCH  40  41
ENDBRANCH  37  39
ENDBRANCH  31  33
ENDBRANCH   5  29
TORSDOF 11
