REMARK  9 active torsions:
REMARK  status: ('A' for Active; 'I' for Inactive)
REMARK    1  A    between atoms: S1_2  and  N1_4 
REMARK    2  A    between atoms: S1_2  and  C7_14 
REMARK    3  A    between atoms: N1_4  and  C1_6 
REMARK    4  A    between atoms: C1_6  and  C2_7 
REMARK    5  A    between atoms: C2_7  and  N2_8 
REMARK    6  A    between atoms: C10_17  and  N3_18 
REMARK    7  A    between atoms: N3_18  and  C11_19 
REMARK    8  A    between atoms: C12_20  and  N4_21 
REMARK    9  A    between atoms: N4_21  and  C13_23 
ROOT
HETATM    1  C11 UNL     1      -3.549  -1.308   0.288  1.00  0.00     0.148 A 
HETATM    2  C12 UNL     1      -3.926  -0.152   0.996  1.00  0.00     0.091 A 
HETATM    3  C18 UNL     1      -5.228  -0.007   1.400  1.00  0.00     0.121 A 
HETATM    4  N6  UNL     1      -6.161  -0.928   1.144  1.00  0.00    -0.363 N 
ATOM      5  H6  UNL     1      -7.117  -0.776   1.464  1.00  0.00     0.165 HD
HETATM    6  C19 UNL     1      -5.863  -2.040   0.479  1.00  0.00     0.045 A 
HETATM    7  C20 UNL     1      -6.807  -3.018   0.198  1.00  0.00     0.030 A 
HETATM    8  C21 UNL     1      -6.435  -4.143  -0.490  1.00  0.00     0.002 A 
HETATM    9  C22 UNL     1      -5.142  -4.356  -0.927  1.00  0.00     0.001 A 
HETATM   10  C23 UNL     1      -4.212  -3.381  -0.644  1.00  0.00     0.017 A 
HETATM   11  C24 UNL     1      -4.591  -2.240   0.054  1.00  0.00     0.034 A 
ENDROOT
BRANCH   1  12
HETATM   12  N3  UNL     1      -2.440  -1.458  -0.071  1.00  0.00    -0.403 NA
BRANCH  12  13
HETATM   13  C10 UNL     1      -1.177  -1.618  -0.473  1.00  0.00     0.107 A 
HETATM   14  C9  UNL     1      -0.688  -0.927  -1.601  1.00  0.00     0.046 A 
HETATM   15  C8  UNL     1       0.599  -1.082  -2.018  1.00  0.00     0.028 A 
HETATM   16  C7  UNL     1       1.474  -1.912  -1.366  1.00  0.00     0.079 A 
HETATM   17  C26 UNL     1       0.998  -2.585  -0.267  1.00  0.00     0.028 A 
HETATM   18  C25 UNL     1      -0.274  -2.461   0.184  1.00  0.00     0.046 A 
BRANCH  16  19
HETATM   19  S1  UNL     1       3.096  -2.079  -1.932  1.00  0.00     0.259 S 
HETATM   20  O1  UNL     1       3.166  -1.801  -3.412  1.00  0.00    -0.201 OA
HETATM   21  O2  UNL     1       3.684  -3.429  -1.678  1.00  0.00    -0.201 OA
BRANCH  19  22
HETATM   22  N1  UNL     1       4.098  -0.842  -1.178  1.00  0.00    -0.311 N 
ATOM     23  H1  UNL     1       4.605  -0.113  -1.680  1.00  0.00     0.172 HD
BRANCH  22  24
HETATM   24  C1  UNL     1       4.095  -1.010   0.230  1.00  0.00     0.176 C 
BRANCH  24  25
HETATM   25  C2  UNL     1       4.930  -0.041   0.975  1.00  0.00     0.078 C 
BRANCH  25  26
HETATM   26  N2  UNL     1       4.615   1.310   0.804  1.00  0.00    -0.388 N 
HETATM   27  C3  UNL     1       4.961   1.948  -0.411  1.00  0.00     0.148 C 
HETATM   28  C4  UNL     1       5.856   3.156  -0.090  1.00  0.00     0.187 C 
HETATM   29  O3  UNL     1       6.844   2.722   0.773  1.00  0.00    -0.388 OA
HETATM   30  C5  UNL     1       6.370   2.454   2.060  1.00  0.00     0.187 C 
HETATM   31  C6  UNL     1       4.883   2.141   1.973  1.00  0.00     0.148 C 
ENDBRANCH  25  26
ENDBRANCH  24  25
ENDBRANCH  22  24
ENDBRANCH  19  22
ENDBRANCH  16  19
ENDBRANCH  12  13
ENDBRANCH   1  12
BRANCH   2  32
HETATM   32  N4  UNL     1      -2.916   0.813   1.255  1.00  0.00    -0.339 N 
ATOM     33  H4  UNL     1      -2.262   0.696   2.029  1.00  0.00     0.167 HD
BRANCH  32  34
HETATM   34  C13 UNL     1      -2.851   1.858   0.467  1.00  0.00     0.105 A 
HETATM   35  C14 UNL     1      -3.732   2.016  -0.579  1.00  0.00     0.048 A 
HETATM   36  C15 UNL     1      -3.678   3.122  -1.420  1.00  0.00     0.005 A 
HETATM   37  C16 UNL     1      -2.721   4.095  -1.212  1.00  0.00     0.017 A 
HETATM   38  C17 UNL     1      -1.852   3.913  -0.160  1.00  0.00     0.089 A 
HETATM   39  N5  UNL     1      -1.930   2.815   0.650  1.00  0.00    -0.352 N 
ATOM     40  H5  UNL     1      -1.266   2.721   1.419  1.00  0.00     0.166 HD
ENDBRANCH  32  34
ENDBRANCH   2  32
TORSDOF 9
