REMARK  8 active torsions:
REMARK  status: ('A' for Active; 'I' for Inactive)
REMARK    1  A    between atoms: N1_1  and  C1_4 
REMARK    2  A    between atoms: C5_10  and  S1_11 
REMARK    3  A    between atoms: S1_11  and  C6_14 
REMARK    4  A    between atoms: C9_17  and  S2_18 
REMARK    5  A    between atoms: S2_18  and  N3_21 
REMARK       I    between atoms: N3_21  and  C10_23 
REMARK    6  A    between atoms: C10_23  and  C11_25 
REMARK    7  A    between atoms: C11_25  and  C12_26 
REMARK    8  A    between atoms: C11_25  and  C18_32 
ROOT
HETATM    1  S2  UNL     1      -0.753  -1.128  -1.941  1.00  0.00     0.265 S 
HETATM    2  O3  UNL     1      -1.096  -2.551  -2.361  1.00  0.00    -0.200 OA
HETATM    3  O4  UNL     1      -1.388  -0.238  -2.971  1.00  0.00    -0.200 OA
ENDROOT
BRANCH   1   4
HETATM    4  C9  UNL     1       0.977  -0.976  -1.917  1.00  0.00     0.080 A 
HETATM    5  C8  UNL     1       1.646   0.203  -2.160  1.00  0.00     0.027 A 
HETATM    6  C7  UNL     1       3.019   0.295  -2.133  1.00  0.00     0.025 A 
HETATM    7  C6  UNL     1       3.827  -0.820  -1.854  1.00  0.00     0.064 A 
HETATM    8  C25 UNL     1       3.148  -1.988  -1.613  1.00  0.00     0.025 A 
HETATM    9  C24 UNL     1       1.772  -2.077  -1.641  1.00  0.00     0.027 A 
BRANCH   7  10
HETATM   10  S1  UNL     1       5.562  -0.645  -1.875  1.00  0.00     0.210 S 
HETATM   11  O1  UNL     1       6.160  -2.025  -2.058  1.00  0.00    -0.217 OA
HETATM   12  O2  UNL     1       5.996   0.129  -3.111  1.00  0.00    -0.217 OA
BRANCH  10  13
HETATM   13  C5  UNL     1       6.215   0.129  -0.476  1.00  0.00     0.107 A 
HETATM   14  C1  UNL     1       6.194  -0.447   0.752  1.00  0.00     0.120 A 
HETATM   15  N2  UNL     1       6.678   0.240   1.821  1.00  0.00    -0.351 N 
HETATM   16  C2  UNL     1       7.187   1.473   1.737  1.00  0.00     0.090 A 
ATOM     17  H2  UNL     1       6.651  -0.210   2.736  1.00  0.00     0.166 HD
HETATM   18  C3  UNL     1       7.219   2.074   0.500  1.00  0.00     0.019 A 
HETATM   19  C4  UNL     1       6.745   1.424  -0.590  1.00  0.00     0.029 A 
BRANCH  14  20
HETATM   20  N1  UNL     1       5.772  -1.631   1.004  1.00  0.00    -0.384 N 
ATOM     21  H12 UNL     1       5.756  -2.064   1.927  1.00  0.00     0.157 HD
ATOM     22  H11 UNL     1       5.409  -2.146   0.202  1.00  0.00     0.157 HD
ENDBRANCH  14  20
ENDBRANCH  10  13
ENDBRANCH   7  10
ENDBRANCH   1   4
BRANCH   1  23
HETATM   23  N3  UNL     1      -1.470  -0.877  -0.411  1.00  0.00    -0.249 N 
HETATM   24  C10 UNL     1      -2.383   0.184  -0.238  1.00  0.00     0.244 C 
HETATM   25  O5  UNL     1      -2.681   0.962  -1.213  1.00  0.00    -0.271 OA
ATOM     26  H3  UNL     1      -1.240  -1.490   0.371  1.00  0.00     0.182 HD
BRANCH  24  27
HETATM   27  C11 UNL     1      -3.052   0.476   1.047  1.00  0.00     0.144 C 
BRANCH  27  28
HETATM   28  C12 UNL     1      -3.765  -0.780   1.462  1.00  0.00    -0.041 A 
HETATM   29  C13 UNL     1      -4.223  -1.710   0.553  1.00  0.00     0.008 A 
HETATM   30  C14 UNL     1      -4.878  -2.863   0.941  1.00  0.00     0.001 A 
HETATM   31  C15 UNL     1      -5.067  -3.070   2.290  1.00  0.00     0.000 A 
HETATM   32  C16 UNL     1      -4.606  -2.136   3.192  1.00  0.00     0.001 A 
HETATM   33  C17 UNL     1      -3.952  -0.982   2.814  1.00  0.00     0.008 A 
ENDBRANCH  27  28
BRANCH  27  34
HETATM   34  C18 UNL     1      -4.020   1.582   0.829  1.00  0.00    -0.041 A 
HETATM   35  C19 UNL     1      -3.995   2.713   1.651  1.00  0.00     0.008 A 
HETATM   36  C20 UNL     1      -4.870   3.762   1.509  1.00  0.00     0.001 A 
HETATM   37  C21 UNL     1      -5.804   3.673   0.503  1.00  0.00     0.000 A 
HETATM   38  C22 UNL     1      -5.846   2.573  -0.314  1.00  0.00     0.001 A 
HETATM   39  C23 UNL     1      -4.964   1.513  -0.170  1.00  0.00     0.008 A 
ENDBRANCH  27  34
ENDBRANCH  24  27
ENDBRANCH   1  23
TORSDOF 8
