REMARK  8 active torsions:
REMARK  status: ('A' for Active; 'I' for Inactive)
REMARK       I    between atoms: N1_3  and  C3_5 
REMARK    1  A    between atoms: C3_5  and  C4_7 
REMARK    2  A    between atoms: C8_11  and  C9_12 
REMARK    3  A    between atoms: C9_12  and  N2_13 
REMARK    4  A    between atoms: C11_18  and  C12_19 
REMARK    5  A    between atoms: C19_34  and  N8_35 
REMARK    6  A    between atoms: N8_35  and  C20_37 
REMARK    7  A    between atoms: C20_37  and  C21_38 
REMARK    8  A    between atoms: C21_38  and  C22_39 
ROOT
HETATM    1  C1  UNL     1       8.265  -1.566  -3.413  1.00  0.00     0.037 C 
HETATM    2  C2  UNL     1       7.466  -1.317  -2.528  1.00  0.00     0.002 C 
HETATM    3  N1  UNL     1       6.566  -1.046  -1.505  1.00  0.00    -0.282 N 
ATOM      4  H1  UNL     1       6.889  -0.644  -0.625  1.00  0.00     0.179 HD
HETATM    5  C3  UNL     1       5.191  -1.337  -1.703  1.00  0.00     0.263 C 
HETATM    6  O1  UNL     1       4.790  -1.832  -2.795  1.00  0.00    -0.267 OA
ENDROOT
BRANCH   5   7
HETATM    7  C4  UNL     1       4.177  -1.085  -0.675  1.00  0.00     0.033 A 
HETATM    8  C5  UNL     1       4.504  -0.819   0.633  1.00  0.00     0.017 A 
HETATM    9  C6  UNL     1       3.503  -0.577   1.564  1.00  0.00     0.002 A 
HETATM   10  C7  UNL     1       2.162  -0.602   1.180  1.00  0.00     0.009 A 
HETATM   11  C8  UNL     1       1.815  -0.865  -0.113  1.00  0.00    -0.040 A 
HETATM   12  C29 UNL     1       2.836  -1.100  -1.006  1.00  0.00     0.026 A 
BRANCH  11  13
HETATM   13  C9  UNL     1       0.425  -0.906  -0.640  1.00  0.00     0.160 C 
BRANCH  13  14
HETATM   14  N2  UNL     1      -0.570  -0.551   0.309  1.00  0.00    -0.371 N 
HETATM   15  C10 UNL     1      -0.756   0.661   0.650  1.00  0.00     0.120 A 
HETATM   16  N3  UNL     1      -0.077   1.716   0.186  1.00  0.00    -0.327 N 
HETATM   17  C28 UNL     1      -1.739   0.919   1.605  1.00  0.00     0.096 A 
HETATM   18  C11 UNL     1      -0.315   2.973   0.609  1.00  0.00     0.120 A 
ATOM     19  H3  UNL     1       0.648   1.563  -0.515  1.00  0.00     0.169 HD
HETATM   20  N5  UNL     1      -1.273   3.184   1.535  1.00  0.00    -0.327 N 
HETATM   21  C17 UNL     1      -1.988   2.197   2.042  1.00  0.00     0.125 A 
ATOM     22  H5  UNL     1      -1.451   4.137   1.854  1.00  0.00     0.169 HD
HETATM   23  N6  UNL     1      -2.954   2.386   2.981  1.00  0.00    -0.338 N 
HETATM   24  C18 UNL     1      -3.654   1.350   3.475  1.00  0.00     0.183 A 
ATOM     25  H6  UNL     1      -3.150   3.329   3.316  1.00  0.00     0.168 HD
HETATM   26  N7  UNL     1      -3.439   0.091   3.074  1.00  0.00    -0.338 N 
HETATM   27  C19 UNL     1      -2.493  -0.133   2.147  1.00  0.00     0.119 A 
ATOM     28  H7  UNL     1      -3.981  -0.680   3.463  1.00  0.00     0.168 HD
ATOM     29  H2  UNL     1      -1.147  -1.282   0.726  1.00  0.00     0.161 HD
BRANCH  18  30
HETATM   30  C12 UNL     1       0.473   4.104   0.079  1.00  0.00     0.023 A 
HETATM   31  C13 UNL     1       1.476   3.984  -0.828  1.00  0.00     0.018 A 
HETATM   32  C14 UNL     1       2.151   5.129  -1.253  1.00  0.00     0.018 A 
HETATM   33  C15 UNL     1       1.780   6.353  -0.739  1.00  0.00     0.087 A 
HETATM   34  N4  UNL     1       0.783   6.461   0.160  1.00  0.00    -0.374 N 
HETATM   35  C16 UNL     1       0.150   5.363   0.555  1.00  0.00     0.102 A 
ATOM     36  H4  UNL     1       0.518   7.373   0.532  1.00  0.00     0.164 HD
ENDBRANCH  18  30
BRANCH  27  37
HETATM   37  N8  UNL     1      -2.216  -1.289   1.689  1.00  0.00    -0.375 N 
ATOM     38  H8  UNL     1      -1.475  -1.318   0.988  1.00  0.00     0.161 HD
BRANCH  37  39
HETATM   39  C20 UNL     1      -2.798  -2.548   2.020  1.00  0.00     0.126 C 
BRANCH  39  40
HETATM   40  C21 UNL     1      -4.110  -2.823   1.345  1.00  0.00     0.058 C 
BRANCH  40  41
HETATM   41  C22 UNL     1      -4.050  -2.810  -0.129  1.00  0.00    -0.057 A 
HETATM   42  C23 UNL     1      -4.287  -1.646  -0.810  1.00  0.00     0.007 A 
HETATM   43  C24 UNL     1      -4.253  -1.561  -2.181  1.00  0.00     0.001 A 
HETATM   44  C25 UNL     1      -3.969  -2.683  -2.922  1.00  0.00     0.000 A 
HETATM   45  C26 UNL     1      -3.726  -3.867  -2.270  1.00  0.00     0.001 A 
HETATM   46  C27 UNL     1      -3.766  -3.936  -0.871  1.00  0.00     0.007 A 
ENDBRANCH  40  41
ENDBRANCH  39  40
ENDBRANCH  37  39
ENDBRANCH  27  37
ENDBRANCH  13  14
ENDBRANCH  11  13
ENDBRANCH   5   7
TORSDOF 8
