REMARK  7 active torsions:
REMARK  status: ('A' for Active; 'I' for Inactive)
REMARK    1  A    between atoms: C2_2  and  C3_3 
REMARK    2  A    between atoms: C3_3  and  C4_4 
REMARK    3  A    between atoms: C4_4  and  C5_5 
REMARK    4  A    between atoms: C5_5  and  C6_6 
REMARK    5  A    between atoms: C6_6  and  C7_7 
REMARK    6  A    between atoms: C18_27  and  C19_28 
REMARK    7  A    between atoms: C19_28  and  N3_29 
ROOT
HETATM    1  C7  UNL     1      -2.948   0.132  -2.779  1.00  0.00     0.176 C 
HETATM    2  N1  UNL     1      -1.840   1.007  -3.093  1.00  0.00    -0.348 N 
ATOM      3  H1  UNL     1      -1.173   0.668  -3.786  1.00  0.00     0.163 HD
HETATM    4  C8  UNL     1      -1.584   2.283  -2.541  1.00  0.00     0.218 C 
HETATM    5  O1  UNL     1      -1.433   3.242  -3.363  1.00  0.00    -0.274 OA
HETATM    6  C9  UNL     1      -1.473   2.619  -1.109  1.00  0.00     0.103 C 
HETATM    7  C10 UNL     1      -0.574   3.856  -0.990  1.00  0.00     0.009 C 
HETATM    8  C11 UNL     1      -0.457   4.333   0.419  1.00  0.00     0.003 C 
HETATM    9  C12 UNL     1       0.376   3.416   1.285  1.00  0.00     0.039 C 
HETATM   10  C13 UNL     1       1.780   3.349   0.724  1.00  0.00     0.194 C 
HETATM   11  F1  UNL     1       1.869   2.170  -0.008  1.00  0.00    -0.247 F 
HETATM   12  C14 UNL     1       2.744   3.239   1.884  1.00  0.00     0.204 C 
HETATM   13  O2  UNL     1       4.038   2.940   1.458  1.00  0.00    -0.386 OA
HETATM   14  C15 UNL     1       4.361   1.617   1.648  1.00  0.00     0.194 C 
HETATM   15  C16 UNL     1       5.190   1.142   0.487  1.00  0.00     0.207 C 
HETATM   16  O3  UNL     1       6.099   0.141   0.822  1.00  0.00    -0.302 OA
HETATM   17  C17 UNL     1       6.385  -0.997   0.122  1.00  0.00     0.360 C 
HETATM   18  O4  UNL     1       7.557  -1.357  -0.211  1.00  0.00    -0.239 OA
HETATM   19  N2  UNL     1       5.329  -1.863  -0.280  1.00  0.00    -0.331 N 
ATOM     20  H2  UNL     1       5.460  -2.401  -1.137  1.00  0.00     0.165 HD
HETATM   21  C18 UNL     1       4.099  -2.035   0.428  1.00  0.00     0.112 C 
HETATM   22  C20 UNL     1       3.331  -3.211  -0.136  1.00  0.00     0.030 C 
HETATM   23  C21 UNL     1       1.890  -2.869  -0.407  1.00  0.00     0.029 C 
HETATM   24  C22 UNL     1       1.772  -2.117  -1.679  1.00  0.00    -0.029 C 
HETATM   25  C23 UNL     1       0.667  -1.531  -2.081  1.00  0.00    -0.011 C 
HETATM   26  C24 UNL     1      -0.618  -1.539  -1.320  1.00  0.00     0.152 C 
HETATM   27  N4  UNL     1      -1.724  -2.027  -2.118  1.00  0.00    -0.351 N 
HETATM   28  C25 UNL     1      -1.999  -3.474  -2.031  1.00  0.00     0.153 C 
HETATM   29  C26 UNL     1      -2.549  -1.263  -2.958  1.00  0.00     0.242 C 
HETATM   30  O5  UNL     1      -2.994  -1.851  -3.984  1.00  0.00    -0.271 OA
ENDROOT
BRANCH   1  31
HETATM   31  C6  UNL     1      -3.620   0.427  -1.470  1.00  0.00     0.035 C 
BRANCH  31  32
HETATM   32  C5  UNL     1      -4.757  -0.570  -1.294  1.00  0.00     0.002 C 
BRANCH  32  33
HETATM   33  C4  UNL     1      -5.510  -0.370  -0.010  1.00  0.00     0.000 C 
BRANCH  33  34
HETATM   34  C3  UNL     1      -4.617  -0.528   1.197  1.00  0.00    -0.000 C 
BRANCH  34  35
HETATM   35  C2  UNL     1      -5.434  -0.323   2.457  1.00  0.00    -0.005 C 
HETATM   36  C1  UNL     1      -4.563  -0.476   3.687  1.00  0.00     0.005 C 
ENDBRANCH  34  35
ENDBRANCH  33  34
ENDBRANCH  32  33
ENDBRANCH  31  32
ENDBRANCH   1  31
BRANCH  21  37
HETATM   37  C19 UNL     1       4.306  -2.312   1.902  1.00  0.00     0.254 C 
BRANCH  37  38
HETATM   38  N3  UNL     1       3.078  -2.484   2.611  1.00  0.00    -0.077 N 
ATOM     39  H33 UNL     1       2.461  -1.683   2.473  1.00  0.00     0.274 HD
ATOM     40  H32 UNL     1       2.506  -3.210   2.180  1.00  0.00     0.274 HD
ATOM     41  H31 UNL     1       3.217  -2.671   3.604  1.00  0.00     0.274 HD
ENDBRANCH  37  38
ENDBRANCH  21  37
TORSDOF 7
