REMARK  10 active torsions:
REMARK  status: ('A' for Active; 'I' for Inactive)
REMARK    1  A    between atoms: N1_2  and  C2_5 
REMARK    2  A    between atoms: C2_5  and  C3_6 
REMARK    3  A    between atoms: C2_5  and  C22_42 
REMARK    4  A    between atoms: C3_6  and  C4_7 
REMARK    5  A    between atoms: C4_7  and  N2_8 
REMARK    6  A    between atoms: C9_14  and  N3_15 
REMARK    7  A    between atoms: N3_15  and  C10_16 
REMARK    8  A    between atoms: N6_22  and  C12_24 
REMARK    9  A    between atoms: C15_27  and  S1_28 
REMARK   10  A    between atoms: S1_28  and  N7_29 
ROOT
HETATM    1  N2  UNL     1      -3.477  -0.713  -1.375  1.00  0.00    -0.280 N 
HETATM    2  C5  UNL     1      -3.163  -2.062  -1.826  1.00  0.00     0.261 A 
HETATM    3  O1  UNL     1      -3.899  -2.795  -2.532  1.00  0.00    -0.267 OA
HETATM    4  C6  UNL     1      -1.854  -2.459  -1.340  1.00  0.00     0.048 A 
HETATM    5  C7  UNL     1      -1.103  -3.626  -1.487  1.00  0.00     0.021 A 
HETATM    6  C8  UNL     1       0.116  -3.676  -0.890  1.00  0.00     0.046 A 
HETATM    7  C9  UNL     1       0.671  -2.616  -0.127  1.00  0.00     0.112 A 
HETATM    8  C19 UNL     1      -0.166  -1.473  -0.036  1.00  0.00     0.063 A 
HETATM    9  C20 UNL     1      -1.392  -1.393  -0.623  1.00  0.00     0.051 A 
HETATM   10  C21 UNL     1      -2.381  -0.287  -0.626  1.00  0.00     0.261 A 
HETATM   11  O4  UNL     1      -2.177   0.808  -0.030  1.00  0.00    -0.267 OA
ENDROOT
BRANCH   7  12
HETATM   12  N3  UNL     1       1.836  -2.651   0.451  1.00  0.00    -0.370 NA
BRANCH  12  13
HETATM   13  C10 UNL     1       2.904  -2.677   0.975  1.00  0.00     0.291 A 
HETATM   14  N4  UNL     1       3.391  -3.570   1.912  1.00  0.00    -0.244 N 
HETATM   15  N5  UNL     1       4.593  -3.278   2.255  1.00  0.00    -0.128 N 
ATOM     16  H4  UNL     1       2.863  -4.360   2.283  1.00  0.00     0.191 HD
HETATM   17  C11 UNL     1       4.992  -2.157   1.562  1.00  0.00     0.702 A 
ATOM     18  H5  UNL     1       5.159  -3.792   2.930  1.00  0.00     0.205 HD
HETATM   19  N6  UNL     1       6.164  -1.642   1.716  1.00  0.00    -0.190 N 
HETATM   20  N8  UNL     1       3.975  -1.809   0.802  1.00  0.00    -0.142 N 
ATOM     21  H6  UNL     1       6.758  -2.132   2.385  1.00  0.00     0.184 HD
HETATM   22  C18 UNL     1       3.878  -0.697  -0.128  1.00  0.00     0.180 C 
BRANCH  19  23
HETATM   23  C12 UNL     1       6.754  -0.532   1.124  1.00  0.00     0.049 A 
HETATM   24  C13 UNL     1       6.888   0.679   1.824  1.00  0.00     0.031 A 
HETATM   25  C14 UNL     1       7.485   1.775   1.253  1.00  0.00     0.027 A 
HETATM   26  C15 UNL     1       7.989   1.761  -0.031  1.00  0.00     0.079 A 
HETATM   27  C16 UNL     1       7.865   0.579  -0.730  1.00  0.00     0.027 A 
HETATM   28  C17 UNL     1       7.267  -0.525  -0.164  1.00  0.00     0.031 A 
BRANCH  26  29
HETATM   29  S1  UNL     1       8.748   3.166  -0.740  1.00  0.00     0.256 S 
HETATM   30  O2  UNL     1       9.457   3.992   0.290  1.00  0.00    -0.201 OA
HETATM   31  O3  UNL     1       9.734   2.704  -1.774  1.00  0.00    -0.201 OA
BRANCH  29  32
HETATM   32  N7  UNL     1       7.609   4.181  -1.545  1.00  0.00    -0.324 N 
ATOM     33  H72 UNL     1       6.612   3.972  -1.593  1.00  0.00     0.169 HD
ATOM     34  H71 UNL     1       8.052   5.001  -1.959  1.00  0.00     0.169 HD
ENDBRANCH  29  32
ENDBRANCH  26  29
ENDBRANCH  19  23
ENDBRANCH  12  13
ENDBRANCH   7  12
BRANCH   1  35
HETATM   35  C4  UNL     1      -4.694  -0.054  -1.726  1.00  0.00     0.138 C 
BRANCH  35  36
HETATM   36  C3  UNL     1      -5.866  -0.284  -0.861  1.00  0.00     0.058 C 
BRANCH  36  37
HETATM   37  C2  UNL     1      -5.768   0.265   0.512  1.00  0.00     0.220 C 
BRANCH  37  38
HETATM   38  N1  UNL     1      -6.978  -0.121   1.290  1.00  0.00    -0.071 N 
HETATM   39  C1  UNL     1      -7.069  -1.550   1.427  1.00  0.00     0.267 C 
ATOM     40  H12 UNL     1      -7.827   0.273   0.885  1.00  0.00     0.277 HD
ATOM     41  H11 UNL     1      -7.007   0.346   2.196  1.00  0.00     0.277 HD
ENDBRANCH  37  38
BRANCH  37  42
HETATM   42  C22 UNL     1      -6.006   1.759   0.377  1.00  0.00    -0.028 A 
HETATM   43  C23 UNL     1      -7.202   2.152  -0.155  1.00  0.00     0.009 A 
HETATM   44  C24 UNL     1      -7.463   3.513  -0.268  1.00  0.00     0.001 A 
HETATM   45  C25 UNL     1      -6.517   4.420   0.156  1.00  0.00     0.000 A 
HETATM   46  C26 UNL     1      -5.321   4.017   0.688  1.00  0.00     0.001 A 
HETATM   47  C27 UNL     1      -5.086   2.670   0.790  1.00  0.00     0.009 A 
ENDBRANCH  37  42
ENDBRANCH  36  37
ENDBRANCH  35  36
ENDBRANCH   1  35
TORSDOF 10
