REMARK  12 active torsions:
REMARK  status: ('A' for Active; 'I' for Inactive)
REMARK    1  A    between atoms: C1_4  and  C2_5 
REMARK    2  A    between atoms: C1_4  and  N6_40 
REMARK    3  A    between atoms: C4_9  and  N3_10 
REMARK    4  A    between atoms: C5_13  and  N4_14 
REMARK       I    between atoms: N4_14  and  C6_16 
REMARK    5  A    between atoms: C6_16  and  C7_18 
REMARK    6  A    between atoms: C14_25  and  S1_26 
REMARK    7  A    between atoms: S1_26  and  C15_27 
REMARK    8  A    between atoms: C15_27  and  C16_28 
REMARK    9  A    between atoms: C16_28  and  N5_29 
REMARK   10  A    between atoms: N5_29  and  C17_30 
REMARK   11  A    between atoms: C17_30  and  C18_31 
REMARK   12  A    between atoms: C18_31  and  O2_32 
ROOT
HETATM    1  N4  UNL     1       0.980   0.641   0.381  1.00  0.00    -0.318 N 
ATOM      2  H4  UNL     1       0.749   0.129  -0.470  1.00  0.00     0.169 HD
HETATM    3  C6  UNL     1      -0.142   1.017   1.094  1.00  0.00     0.228 C 
HETATM    4  O1  UNL     1      -0.403   2.278   1.140  1.00  0.00    -0.273 OA
ENDROOT
BRANCH   3   5
HETATM    5  C7  UNL     1      -1.067   0.125   1.801  1.00  0.00     0.097 C 
HETATM    6  C8  UNL     1      -0.450  -0.783   2.812  1.00  0.00     0.016 C 
HETATM    7  C9  UNL     1      -0.131  -2.003   2.016  1.00  0.00     0.007 C 
HETATM    8  C10 UNL     1      -1.155  -2.097   0.941  1.00  0.00     0.005 C 
HETATM    9  C11 UNL     1      -0.526  -2.294  -0.395  1.00  0.00     0.006 C 
HETATM   10  C14 UNL     1      -1.903  -0.754   0.888  1.00  0.00     0.024 C 
HETATM   11  C12 UNL     1      -1.147  -1.342  -1.356  1.00  0.00     0.002 C 
HETATM   12  C13 UNL     1      -1.897  -0.324  -0.525  1.00  0.00     0.022 C 
BRANCH  10  13
HETATM   13  S1  UNL     1      -3.490  -1.036   1.650  1.00  0.00    -0.156 SA
BRANCH  13  14
HETATM   14  C15 UNL     1      -4.539   0.359   1.895  1.00  0.00     0.102 C 
BRANCH  14  15
HETATM   15  C16 UNL     1      -5.167   1.029   0.748  1.00  0.00     0.247 C 
BRANCH  15  16
HETATM   16  N5  UNL     1      -6.099   0.342  -0.066  1.00  0.00    -0.060 N 
HETATM   17  C19 UNL     1      -7.484   0.645   0.291  1.00  0.00     0.263 C 
HETATM   18  C20 UNL     1      -7.802   2.120   0.163  1.00  0.00     0.195 C 
HETATM   19  O3  UNL     1      -7.516   2.655  -1.067  1.00  0.00    -0.388 OA
HETATM   20  C21 UNL     1      -6.224   2.375  -1.426  1.00  0.00     0.195 C 
HETATM   21  C22 UNL     1      -5.975   0.870  -1.437  1.00  0.00     0.263 C 
BRANCH  16  22
HETATM   22  C17 UNL     1      -5.896  -1.060  -0.103  1.00  0.00     0.263 C 
BRANCH  22  23
HETATM   23  C18 UNL     1      -6.919  -1.844  -0.908  1.00  0.00     0.192 C 
BRANCH  23  24
HETATM   24  O2  UNL     1      -6.493  -3.196  -0.807  1.00  0.00    -0.399 OA
ATOM     25  H2  UNL     1      -7.133  -3.686  -1.310  1.00  0.00     0.209 HD
ENDBRANCH  23  24
ENDBRANCH  22  23
ENDBRANCH  16  22
ENDBRANCH  15  16
ENDBRANCH  14  15
ENDBRANCH  13  14
ENDBRANCH  10  13
ENDBRANCH   3   5
BRANCH   1  26
HETATM   26  C5  UNL     1       2.214   0.782   0.536  1.00  0.00     0.121 A 
HETATM   27  C4  UNL     1       2.889   1.410   1.556  1.00  0.00     0.133 A 
HETATM   28  N2  UNL     1       4.199   1.542   1.689  1.00  0.00    -0.349 N 
HETATM   29  C3  UNL     1       5.153   1.095   0.861  1.00  0.00     0.112 A 
ATOM     30  H2  UNL     1       4.520   2.042   2.518  1.00  0.00     0.167 HD
HETATM   31  C2  UNL     1       4.924   0.401  -0.305  1.00  0.00     0.066 A 
HETATM   32  S2  UNL     1       3.284   0.126  -0.657  1.00  0.00    -0.064 SA
BRANCH  27  33
HETATM   33  N3  UNL     1       2.172   1.945   2.521  1.00  0.00    -0.383 N 
ATOM     34  H32 UNL     1       2.673   2.411   3.278  1.00  0.00     0.157 HD
ATOM     35  H31 UNL     1       1.162   1.843   2.418  1.00  0.00     0.157 HD
ENDBRANCH  27  33
BRANCH  31  36
HETATM   36  C1  UNL     1       6.018  -0.058  -1.165  1.00  0.00     0.115 C 
HETATM   37  N1  UNL     1       5.732  -0.704  -2.240  1.00  0.00    -0.384 N 
ATOM     38  H12 UNL     1       4.749  -0.874  -2.454  1.00  0.00     0.157 HD
ATOM     39  H11 UNL     1       6.494  -1.024  -2.839  1.00  0.00     0.157 HD
BRANCH  36  40
HETATM   40  N6  UNL     1       7.371   0.176  -0.870  1.00  0.00    -0.367 N 
HETATM   41  C23 UNL     1       8.088   1.105  -1.750  1.00  0.00     0.124 C 
HETATM   42  C24 UNL     1       9.572   0.869  -1.720  1.00  0.00     0.020 C 
HETATM   43  C25 UNL     1       9.927  -0.576  -1.531  1.00  0.00     0.003 C 
HETATM   44  C26 UNL     1       9.359  -1.130  -0.266  1.00  0.00     0.020 C 
HETATM   45  C27 UNL     1       8.117  -0.405   0.206  1.00  0.00     0.124 C 
ENDBRANCH  36  40
ENDBRANCH  31  36
ENDBRANCH   1  26
TORSDOF 12
