REMARK  12 active torsions:
REMARK  status: ('A' for Active; 'I' for Inactive)
REMARK    1  A    between atoms: C3_3  and  N1_4 
REMARK    2  A    between atoms: N2_7  and  C6_8 
REMARK    3  A    between atoms: C6_8  and  C7_10 
REMARK    4  A    between atoms: C7_10  and  C8_11 
REMARK    5  A    between atoms: C8_11  and  C9_12 
REMARK    6  A    between atoms: C9_12  and  C10_13 
REMARK    7  A    between atoms: C10_13  and  C11_14 
REMARK    8  A    between atoms: C11_14  and  N3_15 
REMARK    9  A    between atoms: C18_23  and  O2_24 
REMARK   10  A    between atoms: C19_26  and  C20_27 
REMARK   11  A    between atoms: C20_27  and  C21_28 
REMARK   12  A    between atoms: C22_29  and  O3_30 
ROOT
HETATM    1  C1  UNL     1      -1.225   1.141  -2.846  1.00  0.00     0.032 C 
HETATM    2  C2  UNL     1      -2.390   1.205  -2.260  1.00  0.00     0.052 A 
HETATM    3  C3  UNL     1      -2.781   0.547  -1.138  1.00  0.00     0.081 A 
HETATM    4  C18 UNL     1      -4.089   0.674  -0.602  1.00  0.00     0.120 A 
HETATM    5  C19 UNL     1      -4.981   1.506  -1.265  1.00  0.00     0.071 A 
HETATM    6  N5  UNL     1      -4.576   2.149  -2.372  1.00  0.00    -0.320 N 
ATOM      7  H5  UNL     1      -5.236   2.759  -2.855  1.00  0.00     0.169 HD
HETATM    8  C29 UNL     1      -3.346   2.021  -2.863  1.00  0.00     0.257 A 
HETATM    9  O4  UNL     1      -3.034   2.664  -3.919  1.00  0.00    -0.267 OA
ENDROOT
BRANCH   3  10
HETATM   10  N1  UNL     1      -1.849  -0.300  -0.466  1.00  0.00    -0.375 N 
HETATM   11  C4  UNL     1      -0.970   0.104   0.588  1.00  0.00     0.143 C 
HETATM   12  C5  UNL     1       0.447  -0.294   0.326  1.00  0.00     0.143 C 
HETATM   13  N2  UNL     1       0.503  -1.626  -0.203  1.00  0.00    -0.372 N 
HETATM   14  C16 UNL     1      -0.696  -2.440  -0.193  1.00  0.00     0.143 C 
HETATM   15  C17 UNL     1      -1.831  -1.703  -0.883  1.00  0.00     0.143 C 
BRANCH  13  16
HETATM   16  C6  UNL     1       1.684  -2.154  -0.739  1.00  0.00     0.075 C 
HETATM   17  S1  UNL     1       1.649  -3.691  -1.331  1.00  0.00    -0.066 SA
BRANCH  16  18
HETATM   18  C7  UNL     1       3.002  -1.460  -0.832  1.00  0.00     0.069 C 
BRANCH  18  19
HETATM   19  C8  UNL     1       3.726  -1.567   0.459  1.00  0.00     0.007 C 
BRANCH  19  20
HETATM   20  C9  UNL     1       5.114  -0.912   0.453  1.00  0.00     0.002 C 
BRANCH  20  21
HETATM   21  C10 UNL     1       5.042   0.533   0.179  1.00  0.00     0.030 C 
BRANCH  21  22
HETATM   22  C11 UNL     1       6.333   1.241   0.083  1.00  0.00     0.272 C 
BRANCH  22  23
HETATM   23  N3  UNL     1       7.244   1.280   1.143  1.00  0.00     0.092 N 
HETATM   24  C12 UNL     1       8.002   0.147   1.511  1.00  0.00     0.298 C 
HETATM   25  C13 UNL     1       8.842  -0.352   0.334  1.00  0.00     0.198 C 
HETATM   26  O1  UNL     1       9.409   0.741  -0.330  1.00  0.00    -0.388 OA
HETATM   27  C14 UNL     1       9.527   1.866   0.479  1.00  0.00     0.198 C 
HETATM   28  C15 UNL     1       8.199   2.394   0.978  1.00  0.00     0.298 C 
ENDBRANCH  22  23
ENDBRANCH  21  22
ENDBRANCH  20  21
ENDBRANCH  19  20
ENDBRANCH  18  19
ENDBRANCH  16  18
ENDBRANCH  13  16
ENDBRANCH   3  10
BRANCH   4  29
HETATM   29  O2  UNL     1      -4.319  -0.036   0.505  1.00  0.00    -0.356 OA
ATOM     30  H2  UNL     1      -5.195   0.049   0.864  1.00  0.00     0.218 HD
ENDBRANCH   4  29
BRANCH   5  31
HETATM   31  C20 UNL     1      -6.214   1.684  -0.856  1.00  0.00     0.049 C 
BRANCH  31  32
HETATM   32  C21 UNL     1      -6.906   1.126   0.271  1.00  0.00     0.029 A 
HETATM   33  C22 UNL     1      -6.999   1.647   1.539  1.00  0.00     0.151 A 
HETATM   34  N4  UNL     1      -7.780   0.824   2.292  1.00  0.00    -0.336 N 
HETATM   35  C23 UNL     1      -8.190  -0.212   1.540  1.00  0.00     0.045 A 
ATOM     36  H4  UNL     1      -8.017   0.971   3.273  1.00  0.00     0.168 HD
HETATM   37  C24 UNL     1      -8.992  -1.328   1.801  1.00  0.00     0.030 A 
HETATM   38  C28 UNL     1      -7.657  -0.041   0.283  1.00  0.00     0.005 A 
HETATM   39  C25 UNL     1      -9.255  -2.255   0.819  1.00  0.00     0.002 A 
HETATM   40  C26 UNL     1      -8.717  -2.070  -0.424  1.00  0.00     0.001 A 
HETATM   41  C27 UNL     1      -7.924  -0.965  -0.678  1.00  0.00     0.014 A 
BRANCH  33  42
HETATM   42  O3  UNL     1      -6.417   2.809   2.016  1.00  0.00    -0.345 OA
ATOM     43  H3  UNL     1      -6.481   3.169   2.893  1.00  0.00     0.219 HD
ENDBRANCH  33  42
ENDBRANCH  31  32
ENDBRANCH   5  31
TORSDOF 12
