REMARK  11 active torsions:
REMARK  status: ('A' for Active; 'I' for Inactive)
REMARK    1  A    between atoms: S1_2  and  C2_4 
REMARK    2  A    between atoms: C4_6  and  N1_7 
REMARK       I    between atoms: N1_7  and  C5_9 
REMARK    3  A    between atoms: C5_9  and  C6_11 
REMARK    4  A    between atoms: C6_11  and  S2_12 
REMARK    5  A    between atoms: C10_18  and  N2_19 
REMARK    6  A    between atoms: N2_19  and  C11_21 
REMARK    7  A    between atoms: C12_24  and  N4_25 
REMARK    8  A    between atoms: N4_25  and  C13_27 
REMARK    9  A    between atoms: C13_27  and  C14_28 
REMARK   10  A    between atoms: C20_36  and  N6_37 
REMARK   11  A    between atoms: N6_37  and  C21_39 
ROOT
HETATM    1  C11 UNL     1      -1.299   1.867   0.039  1.00  0.00     0.711 A 
HETATM    2  N3  UNL     1      -1.382   0.570   0.326  1.00  0.00    -0.021 N 
ATOM      3  H3  UNL     1      -0.520   0.024   0.311  1.00  0.00     0.203 HD
HETATM    4  C12 UNL     1      -2.516  -0.067   0.633  1.00  0.00     0.707 A 
HETATM    5  N5  UNL     1      -3.643   0.678   0.647  1.00  0.00    -0.021 N 
ATOM      6  H5  UNL     1      -4.530   0.231   0.877  1.00  0.00     0.203 HD
HETATM    7  C20 UNL     1      -3.628   1.987   0.367  1.00  0.00     0.711 A 
HETATM    8  N7  UNL     1      -2.465   2.569   0.068  1.00  0.00    -0.021 N 
ATOM      9  H7  UNL     1      -2.449   3.566  -0.144  1.00  0.00     0.203 HD
ENDROOT
BRANCH   1  10
HETATM   10  N2  UNL     1      -0.187   2.403  -0.240  1.00  0.00    -0.189 N 
ATOM     11  H2  UNL     1      -0.171   3.400  -0.454  1.00  0.00     0.184 HD
BRANCH  10  12
HETATM   12  C10 UNL     1       1.031   1.694  -0.270  1.00  0.00     0.068 A 
HETATM   13  C2  UNL     1       1.699   1.282  -1.343  1.00  0.00     0.060 A 
HETATM   14  C3  UNL     1       2.855   0.614  -1.416  1.00  0.00     0.053 A 
HETATM   15  C4  UNL     1       3.513   0.269  -0.189  1.00  0.00     0.036 A 
HETATM   16  C8  UNL     1       2.865   0.672   0.944  1.00  0.00     0.032 A 
HETATM   17  C9  UNL     1       1.652   1.371   0.966  1.00  0.00     0.034 A 
BRANCH  13  18
HETATM   18  S1  UNL     1       1.009   1.809  -2.879  1.00  0.00     0.048 S 
HETATM   19  C1  UNL     1       1.025   2.797  -3.664  1.00  0.00     0.133 C 
HETATM   20  O1  UNL     1       0.352   0.358  -2.737  1.00  0.00    -0.253 OA
ENDBRANCH  13  18
BRANCH  15  21
HETATM   21  N1  UNL     1       4.716  -0.445  -0.254  1.00  0.00    -0.326 N 
HETATM   22  C5  UNL     1       5.668  -0.624   0.745  1.00  0.00     0.236 C 
HETATM   23  O2  UNL     1       5.514  -0.108   1.880  1.00  0.00    -0.272 OA
ATOM     24  H1  UNL     1       4.921  -0.891  -1.148  1.00  0.00     0.169 HD
BRANCH  22  25
HETATM   25  C6  UNL     1       6.908  -1.412   0.568  1.00  0.00     0.242 C 
BRANCH  25  26
HETATM   26  S2  UNL     1       7.068  -2.226  -0.970  1.00  0.00     0.149 S 
HETATM   27  C7  UNL     1       5.757  -3.387  -1.208  1.00  0.00     0.161 C 
HETATM   28  O3  UNL     1       8.357  -3.020  -0.926  1.00  0.00    -0.228 OA
HETATM   29  O4  UNL     1       7.161  -1.293  -2.141  1.00  0.00    -0.228 OA
ENDBRANCH  25  26
ENDBRANCH  22  25
ENDBRANCH  15  21
ENDBRANCH  10  12
ENDBRANCH   1  10
BRANCH   4  30
HETATM   30  N4  UNL     1      -2.505  -1.323   0.893  1.00  0.00    -0.221 N 
ATOM     31  H4  UNL     1      -3.392  -1.771   1.123  1.00  0.00     0.178 HD
BRANCH  30  32
HETATM   32  C13 UNL     1      -1.318  -2.141   0.881  1.00  0.00     0.176 C 
BRANCH  32  33
HETATM   33  C14 UNL     1      -1.683  -3.576   0.957  1.00  0.00    -0.040 A 
HETATM   34  C15 UNL     1      -1.759  -4.211   2.160  1.00  0.00     0.009 A 
HETATM   35  C16 UNL     1      -2.103  -5.545   2.166  1.00  0.00     0.001 A 
HETATM   36  C17 UNL     1      -2.370  -6.253   1.007  1.00  0.00     0.000 A 
HETATM   37  C18 UNL     1      -2.280  -5.564  -0.200  1.00  0.00     0.001 A 
HETATM   38  C19 UNL     1      -1.939  -4.230  -0.242  1.00  0.00     0.009 A 
ENDBRANCH  32  33
ENDBRANCH  30  32
ENDBRANCH   4  30
BRANCH   7  39
HETATM   39  N6  UNL     1      -4.714   2.658   0.392  1.00  0.00    -0.191 N 
ATOM     40  H6  UNL     1      -5.562   2.145   0.632  1.00  0.00     0.184 HD
BRANCH  39  41
HETATM   41  C21 UNL     1      -4.862   4.028   0.124  1.00  0.00     0.049 A 
HETATM   42  C22 UNL     1      -5.335   4.386  -1.128  1.00  0.00     0.030 A 
HETATM   43  C23 UNL     1      -5.493   5.701  -1.427  1.00  0.00     0.002 A 
HETATM   44  C24 UNL     1      -5.187   6.660  -0.498  1.00  0.00     0.000 A 
HETATM   45  C25 UNL     1      -4.714   6.322   0.755  1.00  0.00     0.002 A 
HETATM   46  C26 UNL     1      -4.546   4.993   1.079  1.00  0.00     0.030 A 
ENDBRANCH  39  41
ENDBRANCH   7  39
TORSDOF 11
