REMARK  10 active torsions:
REMARK  status: ('A' for Active; 'I' for Inactive)
REMARK    1  A    between atoms: O1_2  and  C2_3 
REMARK    2  A    between atoms: C5_6  and  N1_7 
REMARK    3  A    between atoms: N2_10  and  C8_11 
REMARK    4  A    between atoms: C10_13  and  N3_14 
REMARK    5  A    between atoms: N3_14  and  C11_16 
REMARK    6  A    between atoms: C11_16  and  C12_17 
REMARK    7  A    between atoms: C12_17  and  N4_18 
REMARK    8  A    between atoms: N4_18  and  C13_20 
REMARK    9  A    between atoms: C18_29  and  N7_30 
REMARK   10  A    between atoms: N7_30  and  C19_32 
ROOT
HETATM    1  C8  UNL     1      -0.334   1.063  -0.277  1.00  0.00     0.122 A 
HETATM    2  C9  UNL     1      -1.192   0.025  -0.526  1.00  0.00     0.098 A 
HETATM    3  C10 UNL     1      -2.580   0.151  -0.373  1.00  0.00     0.124 A 
HETATM    4  N6  UNL     1      -3.023   1.336   0.029  1.00  0.00    -0.176 N 
ATOM      5  H6  UNL     1      -4.027   1.464   0.152  1.00  0.00     0.186 HD
HETATM    6  C18 UNL     1      -2.192   2.396   0.287  1.00  0.00     0.685 A 
HETATM    7  N8  UNL     1      -0.864   2.222   0.124  1.00  0.00    -0.176 N 
ATOM      8  H8  UNL     1      -0.240   3.006   0.314  1.00  0.00     0.186 HD
ENDROOT
BRANCH   1   9
HETATM    9  N2  UNL     1       1.060   0.892  -0.454  1.00  0.00    -0.364 N 
HETATM   10  C7  UNL     1       1.739   1.229  -1.692  1.00  0.00     0.144 C 
HETATM   11  C6  UNL     1       2.699   0.145  -2.116  1.00  0.00     0.143 C 
HETATM   12  N1  UNL     1       3.341  -0.521  -1.021  1.00  0.00    -0.378 N 
HETATM   13  C27 UNL     1       2.486  -0.939   0.072  1.00  0.00     0.143 C 
HETATM   14  C26 UNL     1       1.865   0.355   0.630  1.00  0.00     0.144 C 
BRANCH  12  15
HETATM   15  C5  UNL     1       4.732  -0.785  -0.913  1.00  0.00     0.030 A 
HETATM   16  C4  UNL     1       5.657   0.014  -1.570  1.00  0.00     0.032 A 
HETATM   17  C3  UNL     1       7.004  -0.250  -1.487  1.00  0.00     0.039 A 
HETATM   18  C2  UNL     1       7.525  -1.297  -0.765  1.00  0.00     0.068 A 
HETATM   19  C29 UNL     1       6.622  -2.099  -0.106  1.00  0.00     0.039 A 
HETATM   20  C28 UNL     1       5.249  -1.836  -0.188  1.00  0.00     0.032 A 
BRANCH  18  21
HETATM   21  O1  UNL     1       8.897  -1.502  -0.727  1.00  0.00    -0.356 OA
HETATM   22  C1  UNL     1       9.513  -2.537  -0.021  1.00  0.00     0.210 C 
ENDBRANCH  18  21
ENDBRANCH  12  15
ENDBRANCH   1   9
BRANCH   3  23
HETATM   23  N3  UNL     1      -3.268  -0.873  -0.626  1.00  0.00    -0.354 N 
ATOM     24  H3  UNL     1      -2.763  -1.709  -0.921  1.00  0.00     0.166 HD
BRANCH  23  25
HETATM   25  C11 UNL     1      -4.669  -0.972  -0.540  1.00  0.00     0.082 C 
BRANCH  25  26
HETATM   26  C12 UNL     1      -5.127  -2.043   0.439  1.00  0.00     0.165 C 
BRANCH  26  27
HETATM   27  N4  UNL     1      -4.638  -3.333   0.055  1.00  0.00    -0.372 N 
ATOM     28  H4  UNL     1      -3.860  -3.400  -0.601  1.00  0.00     0.161 HD
BRANCH  27  29
HETATM   29  C13 UNL     1      -5.162  -4.402   0.522  1.00  0.00     0.101 A 
HETATM   30  C14 UNL     1      -6.212  -4.414   1.411  1.00  0.00     0.048 A 
HETATM   31  C15 UNL     1      -6.699  -5.614   1.850  1.00  0.00     0.005 A 
HETATM   32  C16 UNL     1      -6.176  -6.819   1.435  1.00  0.00     0.017 A 
HETATM   33  C17 UNL     1      -5.120  -6.760   0.540  1.00  0.00     0.089 A 
HETATM   34  N5  UNL     1      -4.633  -5.586   0.101  1.00  0.00    -0.353 N 
ATOM     35  H5  UNL     1      -3.855  -5.581  -0.558  1.00  0.00     0.166 HD
ENDBRANCH  27  29
ENDBRANCH  26  27
ENDBRANCH  25  26
ENDBRANCH  23  25
ENDBRANCH   3  23
BRANCH   6  36
HETATM   36  N7  UNL     1      -2.694   3.518   0.675  1.00  0.00    -0.191 N 
ATOM     37  H7  UNL     1      -3.705   3.596   0.783  1.00  0.00     0.184 HD
BRANCH  36  38
HETATM   38  C19 UNL     1      -1.888   4.642   0.955  1.00  0.00     0.055 A 
HETATM   39  C20 UNL     1      -1.163   4.725   2.116  1.00  0.00     0.030 A 
HETATM   40  C21 UNL     1      -0.382   5.820   2.386  1.00  0.00     0.002 A 
HETATM   41  C22 UNL     1      -0.327   6.853   1.474  1.00  0.00     0.001 A 
HETATM   42  C23 UNL     1      -1.043   6.807   0.293  1.00  0.00     0.009 A 
HETATM   43  C24 UNL     1      -1.824   5.678   0.056  1.00  0.00    -0.035 A 
HETATM   44  C25 UNL     1      -2.599   5.607  -1.201  1.00  0.00     0.050 C 
ENDBRANCH  36  38
ENDBRANCH   6  36
TORSDOF 10
