REMARK  13 active torsions:
REMARK  status: ('A' for Active; 'I' for Inactive)
REMARK    1  A    between atoms: N1_1  and  N2_4 
REMARK    2  A    between atoms: C1_6  and  C2_7 
REMARK    3  A    between atoms: C1_6  and  N5_12 
REMARK    4  A    between atoms: C2_7  and  N3_8 
REMARK    5  A    between atoms: N3_8  and  N4_9 
REMARK    6  A    between atoms: N5_12  and  C3_14 
REMARK    7  A    between atoms: C3_14  and  C4_15 
REMARK    8  A    between atoms: C6_18  and  C7_19 
REMARK    9  A    between atoms: C7_19  and  N6_20 
REMARK   10  A    between atoms: C7_19  and  C8_24 
REMARK   11  A    between atoms: C7_19  and  C9_27 
REMARK   12  A    between atoms: C8_24  and  O2_25 
REMARK   13  A    between atoms: C9_27  and  O3_28 
ROOT
HETATM    1  C4  UNL     1      -0.486  -0.189   1.191  1.00  0.00     0.277 C 
HETATM    2  O1  UNL     1      -0.771   1.158   0.986  1.00  0.00    -0.357 OA
HETATM    3  C5  UNL     1      -1.515   1.146  -0.184  1.00  0.00     0.205 C 
HETATM    4  C6  UNL     1      -2.093  -0.213  -0.342  1.00  0.00     0.188 C 
HETATM    5  O4  UNL     1      -1.626  -0.864   0.798  1.00  0.00    -0.350 OA
ENDROOT
BRANCH   1   6
HETATM    6  C3  UNL     1       0.715  -0.543   0.341  1.00  0.00     0.181 C 
BRANCH   6   7
HETATM    7  N5  UNL     1       1.855   0.251   0.705  1.00  0.00    -0.373 N 
ATOM      8  H5  UNL     1       1.791   0.945   1.450  1.00  0.00     0.161 HD
BRANCH   7   9
HETATM    9  C1  UNL     1       3.104   0.043  -0.012  1.00  0.00     0.107 C 
HETATM   10  N2  UNL     1       3.029  -0.314  -1.211  1.00  0.00    -0.295 N 
ATOM     11  H2  UNL     1       2.077  -0.446  -1.552  1.00  0.00     0.187 HD
BRANCH  10  12
HETATM   12  N1  UNL     1       4.003  -0.559  -2.146  1.00  0.00    -0.344 N 
ATOM     13  H12 UNL     1       4.947  -0.422  -1.785  1.00  0.00     0.176 HD
ATOM     14  H11 UNL     1       3.942  -0.850  -3.122  1.00  0.00     0.176 HD
ENDBRANCH  10  12
BRANCH   9  15
HETATM   15  C2  UNL     1       4.386   0.285   0.672  1.00  0.00     0.211 C 
BRANCH  15  16
HETATM   16  N3  UNL     1       5.474  -0.249  -0.091  1.00  0.00    -0.141 NA
BRANCH  16  17
HETATM   17  N4  UNL     1       6.719   0.028   0.544  1.00  0.00    -0.348 N 
ATOM     18  H42 UNL     1       6.807   0.539   1.423  1.00  0.00     0.172 HD
ATOM     19  H41 UNL     1       7.494  -0.352   0.001  1.00  0.00     0.172 HD
ENDBRANCH  16  17
ENDBRANCH  15  16
ENDBRANCH   9  15
ENDBRANCH   7   9
ENDBRANCH   6   7
ENDBRANCH   1   6
BRANCH   4  20
HETATM   20  C7  UNL     1      -3.580  -0.287  -0.404  1.00  0.00     0.193 C 
BRANCH  20  21
HETATM   21  N6  UNL     1      -3.923  -1.721  -0.441  1.00  0.00    -0.064 N 
ATOM     22  H63 UNL     1      -3.461  -2.228  -1.195  1.00  0.00     0.275 HD
ATOM     23  H62 UNL     1      -3.523  -2.253   0.332  1.00  0.00     0.275 HD
ATOM     24  H61 UNL     1      -4.941  -1.772  -0.483  1.00  0.00     0.275 HD
ENDBRANCH  20  21
BRANCH  20  25
HETATM   25  C8  UNL     1      -4.222   0.265   0.853  1.00  0.00     0.207 C 
BRANCH  25  26
HETATM   26  O2  UNL     1      -3.744  -0.373   1.995  1.00  0.00    -0.398 OA
ATOM     27  H2  UNL     1      -4.146  -0.027   2.783  1.00  0.00     0.209 HD
ENDBRANCH  25  26
ENDBRANCH  20  25
BRANCH  20  28
HETATM   28  C9  UNL     1      -4.167   0.308  -1.638  1.00  0.00     0.207 C 
BRANCH  28  29
HETATM   29  O3  UNL     1      -3.972   1.649  -1.817  1.00  0.00    -0.398 OA
ATOM     30  H3  UNL     1      -4.346   2.028  -2.604  1.00  0.00     0.209 HD
ENDBRANCH  28  29
ENDBRANCH  20  28
ENDBRANCH   4  20
TORSDOF 13
