REMARK  9 active torsions:
REMARK  status: ('A' for Active; 'I' for Inactive)
REMARK    1  A    between atoms: C3_4  and  N2_5 
REMARK    2  A    between atoms: N2_5  and  C4_7 
REMARK    3  A    between atoms: C4_7  and  C5_8 
REMARK    4  A    between atoms: C5_8  and  C6_9 
REMARK    5  A    between atoms: C6_9  and  C7_10 
REMARK    6  A    between atoms: C13_18  and  N4_19 
REMARK    7  A    between atoms: N4_19  and  C14_21 
REMARK    8  A    between atoms: C14_21  and  C15_22 
REMARK    9  A    between atoms: C15_22  and  O1_23 
ROOT
HETATM    1  C1  UNL     1       2.779   2.377   0.146  1.00  0.00     0.177 C 
HETATM    2  N1  UNL     1       2.430   0.956   0.023  1.00  0.00    -0.290 N 
HETATM    3  C2  UNL     1       1.115   0.646  -0.117  1.00  0.00     0.158 A 
HETATM    4  C3  UNL     1       0.732  -0.672  -0.237  1.00  0.00     0.134 A 
HETATM    5  N3  UNL     1       1.718  -1.620  -0.208  1.00  0.00    -0.174 N 
ATOM      6  H3  UNL     1       1.456  -2.602  -0.295  1.00  0.00     0.186 HD
HETATM    7  C13 UNL     1       3.017  -1.309  -0.069  1.00  0.00     0.694 A 
HETATM    8  N5  UNL     1       3.313  -0.002   0.042  1.00  0.00    -0.131 N 
ATOM      9  H5  UNL     1       4.294   0.257   0.148  1.00  0.00     0.205 HD
ENDROOT
BRANCH   4  10
HETATM   10  N2  UNL     1      -0.491  -1.039  -0.372  1.00  0.00    -0.375 N 
ATOM     11  H2  UNL     1      -0.707  -2.032  -0.456  1.00  0.00     0.161 HD
BRANCH  10  12
HETATM   12  C4  UNL     1      -1.564  -0.079  -0.408  1.00  0.00     0.121 C 
BRANCH  12  13
HETATM   13  C5  UNL     1      -1.986   0.270   1.003  1.00  0.00     0.024 C 
BRANCH  13  14
HETATM   14  C6  UNL     1      -3.098   1.272   1.025  1.00  0.00     0.040 C 
BRANCH  14  15
HETATM   15  C7  UNL     1      -4.310   0.818   0.344  1.00  0.00    -0.058 A 
HETATM   16  C8  UNL     1      -5.263   0.125   1.083  1.00  0.00     0.007 A 
HETATM   17  C9  UNL     1      -6.419  -0.315   0.472  1.00  0.00     0.001 A 
HETATM   18  C10 UNL     1      -6.645  -0.075  -0.867  1.00  0.00     0.000 A 
HETATM   19  C11 UNL     1      -5.702   0.613  -1.604  1.00  0.00     0.001 A 
HETATM   20  C12 UNL     1      -4.552   1.048  -0.993  1.00  0.00     0.007 A 
ENDBRANCH  14  15
ENDBRANCH  13  14
ENDBRANCH  12  13
ENDBRANCH  10  12
ENDBRANCH   4  10
BRANCH   7  21
HETATM   21  N4  UNL     1       3.926  -2.240  -0.046  1.00  0.00    -0.223 N 
ATOM     22  H4  UNL     1       3.629  -3.212  -0.135  1.00  0.00     0.177 HD
BRANCH  21  23
HETATM   23  C14 UNL     1       5.318  -1.964   0.098  1.00  0.00     0.164 C 
BRANCH  23  24
HETATM   24  C15 UNL     1       5.988  -1.607  -1.211  1.00  0.00     0.184 C 
BRANCH  24  25
HETATM   25  O1  UNL     1       7.344  -1.344  -1.038  1.00  0.00    -0.399 OA
ATOM     26  H1  UNL     1       7.765  -1.120  -1.860  1.00  0.00     0.209 HD
ENDBRANCH  24  25
ENDBRANCH  23  24
ENDBRANCH  21  23
ENDBRANCH   7  21
TORSDOF 9
