REMARK  5 active torsions:
REMARK  status: ('A' for Active; 'I' for Inactive)
REMARK    1  A    between atoms: C2_2  and  C3_3 
REMARK    2  A    between atoms: C3_3  and  C4_4 
REMARK    3  A    between atoms: C4_4  and  C5_5 
REMARK    4  A    between atoms: C5_5  and  N1_6 
REMARK    5  A    between atoms: C14_23  and  O1_24 
ROOT
HETATM    1  N1  UNL     1       0.274   0.320  -0.085  1.00  0.00    -0.379 N 
HETATM    2  C6  UNL     1      -0.267  -0.037   1.182  1.00  0.00     0.162 C 
HETATM    3  C7  UNL     1      -1.508  -0.830   0.934  1.00  0.00     0.005 A 
HETATM    4  C8  UNL     1      -1.891  -2.083   1.157  1.00  0.00     0.118 A 
HETATM    5  N2  UNL     1      -3.118  -2.251   0.576  1.00  0.00    -0.309 N 
ATOM      6  H2  UNL     1      -3.650  -3.121   0.592  1.00  0.00     0.186 HD
HETATM    7  N3  UNL     1      -3.527  -1.124  -0.016  1.00  0.00    -0.295 N 
HETATM    8  C9  UNL     1      -4.683  -1.014  -0.856  1.00  0.00     0.178 C 
HETATM    9  C10 UNL     1      -2.574  -0.249   0.195  1.00  0.00     0.074 A 
HETATM   10  C11 UNL     1      -2.631   1.142  -0.216  1.00  0.00     0.057 A 
HETATM   11  C12 UNL     1      -3.748   1.904  -0.153  1.00  0.00     0.109 A 
HETATM   12 BR1  UNL     1      -5.420   1.576   0.654  1.00  0.00    -0.029 Br
HETATM   13  N4  UNL     1      -3.369   3.095  -0.651  1.00  0.00    -0.292 N 
ATOM     14  H4  UNL     1      -3.979   3.906  -0.753  1.00  0.00     0.187 HD
HETATM   15  N5  UNL     1      -2.064   3.060  -0.996  1.00  0.00    -0.299 N 
ATOM     16  H5  UNL     1      -1.547   3.843  -1.395  1.00  0.00     0.186 HD
HETATM   17  C13 UNL     1      -1.542   1.851  -0.740  1.00  0.00     0.089 A 
HETATM   18  C14 UNL     1      -0.148   1.375  -0.879  1.00  0.00     0.269 C 
ENDROOT
BRANCH   1  19
HETATM   19  C5  UNL     1       0.782  -0.796  -0.840  1.00  0.00     0.120 C 
BRANCH  19  20
HETATM   20  C4  UNL     1       2.017  -1.402  -0.217  1.00  0.00     0.019 C 
BRANCH  20  21
HETATM   21  C3  UNL     1       3.134  -0.397  -0.117  1.00  0.00     0.001 C 
BRANCH  21  22
HETATM   22  C2  UNL     1       4.362  -0.986   0.498  1.00  0.00    -0.004 C 
HETATM   23  C1  UNL     1       5.418   0.119   0.546  1.00  0.00     0.005 C 
ENDBRANCH  21  22
ENDBRANCH  20  21
ENDBRANCH  19  20
ENDBRANCH   1  19
BRANCH  18  24
HETATM   24  O1  UNL     1       0.655   2.533  -0.760  1.00  0.00    -0.371 OA
ATOM     25  H1  UNL     1       0.366   3.256  -1.304  1.00  0.00     0.212 HD
ENDBRANCH  18  24
TORSDOF 5
