REMARK  6 active torsions:
REMARK  status: ('A' for Active; 'I' for Inactive)
REMARK    1  A    between atoms: C2_2  and  N1_3 
REMARK    2  A    between atoms: C3_4  and  O1_5 
REMARK    3  A    between atoms: O1_5  and  C4_6 
REMARK    4  A    between atoms: C4_6  and  C5_7 
REMARK       I    between atoms: C5_7  and  N2_9 
REMARK    5  A    between atoms: N2_9  and  C6_11 
REMARK    6  A    between atoms: C6_11  and  C7_12 
REMARK       I    between atoms: N4_22  and  C14_24 
ROOT
HETATM    1  N1  UNL     1      -1.807  -0.227  -0.873  1.00  0.00    -0.294 N 
HETATM    2  C3  UNL     1      -0.843   0.052   0.162  1.00  0.00     0.225 C 
HETATM    3  N3  UNL     1      -1.083   0.196   1.377  1.00  0.00    -0.338 N 
ATOM      4  H3  UNL     1      -0.255   0.388   1.941  1.00  0.00     0.164 HD
HETATM    5  C10 UNL     1      -2.290   0.144   2.126  1.00  0.00     0.082 C 
HETATM    6  C11 UNL     1      -2.274   1.126   3.265  1.00  0.00     0.051 C 
HETATM    7  C12 UNL     1      -2.462  -1.293   2.622  1.00  0.00     0.051 C 
HETATM    8  S1  UNL     1      -3.659   0.539   0.967  1.00  0.00    -0.063 SA
HETATM    9  C13 UNL     1      -3.174  -0.357  -0.504  1.00  0.00     0.154 C 
HETATM   10  N4  UNL     1      -4.004  -1.048  -1.137  1.00  0.00    -0.307 N 
ATOM     11  H4  UNL     1      -3.673  -1.544  -1.964  1.00  0.00     0.171 HD
HETATM   12  C14 UNL     1      -5.369  -1.192  -0.789  1.00  0.00     0.219 C 
HETATM   13  C15 UNL     1      -6.223  -0.127  -0.239  1.00  0.00     0.117 C 
HETATM   14  O3  UNL     1      -5.887  -2.343  -0.972  1.00  0.00    -0.274 OA
ENDROOT
BRANCH   2  15
HETATM   15  O1  UNL     1       0.489   0.159  -0.323  1.00  0.00    -0.313 OA
BRANCH  15  16
HETATM   16  C4  UNL     1       1.456   0.685   0.568  1.00  0.00     0.282 C 
BRANCH  16  17
HETATM   17  C5  UNL     1       2.821   0.734  -0.079  1.00  0.00     0.245 C 
HETATM   18  O2  UNL     1       2.863   0.318  -1.243  1.00  0.00    -0.271 OA
HETATM   19  N2  UNL     1       3.928   1.213   0.604  1.00  0.00    -0.339 N 
ATOM     20  H2  UNL     1       3.728   1.533   1.552  1.00  0.00     0.167 HD
BRANCH  19  21
HETATM   21  C6  UNL     1       5.265   1.336   0.230  1.00  0.00     0.068 C 
BRANCH  21  22
HETATM   22  C7  UNL     1       6.079   0.126  -0.036  1.00  0.00     0.024 A 
HETATM   23  C8  UNL     1       5.850  -0.889  -1.102  1.00  0.00     0.010 A 
HETATM   24  C9  UNL     1       6.966   0.102  -1.280  1.00  0.00     0.010 A 
ENDBRANCH  21  22
ENDBRANCH  19  21
ENDBRANCH  16  17
ENDBRANCH  15  16
ENDBRANCH   2  15
BRANCH   1  25
HETATM   25  C2  UNL     1      -1.378  -0.370  -2.248  1.00  0.00     0.130 C 
HETATM   26  C1  UNL     1      -2.441  -0.604  -3.246  1.00  0.00     0.027 C 
ENDBRANCH   1  25
TORSDOF 6
