REMARK  5 active torsions:
REMARK  status: ('A' for Active; 'I' for Inactive)
REMARK    1  A    between atoms: C1_2  and  C2_4 
REMARK    2  A    between atoms: C10_12  and  N2_13 
REMARK       I    between atoms: N2_13  and  C11_15 
REMARK    3  A    between atoms: C11_15  and  C12_17 
REMARK    4  A    between atoms: C12_17  and  O3_18 
REMARK    5  A    between atoms: O3_18  and  C13_19 
REMARK       I    between atoms: C13_19  and  N3_21 
ROOT
HETATM    1  N2  UNL     1      -0.756  -0.564  -0.575  1.00  0.00    -0.353 N 
ATOM      2  H2  UNL     1      -0.936  -0.702  -1.569  1.00  0.00     0.163 HD
HETATM    3  C11 UNL     1       0.599  -0.488  -0.131  1.00  0.00     0.242 C 
HETATM    4  O2  UNL     1       0.884  -0.322   1.069  1.00  0.00    -0.271 OA
ENDROOT
BRANCH   1   5
HETATM    5  C10 UNL     1      -1.882  -0.454   0.320  1.00  0.00     0.106 C 
HETATM    6  C2  UNL     1      -2.749   0.694  -0.076  1.00  0.00     0.060 C 
HETATM    7  C3  UNL     1      -3.269   0.474  -1.470  1.00  0.00     0.025 C 
HETATM    8  C18 UNL     1      -3.947   0.861   0.830  1.00  0.00     0.025 C 
HETATM    9  C4  UNL     1      -4.005  -0.837  -1.513  1.00  0.00    -0.013 C 
HETATM   10  C5  UNL     1      -5.221  -0.759  -0.584  1.00  0.00     0.009 C 
HETATM   11  C9  UNL     1      -3.186  -2.003  -1.050  1.00  0.00     0.011 C 
HETATM   12  C6  UNL     1      -4.740  -0.415   0.791  1.00  0.00    -0.013 C 
HETATM   13  C7  UNL     1      -3.840  -1.531   1.287  1.00  0.00     0.011 C 
HETATM   14  C8  UNL     1      -2.703  -1.744   0.335  1.00  0.00     0.010 C 
BRANCH   6  15
HETATM   15  C1  UNL     1      -1.959   1.949   0.012  1.00  0.00     0.241 C 
HETATM   16  N1  UNL     1      -1.427   2.343   1.267  1.00  0.00    -0.061 NA
HETATM   17  O1  UNL     1      -1.754   2.667  -1.008  1.00  0.00    -0.276 OA
ENDBRANCH   6  15
ENDBRANCH   1   5
BRANCH   3  18
HETATM   18  C12 UNL     1       1.659  -0.612  -1.143  1.00  0.00     0.283 C 
BRANCH  18  19
HETATM   19  O3  UNL     1       2.959  -0.521  -0.680  1.00  0.00    -0.295 OA
BRANCH  19  20
HETATM   20  C13 UNL     1       3.558   0.527  -0.040  1.00  0.00     0.363 C 
HETATM   21  O4  UNL     1       2.862   1.555   0.166  1.00  0.00    -0.238 OA
HETATM   22  N3  UNL     1       4.919   0.529   0.407  1.00  0.00    -0.327 N 
HETATM   23  C14 UNL     1       5.780  -0.621   0.204  1.00  0.00     0.129 C 
HETATM   24  C17 UNL     1       5.627   1.582   1.085  1.00  0.00     0.148 C 
HETATM   25  C15 UNL     1       7.178  -0.013   0.322  1.00  0.00     0.041 C 
HETATM   26  C16 UNL     1       6.950   0.992   1.439  1.00  0.00     0.102 C 
HETATM   27 CL1  UNL     1       8.278   2.152   1.422  1.00  0.00    -0.123 Cl
ENDBRANCH  19  20
ENDBRANCH  18  19
ENDBRANCH   3  18
TORSDOF 5
