REMARK  6 active torsions:
REMARK  status: ('A' for Active; 'I' for Inactive)
REMARK    1  A    between atoms: C2_2  and  C3_3 
REMARK    2  A    between atoms: C3_3  and  C4_4 
REMARK    3  A    between atoms: C4_4  and  N1_5 
REMARK    4  A    between atoms: C4_4  and  C5_9 
REMARK    5  A    between atoms: C5_9  and  C6_10 
REMARK       I    between atoms: C6_10  and  N2_12 
REMARK       I    between atoms: N3_23  and  C15_24 
REMARK       I    between atoms: C15_24  and  N4_26 
REMARK    6  A    between atoms: N4_26  and  C16_28 
ROOT
HETATM    1  C6  UNL     1       1.983   0.224  -0.021  1.00  0.00     0.221 C 
HETATM    2  O1  UNL     1       2.153   0.981  -0.997  1.00  0.00    -0.273 OA
HETATM    3  N2  UNL     1       0.985  -0.754  -0.067  1.00  0.00    -0.347 N 
HETATM    4  C7  UNL     1       0.772  -1.639   1.048  1.00  0.00     0.126 C 
HETATM    5  C8  UNL     1       0.648  -3.020   0.424  1.00  0.00     0.025 C 
HETATM    6  C9  UNL     1      -0.650  -3.064  -0.329  1.00  0.00     0.065 C 
HETATM    7  C10 UNL     1      -1.006  -1.826  -1.106  1.00  0.00     0.158 C 
HETATM    8  C11 UNL     1       0.164  -0.923  -1.230  1.00  0.00     0.187 C 
HETATM    9  O2  UNL     1      -1.279  -2.252  -2.424  1.00  0.00    -0.359 OA
HETATM   10  C12 UNL     1      -2.176  -3.244  -2.562  1.00  0.00     0.175 C 
HETATM   11  C13 UNL     1      -3.234  -3.362  -1.533  1.00  0.00     0.085 C 
HETATM   12  C14 UNL     1      -3.407  -2.145  -0.673  1.00  0.00     0.280 C 
HETATM   13  F1  UNL     1      -3.808  -2.487   0.606  1.00  0.00    -0.227 F 
HETATM   14  N3  UNL     1      -2.249  -1.256  -0.665  1.00  0.00    -0.268 N 
HETATM   15  C15 UNL     1      -2.429   0.065  -0.233  1.00  0.00     0.323 C 
HETATM   16  O3  UNL     1      -1.494   0.942  -0.192  1.00  0.00    -0.247 OA
HETATM   17  N4  UNL     1      -3.711   0.517   0.199  1.00  0.00    -0.335 N 
ATOM     18  H4  UNL     1      -4.486  -0.146   0.185  1.00  0.00     0.165 HD
ENDROOT
BRANCH   1  19
HETATM   19  C5  UNL     1       2.838   0.374   1.168  1.00  0.00     0.135 C 
BRANCH  19  20
HETATM   20  C4  UNL     1       3.901   1.406   1.049  1.00  0.00     0.192 C 
BRANCH  20  21
HETATM   21  C3  UNL     1       4.906   1.194  -0.034  1.00  0.00     0.033 C 
BRANCH  21  22
HETATM   22  C2  UNL     1       5.901   2.360  -0.039  1.00  0.00    -0.002 C 
HETATM   23  C1  UNL     1       6.927   2.176  -1.118  1.00  0.00     0.005 C 
ENDBRANCH  21  22
ENDBRANCH  20  21
BRANCH  20  24
HETATM   24  N1  UNL     1       4.666   1.461   2.307  1.00  0.00    -0.075 N 
ATOM     25  H13 UNL     1       5.261   0.646   2.458  1.00  0.00     0.274 HD
ATOM     26  H12 UNL     1       5.411   2.158   2.300  1.00  0.00     0.274 HD
ATOM     27  H11 UNL     1       3.979   1.606   3.047  1.00  0.00     0.274 HD
ENDBRANCH  20  24
ENDBRANCH  19  20
ENDBRANCH   1  19
BRANCH  17  28
HETATM   28  C16 UNL     1      -3.971   1.862   0.655  1.00  0.00     0.023 C 
HETATM   29  C17 UNL     1      -5.423   2.043   1.049  1.00  0.00     0.037 C 
HETATM   30  C18 UNL     1      -3.751   2.822  -0.514  1.00  0.00     0.037 C 
HETATM   31  C19 UNL     1      -3.133   2.266   1.822  1.00  0.00     0.037 C 
ENDBRANCH  17  28
TORSDOF 6
