REMARK  5 active torsions:
REMARK  status: ('A' for Active; 'I' for Inactive)
REMARK    1  A    between atoms: C1_2  and  O2_3 
REMARK    2  A    between atoms: C1_2  and  C13_21 
REMARK    3  A    between atoms: O2_3  and  C2_4 
REMARK    4  A    between atoms: C2_4  and  N1_5 
REMARK    5  A    between atoms: N1_5  and  C3_8 
REMARK       I    between atoms: C13_21  and  N3_23 
ROOT
HETATM    1  N1  UNL     1       0.511  -0.416   0.937  1.00  0.00    -0.048 N 
ATOM      2  H11 UNL     1       0.004  -0.993   0.266  1.00  0.00     0.280 HD
ATOM      3  H12 UNL     1       0.740  -1.150   1.608  1.00  0.00     0.280 HD
ENDROOT
BRANCH   1   4
HETATM    4  C2  UNL     1      -0.336   0.648   1.525  1.00  0.00     0.411 C 
BRANCH   4   5
HETATM    5  O2  UNL     1      -1.541   0.632   0.922  1.00  0.00    -0.286 OA
BRANCH   5   6
HETATM    6  C1  UNL     1      -2.635  -0.095   0.752  1.00  0.00     0.353 C 
HETATM    7  O1  UNL     1      -2.693  -1.200   1.359  1.00  0.00    -0.254 OA
BRANCH   6   8
HETATM    8  C13 UNL     1      -3.704   0.400  -0.104  1.00  0.00     0.319 C 
HETATM    9  O3  UNL     1      -3.445   1.437  -0.828  1.00  0.00    -0.262 OA
HETATM   10  N3  UNL     1      -4.993  -0.113  -0.252  1.00  0.00    -0.344 N 
HETATM   11  C14 UNL     1      -5.638  -1.172   0.468  1.00  0.00     0.126 C 
HETATM   12  C17 UNL     1      -5.927   0.445  -1.256  1.00  0.00     0.126 C 
HETATM   13  C15 UNL     1      -7.126  -1.073   0.145  1.00  0.00     0.021 C 
HETATM   14  C16 UNL     1      -7.164  -0.365  -1.193  1.00  0.00     0.021 C 
ENDBRANCH   6   8
ENDBRANCH   5   6
ENDBRANCH   4   5
ENDBRANCH   1   4
BRANCH   1  15
HETATM   15  C3  UNL     1       1.656   0.182   0.379  1.00  0.00     0.211 C 
HETATM   16  C4  UNL     1       2.598   0.878   1.260  1.00  0.00     0.020 C 
HETATM   17  C5  UNL     1       3.677   0.012   1.829  1.00  0.00     0.013 C 
HETATM   18  C9  UNL     1       3.326   1.907   0.367  1.00  0.00     0.031 C 
HETATM   19  C6  UNL     1       4.369  -0.859   0.818  1.00  0.00     0.005 C 
HETATM   20  C7  UNL     1       5.516  -0.249   0.102  1.00  0.00     0.118 C 
HETATM   21  C12 UNL     1       3.368  -1.567  -0.073  1.00  0.00     0.029 C 
HETATM   22  N2  UNL     1       5.300   0.902  -0.684  1.00  0.00    -0.417 N 
HETATM   23  C8  UNL     1       3.925   1.294  -0.864  1.00  0.00     0.078 C 
ATOM     24  H2  UNL     1       6.070   1.425  -1.100  1.00  0.00     0.153 HD
HETATM   25  C10 UNL     1       3.109   0.290  -1.594  1.00  0.00     0.048 C 
HETATM   26  C11 UNL     1       2.355  -0.651  -0.645  1.00  0.00     0.049 C 
HETATM   27 BR1  UNL     1       1.044  -1.640  -1.628  1.00  0.00    -0.083 Br
ENDBRANCH   1  15
TORSDOF 5
