REMARK  5 active torsions:
REMARK  status: ('A' for Active; 'I' for Inactive)
REMARK    1  A    between atoms: O1_2  and  C2_3 
REMARK    2  A    between atoms: C5_6  and  C6_7 
REMARK    3  A    between atoms: C5_6  and  N2_15 
REMARK    4  A    between atoms: C6_7  and  N1_8 
REMARK       I    between atoms: N1_8  and  C7_10 
REMARK    5  A    between atoms: C7_10  and  C8_12 
ROOT
HETATM    1  C2  UNL     1      -1.646   2.062  -0.690  1.00  0.00     0.124 C 
HETATM    2  C3  UNL     1      -1.166   1.228  -1.840  1.00  0.00     0.035 C 
HETATM    3  C4  UNL     1      -0.349   0.052  -1.513  1.00  0.00     0.035 C 
HETATM    4  C5  UNL     1      -0.434  -0.503  -0.138  1.00  0.00     0.044 C 
HETATM    5  C15 UNL     1      -0.766   0.522   0.924  1.00  0.00     0.039 C 
HETATM    6  C16 UNL     1      -2.044   1.212   0.513  1.00  0.00     0.013 C 
HETATM    7  C17 UNL     1      -2.533   2.145   1.582  1.00  0.00     0.012 C 
ENDROOT
BRANCH   4   8
HETATM    8  C6  UNL     1       0.934  -1.042   0.247  1.00  0.00     0.153 C 
BRANCH   8   9
HETATM    9  N1  UNL     1       1.948  -0.021   0.221  1.00  0.00    -0.358 N 
HETATM   10  C7  UNL     1       3.276  -0.327   0.548  1.00  0.00     0.221 C 
HETATM   11  O2  UNL     1       3.568  -1.525   0.868  1.00  0.00    -0.273 OA
ATOM     12  H1  UNL     1       1.698   0.933  -0.038  1.00  0.00     0.162 HD
BRANCH  10  13
HETATM   13  C8  UNL     1       4.374   0.670   0.545  1.00  0.00     0.070 C 
HETATM   14  C9  UNL     1       4.454   1.224  -0.882  1.00  0.00     0.019 C 
HETATM   15  C10 UNL     1       5.684  -0.038   0.788  1.00  0.00     0.019 C 
ENDBRANCH  10  13
ENDBRANCH   8   9
ENDBRANCH   4   8
BRANCH   4  16
HETATM   16  N2  UNL     1      -1.361  -1.558  -0.027  1.00  0.00    -0.399 N 
HETATM   17  C11 UNL     1      -1.570  -2.182   1.206  1.00  0.00     0.137 C 
HETATM   18  C12 UNL     1      -1.556  -3.703   0.965  1.00  0.00     0.133 C 
HETATM   19  N3  UNL     1      -2.716  -3.999   0.197  1.00  0.00    -0.418 N 
HETATM   20  C13 UNL     1      -3.123  -3.001  -0.716  1.00  0.00     0.133 C 
ATOM     21  H3  UNL     1      -3.223  -4.878   0.299  1.00  0.00     0.153 HD
HETATM   22  C14 UNL     1      -1.984  -2.075  -1.154  1.00  0.00     0.137 C 
ENDBRANCH   4  16
BRANCH   1  23
HETATM   23  O1  UNL     1      -0.702   3.024  -0.341  1.00  0.00    -0.390 OA
HETATM   24  C1  UNL     1      -1.228   4.327  -0.470  1.00  0.00     0.202 C 
ENDBRANCH   1  23
TORSDOF 5
