REMARK  5 active torsions:
REMARK  status: ('A' for Active; 'I' for Inactive)
REMARK    1  A    between atoms: N4_16  and  C10_18 
REMARK    2  A    between atoms: C10_18  and  C11_19 
REMARK    3  A    between atoms: C11_19  and  C12_20 
REMARK    4  A    between atoms: C12_20  and  C13_21 
REMARK    5  A    between atoms: C13_21  and  N5_22 
ROOT
HETATM    1  C1  UNL     1      -6.534  -0.776  -2.463  1.00  0.00     0.070 C 
HETATM    2  C2  UNL     1      -5.123  -1.021  -2.079  1.00  0.00     0.030 A 
HETATM    3  N1  UNL     1      -4.525  -2.219  -2.299  1.00  0.00    -0.304 N 
ATOM      4  H1  UNL     1      -4.974  -3.026  -2.732  1.00  0.00     0.186 HD
HETATM    5  N2  UNL     1      -3.276  -2.186  -1.870  1.00  0.00    -0.296 N 
ATOM      6  H2  UNL     1      -2.602  -2.951  -1.913  1.00  0.00     0.187 HD
HETATM    7  C3  UNL     1      -3.058  -0.967  -1.370  1.00  0.00     0.099 A 
HETATM    8  C4  UNL     1      -4.198  -0.197  -1.481  1.00  0.00    -0.000 A 
HETATM    9  C5  UNL     1      -4.330   1.192  -1.035  1.00  0.00     0.073 C 
HETATM   10  C6  UNL     1      -3.181   1.744  -0.292  1.00  0.00     0.028 C 
HETATM   11  C7  UNL     1      -3.583   1.838   1.186  1.00  0.00     0.038 C 
HETATM   12  C8  UNL     1      -2.837   3.163  -0.717  1.00  0.00     0.038 C 
HETATM   13  N3  UNL     1      -1.968   0.969  -0.333  1.00  0.00    -0.366 N 
ATOM     14  H3  UNL     1      -1.108   1.421  -0.023  1.00  0.00     0.162 HD
HETATM   15  C9  UNL     1      -1.883  -0.360  -0.768  1.00  0.00     0.127 C 
HETATM   16  N4  UNL     1      -0.822  -1.030  -0.645  1.00  0.00    -0.375 N 
ATOM     17  H4  UNL     1      -0.838  -1.992  -0.982  1.00  0.00     0.161 HD
ENDROOT
BRANCH  16  18
HETATM   18  C10 UNL     1       0.427  -0.549  -0.062  1.00  0.00     0.121 C 
BRANCH  18  19
HETATM   19  C11 UNL     1       1.337  -1.750  -0.016  1.00  0.00     0.021 C 
BRANCH  19  20
HETATM   20  C12 UNL     1       2.664  -1.401   0.579  1.00  0.00     0.032 C 
BRANCH  20  21
HETATM   21  C13 UNL     1       3.332  -0.351  -0.231  1.00  0.00     0.272 C 
BRANCH  21  22
HETATM   22  N5  UNL     1       4.639   0.022   0.279  1.00  0.00     0.092 N 
HETATM   23  C14 UNL     1       5.625  -1.000   0.163  1.00  0.00     0.298 C 
HETATM   24  C15 UNL     1       6.830  -0.626   0.977  1.00  0.00     0.198 C 
HETATM   25  O1  UNL     1       6.584  -0.380   2.296  1.00  0.00    -0.388 OA
HETATM   26  C16 UNL     1       5.292  -0.096   2.634  1.00  0.00     0.198 C 
HETATM   27  C17 UNL     1       4.536   0.646   1.557  1.00  0.00     0.298 C 
ENDBRANCH  21  22
ENDBRANCH  20  21
ENDBRANCH  19  20
ENDBRANCH  18  19
ENDBRANCH  16  18
TORSDOF 5
