REMARK  7 active torsions:
REMARK  status: ('A' for Active; 'I' for Inactive)
REMARK    1  A    between atoms: C2_2  and  C3_3 
REMARK    2  A    between atoms: N1_12  and  C11_13 
REMARK    3  A    between atoms: C11_13  and  C12_14 
REMARK    4  A    between atoms: C12_14  and  O2_15 
REMARK    5  A    between atoms: C12_14  and  C13_17 
REMARK    6  A    between atoms: C13_17  and  N2_18 
REMARK    7  A    between atoms: N2_18  and  C14_21 
ROOT
HETATM    1  C3  UNL     1      -4.781   0.090  -0.333  1.00  0.00     0.015 C 
HETATM    2  C4  UNL     1      -5.476  -0.529   0.896  1.00  0.00     0.013 C 
HETATM    3  C5  UNL     1      -4.286  -0.691   1.825  1.00  0.00    -0.010 C 
HETATM    4  C6  UNL     1      -3.602   0.651   1.581  1.00  0.00     0.013 C 
HETATM    5  C7  UNL     1      -3.390   0.429   0.072  1.00  0.00     0.038 C 
HETATM    6  C8  UNL     1      -2.583  -0.846   0.133  1.00  0.00     0.148 C 
HETATM    7  C9  UNL     1      -3.323  -1.642   1.177  1.00  0.00     0.053 C 
HETATM    8  O1  UNL     1      -2.433  -1.483  -1.062  1.00  0.00    -0.351 OA
HETATM    9  C10 UNL     1      -1.436  -0.752  -1.711  1.00  0.00     0.297 C 
HETATM   10  N1  UNL     1      -0.471  -0.425  -0.685  1.00  0.00    -0.326 N 
HETATM   11  C18 UNL     1      -1.176  -0.582   0.540  1.00  0.00     0.257 C 
HETATM   12  O3  UNL     1      -0.677  -0.506   1.676  1.00  0.00    -0.270 OA
ENDROOT
BRANCH  10  13
HETATM   13  C11 UNL     1       0.900  -0.026  -0.894  1.00  0.00     0.161 C 
BRANCH  13  14
HETATM   14  C12 UNL     1       1.848  -1.202  -0.914  1.00  0.00     0.161 C 
BRANCH  14  15
HETATM   15  O2  UNL     1       1.717  -1.828   0.323  1.00  0.00    -0.392 OA
ATOM     16  H2  UNL     1       2.313  -2.568   0.310  1.00  0.00     0.210 HD
ENDBRANCH  14  15
BRANCH  14  17
HETATM   17  C13 UNL     1       3.278  -0.771  -1.129  1.00  0.00     0.266 C 
BRANCH  17  18
HETATM   18  N2  UNL     1       3.745   0.156  -0.153  1.00  0.00    -0.065 N 
ATOM     19  H22 UNL     1       3.140   0.974  -0.083  1.00  0.00     0.278 HD
ATOM     20  H21 UNL     1       3.629  -0.198   0.796  1.00  0.00     0.278 HD
BRANCH  18  21
HETATM   21  C14 UNL     1       5.124   0.522  -0.432  1.00  0.00     0.115 C 
HETATM   22  C15 UNL     1       5.940  -0.746  -0.313  1.00  0.00     0.045 C 
HETATM   23  C16 UNL     1       5.539   1.459   0.709  1.00  0.00     0.045 C 
HETATM   24  C17 UNL     1       5.329   1.211  -1.737  1.00  0.00     0.045 C 
ENDBRANCH  18  21
ENDBRANCH  17  18
ENDBRANCH  14  17
ENDBRANCH  13  14
ENDBRANCH  10  13
BRANCH   1  25
HETATM   25  C2  UNL     1      -5.582   1.233  -0.845  1.00  0.00    -0.032 C 
HETATM   26  C1  UNL     1      -5.168   2.468  -0.964  1.00  0.00     0.007 C 
ENDBRANCH   1  25
TORSDOF 7
