REMARK  6 active torsions:
REMARK  status: ('A' for Active; 'I' for Inactive)
REMARK    1  A    between atoms: N1_7  and  C6_8 
REMARK    2  A    between atoms: C6_8  and  C7_9 
REMARK    3  A    between atoms: C7_9  and  C8_10 
REMARK    4  A    between atoms: C8_10  and  N2_11 
REMARK    5  A    between atoms: N2_11  and  C9_13 
REMARK    6  A    between atoms: C10_16  and  N4_17 
ROOT
HETATM    1  C9  UNL     1       1.667  -0.151   0.384  1.00  0.00     0.707 A 
HETATM    2  N3  UNL     1       2.690  -0.016  -0.478  1.00  0.00    -0.020 N 
ATOM      3  H3  UNL     1       2.614   0.334  -1.433  1.00  0.00     0.203 HD
HETATM    4  C10 UNL     1       3.843  -0.419   0.124  1.00  0.00     0.709 A 
HETATM    5  N5  UNL     1       3.494  -0.800   1.366  1.00  0.00    -0.117 N 
ATOM      6  H5  UNL     1       4.134  -1.157   2.075  1.00  0.00     0.206 HD
HETATM    7  N6  UNL     1       2.190  -0.639   1.523  1.00  0.00    -0.117 N 
ATOM      8  H6  UNL     1       1.666  -0.851   2.372  1.00  0.00     0.206 HD
ENDROOT
BRANCH   1   9
HETATM    9  N2  UNL     1       0.447   0.153   0.096  1.00  0.00    -0.224 N 
ATOM     10  H2  UNL     1       0.246   0.515  -0.836  1.00  0.00     0.177 HD
BRANCH   9  11
HETATM   11  C8  UNL     1      -0.645   0.007   1.023  1.00  0.00     0.139 C 
BRANCH  11  12
HETATM   12  C7  UNL     1      -1.935   0.017   0.205  1.00  0.00     0.040 C 
BRANCH  12  13
HETATM   13  C6  UNL     1      -3.132  -0.135   1.132  1.00  0.00     0.127 C 
BRANCH  13  14
HETATM   14  N1  UNL     1      -4.335  -0.124   0.341  1.00  0.00    -0.352 N 
HETATM   15  C5  UNL     1      -4.918  -1.304  -0.197  1.00  0.00     0.219 C 
HETATM   16  C4  UNL     1      -6.379  -1.439  -0.453  1.00  0.00     0.103 C 
HETATM   17  O1  UNL     1      -4.114  -2.260  -0.454  1.00  0.00    -0.273 OA
HETATM   18  C3  UNL     1      -7.028  -0.179   0.091  1.00  0.00     0.015 C 
HETATM   19  C2  UNL     1      -6.341   1.028  -0.503  1.00  0.00    -0.000 C 
HETATM   20  C1  UNL     1      -6.308   0.971  -2.014  1.00  0.00     0.011 C 
HETATM   21  C16 UNL     1      -4.959   1.167   0.097  1.00  0.00     0.130 C 
ENDBRANCH  13  14
ENDBRANCH  12  13
ENDBRANCH  11  12
ENDBRANCH   9  11
ENDBRANCH   1   9
BRANCH   4  22
HETATM   22  N4  UNL     1       5.150  -0.434  -0.447  1.00  0.00    -0.216 N 
HETATM   23  C11 UNL     1       5.307   0.024  -1.822  1.00  0.00     0.141 C 
HETATM   24  C12 UNL     1       6.542   0.894  -1.966  1.00  0.00     0.020 C 
HETATM   25  C13 UNL     1       7.223   1.115  -0.629  1.00  0.00     0.003 C 
HETATM   26  C14 UNL     1       7.551  -0.234  -0.032  1.00  0.00     0.020 C 
HETATM   27  C15 UNL     1       6.251  -0.895   0.343  1.00  0.00     0.141 C 
ENDBRANCH   4  22
TORSDOF 6
