REMARK  8 active torsions:
REMARK  status: ('A' for Active; 'I' for Inactive)
REMARK    1  A    between atoms: O1_2  and  C2_3 
REMARK    2  A    between atoms: C7_8  and  O2_9 
REMARK    3  A    between atoms: O2_9  and  C8_10 
REMARK    4  A    between atoms: C9_12  and  C10_13 
REMARK    5  A    between atoms: C10_13  and  O4_14 
REMARK    6  A    between atoms: C11_16  and  O5_17 
REMARK    7  A    between atoms: C12_19  and  O6_20 
REMARK    8  A    between atoms: C13_22  and  N1_23 
ROOT
HETATM    1  C2  UNL     1      -3.112   0.215   0.653  1.00  0.00     0.083 A 
HETATM    2  C3  UNL     1      -2.313  -0.849   1.007  1.00  0.00    -0.019 A 
HETATM    3  C4  UNL     1      -2.966  -1.993   1.675  1.00  0.00     0.052 C 
HETATM    4  C5  UNL     1      -0.957  -0.805   0.734  1.00  0.00    -0.017 A 
HETATM    5  C6  UNL     1      -0.153  -1.992   1.156  1.00  0.00     0.052 C 
HETATM    6  C7  UNL     1      -0.365   0.282   0.111  1.00  0.00     0.112 A 
HETATM    7  C13 UNL     1      -1.167   1.336  -0.237  1.00  0.00     0.145 A 
HETATM    8  C14 UNL     1      -2.537   1.301   0.034  1.00  0.00     0.008 A 
HETATM    9  C15 UNL     1      -3.370   2.462  -0.358  1.00  0.00     0.054 C 
ENDROOT
BRANCH   6  10
HETATM   10  O2  UNL     1       0.962   0.317  -0.153  1.00  0.00    -0.315 OA
BRANCH  10  11
HETATM   11  C8  UNL     1       1.705  -0.087  -1.227  1.00  0.00     0.298 C 
HETATM   12  O3  UNL     1       2.344  -1.303  -0.805  1.00  0.00    -0.348 OA
HETATM   13  C9  UNL     1       3.388  -0.883   0.015  1.00  0.00     0.179 C 
HETATM   14  C11 UNL     1       3.893   0.415  -0.587  1.00  0.00     0.182 C 
HETATM   15  C12 UNL     1       2.851   0.736  -1.674  1.00  0.00     0.205 C 
BRANCH  13  16
HETATM   16  C10 UNL     1       4.484  -1.907   0.086  1.00  0.00     0.198 C 
BRANCH  16  17
HETATM   17  O4  UNL     1       5.479  -1.416   0.926  1.00  0.00    -0.398 OA
ATOM     18  H4  UNL     1       6.172  -2.064   0.971  1.00  0.00     0.209 HD
ENDBRANCH  16  17
ENDBRANCH  13  16
BRANCH  14  19
HETATM   19  O5  UNL     1       3.868   1.368   0.428  1.00  0.00    -0.390 OA
ATOM     20  H5  UNL     1       4.184   2.181   0.051  1.00  0.00     0.210 HD
ENDBRANCH  14  19
BRANCH  15  21
HETATM   21  O6  UNL     1       2.688   2.078  -1.777  1.00  0.00    -0.388 OA
ATOM     22  H6  UNL     1       3.424   2.606  -2.064  1.00  0.00     0.210 HD
ENDBRANCH  15  21
ENDBRANCH  10  11
ENDBRANCH   6  10
BRANCH   7  23
HETATM   23  N1  UNL     1      -0.679   2.530  -0.884  1.00  0.00    -0.112 N 
HETATM   24  O7  UNL     1      -0.030   3.374  -0.234  1.00  0.00    -0.532 OA
HETATM   25  O8  UNL     1      -0.916   2.764  -2.190  1.00  0.00    -0.532 OA
ENDBRANCH   7  23
BRANCH   1  26
HETATM   26  O1  UNL     1      -4.489   0.236   0.897  1.00  0.00    -0.355 OA
HETATM   27  C1  UNL     1      -5.458  -0.238  -0.009  1.00  0.00     0.210 C 
ENDBRANCH   1  26
TORSDOF 8
