REMARK  7 active torsions:
REMARK  status: ('A' for Active; 'I' for Inactive)
REMARK    1  A    between atoms: C2_2  and  S1_3 
REMARK    2  A    between atoms: S1_3  and  C3_4 
REMARK    3  A    between atoms: C4_5  and  O1_6 
REMARK    4  A    between atoms: C5_8  and  C6_9 
REMARK    5  A    between atoms: C7_11  and  C8_12 
REMARK    6  A    between atoms: C8_12  and  C9_13 
REMARK    7  A    between atoms: C12_18  and  O5_19 
ROOT
HETATM    1  C3  UNL     1       2.558  -0.096   0.664  1.00  0.00     0.112 C 
HETATM    2  C4  UNL     1       1.302   0.440  -0.043  1.00  0.00     0.166 C 
HETATM    3  C5  UNL     1       0.324   0.260   1.072  1.00  0.00     0.184 C 
HETATM    4  O6  UNL     1       0.585  -1.047   1.474  1.00  0.00    -0.369 OA
HETATM    5  C13 UNL     1       1.960  -1.214   1.457  1.00  0.00     0.069 C 
HETATM    6  C14 UNL     1       2.409  -1.159   2.917  1.00  0.00     0.047 C 
HETATM    7  C15 UNL     1       2.245  -2.576   0.891  1.00  0.00     0.047 C 
ENDROOT
BRANCH   3   8
HETATM    8  C6  UNL     1      -1.106   0.452   0.697  1.00  0.00     0.187 C 
HETATM    9  O2  UNL     1      -1.501  -0.376  -0.357  1.00  0.00    -0.350 OA
HETATM   10  C7  UNL     1      -2.844  -0.073  -0.580  1.00  0.00     0.267 C 
HETATM   11  O4  UNL     1      -2.892   1.039  -1.380  1.00  0.00    -0.358 OA
HETATM   12  C11 UNL     1      -2.153   2.078  -0.907  1.00  0.00     0.205 C 
HETATM   13  C12 UNL     1      -1.497   1.856   0.420  1.00  0.00     0.173 C 
BRANCH  10  14
HETATM   14  C8  UNL     1      -3.598  -1.237  -1.162  1.00  0.00     0.138 C 
BRANCH  14  15
HETATM   15  C9  UNL     1      -5.014  -0.875  -1.385  1.00  0.00     0.127 C 
HETATM   16  C10 UNL     1      -6.061  -1.329  -0.446  1.00  0.00     0.091 C 
HETATM   17  O3  UNL     1      -5.302  -0.201  -2.348  1.00  0.00    -0.298 OA
ENDBRANCH  14  15
ENDBRANCH  10  14
BRANCH  13  18
HETATM   18  O5  UNL     1      -2.336   2.397   1.408  1.00  0.00    -0.391 OA
ATOM     19  H5  UNL     1      -2.586   3.296   1.231  1.00  0.00     0.210 HD
ENDBRANCH  13  18
ENDBRANCH   3   8
BRANCH   2  20
HETATM   20  O1  UNL     1       1.030  -0.393  -1.123  1.00  0.00    -0.392 OA
ATOM     21  H1  UNL     1       0.254  -0.062  -1.560  1.00  0.00     0.210 HD
ENDBRANCH   2  20
BRANCH   1  22
HETATM   22  S1  UNL     1       3.857  -0.554  -0.455  1.00  0.00    -0.159 SA
BRANCH  22  23
HETATM   23  C2  UNL     1       4.456   0.962  -1.278  1.00  0.00     0.070 C 
HETATM   24  C1  UNL     1       5.567   0.672  -2.247  1.00  0.00     0.016 C 
ENDBRANCH  22  23
ENDBRANCH   1  22
TORSDOF 7
