REMARK  6 active torsions:
REMARK  status: ('A' for Active; 'I' for Inactive)
REMARK    1  A    between atoms: C2_2  and  O1_3 
REMARK    2  A    between atoms: O1_3  and  C3_4 
REMARK    3  A    between atoms: C3_4  and  C4_5 
REMARK    4  A    between atoms: C4_5  and  N1_6 
REMARK       I    between atoms: N1_6  and  C5_8 
REMARK       I    between atoms: C5_8  and  N3_15 
REMARK       I    between atoms: N2_9  and  C6_11 
REMARK    5  A    between atoms: C6_11  and  O3_13 
REMARK    6  A    between atoms: N3_15  and  C8_17 
ROOT
HETATM    1  N1  UNL     1       1.823   0.746   0.448  1.00  0.00    -0.224 N 
ATOM      2  H1  UNL     1       1.775   0.662   1.463  1.00  0.00     0.177 HD
HETATM    3  C5  UNL     1       0.859   1.522  -0.280  1.00  0.00     0.679 C 
HETATM    4  N2  UNL     1       0.861   2.777  -0.068  1.00  0.00    -0.135 N 
ATOM      5  H2  UNL     1       1.545   3.131   0.601  1.00  0.00     0.189 HD
HETATM    6  C6  UNL     1       0.006   3.727  -0.670  1.00  0.00     0.378 C 
HETATM    7  O2  UNL     1      -0.463   3.630  -1.833  1.00  0.00    -0.238 OA
HETATM    8  N3  UNL     1       0.000   0.826  -1.161  1.00  0.00    -0.217 N 
ATOM      9  H3  UNL     1       0.172   0.920  -2.162  1.00  0.00     0.178 HD
ENDROOT
BRANCH   1  10
HETATM   10  C4  UNL     1       2.867   0.087  -0.311  1.00  0.00     0.164 C 
BRANCH  10  11
HETATM   11  C3  UNL     1       3.736  -0.653   0.685  1.00  0.00     0.187 C 
BRANCH  11  12
HETATM   12  O1  UNL     1       4.779  -1.325   0.049  1.00  0.00    -0.390 OA
BRANCH  12  13
HETATM   13  C2  UNL     1       5.556  -1.992   0.983  1.00  0.00     0.163 C 
HETATM   14  C1  UNL     1       4.739  -3.019   1.767  1.00  0.00     0.033 C 
ENDBRANCH  12  13
ENDBRANCH  11  12
ENDBRANCH  10  11
ENDBRANCH   1  10
BRANCH   8  15
HETATM   15  C8  UNL     1      -1.100  -0.005  -0.748  1.00  0.00     0.050 C 
HETATM   16  C9  UNL     1      -0.629  -1.149   0.124  1.00  0.00     0.036 C 
HETATM   17  C10 UNL     1      -1.808  -1.991   0.533  1.00  0.00    -0.010 C 
HETATM   18  C11 UNL     1      -2.574  -2.543  -0.634  1.00  0.00     0.009 C 
HETATM   19  C15 UNL     1      -2.727  -1.092   1.352  1.00  0.00     0.030 C 
HETATM   20  C12 UNL     1      -2.999  -1.391  -1.521  1.00  0.00    -0.010 C 
HETATM   21  C13 UNL     1      -3.973  -0.549  -0.705  1.00  0.00     0.030 C 
HETATM   22  C17 UNL     1      -1.838  -0.541  -1.941  1.00  0.00     0.036 C 
HETATM   23  C14 UNL     1      -3.227   0.011   0.479  1.00  0.00     0.040 C 
HETATM   24 CL1  UNL     1      -4.360   1.025   1.427  1.00  0.00    -0.119 Cl
HETATM   25  C16 UNL     1      -2.055   0.865   0.052  1.00  0.00     0.057 C 
ENDBRANCH   8  15
BRANCH   6  26
HETATM   26  O3  UNL     1      -0.346   4.848   0.069  1.00  0.00    -0.308 OA
HETATM   27  C7  UNL     1      -1.190   5.840  -0.451  1.00  0.00     0.215 C 
ENDBRANCH   6  26
TORSDOF 6
