REMARK  6 active torsions:
REMARK  status: ('A' for Active; 'I' for Inactive)
REMARK    1  A    between atoms: C2_2  and  C3_3 
REMARK    2  A    between atoms: C3_3  and  N1_4 
REMARK       I    between atoms: N1_4  and  C4_6 
REMARK    3  A    between atoms: C4_6  and  C5_8 
REMARK    4  A    between atoms: C8_11  and  C9_12 
REMARK    5  A    between atoms: C9_12  and  N2_13 
REMARK    6  A    between atoms: C9_12  and  C10_17 
ROOT
HETATM    1  N1  UNL     1       0.503   0.438   1.499  1.00  0.00    -0.336 N 
ATOM      2  H1  UNL     1       0.136  -0.416   1.919  1.00  0.00     0.168 HD
HETATM    3  C4  UNL     1      -0.459   1.286   0.948  1.00  0.00     0.225 C 
HETATM    4  O1  UNL     1      -0.171   2.375   0.411  1.00  0.00    -0.273 OA
ENDROOT
BRANCH   3   5
HETATM    5  C5  UNL     1      -1.920   0.871   1.002  1.00  0.00     0.078 C 
HETATM    6  C6  UNL     1      -2.711   1.951   0.342  1.00  0.00     0.014 C 
HETATM    7  C7  UNL     1      -4.017   1.425  -0.246  1.00  0.00     0.008 C 
HETATM    8  C8  UNL     1      -3.764   0.413  -1.327  1.00  0.00     0.027 C 
HETATM    9  C11 UNL     1      -2.369  -0.107  -1.179  1.00  0.00     0.008 C 
HETATM   10  C12 UNL     1      -2.081  -0.456   0.274  1.00  0.00     0.014 C 
BRANCH   8  11
HETATM   11  C9  UNL     1      -4.822  -0.637  -1.273  1.00  0.00     0.287 C 
BRANCH  11  12
HETATM   12  N2  UNL     1      -4.670  -1.664  -2.268  1.00  0.00    -0.065 N 
ATOM     13  H23 UNL     1      -4.616  -1.256  -3.201  1.00  0.00     0.275 HD
ATOM     14  H22 UNL     1      -3.743  -2.085  -2.212  1.00  0.00     0.275 HD
ATOM     15  H21 UNL     1      -5.394  -2.382  -2.231  1.00  0.00     0.275 HD
ENDBRANCH  11  12
BRANCH  11  16
HETATM   16  C10 UNL     1      -6.144   0.010  -1.446  1.00  0.00     0.204 C 
HETATM   17  O2  UNL     1      -6.590   0.937  -0.725  1.00  0.00    -0.646 OA
HETATM   18  O3  UNL     1      -6.964  -0.426  -2.473  1.00  0.00    -0.646 OA
ENDBRANCH  11  16
ENDBRANCH   8  11
ENDBRANCH   3   5
BRANCH   1  19
HETATM   19  C3  UNL     1       1.904   0.582   1.564  1.00  0.00     0.098 C 
BRANCH  19  20
HETATM   20  C2  UNL     1       2.659   0.585   0.307  1.00  0.00    -0.043 C 
HETATM   21  C1  UNL     1       2.546   1.587  -0.760  1.00  0.00     0.050 C 
HETATM   22  C13 UNL     1       3.575  -0.407   0.105  1.00  0.00    -0.049 C 
HETATM   23  C14 UNL     1       4.035  -1.601   0.865  1.00  0.00     0.111 C 
HETATM   24  C18 UNL     1       4.548  -0.780  -0.952  1.00  0.00     0.093 C 
HETATM   25  C15 UNL     1       5.324  -1.279   1.526  1.00  0.00    -0.016 C 
HETATM   26  C19 UNL     1       4.346  -2.234  -0.500  1.00  0.00     0.261 C 
HETATM   27  C16 UNL     1       6.232  -0.621   0.812  1.00  0.00    -0.029 C 
HETATM   28  C17 UNL     1       5.897  -0.259  -0.582  1.00  0.00     0.042 C 
HETATM   29  F1  UNL     1       3.263  -2.838  -1.080  1.00  0.00    -0.204 F 
HETATM   30  F2  UNL     1       5.513  -2.961  -0.518  1.00  0.00    -0.204 F 
ENDBRANCH  19  20
ENDBRANCH   1  19
TORSDOF 6
