REMARK  8 active torsions:
REMARK  status: ('A' for Active; 'I' for Inactive)
REMARK    1  A    between atoms: C2_2  and  C4_4 
REMARK    2  A    between atoms: C5_5  and  C6_6 
REMARK    3  A    between atoms: C9_9  and  C10_10 
REMARK    4  A    between atoms: C10_10  and  N1_11 
REMARK    5  A    between atoms: N1_11  and  C11_13 
REMARK    6  A    between atoms: N3_20  and  C15_22 
REMARK    7  A    between atoms: C15_22  and  C16_23 
REMARK    8  A    between atoms: C16_23  and  O1_24 
ROOT
HETATM    1  C11 UNL     1       2.700   0.541  -0.896  1.00  0.00     0.679 A 
HETATM    2  N2  UNL     1       2.985   1.660  -1.585  1.00  0.00    -0.200 N 
ATOM      3  H2  UNL     1       2.226   2.195  -2.006  1.00  0.00     0.183 HD
HETATM    4  C12 UNL     1       4.250   2.086  -1.729  1.00  0.00     0.133 A 
HETATM    5  C13 UNL     1       5.313   1.373  -1.162  1.00  0.00     0.094 A 
HETATM    6 CL1  UNL     1       6.946   1.979  -1.384  1.00  0.00    -0.079 Cl
HETATM    7  C14 UNL     1       5.013   0.235  -0.462  1.00  0.00     0.140 A 
HETATM    8  N3  UNL     1       5.887  -0.477   0.086  1.00  0.00    -0.372 N 
ATOM      9  H3  UNL     1       5.508  -1.291   0.571  1.00  0.00     0.161 HD
HETATM   10  N4  UNL     1       3.693  -0.151  -0.349  1.00  0.00    -0.175 N 
ATOM     11  H4  UNL     1       3.472  -0.999   0.174  1.00  0.00     0.186 HD
ENDROOT
BRANCH   1  12
HETATM   12  N1  UNL     1       1.481   0.116  -0.748  1.00  0.00    -0.226 N 
ATOM     13  H1  UNL     1       1.313  -0.738  -0.217  1.00  0.00     0.177 HD
BRANCH  12  14
HETATM   14  C10 UNL     1       0.353   0.827  -1.320  1.00  0.00     0.142 C 
BRANCH  14  15
HETATM   15  C9  UNL     1      -0.937   0.355  -0.662  1.00  0.00     0.004 C 
HETATM   16  C8  UNL     1      -1.094  -1.109  -0.901  1.00  0.00     0.007 C 
HETATM   17  C7  UNL     1      -2.396  -1.588  -0.322  1.00  0.00     0.017 C 
HETATM   18  C6  UNL     1      -3.569  -0.862  -0.888  1.00  0.00     0.065 C 
HETATM   19  C18 UNL     1      -3.240   0.369  -1.655  1.00  0.00     0.017 C 
HETATM   20  C17 UNL     1      -2.113   1.175  -1.057  1.00  0.00     0.007 C 
BRANCH  18  21
HETATM   21  C5  UNL     1      -4.578  -0.551   0.153  1.00  0.00    -0.101 C 
HETATM   22  C4  UNL     1      -5.383  -0.297   1.014  1.00  0.00    -0.102 C 
BRANCH  22  23
HETATM   23  C2  UNL     1      -6.344   0.009   2.079  1.00  0.00     0.057 C 
HETATM   24  C1  UNL     1      -7.395   0.936   1.563  1.00  0.00     0.023 C 
HETATM   25  C3  UNL     1      -5.543   0.612   3.222  1.00  0.00     0.023 C 
ENDBRANCH  22  23
ENDBRANCH  18  21
ENDBRANCH  14  15
ENDBRANCH  12  14
ENDBRANCH   1  12
BRANCH   8  26
HETATM   26  C15 UNL     1       7.293  -0.374   0.164  1.00  0.00     0.147 C 
BRANCH  26  27
HETATM   27  C16 UNL     1       7.815  -1.606   0.930  1.00  0.00     0.183 C 
BRANCH  27  28
HETATM   28  O1  UNL     1       7.256  -1.622   2.208  1.00  0.00    -0.399 OA
ATOM     29  H1  UNL     1       7.578  -2.381   2.680  1.00  0.00     0.209 HD
ENDBRANCH  27  28
ENDBRANCH  26  27
ENDBRANCH   8  26
TORSDOF 8
