REMARK  1 active torsions:
REMARK  status: ('A' for Active; 'I' for Inactive)
REMARK    1  A    between atoms: C6_9  and  O1_10 
ROOT
HETATM    1  C1  UNL     1      -3.044   0.613   2.406  1.00  0.00     0.014 C 
HETATM    2  C2  UNL     1      -2.651   0.208   1.333  1.00  0.00    -0.080 C 
HETATM    3  C3  UNL     1      -2.150  -0.279   0.039  1.00  0.00     0.329 C 
HETATM    4  C4  UNL     1      -1.841   0.910  -0.869  1.00  0.00     0.283 C 
HETATM    5  N1  UNL     1      -0.471   1.188  -0.579  1.00  0.00    -0.038 N 
ATOM      6  H11 UNL     1      -0.319   2.164  -0.326  1.00  0.00     0.280 HD
ATOM      7  H12 UNL     1       0.114   1.163  -1.414  1.00  0.00     0.280 HD
HETATM    8  C5  UNL     1      -0.013   0.290   0.430  1.00  0.00     0.449 C 
HETATM    9  C6  UNL     1       1.356  -0.275   0.184  1.00  0.00     0.183 C 
HETATM   10  C8  UNL     1       1.178  -1.582  -0.546  1.00  0.00     0.066 C 
HETATM   11  C9  UNL     1      -0.319  -1.554  -0.855  1.00  0.00     0.279 C 
HETATM   12  N2  UNL     1      -0.859  -0.880   0.294  1.00  0.00     0.140 N 
ENDROOT
BRANCH   9  13
HETATM   13  O1  UNL     1       2.040   0.660  -0.604  1.00  0.00    -0.387 OA
HETATM   14  C7  UNL     1       3.173   1.066   0.111  1.00  0.00     0.202 C 
ENDBRANCH   9  13
TORSDOF 1
