REMARK  1 active torsions:
REMARK  status: ('A' for Active; 'I' for Inactive)
REMARK    1  A    between atoms: C2_2  and  C4_4 
ROOT
HETATM    1  C4  UNL     1       0.645  -0.721   0.328  1.00  0.00     0.229 C 
HETATM    2  C5  UNL     1       0.128  -1.098  -1.059  1.00  0.00     0.077 C 
HETATM    3  C6  UNL     1      -1.203  -1.162  -0.299  1.00  0.00     0.263 C 
HETATM    4  C7  UNL     1      -2.386  -0.701  -1.049  1.00  0.00     0.091 C 
HETATM    5  N1  UNL     1      -3.112   0.390  -0.565  1.00  0.00    -0.398 N 
ATOM      6  H1  UNL     1      -4.109   0.479  -0.760  1.00  0.00     0.158 HD
HETATM    7  C8  UNL     1      -2.436   1.372   0.203  1.00  0.00     0.149 C 
HETATM    8  C9  UNL     1      -0.953   1.139   0.347  1.00  0.00     0.293 C 
HETATM    9  N2  UNL     1      -0.643  -0.230   0.637  1.00  0.00     0.104 N 
ENDROOT
BRANCH   1  10
HETATM   10  C2  UNL     1       1.785   0.225   0.208  1.00  0.00     0.011 C 
HETATM   11  C1  UNL     1       2.871  -0.506  -0.597  1.00  0.00     0.011 C 
HETATM   12  C3  UNL     1       2.343   0.715   1.495  1.00  0.00     0.011 C 
ENDBRANCH   1  10
TORSDOF 1
