REMARK  5 active torsions:
REMARK  status: ('A' for Active; 'I' for Inactive)
REMARK    1  A    between atoms: C4_4  and  C5_5 
REMARK    2  A    between atoms: C5_5  and  C6_6 
REMARK    3  A    between atoms: C6_6  and  C7_8 
REMARK    4  A    between atoms: C7_8  and  O2_9 
REMARK    5  A    between atoms: C27_33  and  O6_34 
ROOT
HETATM    1  C7  UNL     1       2.167  -1.355   0.397  1.00  0.00     0.135 C 
HETATM    2  C8  UNL     1       2.548  -1.443   1.926  1.00  0.00     0.048 C 
HETATM    3  C9  UNL     1       2.633  -2.813   2.440  1.00  0.00     0.017 C 
HETATM    4  C10 UNL     1       1.553  -0.531   2.629  1.00  0.00    -0.000 C 
HETATM    5  C11 UNL     1       0.345  -0.906   2.267  1.00  0.00     0.054 C 
HETATM    6  C12 UNL     1       0.182  -2.037   1.400  1.00  0.00     0.170 C 
HETATM    7  O3  UNL     1      -0.210  -3.198   1.428  1.00  0.00    -0.292 OA
HETATM    8  C13 UNL     1       0.718  -1.406   0.082  1.00  0.00     0.104 C 
HETATM    9  C14 UNL     1      -0.187  -0.305  -0.176  1.00  0.00     0.036 C 
HETATM   10  C15 UNL     1      -1.166   0.340   0.762  1.00  0.00     0.058 C 
HETATM   11  C16 UNL     1      -0.720   0.122   2.237  1.00  0.00     0.174 C 
HETATM   12  O4  UNL     1      -1.092   0.642   3.243  1.00  0.00    -0.291 OA
HETATM   13  C17 UNL     1      -2.598   0.024   0.702  1.00  0.00     0.008 C 
HETATM   14  C18 UNL     1      -3.094  -1.199   1.389  1.00  0.00     0.012 C 
HETATM   15  C19 UNL     1      -3.205   0.245  -0.649  1.00  0.00     0.036 C 
HETATM   16  C20 UNL     1      -4.680   0.216  -0.741  1.00  0.00    -0.041 C 
HETATM   17  C21 UNL     1      -5.227  -1.206  -0.932  1.00  0.00     0.015 C 
HETATM   18  C22 UNL     1      -5.472   0.945   0.261  1.00  0.00     0.015 C 
HETATM   19  C23 UNL     1      -4.911   0.911  -2.096  1.00  0.00     0.012 C 
HETATM   20  C24 UNL     1      -3.628   1.670  -2.405  1.00  0.00     0.042 C 
HETATM   21  C25 UNL     1      -2.903   1.655  -1.090  1.00  0.00     0.095 A 
HETATM   22  O5  UNL     1      -3.248   2.736  -0.288  1.00  0.00    -0.366 OA
HETATM   23  C26 UNL     1      -1.842   2.327  -0.630  1.00  0.00     0.187 A 
HETATM   24  C27 UNL     1      -1.099   1.880   0.569  1.00  0.00     0.166 C 
ENDROOT
BRANCH  24  25
HETATM   25  O6  UNL     1      -1.615   2.502   1.706  1.00  0.00    -0.392 OA
ATOM     26  H6  UNL     1      -1.574   3.444   1.588  1.00  0.00     0.210 HD
ENDBRANCH  24  25
BRANCH   1  27
HETATM   27  C6  UNL     1       2.940  -0.296  -0.249  1.00  0.00     0.166 C 
HETATM   28  O1  UNL     1       2.637   0.853  -0.034  1.00  0.00    -0.294 OA
BRANCH  27  29
HETATM   29  C5  UNL     1       4.070  -0.571  -1.148  1.00  0.00     0.109 C 
BRANCH  29  30
HETATM   30  C4  UNL     1       4.699   0.666  -1.683  1.00  0.00    -0.017 C 
HETATM   31  C2  UNL     1       5.976   0.899  -1.429  1.00  0.00    -0.091 C 
HETATM   32  C1  UNL     1       6.622   2.129  -1.955  1.00  0.00     0.042 C 
HETATM   33  C3  UNL     1       6.786  -0.062  -0.615  1.00  0.00     0.042 C 
ENDBRANCH  29  30
ENDBRANCH  27  29
ENDBRANCH   1  27
BRANCH   1  34
HETATM   34  O2  UNL     1       2.769  -2.544  -0.047  1.00  0.00    -0.381 OA
ATOM     35  H2  UNL     1       2.267  -3.232   0.373  1.00  0.00     0.211 HD
ENDBRANCH   1  34
TORSDOF 5
