REMARK  7 active torsions:
REMARK  status: ('A' for Active; 'I' for Inactive)
REMARK    1  A    between atoms: C2_2  and  C3_3 
REMARK    2  A    between atoms: C16_18  and  C17_19 
REMARK    3  A    between atoms: C17_19  and  S1_20 
REMARK    4  A    between atoms: S1_20  and  C18_23 
REMARK    5  A    between atoms: C18_23  and  C19_24 
REMARK    6  A    between atoms: C19_24  and  O5_25 
REMARK    7  A    between atoms: N1_27  and  O6_29 
ROOT
HETATM    1  C3  UNL     1      -3.922   1.498   0.580  1.00  0.00    -0.023 C 
HETATM    2  C4  UNL     1      -4.353   2.883   1.084  1.00  0.00     0.020 C 
HETATM    3  C5  UNL     1      -4.368   1.303  -0.855  1.00  0.00     0.014 C 
HETATM    4  C6  UNL     1      -3.199   0.464  -1.399  1.00  0.00     0.006 C 
HETATM    5  C7  UNL     1      -2.040   1.285  -0.910  1.00  0.00    -0.005 C 
HETATM    6  C8  UNL     1      -0.721   0.533  -0.892  1.00  0.00     0.001 C 
HETATM    7  C9  UNL     1      -0.871  -0.650  -1.787  1.00  0.00     0.088 C 
HETATM    8  C10 UNL     1       0.455  -1.325  -1.915  1.00  0.00     0.153 C 
HETATM    9  O1  UNL     1       0.986  -1.297  -3.002  1.00  0.00    -0.293 OA
HETATM   10  C11 UNL     1       1.134  -2.005  -0.822  1.00  0.00    -0.017 C 
HETATM   11  C12 UNL     1       2.145  -3.055  -1.182  1.00  0.00     0.051 C 
HETATM   12  C13 UNL     1       2.773  -3.333   0.167  1.00  0.00     0.056 C 
HETATM   13  C14 UNL     1       2.245  -4.644   0.771  1.00  0.00     0.018 C 
HETATM   14  C15 UNL     1       2.306  -2.257   1.075  1.00  0.00     0.144 C 
HETATM   15  O2  UNL     1       2.446  -2.242   2.271  1.00  0.00    -0.296 OA
HETATM   16  C16 UNL     1       1.629  -1.182   0.286  1.00  0.00     0.061 C 
HETATM   17  C20 UNL     1       0.373  -0.738   1.057  1.00  0.00     0.028 C 
HETATM   18  C21 UNL     1      -0.401   0.348   0.505  1.00  0.00    -0.008 C 
HETATM   19  C22 UNL     1      -1.783   0.320   1.191  1.00  0.00     0.011 C 
HETATM   20  C23 UNL     1      -2.426   1.518   0.530  1.00  0.00     0.002 C 
ENDROOT
BRANCH  16  21
HETATM   21  C17 UNL     1       2.498  -0.047   0.202  1.00  0.00     0.162 C 
BRANCH  21  22
HETATM   22  S1  UNL     1       4.095  -0.060  -0.447  1.00  0.00     0.153 S 
HETATM   23  O3  UNL     1       4.184  -0.306  -1.932  1.00  0.00    -0.227 OA
HETATM   24  O4  UNL     1       5.104  -0.843   0.328  1.00  0.00    -0.227 OA
BRANCH  22  25
HETATM   25  C18 UNL     1       4.728   1.634  -0.289  1.00  0.00     0.225 C 
BRANCH  25  26
HETATM   26  C19 UNL     1       3.905   2.582  -1.018  1.00  0.00     0.149 C 
HETATM   27  N1  UNL     1       3.321   3.551  -0.422  1.00  0.00    -0.250 N 
ATOM     28  H1  UNL     1       2.749   4.203  -0.958  1.00  0.00     0.196 HD
BRANCH  26  29
HETATM   29  O5  UNL     1       3.736   2.456  -2.378  1.00  0.00    -0.347 OA
ATOM     30  H5  UNL     1       3.197   3.076  -2.855  1.00  0.00     0.219 HD
ENDBRANCH  26  29
BRANCH  27  31
HETATM   31  O6  UNL     1       3.459   3.723   0.947  1.00  0.00    -0.288 OA
ATOM     32  H6  UNL     1       3.025   4.443   1.390  1.00  0.00     0.244 HD
ENDBRANCH  27  31
ENDBRANCH  25  26
ENDBRANCH  22  25
ENDBRANCH  21  22
ENDBRANCH  16  21
BRANCH   1  33
HETATM   33  C2  UNL     1      -4.470   0.441   1.435  1.00  0.00    -0.027 C 
HETATM   34  C1  UNL     1      -5.757   0.153   1.393  1.00  0.00     0.007 C 
ENDBRANCH   1  33
TORSDOF 7
