REMARK  6 active torsions:
REMARK  status: ('A' for Active; 'I' for Inactive)
REMARK    1  A    between atoms: C17_17  and  S1_18 
REMARK    2  A    between atoms: S1_18  and  N1_21 
REMARK    3  A    between atoms: N1_21  and  O3_22 
REMARK    4  A    between atoms: N1_21  and  C18_24 
REMARK    5  A    between atoms: C18_24  and  C19_25 
REMARK    6  A    between atoms: C22_29  and  O5_30 
ROOT
HETATM    1  C1  UNL     1      -2.008  -2.303   2.276  1.00  0.00     0.046 C 
HETATM    2  C2  UNL     1      -1.763  -1.355   1.087  1.00  0.00     0.062 C 
HETATM    3  C3  UNL     1      -2.611  -1.966  -0.047  1.00  0.00     0.042 C 
HETATM    4  C4  UNL     1      -2.432  -1.138  -1.294  1.00  0.00     0.038 C 
HETATM    5  C5  UNL     1      -2.204   0.319  -1.048  1.00  0.00    -0.068 C 
HETATM    6  C6  UNL     1      -0.839   0.802  -1.386  1.00  0.00    -0.067 C 
HETATM    7  C7  UNL     1      -0.836   2.325  -1.490  1.00  0.00     0.035 C 
HETATM    8  C8  UNL     1      -2.189   2.923  -1.769  1.00  0.00     0.009 C 
HETATM    9  C9  UNL     1      -3.155   2.865  -0.644  1.00  0.00    -0.013 C 
HETATM   10  C10 UNL     1      -4.406   2.068  -0.892  1.00  0.00     0.005 C 
HETATM   11  C11 UNL     1      -4.333   0.824   0.010  1.00  0.00     0.014 C 
HETATM   12  C12 UNL     1      -2.804   0.752   0.237  1.00  0.00    -0.014 C 
HETATM   13  C13 UNL     1      -2.614   2.197   0.587  1.00  0.00     0.019 C 
HETATM   14  C14 UNL     1      -2.449  -0.076   1.429  1.00  0.00     0.052 C 
HETATM   15  C15 UNL     1       0.349   0.295  -0.737  1.00  0.00     0.078 C 
HETATM   16  C16 UNL     1       1.145  -0.703  -1.606  1.00  0.00     0.036 C 
HETATM   17  C17 UNL     1       2.413  -0.701  -0.709  1.00  0.00     0.138 C 
HETATM   18  C21 UNL     1       1.750  -1.032   0.588  1.00  0.00     0.091 C 
HETATM   19  C22 UNL     1       0.342  -0.397   0.561  1.00  0.00     0.171 C 
HETATM   20  O6  UNL     1      -0.517  -1.400   0.735  1.00  0.00    -0.344 OA
ENDROOT
BRANCH  17  21
HETATM   21  S1  UNL     1       3.578  -1.859  -1.277  1.00  0.00     0.258 S 
HETATM   22  O1  UNL     1       2.965  -3.250  -1.123  1.00  0.00    -0.203 OA
HETATM   23  O2  UNL     1       3.750  -1.712  -2.789  1.00  0.00    -0.203 OA
BRANCH  21  24
HETATM   24  N1  UNL     1       5.035  -1.825  -0.466  1.00  0.00    -0.161 N 
BRANCH  24  25
HETATM   25  O3  UNL     1       5.285  -2.779   0.400  1.00  0.00    -0.274 OA
ATOM     26  H3  UNL     1       6.115  -2.760   0.862  1.00  0.00     0.246 HD
ENDBRANCH  24  25
BRANCH  24  27
HETATM   27  C18 UNL     1       5.839  -0.690  -0.475  1.00  0.00     0.142 C 
BRANCH  27  28
HETATM   28  C19 UNL     1       5.859   0.231   0.679  1.00  0.00     0.187 A 
HETATM   29  C20 UNL     1       5.380  -0.068   2.018  1.00  0.00     0.206 A 
HETATM   30  O4  UNL     1       4.772   0.903   1.168  1.00  0.00    -0.376 OA
ENDBRANCH  27  28
ENDBRANCH  24  27
ENDBRANCH  21  24
ENDBRANCH  17  21
BRANCH  19  31
HETATM   31  O5  UNL     1       0.408   0.500   1.660  1.00  0.00    -0.365 OA
ATOM     32  H5  UNL     1       0.403   0.053   2.498  1.00  0.00     0.213 HD
ENDBRANCH  19  31
TORSDOF 6
