REMARK  7 active torsions:
REMARK  status: ('A' for Active; 'I' for Inactive)
REMARK    1  A    between atoms: C2_2  and  C3_3 
REMARK    2  A    between atoms: C3_3  and  N1_4 
REMARK    3  A    between atoms: N1_4  and  C4_6 
REMARK    4  A    between atoms: C6_8  and  C7_9 
REMARK    5  A    between atoms: N3_11  and  C8_13 
REMARK    6  A    between atoms: C8_13  and  C9_14 
REMARK    7  A    between atoms: C9_14  and  C10_15 
ROOT
HETATM    1  C4  UNL     1       3.103   0.613  -0.670  1.00  0.00     0.107 A 
HETATM    2  C5  UNL     1       1.715   0.648  -0.542  1.00  0.00     0.081 A 
HETATM    3  C6  UNL     1       0.949  -0.235  -1.263  1.00  0.00     0.081 A 
HETATM    4  N5  UNL     1       1.600  -1.096  -2.064  1.00  0.00    -0.305 N 
ATOM      5  H5  UNL     1       1.041  -1.756  -2.605  1.00  0.00     0.171 HD
HETATM    6  C14 UNL     1       2.923  -1.149  -2.202  1.00  0.00     0.326 A 
HETATM    7  O1  UNL     1       3.460  -1.994  -2.981  1.00  0.00    -0.247 OA
HETATM    8  N6  UNL     1       3.681  -0.275  -1.489  1.00  0.00    -0.295 N 
ATOM      9  H6  UNL     1       4.697  -0.295  -1.578  1.00  0.00     0.172 HD
ENDROOT
BRANCH   3  10
HETATM   10  C7  UNL     1      -0.512  -0.256  -1.180  1.00  0.00     0.139 C 
HETATM   11  N2  UNL     1      -1.247  -1.195  -1.952  1.00  0.00    -0.081 NA
HETATM   12  N3  UNL     1      -1.157   0.550  -0.428  1.00  0.00    -0.376 N 
ATOM     13  H3  UNL     1      -0.620   1.220   0.122  1.00  0.00     0.160 HD
BRANCH  12  14
HETATM   14  C8  UNL     1      -2.590   0.576  -0.305  1.00  0.00     0.127 C 
BRANCH  14  15
HETATM   15  C9  UNL     1      -3.052  -0.302   0.864  1.00  0.00     0.076 C 
BRANCH  15  16
HETATM   16  C10 UNL     1      -4.513  -0.247   0.953  1.00  0.00     0.010 A 
HETATM   17  C11 UNL     1      -5.431  -1.069   0.333  1.00  0.00     0.026 A 
HETATM   18  C12 UNL     1      -6.710  -0.671   0.686  1.00  0.00     0.019 A 
HETATM   19  C13 UNL     1      -6.538   0.411   1.532  1.00  0.00     0.088 A 
HETATM   20  N4  UNL     1      -5.238   0.632   1.667  1.00  0.00    -0.369 N 
ATOM     21  H4  UNL     1      -4.838   1.375   2.240  1.00  0.00     0.165 HD
ENDBRANCH  15  16
ENDBRANCH  14  15
ENDBRANCH  12  14
ENDBRANCH   3  10
BRANCH   1  22
HETATM   22  N1  UNL     1       3.820   1.436   0.002  1.00  0.00    -0.373 N 
ATOM     23  H1  UNL     1       3.322   2.088   0.608  1.00  0.00     0.161 HD
BRANCH  22  24
HETATM   24  C3  UNL     1       5.257   1.534  -0.012  1.00  0.00     0.147 C 
BRANCH  24  25
HETATM   25  C2  UNL     1       5.903   0.744   1.045  1.00  0.00    -0.018 C 
HETATM   26  C1  UNL     1       6.757  -0.214   0.728  1.00  0.00     0.008 C 
ENDBRANCH  24  25
ENDBRANCH  22  24
ENDBRANCH   1  22
TORSDOF 7
