REMARK  8 active torsions:
REMARK  status: ('A' for Active; 'I' for Inactive)
REMARK    1  A    between atoms: C2_2  and  C3_3 
REMARK    2  A    between atoms: C6_8  and  N2_9 
REMARK    3  A    between atoms: N3_13  and  C8_14 
REMARK    4  A    between atoms: C8_14  and  C9_15 
REMARK    5  A    between atoms: C9_15  and  C10_16 
REMARK    6  A    between atoms: C10_16  and  C11_17 
REMARK    7  A    between atoms: C11_17  and  N4_18 
REMARK    8  A    between atoms: N4_18  and  C12_20 
ROOT
HETATM    1  C8  UNL     1      -1.090   0.420  -1.256  1.00  0.00     0.128 C 
ENDROOT
BRANCH   1   2
HETATM    2  N3  UNL     1      -2.256   0.845  -0.528  1.00  0.00    -0.355 N 
HETATM    3  C3  UNL     1      -3.155  -0.049  -0.115  1.00  0.00     0.033 A 
HETATM    4  C4  UNL     1      -4.266   0.437   0.587  1.00  0.00     0.029 A 
HETATM    5  C5  UNL     1      -5.291  -0.493   1.067  1.00  0.00     0.070 C 
HETATM    6  N1  UNL     1      -4.411   1.747   0.830  1.00  0.00    -0.344 N 
HETATM    7  C6  UNL     1      -3.501   2.639   0.411  1.00  0.00     0.114 A 
ATOM      8  H1  UNL     1      -5.230   2.072   1.344  1.00  0.00     0.167 HD
HETATM    9  C7  UNL     1      -2.408   2.186  -0.277  1.00  0.00     0.139 A 
BRANCH   3  10
HETATM   10  C2  UNL     1      -3.103  -1.498  -0.333  1.00  0.00     0.055 C 
HETATM   11  C1  UNL     1      -2.730  -2.303   0.893  1.00  0.00     0.011 C 
ENDBRANCH   3  10
BRANCH   7  12
HETATM   12  N2  UNL     1      -3.638   3.918   0.646  1.00  0.00    -0.384 N 
ATOM     13  H22 UNL     1      -4.453   4.256   1.159  1.00  0.00     0.157 HD
ATOM     14  H21 UNL     1      -2.946   4.596   0.327  1.00  0.00     0.157 HD
ENDBRANCH   7  12
ENDBRANCH   1   2
BRANCH   1  15
HETATM   15  C9  UNL     1       0.040   0.153  -0.285  1.00  0.00     0.022 C 
BRANCH  15  16
HETATM   16  C10 UNL     1       1.295  -0.301  -1.029  1.00  0.00     0.022 C 
BRANCH  16  17
HETATM   17  C11 UNL     1       2.410  -0.555  -0.017  1.00  0.00     0.138 C 
BRANCH  17  18
HETATM   18  N4  UNL     1       3.615  -0.981  -0.630  1.00  0.00    -0.226 N 
ATOM     19  H4  UNL     1       3.494  -1.624  -1.413  1.00  0.00     0.177 HD
BRANCH  18  20
HETATM   20  C12 UNL     1       4.815  -0.691  -0.361  1.00  0.00     0.677 A 
HETATM   21  N5  UNL     1       5.811  -1.223  -1.089  1.00  0.00    -0.202 N 
HETATM   22  C13 UNL     1       7.106  -0.961  -0.861  1.00  0.00     0.107 A 
ATOM     23  H5  UNL     1       5.571  -1.856  -1.851  1.00  0.00     0.183 HD
HETATM   24  C14 UNL     1       7.448  -0.102   0.172  1.00  0.00     0.035 A 
HETATM   25  C15 UNL     1       6.438   0.444   0.918  1.00  0.00     0.107 A 
HETATM   26  N6  UNL     1       5.140   0.135   0.632  1.00  0.00    -0.202 N 
ATOM     27  H6  UNL     1       4.397   0.549   1.195  1.00  0.00     0.183 HD
ENDBRANCH  18  20
ENDBRANCH  17  18
ENDBRANCH  16  17
ENDBRANCH  15  16
ENDBRANCH   1  15
TORSDOF 8
