REMARK  9 active torsions:
REMARK  status: ('A' for Active; 'I' for Inactive)
REMARK    1  A    between atoms: C2_2  and  C3_3 
REMARK    2  A    between atoms: C3_3  and  C4_4 
REMARK    3  A    between atoms: C5_7  and  C6_8 
REMARK    4  A    between atoms: C6_8  and  C7_9 
REMARK    5  A    between atoms: N2_17  and  C14_18 
REMARK    6  A    between atoms: C14_18  and  C15_19 
REMARK    7  A    between atoms: C15_19  and  C16_20 
REMARK    8  A    between atoms: C16_20  and  C17_21 
REMARK    9  A    between atoms: C17_21  and  N3_22 
ROOT
HETATM    1  C4  UNL     1       0.745   1.312  -0.938  1.00  0.00     0.114 A 
HETATM    2  N1  UNL     1      -0.516   1.350  -1.351  1.00  0.00    -0.338 N 
ATOM      3  H1  UNL     1      -0.812   1.654  -2.279  1.00  0.00     0.167 HD
HETATM    4  C5  UNL     1      -1.369   0.925  -0.361  1.00  0.00     0.103 A 
HETATM    5  C13 UNL     1      -0.551   0.624   0.678  1.00  0.00     0.279 A 
HETATM    6  O1  UNL     1      -0.897   0.197   1.797  1.00  0.00    -0.265 OA
HETATM    7  N2  UNL     1       0.735   0.850   0.352  1.00  0.00    -0.277 N 
ENDROOT
BRANCH   7   8
HETATM    8  C14 UNL     1       1.871   0.621   1.143  1.00  0.00     0.075 C 
BRANCH   8   9
HETATM    9  C15 UNL     1       2.477  -0.701   1.232  1.00  0.00     0.047 C 
BRANCH   9  10
HETATM   10  C16 UNL     1       2.944  -1.284  -0.070  1.00  0.00     0.032 C 
BRANCH  10  11
HETATM   11  C17 UNL     1       3.557  -2.638   0.075  1.00  0.00     0.230 C 
BRANCH  11  12
HETATM   12  N3  UNL     1       3.962  -3.078  -1.262  1.00  0.00    -0.079 N 
ATOM     13  H33 UNL     1       3.198  -3.056  -1.938  1.00  0.00     0.274 HD
ATOM     14  H32 UNL     1       4.574  -2.411  -1.733  1.00  0.00     0.274 HD
ATOM     15  H31 UNL     1       4.381  -4.003  -1.163  1.00  0.00     0.274 HD
ENDBRANCH  11  12
ENDBRANCH  10  11
ENDBRANCH   9  10
ENDBRANCH   8   9
ENDBRANCH   7   8
BRANCH   1  16
HETATM   16  C3  UNL     1       1.800   1.671  -1.642  1.00  0.00     0.048 C 
BRANCH  16  17
HETATM   17  C2  UNL     1       1.987   2.169  -2.943  1.00  0.00    -0.007 C 
HETATM   18  C1  UNL     1       1.155   2.439  -3.879  1.00  0.00     0.011 C 
ENDBRANCH  16  17
ENDBRANCH   1  16
BRANCH   4  19
HETATM   19  C6  UNL     1      -2.672   0.837  -0.430  1.00  0.00     0.046 C 
BRANCH  19  20
HETATM   20  C7  UNL     1      -3.510   0.376   0.662  1.00  0.00    -0.034 A 
HETATM   21  C8  UNL     1      -4.218   1.211   1.499  1.00  0.00     0.011 A 
HETATM   22  C9  UNL     1      -5.005   0.740   2.527  1.00  0.00     0.001 A 
HETATM   23  C10 UNL     1      -5.113  -0.617   2.759  1.00  0.00     0.000 A 
HETATM   24  C11 UNL     1      -4.413  -1.469   1.933  1.00  0.00     0.001 A 
HETATM   25  C12 UNL     1      -3.626  -0.975   0.903  1.00  0.00     0.011 A 
ENDBRANCH  19  20
ENDBRANCH   4  19
TORSDOF 9
