REMARK  8 active torsions:
REMARK  status: ('A' for Active; 'I' for Inactive)
REMARK    1  A    between atoms: C1_2  and  C2_7 
REMARK    2  A    between atoms: N2_3  and  O1_5 
REMARK    3  A    between atoms: N3_10  and  C5_11 
REMARK    4  A    between atoms: C5_11  and  C6_12 
REMARK    5  A    between atoms: C6_12  and  C7_13 
REMARK    6  A    between atoms: C7_13  and  C8_14 
REMARK    7  A    between atoms: C8_14  and  N4_15 
REMARK    8  A    between atoms: C13_20  and  O2_21 
ROOT
HETATM    1  C2  UNL     1       4.602   0.010   0.117  1.00  0.00     0.009 A 
HETATM    2  C3  UNL     1       3.918   0.974  -0.569  1.00  0.00     0.032 A 
HETATM    3  C4  UNL     1       2.537   1.151  -0.382  1.00  0.00     0.091 A 
HETATM    4  N3  UNL     1       1.852   0.386   0.470  1.00  0.00    -0.366 N 
HETATM    5  C14 UNL     1       2.480  -0.574   1.167  1.00  0.00     0.091 A 
HETATM    6  C15 UNL     1       3.815  -0.755   0.994  1.00  0.00     0.032 A 
ENDROOT
BRANCH   4   7
HETATM    7  C5  UNL     1       0.433   0.574   0.657  1.00  0.00     0.128 C 
BRANCH   7   8
HETATM    8  C6  UNL     1      -0.369  -0.284  -0.318  1.00  0.00     0.022 C 
BRANCH   8   9
HETATM    9  C7  UNL     1      -1.823  -0.014  -0.038  1.00  0.00     0.022 C 
BRANCH   9  10
HETATM   10  C8  UNL     1      -2.738  -0.808  -0.943  1.00  0.00     0.130 C 
BRANCH  10  11
HETATM   11  N4  UNL     1      -4.097  -0.466  -0.582  1.00  0.00    -0.338 N 
HETATM   12  C9  UNL     1      -4.717  -1.190   0.361  1.00  0.00     0.093 A 
HETATM   13  C10 UNL     1      -6.024  -0.924   0.762  1.00  0.00     0.017 A 
HETATM   14  C11 UNL     1      -6.678   0.119   0.158  1.00  0.00     0.006 A 
HETATM   15  C12 UNL     1      -6.017   0.853  -0.814  1.00  0.00     0.056 A 
HETATM   16  C13 UNL     1      -4.720   0.541  -1.171  1.00  0.00     0.141 A 
BRANCH  16  17
HETATM   17  O2  UNL     1      -4.132   1.336  -2.162  1.00  0.00    -0.346 OA
ATOM     18  H2  UNL     1      -4.580   2.059  -2.585  1.00  0.00     0.219 HD
ENDBRANCH  16  17
ENDBRANCH  10  11
ENDBRANCH   9  10
ENDBRANCH   8   9
ENDBRANCH   7   8
ENDBRANCH   4   7
BRANCH   1  19
HETATM   19  C1  UNL     1       6.008  -0.289   0.032  1.00  0.00     0.146 C 
HETATM   20  N1  UNL     1       6.520  -1.351   0.848  1.00  0.00    -0.080 NA
HETATM   21  N2  UNL     1       6.840   0.289  -0.690  1.00  0.00    -0.255 N 
ATOM     22  H2  UNL     1       7.796  -0.060  -0.619  1.00  0.00     0.195 HD
BRANCH  21  23
HETATM   23  O1  UNL     1       6.664   1.293  -1.538  1.00  0.00    -0.288 OA
ATOM     24  H1  UNL     1       7.299   1.734  -2.089  1.00  0.00     0.244 HD
ENDBRANCH  21  23
ENDBRANCH   1  19
TORSDOF 8
