REMARK  8 active torsions:
REMARK  status: ('A' for Active; 'I' for Inactive)
REMARK    1  A    between atoms: C2_5  and  C3_6 
REMARK    2  A    between atoms: C2_5  and  N5_14 
REMARK    3  A    between atoms: C3_6  and  C4_7 
REMARK    4  A    between atoms: N5_14  and  C7_16 
REMARK    5  A    between atoms: C7_16  and  C8_17 
REMARK    6  A    between atoms: C8_17  and  C9_18 
REMARK    7  A    between atoms: C9_18  and  N6_19 
REMARK    8  A    between atoms: N6_19  and  C10_21 
ROOT
HETATM    1  N1  UNL     1      -2.334  -3.452  -1.910  1.00  0.00    -0.172 NA
HETATM    2  C1  UNL     1      -2.685  -2.412  -1.484  1.00  0.00     0.183 C 
HETATM    3  N2  UNL     1      -3.103  -1.168  -1.002  1.00  0.00    -0.283 N 
ATOM      4  H2  UNL     1      -4.059  -1.058  -0.663  1.00  0.00     0.179 HD
HETATM    5  C2  UNL     1      -2.287  -0.136  -0.978  1.00  0.00     0.093 C 
ENDROOT
BRANCH   5   6
HETATM    6  C3  UNL     1      -2.779   1.138  -0.463  1.00  0.00     0.153 C 
BRANCH   6   7
HETATM    7  C4  UNL     1      -4.216   1.004  -0.112  1.00  0.00     0.087 A 
HETATM    8  N3  UNL     1      -4.698   0.626   1.069  1.00  0.00    -0.354 N 
HETATM    9  C5  UNL     1      -6.050   0.629   0.979  1.00  0.00     0.106 A 
ATOM     10  H3  UNL     1      -4.149   0.379   1.893  1.00  0.00     0.166 HD
HETATM   11  C6  UNL     1      -6.355   1.025  -0.308  1.00  0.00     0.106 A 
HETATM   12  N4  UNL     1      -5.208   1.262  -0.996  1.00  0.00    -0.354 N 
ATOM     13  H4  UNL     1      -5.115   1.567  -1.965  1.00  0.00     0.166 HD
ENDBRANCH   6   7
ENDBRANCH   5   6
BRANCH   5  14
HETATM   14  N5  UNL     1      -0.977  -0.323  -1.457  1.00  0.00    -0.379 N 
ATOM     15  H5  UNL     1      -0.744  -0.062  -2.415  1.00  0.00     0.160 HD
BRANCH  14  16
HETATM   16  C7  UNL     1       0.033  -0.879  -0.602  1.00  0.00     0.122 C 
BRANCH  16  17
HETATM   17  C8  UNL     1       0.455   0.017   0.532  1.00  0.00     0.039 C 
BRANCH  17  18
HETATM   18  C9  UNL     1       1.528  -0.778   1.294  1.00  0.00     0.123 C 
BRANCH  18  19
HETATM   19  N6  UNL     1       2.584  -1.053   0.395  1.00  0.00    -0.376 N 
ATOM     20  H6  UNL     1       2.420  -1.834  -0.240  1.00  0.00     0.161 HD
BRANCH  19  21
HETATM   21  C10 UNL     1       3.704  -0.474   0.260  1.00  0.00     0.100 A 
HETATM   22  C11 UNL     1       4.148   0.592   0.992  1.00  0.00     0.048 A 
HETATM   23  C12 UNL     1       5.392   1.144   0.759  1.00  0.00     0.005 A 
HETATM   24  C13 UNL     1       6.234   0.645  -0.219  1.00  0.00     0.017 A 
HETATM   25  C14 UNL     1       5.758  -0.429  -0.940  1.00  0.00     0.089 A 
HETATM   26  N7  UNL     1       4.545  -0.954  -0.700  1.00  0.00    -0.353 N 
ATOM     27  H7  UNL     1       4.239  -1.748  -1.262  1.00  0.00     0.166 HD
ENDBRANCH  19  21
ENDBRANCH  18  19
ENDBRANCH  17  18
ENDBRANCH  16  17
ENDBRANCH  14  16
ENDBRANCH   5  14
TORSDOF 8
