REMARK  9 active torsions:
REMARK  status: ('A' for Active; 'I' for Inactive)
REMARK    1  A    between atoms: N1_1  and  C1_5 
REMARK    2  A    between atoms: C1_5  and  C2_6 
REMARK    3  A    between atoms: C4_8  and  N2_9 
REMARK    4  A    between atoms: N2_9  and  C5_11 
REMARK    5  A    between atoms: C6_15  and  N4_16 
REMARK    6  A    between atoms: N4_16  and  C7_18 
REMARK    7  A    between atoms: C7_18  and  C8_19 
REMARK    8  A    between atoms: C8_19  and  C9_20 
REMARK    9  A    between atoms: C9_20  and  C10_21 
ROOT
HETATM    1  C2  UNL     1       3.109  -0.421   0.539  1.00  0.00     0.055 A 
HETATM    2  C3  UNL     1       4.004   0.526   0.114  1.00  0.00     0.076 A 
HETATM    3  C4  UNL     1       3.597   1.642  -0.577  1.00  0.00     0.124 A 
HETATM    4  N3  UNL     1       2.292   1.799  -0.835  1.00  0.00    -0.177 N 
ATOM      5  H3  UNL     1       1.978   2.624  -1.346  1.00  0.00     0.186 HD
HETATM    6  C6  UNL     1       1.376   0.874  -0.426  1.00  0.00     0.679 A 
HETATM    7  N5  UNL     1       1.793  -0.200   0.242  1.00  0.00    -0.194 N 
ATOM      8  H5  UNL     1       1.102  -0.886   0.545  1.00  0.00     0.184 HD
ENDROOT
BRANCH   6   9
HETATM    9  N4  UNL     1       0.162   1.111  -0.718  1.00  0.00    -0.226 N 
ATOM     10  H4  UNL     1      -0.066   1.962  -1.233  1.00  0.00     0.177 HD
BRANCH   9  11
HETATM   11  C7  UNL     1      -0.896   0.220  -0.346  1.00  0.00     0.138 C 
BRANCH  11  12
HETATM   12  C8  UNL     1      -1.353   0.503   1.068  1.00  0.00     0.025 C 
BRANCH  12  13
HETATM   13  C9  UNL     1      -2.444  -0.463   1.431  1.00  0.00     0.040 C 
BRANCH  13  14
HETATM   14  C10 UNL     1      -3.640  -0.393   0.568  1.00  0.00    -0.058 A 
HETATM   15  C11 UNL     1      -4.676   0.504   0.857  1.00  0.00     0.007 A 
HETATM   16  C12 UNL     1      -5.816   0.589   0.089  1.00  0.00     0.001 A 
HETATM   17  C13 UNL     1      -5.993  -0.217  -1.015  1.00  0.00     0.000 A 
HETATM   18  C14 UNL     1      -4.979  -1.105  -1.312  1.00  0.00     0.001 A 
HETATM   19  C15 UNL     1      -3.836  -1.195  -0.546  1.00  0.00     0.007 A 
ENDBRANCH  13  14
ENDBRANCH  12  13
ENDBRANCH  11  12
ENDBRANCH   9  11
ENDBRANCH   6   9
BRANCH   3  20
HETATM   20  N2  UNL     1       4.477   2.497  -0.951  1.00  0.00    -0.320 N 
ATOM     21  H2  UNL     1       4.195   3.332  -1.464  1.00  0.00     0.169 HD
BRANCH  20  22
HETATM   22  C5  UNL     1       5.833   2.275  -0.649  1.00  0.00     0.354 C 
HETATM   23  O1  UNL     1       6.679   2.325  -1.568  1.00  0.00    -0.283 OA
ENDBRANCH  20  22
ENDBRANCH   3  20
BRANCH   1  24
HETATM   24  C1  UNL     1       3.492  -1.641   1.285  1.00  0.00     0.287 C 
BRANCH  24  25
HETATM   25  N1  UNL     1       3.773  -2.721   0.361  1.00  0.00    -0.074 N 
ATOM     26  H13 UNL     1       2.994  -2.891  -0.276  1.00  0.00     0.274 HD
ATOM     27  H12 UNL     1       4.476  -2.459  -0.330  1.00  0.00     0.274 HD
ATOM     28  H11 UNL     1       4.037  -3.562   0.875  1.00  0.00     0.274 HD
ENDBRANCH  24  25
ENDBRANCH   1  24
TORSDOF 9
