REMARK  8 active torsions:
REMARK  status: ('A' for Active; 'I' for Inactive)
REMARK    1  A    between atoms: N1_1  and  C1_5 
REMARK    2  A    between atoms: C1_5  and  C2_6 
REMARK    3  A    between atoms: C2_6  and  C3_7 
REMARK    4  A    between atoms: C3_7  and  N2_8 
REMARK    5  A    between atoms: N2_8  and  C4_9 
REMARK    6  A    between atoms: N2_8  and  C12_21 
REMARK    7  A    between atoms: C4_9  and  C5_10 
REMARK    8  A    between atoms: C5_10  and  N3_11 
REMARK       I    between atoms: C6_13  and  N5_15 
ROOT
HETATM    1  C4  UNL     1       1.095   0.337  -0.708  1.00  0.00     0.150 C 
ENDROOT
BRANCH   1   2
HETATM    2  N2  UNL     1       2.579   0.023  -0.630  1.00  0.00    -0.335 N 
BRANCH   2   3
HETATM    3  C3  UNL     1       3.125   0.286   0.623  1.00  0.00     0.090 C 
BRANCH   3   4
HETATM    4  C2  UNL     1       4.425   0.877   0.918  1.00  0.00     0.017 C 
BRANCH   4   5
HETATM    5  C1  UNL     1       5.689   0.289   0.463  1.00  0.00     0.258 C 
BRANCH   5   6
HETATM    6  N1  UNL     1       6.769   1.105   1.115  1.00  0.00    -0.076 N 
ATOM      7  H13 UNL     1       6.693   2.106   0.933  1.00  0.00     0.274 HD
ATOM      8  H12 UNL     1       6.685   1.161   2.130  1.00  0.00     0.274 HD
ATOM      9  H11 UNL     1       7.648   0.696   0.799  1.00  0.00     0.274 HD
ENDBRANCH   5   6
ENDBRANCH   4   5
ENDBRANCH   3   4
ENDBRANCH   2   3
BRANCH   2  10
HETATM   10  C12 UNL     1       3.052  -0.595  -1.778  1.00  0.00     0.187 C 
HETATM   11  N6  UNL     1       4.302  -1.181  -1.951  1.00  0.00    -0.070 NA
HETATM   12  S1  UNL     1       2.074  -0.671  -3.122  1.00  0.00    -0.044 SA
ENDBRANCH   2  10
ENDBRANCH   1   2
BRANCH   1  13
HETATM   13  C5  UNL     1       0.326  -0.644   0.153  1.00  0.00     0.142 C 
BRANCH  13  14
HETATM   14  N3  UNL     1      -1.066  -0.329   0.029  1.00  0.00    -0.363 N 
HETATM   15  C6  UNL     1      -2.073  -0.946   0.495  1.00  0.00     0.186 C 
HETATM   16  N4  UNL     1      -2.070  -2.115   1.264  1.00  0.00    -0.064 NA
HETATM   17  N5  UNL     1      -3.347  -0.376   0.173  1.00  0.00    -0.356 N 
HETATM   18  C7  UNL     1      -4.443  -1.165  -0.287  1.00  0.00     0.125 C 
HETATM   19  C11 UNL     1      -3.482   1.054   0.316  1.00  0.00     0.125 C 
HETATM   20  C8  UNL     1      -5.234  -0.426  -1.364  1.00  0.00     0.020 C 
HETATM   21  C9  UNL     1      -5.751   0.843  -0.793  1.00  0.00     0.003 C 
HETATM   22  C10 UNL     1      -4.859   1.580   0.140  1.00  0.00     0.020 C 
ATOM     23  H3  UNL     1      -1.278   0.510  -0.510  1.00  0.00     0.162 HD
ENDBRANCH  13  14
ENDBRANCH   1  13
TORSDOF 8
