REMARK  8 active torsions:
REMARK  status: ('A' for Active; 'I' for Inactive)
REMARK    1  A    between atoms: C3_7  and  C4_8 
REMARK    2  A    between atoms: C4_8  and  C5_9 
REMARK    3  A    between atoms: C5_9  and  C6_10 
REMARK    4  A    between atoms: C6_10  and  C7_11 
REMARK    5  A    between atoms: C7_11  and  C8_12 
REMARK    6  A    between atoms: C8_12  and  O3_13 
REMARK    7  A    between atoms: C9_15  and  C10_16 
REMARK    8  A    between atoms: C10_16  and  C11_17 
ROOT
HETATM    1  O1  UNL     1      -3.027   3.648  -0.542  1.00  0.00    -0.247 OA
HETATM    2  C1  UNL     1      -1.961   2.954  -0.382  1.00  0.00     0.327 A 
HETATM    3  N1  UNL     1      -0.765   3.546  -0.504  1.00  0.00    -0.275 N 
ATOM      4  H1  UNL     1      -0.698   4.540  -0.722  1.00  0.00     0.173 HD
HETATM    5  C2  UNL     1       0.340   2.810  -0.335  1.00  0.00     0.261 A 
HETATM    6  O2  UNL     1       1.436   3.398  -0.456  1.00  0.00    -0.267 OA
HETATM    7  C3  UNL     1       0.230   1.467  -0.040  1.00  0.00     0.055 A 
HETATM    8  C9  UNL     1      -0.995   0.857   0.085  1.00  0.00     0.052 A 
HETATM    9  N2  UNL     1      -2.091   1.659  -0.099  1.00  0.00    -0.308 N 
ATOM     10  H2  UNL     1      -3.025   1.256  -0.018  1.00  0.00     0.170 HD
ENDROOT
BRANCH   7  11
HETATM   11  C4  UNL     1       1.326   0.727   0.128  1.00  0.00    -0.007 C 
BRANCH  11  12
HETATM   12  C5  UNL     1       2.710   1.229   0.025  1.00  0.00     0.028 C 
BRANCH  12  13
HETATM   13  C6  UNL     1       3.674   0.067   0.205  1.00  0.00     0.006 C 
BRANCH  13  14
HETATM   14  C7  UNL     1       3.456  -0.972  -0.856  1.00  0.00     0.026 C 
BRANCH  14  15
HETATM   15  C8  UNL     1       4.416  -2.123  -0.672  1.00  0.00     0.164 C 
BRANCH  15  16
HETATM   16  O3  UNL     1       5.733  -1.694  -0.753  1.00  0.00    -0.401 OA
ATOM     17  H3  UNL     1       6.337  -2.418  -0.637  1.00  0.00     0.209 HD
ENDBRANCH  15  16
ENDBRANCH  14  15
ENDBRANCH  13  14
ENDBRANCH  12  13
ENDBRANCH  11  12
ENDBRANCH   7  11
BRANCH   8  18
HETATM   18  C10 UNL     1      -1.192  -0.427   0.366  1.00  0.00     0.042 C 
BRANCH  18  19
HETATM   19  C11 UNL     1      -2.578  -0.945   0.470  1.00  0.00    -0.034 A 
HETATM   20  C12 UNL     1      -3.231  -1.012   1.678  1.00  0.00     0.011 A 
HETATM   21  C13 UNL     1      -4.534  -1.497   1.784  1.00  0.00     0.001 A 
HETATM   22  C14 UNL     1      -5.186  -1.923   0.645  1.00  0.00     0.000 A 
HETATM   23  C15 UNL     1      -4.556  -1.867  -0.578  1.00  0.00     0.001 A 
HETATM   24  C16 UNL     1      -3.255  -1.377  -0.646  1.00  0.00     0.011 A 
ENDBRANCH  18  19
ENDBRANCH   8  18
TORSDOF 8
