REMARK  9 active torsions:
REMARK  status: ('A' for Active; 'I' for Inactive)
REMARK    1  A    between atoms: C3_3  and  N1_4 
REMARK    2  A    between atoms: N1_4  and  C4_6 
REMARK    3  A    between atoms: C5_9  and  N3_10 
REMARK    4  A    between atoms: C7_15  and  N5_16 
REMARK    5  A    between atoms: N5_16  and  C8_18 
REMARK    6  A    between atoms: C8_18  and  C9_19 
REMARK    7  A    between atoms: C9_19  and  C10_20 
REMARK    8  A    between atoms: C10_20  and  C11_21 
REMARK    9  A    between atoms: C11_21  and  C12_22 
ROOT
HETATM    1  C1  UNL     1       5.825  -4.210  -0.186  1.00  0.00     0.014 C 
HETATM    2  C2  UNL     1       5.484  -3.053  -0.179  1.00  0.00    -0.097 C 
HETATM    3  C3  UNL     1       5.046  -1.643  -0.169  1.00  0.00     0.231 C 
ENDROOT
BRANCH   3   4
HETATM    4  N1  UNL     1       3.628  -1.601  -0.446  1.00  0.00    -0.215 N 
ATOM      5  H1  UNL     1       3.128  -2.461  -0.669  1.00  0.00     0.178 HD
BRANCH   4   6
HETATM    6  C4  UNL     1       2.998  -0.487  -0.412  1.00  0.00     0.708 A 
HETATM    7  N2  UNL     1       3.662   0.666  -0.115  1.00  0.00    -0.022 N 
HETATM    8  C5  UNL     1       3.008   1.840  -0.077  1.00  0.00     0.706 A 
ATOM      9  H2  UNL     1       4.663   0.638   0.080  1.00  0.00     0.203 HD
HETATM   10  N4  UNL     1       1.690   1.810  -0.344  1.00  0.00    -0.022 N 
HETATM   11  C7  UNL     1       1.026   0.685  -0.638  1.00  0.00     0.707 A 
ATOM     12  H4  UNL     1       1.171   2.688  -0.321  1.00  0.00     0.203 HD
HETATM   13  N6  UNL     1       1.679  -0.493  -0.676  1.00  0.00    -0.021 N 
ATOM     14  H6  UNL     1       1.190  -1.360  -0.897  1.00  0.00     0.203 HD
BRANCH   8  15
HETATM   15  N3  UNL     1       3.589   2.967   0.200  1.00  0.00    -0.229 N 
HETATM   16  C6  UNL     1       4.980   3.092   0.495  1.00  0.00     0.165 C 
ATOM     17  H3  UNL     1       3.019   3.813   0.207  1.00  0.00     0.177 HD
ENDBRANCH   8  15
BRANCH  11  18
HETATM   18  N5  UNL     1      -0.245   0.730  -0.885  1.00  0.00    -0.225 N 
ATOM     19  H5  UNL     1      -0.718   1.633  -0.850  1.00  0.00     0.177 HD
BRANCH  18  20
HETATM   20  C8  UNL     1      -1.011  -0.434  -1.204  1.00  0.00     0.138 C 
BRANCH  20  21
HETATM   21  C9  UNL     1      -2.490  -0.050  -1.132  1.00  0.00     0.020 C 
BRANCH  21  22
HETATM   22  C10 UNL     1      -2.747   0.417   0.279  1.00  0.00     0.003 C 
BRANCH  22  23
HETATM   23  C11 UNL     1      -4.170   0.831   0.503  1.00  0.00     0.017 C 
BRANCH  23  24
HETATM   24  C12 UNL     1      -5.151  -0.287   0.250  1.00  0.00     0.060 C 
HETATM   25  C13 UNL     1      -6.550   0.196   0.492  1.00  0.00     0.023 C 
HETATM   26  C14 UNL     1      -4.864  -1.339   1.241  1.00  0.00    -0.113 C 
HETATM   27  C15 UNL     1      -4.616  -2.193   2.066  1.00  0.00     0.012 C 
ENDBRANCH  23  24
ENDBRANCH  22  23
ENDBRANCH  21  22
ENDBRANCH  20  21
ENDBRANCH  18  20
ENDBRANCH  11  18
ENDBRANCH   4   6
ENDBRANCH   3   4
TORSDOF 9
