REMARK  7 active torsions:
REMARK  status: ('A' for Active; 'I' for Inactive)
REMARK    1  A    between atoms: O1_2  and  C2_3 
REMARK    2  A    between atoms: C2_3  and  C3_4 
REMARK    3  A    between atoms: C3_4  and  O2_5 
REMARK    4  A    between atoms: O2_5  and  C4_6 
REMARK    5  A    between atoms: C4_6  and  C5_8 
REMARK    6  A    between atoms: C6_10  and  O5_11 
REMARK    7  A    between atoms: C8_13  and  O6_14 
ROOT
HETATM    1  C5  UNL     1      -0.835  -0.127  -1.202  1.00  0.00     0.256 C 
HETATM    2  O4  UNL     1      -1.313   0.964  -0.547  1.00  0.00    -0.340 OA
HETATM    3  C6  UNL     1      -2.315   0.604   0.310  1.00  0.00     0.299 C 
HETATM    4  C8  UNL     1      -2.659  -0.822   0.111  1.00  0.00     0.157 C 
HETATM    5  C9  UNL     1      -3.482  -1.042  -1.132  1.00  0.00     0.214 C 
HETATM    6  O7  UNL     1      -2.473  -1.895  -1.612  1.00  0.00    -0.376 OA
HETATM    7  C10 UNL     1      -1.535  -1.350  -0.742  1.00  0.00     0.201 C 
ENDROOT
BRANCH   1   8
HETATM    8  C4  UNL     1       0.623  -0.275  -0.857  1.00  0.00     0.290 C 
HETATM    9  O3  UNL     1       1.217  -1.238  -1.382  1.00  0.00    -0.262 OA
BRANCH   8  10
HETATM   10  O2  UNL     1       1.279   0.579  -0.023  1.00  0.00    -0.317 OA
BRANCH  10  11
HETATM   11  C3  UNL     1       2.629   0.468   0.309  1.00  0.00     0.205 C 
BRANCH  11  12
HETATM   12  C2  UNL     1       3.522   0.618  -0.891  1.00  0.00     0.193 C 
BRANCH  12  13
HETATM   13  O1  UNL     1       4.846   0.515  -0.507  1.00  0.00    -0.394 OA
HETATM   14  C1  UNL     1       5.156  -0.688   0.075  1.00  0.00     0.201 C 
ENDBRANCH  12  13
ENDBRANCH  11  12
ENDBRANCH  10  11
ENDBRANCH   8  10
ENDBRANCH   1   8
BRANCH   3  15
HETATM   15  O5  UNL     1      -1.907   0.820   1.622  1.00  0.00    -0.363 OA
HETATM   16  C7  UNL     1      -2.721   1.714   2.295  1.00  0.00     0.204 C 
ENDBRANCH   3  15
BRANCH   4  17
HETATM   17  O6  UNL     1      -2.968  -1.585   1.201  1.00  0.00    -0.380 OA
ATOM     18  H6  UNL     1      -3.189  -2.500   1.073  1.00  0.00     0.211 HD
ENDBRANCH   4  17
TORSDOF 7
