REMARK  5 active torsions:
REMARK  status: ('A' for Active; 'I' for Inactive)
REMARK    1  A    between atoms: C3_4  and  C4_5 
REMARK    2  A    between atoms: C4_5  and  C5_6 
REMARK    3  A    between atoms: C7_11  and  C8_12 
REMARK    4  A    between atoms: C14_21  and  O1_22 
REMARK    5  A    between atoms: O1_22  and  C15_23 
ROOT
HETATM    1  F1  UNL     1       1.282  -2.359  -1.469  1.00  0.00    -0.203 F 
HETATM    2  C1  UNL     1       0.089  -1.729  -1.185  1.00  0.00     0.150 A 
HETATM    3  C2  UNL     1      -1.081  -2.185  -1.724  1.00  0.00     0.053 A 
HETATM    4  C3  UNL     1      -2.309  -1.556  -1.448  1.00  0.00    -0.046 A 
HETATM    5  C7  UNL     1      -2.383  -0.459  -0.634  1.00  0.00    -0.045 A 
HETATM    6  C13 UNL     1      -1.186  -0.036  -0.112  1.00  0.00     0.048 A 
HETATM    7  C14 UNL     1       0.063  -0.634  -0.358  1.00  0.00     0.108 A 
ENDROOT
BRANCH   7   8
HETATM    8  O1  UNL     1       1.113  -0.122   0.210  1.00  0.00    -0.341 OA
BRANCH   8   9
HETATM    9  C15 UNL     1       2.118   0.430   0.797  1.00  0.00     0.155 C 
HETATM   10  C16 UNL     1       2.912  -0.338   1.820  1.00  0.00     0.201 C 
HETATM   11  O2  UNL     1       4.124  -0.667   1.238  1.00  0.00    -0.377 OA
HETATM   12  C17 UNL     1       4.443   0.381   0.381  1.00  0.00     0.067 C 
HETATM   13  C18 UNL     1       5.342  -0.173  -0.701  1.00  0.00     0.064 C 
HETATM   14  C21 UNL     1       5.187   1.438   1.164  1.00  0.00     0.064 C 
HETATM   15  C22 UNL     1       3.177   0.858  -0.230  1.00  0.00     0.073 C 
HETATM   16  C19 UNL     1       6.141   0.906  -1.393  1.00  0.00     0.170 C 
HETATM   17  O3  UNL     1       5.673   2.178  -1.077  1.00  0.00    -0.391 OA
HETATM   18  C20 UNL     1       5.985   2.353   0.295  1.00  0.00     0.170 C 
ENDBRANCH   8   9
ENDBRANCH   7   8
BRANCH   5  19
HETATM   19  C8  UNL     1      -3.653   0.262  -0.360  1.00  0.00     0.022 C 
HETATM   20  C9  UNL     1      -3.300   1.701   0.005  1.00  0.00     0.037 C 
HETATM   21  C10 UNL     1      -3.450   2.025   1.442  1.00  0.00     0.233 C 
HETATM   22  N2  UNL     1      -4.812   1.869   1.924  1.00  0.00    -0.075 N 
HETATM   23  C11 UNL     1      -5.464   0.837   1.158  1.00  0.00     0.233 C 
ATOM     24  H22 UNL     1      -4.851   1.692   2.928  1.00  0.00     0.277 HD
ATOM     25  H21 UNL     1      -5.331   2.747   1.914  1.00  0.00     0.277 HD
HETATM   26  C12 UNL     1      -4.398  -0.237   0.864  1.00  0.00     0.037 C 
ENDBRANCH   5  19
BRANCH   4  27
HETATM   27  C4  UNL     1      -3.522  -2.241  -1.966  1.00  0.00     0.074 C 
BRANCH  27  28
HETATM   28  C5  UNL     1      -3.708  -3.595  -1.339  1.00  0.00     0.215 A 
HETATM   29  C6  UNL     1      -3.849  -3.858   0.075  1.00  0.00     0.266 A 
HETATM   30  N1  UNL     1      -5.031  -3.857  -0.839  1.00  0.00    -0.067 N 
ATOM     31  H12 UNL     1      -5.929  -3.375  -0.868  1.00  0.00     0.277 HD
ATOM     32  H11 UNL     1      -5.778  -4.514  -1.064  1.00  0.00     0.277 HD
ENDBRANCH  27  28
ENDBRANCH   4  27
TORSDOF 5
