REMARK  6 active torsions:
REMARK  status: ('A' for Active; 'I' for Inactive)
REMARK    1  A    between atoms: O1_1  and  C1_3 
REMARK    2  A    between atoms: C1_3  and  C2_4 
REMARK    3  A    between atoms: C2_4  and  N1_5 
REMARK    4  A    between atoms: N1_5  and  C3_7 
REMARK    5  A    between atoms: C10_14  and  N2_15 
REMARK    6  A    between atoms: N3_18  and  C13_19 
ROOT
HETATM    1  C1  UNL     1       1.894  -0.092   0.622  1.00  0.00     0.073 C 
HETATM    2  C8  UNL     1       1.708  -1.469   0.007  1.00  0.00     0.041 C 
HETATM    3  C9  UNL     1       0.299  -1.906   0.409  1.00  0.00     0.028 C 
HETATM    4  C10 UNL     1      -0.636  -0.937  -0.284  1.00  0.00     0.088 C 
HETATM    5  C21 UNL     1      -0.414   0.479   0.137  1.00  0.00     0.028 C 
HETATM    6  C22 UNL     1       1.042   0.853  -0.165  1.00  0.00     0.041 C 
ENDROOT
BRANCH   4   7
HETATM    7  N2  UNL     1      -1.961  -1.424  -0.128  1.00  0.00    -0.366 N 
HETATM    8  C11 UNL     1      -2.483  -1.526   1.153  1.00  0.00     0.083 C 
HETATM    9  C12 UNL     1      -3.959  -1.289   1.327  1.00  0.00     0.168 C 
HETATM   10  N3  UNL     1      -4.604  -0.869   0.118  1.00  0.00    -0.371 N 
HETATM   11  C19 UNL     1      -4.213  -1.452  -1.161  1.00  0.00     0.168 C 
HETATM   12  C20 UNL     1      -2.729  -1.619  -1.272  1.00  0.00     0.083 C 
BRANCH  10  13
HETATM   13  C13 UNL     1      -5.613   0.114   0.142  1.00  0.00     0.030 A 
HETATM   14  C14 UNL     1      -5.706   1.065   1.121  1.00  0.00     0.031 A 
HETATM   15  C15 UNL     1      -6.720   2.033   1.153  1.00  0.00     0.026 A 
HETATM   16  C16 UNL     1      -7.686   2.064   0.175  1.00  0.00     0.034 A 
HETATM   17 CL1  UNL     1      -8.969   3.271   0.191  1.00  0.00    -0.084 Cl
HETATM   18  C17 UNL     1      -7.602   1.113  -0.814  1.00  0.00     0.026 A 
HETATM   19  C18 UNL     1      -6.607   0.163  -0.845  1.00  0.00     0.031 A 
ENDBRANCH  10  13
ENDBRANCH   4   7
BRANCH   1  20
HETATM   20  O1  UNL     1       1.402  -0.141   1.925  1.00  0.00    -0.388 OA
ATOM     21  H1  UNL     1       0.483  -0.380   1.892  1.00  0.00     0.210 HD
ENDBRANCH   1  20
BRANCH   1  22
HETATM   22  C2  UNL     1       3.359   0.289   0.674  1.00  0.00     0.152 C 
BRANCH  22  23
HETATM   23  N1  UNL     1       3.955   0.368  -0.616  1.00  0.00    -0.414 N 
ATOM     24  H1  UNL     1       3.414   0.193  -1.463  1.00  0.00     0.153 HD
BRANCH  23  25
HETATM   25  C3  UNL     1       5.312   0.695  -0.675  1.00  0.00     0.076 C 
HETATM   26  C4  UNL     1       6.250  -0.297  -0.017  1.00  0.00     0.024 C 
HETATM   27  C5  UNL     1       7.582   0.388  -0.363  1.00  0.00     0.002 C 
HETATM   28  C6  UNL     1       7.275   1.832  -0.090  1.00  0.00     0.002 C 
HETATM   29  C7  UNL     1       5.749   1.964  -0.001  1.00  0.00     0.024 C 
ENDBRANCH  23  25
ENDBRANCH  22  23
ENDBRANCH   1  22
TORSDOF 6
