REMARK  5 active torsions:
REMARK  status: ('A' for Active; 'I' for Inactive)
REMARK    1  A    between atoms: C2_2  and  C3_3 
REMARK    2  A    between atoms: C2_2  and  S1_24 
REMARK       I    between atoms: C3_3  and  N1_5 
REMARK    3  A    between atoms: N1_5  and  C4_7 
REMARK    4  A    between atoms: C7_10  and  N2_11 
REMARK       I    between atoms: N2_11  and  C8_13 
REMARK    5  A    between atoms: C8_13  and  C9_15 
ROOT
HETATM    1  C4  UNL     1       2.166  -0.588  -0.629  1.00  0.00     0.056 A 
HETATM    2  C5  UNL     1       1.593  -0.992   0.535  1.00  0.00     0.033 A 
HETATM    3  C6  UNL     1       0.223  -0.958   0.753  1.00  0.00     0.032 A 
HETATM    4  C7  UNL     1      -0.660  -0.496  -0.236  1.00  0.00     0.036 A 
HETATM    5  C15 UNL     1      -0.078  -0.094  -1.399  1.00  0.00     0.055 A 
HETATM    6  C16 UNL     1       1.293  -0.126  -1.621  1.00  0.00     0.062 A 
HETATM    7 CL1  UNL     1       1.969   0.410  -3.146  1.00  0.00    -0.082 Cl
ENDROOT
BRANCH   1   8
HETATM    8  N1  UNL     1       3.558  -0.607  -0.889  1.00  0.00    -0.325 N 
HETATM    9  C3  UNL     1       4.595  -1.027  -0.040  1.00  0.00     0.240 C 
HETATM   10  O1  UNL     1       4.460  -1.469   1.120  1.00  0.00    -0.272 OA
ATOM     11  H1  UNL     1       3.844  -0.273  -1.810  1.00  0.00     0.169 HD
BRANCH   9  12
HETATM   12  C2  UNL     1       6.000  -0.945  -0.549  1.00  0.00     0.196 C 
HETATM   13  C1  UNL     1       6.906  -1.579   0.478  1.00  0.00     0.036 C 
BRANCH  12  14
HETATM   14  S1  UNL     1       6.468   0.753  -0.823  1.00  0.00     0.153 S 
HETATM   15  C17 UNL     1       6.404   1.593   0.741  1.00  0.00     0.162 C 
HETATM   16  O3  UNL     1       7.899   0.818  -1.333  1.00  0.00    -0.227 OA
HETATM   17  O4  UNL     1       5.629   1.436  -1.842  1.00  0.00    -0.227 OA
ENDBRANCH  12  14
ENDBRANCH   9  12
ENDBRANCH   1   8
BRANCH   4  18
HETATM   18  N2  UNL     1      -2.047  -0.509   0.048  1.00  0.00    -0.327 N 
HETATM   19  C8  UNL     1      -2.996   0.207  -0.672  1.00  0.00     0.226 C 
HETATM   20  O2  UNL     1      -2.748   0.943  -1.637  1.00  0.00    -0.273 OA
ATOM     21  H2  UNL     1      -2.370  -1.079   0.830  1.00  0.00     0.169 HD
BRANCH  19  22
HETATM   22  C9  UNL     1      -4.434   0.087  -0.257  1.00  0.00     0.078 C 
HETATM   23  C10 UNL     1      -5.325   0.918  -1.132  1.00  0.00     0.014 C 
HETATM   24  C11 UNL     1      -6.759   0.581  -0.802  1.00  0.00     0.001 C 
HETATM   25  C12 UNL     1      -7.080   0.686   0.646  1.00  0.00     0.000 C 
HETATM   26  C13 UNL     1      -6.049   0.120   1.562  1.00  0.00     0.001 C 
HETATM   27  C14 UNL     1      -4.642   0.528   1.167  1.00  0.00     0.014 C 
ENDBRANCH  19  22
ENDBRANCH   4  18
TORSDOF 5
