REMARK  6 active torsions:
REMARK  status: ('A' for Active; 'I' for Inactive)
REMARK    1  A    between atoms: C2_2  and  C3_3 
REMARK    2  A    between atoms: C3_3  and  C5_5 
REMARK    3  A    between atoms: C5_5  and  N1_6 
REMARK    4  A    between atoms: C5_5  and  C18_23 
REMARK       I    between atoms: N1_6  and  C6_8 
REMARK    5  A    between atoms: C6_8  and  O2_10 
REMARK    6  A    between atoms: O2_10  and  C7_11 
ROOT
HETATM    1  O2  UNL     1       0.556   0.101   0.080  1.00  0.00    -0.298 OA
ENDROOT
BRANCH   1   2
HETATM    2  C6  UNL     1      -0.750  -0.121   0.552  1.00  0.00     0.361 C 
HETATM    3  N1  UNL     1      -1.819   0.688   0.110  1.00  0.00    -0.322 N 
ATOM      4  H1  UNL     1      -1.666   1.445  -0.557  1.00  0.00     0.165 HD
HETATM    5  O1  UNL     1      -0.875  -1.062   1.366  1.00  0.00    -0.238 OA
BRANCH   3   6
HETATM    6  C5  UNL     1      -3.168   0.404   0.644  1.00  0.00     0.191 C 
BRANCH   6   7
HETATM    7  C3  UNL     1      -4.090   0.086  -0.498  1.00  0.00     0.014 C 
HETATM    8  C4  UNL     1      -4.195   1.208  -1.497  1.00  0.00     0.012 C 
BRANCH   7   9
HETATM    9  C2  UNL     1      -5.467  -0.229   0.011  1.00  0.00     0.002 C 
HETATM   10  C1  UNL     1      -5.489  -1.352   1.030  1.00  0.00     0.005 C 
ENDBRANCH   7   9
ENDBRANCH   6   7
BRANCH   6  11
HETATM   11  C18 UNL     1      -3.525   1.578   1.440  1.00  0.00     0.197 C 
HETATM   12  O3  UNL     1      -2.728   2.581   1.518  1.00  0.00    -0.646 OA
HETATM   13  O4  UNL     1      -4.694   1.742   2.165  1.00  0.00    -0.646 OA
ENDBRANCH   6  11
ENDBRANCH   3   6
ENDBRANCH   1   2
BRANCH   1  14
HETATM   14  C7  UNL     1       1.632  -0.709   0.521  1.00  0.00     0.142 C 
HETATM   15  C8  UNL     1       2.156  -1.436  -0.701  1.00  0.00     0.017 C 
HETATM   16  C9  UNL     1       3.327  -2.321  -0.371  1.00  0.00     0.012 C 
HETATM   17  C17 UNL     1       2.576  -0.390  -1.702  1.00  0.00     0.028 C 
HETATM   18  C10 UNL     1       4.413  -1.480   0.256  1.00  0.00    -0.012 C 
HETATM   19  C11 UNL     1       3.870  -0.825   1.495  1.00  0.00     0.012 C 
HETATM   20  C16 UNL     1       4.888  -0.496  -0.776  1.00  0.00     0.026 C 
HETATM   21  C12 UNL     1       2.727   0.115   1.113  1.00  0.00     0.021 C 
HETATM   22  C13 UNL     1       3.301   1.107   0.132  1.00  0.00     0.007 C 
HETATM   23  C14 UNL     1       2.419   2.291  -0.094  1.00  0.00     0.012 C 
HETATM   24  C15 UNL     1       3.709   0.414  -1.130  1.00  0.00     0.022 C 
HETATM   25 BR1  UNL     1       4.238   1.735  -2.440  1.00  0.00    -0.085 Br
ENDBRANCH   1  14
TORSDOF 6
