REMARK  6 active torsions:
REMARK  status: ('A' for Active; 'I' for Inactive)
REMARK    1  A    between atoms: C2_2  and  O1_3 
REMARK    2  A    between atoms: O1_3  and  C3_4 
REMARK    3  A    between atoms: C3_4  and  C4_6 
REMARK    4  A    between atoms: C4_6  and  C5_7 
REMARK    5  A    between atoms: C5_7  and  C6_8 
REMARK    6  A    between atoms: C6_8  and  C7_9 
ROOT
HETATM    1  C6  UNL     1      -1.605  -0.064  -0.781  1.00  0.00     0.039 C 
HETATM    2  C8  UNL     1      -0.931   1.204  -1.146  1.00  0.00     0.019 C 
HETATM    3  C9  UNL     1       0.574   1.197  -1.092  1.00  0.00     0.001 C 
HETATM    4  C10 UNL     1       1.028   2.636  -1.139  1.00  0.00     0.000 C 
HETATM    5  C11 UNL     1       2.365   2.873  -0.523  1.00  0.00     0.000 C 
HETATM    6  C12 UNL     1       3.445   1.962  -0.968  1.00  0.00     0.000 C 
HETATM    7  C13 UNL     1       4.447   1.819   0.163  1.00  0.00     0.000 C 
HETATM    8  C14 UNL     1       4.095   0.652   1.028  1.00  0.00     0.000 C 
HETATM    9  C15 UNL     1       5.282  -0.230   1.333  1.00  0.00     0.009 C 
HETATM   10  C16 UNL     1       5.138  -1.597   0.662  1.00  0.00     0.103 C 
HETATM   11  C17 UNL     1       4.333  -2.441   1.557  1.00  0.00     0.217 C 
HETATM   12  O4  UNL     1       4.656  -2.436   2.791  1.00  0.00    -0.274 OA
HETATM   13  N2  UNL     1       3.250  -3.244   1.181  1.00  0.00    -0.361 N 
ATOM     14  H2  UNL     1       3.131  -4.128   1.675  1.00  0.00     0.162 HD
HETATM   15  C18 UNL     1       2.287  -2.928   0.154  1.00  0.00     0.122 C 
HETATM   16  C19 UNL     1       1.024  -2.336   0.752  1.00  0.00     0.020 C 
HETATM   17  C20 UNL     1       0.064  -1.912  -0.364  1.00  0.00     0.003 C 
HETATM   18  C21 UNL     1      -0.898  -0.906   0.231  1.00  0.00     0.019 C 
ENDROOT
BRANCH   1  19
HETATM   19  C5  UNL     1      -2.998   0.210  -0.248  1.00  0.00     0.028 C 
BRANCH  19  20
HETATM   20  C4  UNL     1      -3.852   0.983  -1.205  1.00  0.00     0.112 C 
BRANCH  20  21
HETATM   21  C3  UNL     1      -5.202   1.224  -0.634  1.00  0.00     0.258 C 
HETATM   22  O2  UNL     1      -6.096   1.853  -1.256  1.00  0.00    -0.265 OA
BRANCH  21  23
HETATM   23  O1  UNL     1      -5.560   0.763   0.636  1.00  0.00    -0.322 OA
BRANCH  23  24
HETATM   24  C2  UNL     1      -6.864   1.011   1.156  1.00  0.00     0.174 C 
HETATM   25  C1  UNL     1      -6.978   0.411   2.524  1.00  0.00     0.034 C 
ENDBRANCH  23  24
ENDBRANCH  21  23
ENDBRANCH  20  21
ENDBRANCH  19  20
ENDBRANCH   1  19
BRANCH   1  26
HETATM   26  C7  UNL     1      -1.822  -0.863  -2.041  1.00  0.00     0.239 C 
HETATM   27  N1  UNL     1      -2.515  -2.094  -2.019  1.00  0.00    -0.061 NA
HETATM   28  O3  UNL     1      -1.384  -0.433  -3.131  1.00  0.00    -0.276 OA
ENDBRANCH   1  26
TORSDOF 6
