REMARK  6 active torsions:
REMARK  status: ('A' for Active; 'I' for Inactive)
REMARK       I    between atoms: C1_2  and  N1_3 
REMARK    1  A    between atoms: C1_2  and  C8_12 
REMARK    2  A    between atoms: N1_3  and  C2_5 
REMARK    3  A    between atoms: C8_12  and  N2_13 
REMARK    4  A    between atoms: C8_12  and  C14_25 
REMARK    5  A    between atoms: N2_13  and  S1_15 
REMARK    6  A    between atoms: S1_15  and  C9_18 
ROOT
HETATM    1  C8  UNL     1      -0.445  -0.755  -0.736  1.00  0.00     0.189 C 
ENDROOT
BRANCH   1   2
HETATM    2  C1  UNL     1       0.192   0.276   0.135  1.00  0.00     0.245 C 
HETATM    3  O1  UNL     1      -0.393   0.570   1.186  1.00  0.00    -0.271 OA
HETATM    4  N1  UNL     1       1.407   0.890  -0.229  1.00  0.00    -0.325 N 
ATOM      5  H1  UNL     1       1.804   0.588  -1.119  1.00  0.00     0.169 HD
BRANCH   4   6
HETATM    6  C2  UNL     1       2.136   1.848   0.458  1.00  0.00     0.034 A 
HETATM    7  C3  UNL     1       3.302   2.364  -0.114  1.00  0.00     0.031 A 
HETATM    8  C4  UNL     1       4.089   3.309   0.488  1.00  0.00     0.026 A 
HETATM    9  C5  UNL     1       3.741   3.796   1.717  1.00  0.00     0.034 A 
HETATM   10 CL1  UNL     1       4.762   5.008   2.472  1.00  0.00    -0.084 Cl
HETATM   11  C6  UNL     1       2.610   3.323   2.317  1.00  0.00     0.026 A 
HETATM   12  C7  UNL     1       1.816   2.355   1.686  1.00  0.00     0.031 A 
ENDBRANCH   4   6
ENDBRANCH   1   2
BRANCH   1  13
HETATM   13  N2  UNL     1      -1.847  -0.948  -0.257  1.00  0.00    -0.301 N 
ATOM     14  H2  UNL     1      -2.089  -1.325   0.659  1.00  0.00     0.173 HD
BRANCH  13  15
HETATM   15  S1  UNL     1      -2.991  -0.467  -1.416  1.00  0.00     0.260 S 
HETATM   16  O2  UNL     1      -4.019  -1.529  -1.719  1.00  0.00    -0.200 OA
HETATM   17  O3  UNL     1      -2.272  -0.107  -2.700  1.00  0.00    -0.200 OA
BRANCH  15  18
HETATM   18  C9  UNL     1      -3.865   0.972  -0.936  1.00  0.00     0.094 A 
HETATM   19  C10 UNL     1      -3.482   2.250  -1.232  1.00  0.00     0.028 A 
HETATM   20  C11 UNL     1      -4.258   3.305  -0.788  1.00  0.00     0.019 A 
HETATM   21  C12 UNL     1      -5.412   3.057  -0.049  1.00  0.00     0.087 A 
HETATM   22  N3  UNL     1      -5.777   1.794   0.234  1.00  0.00    -0.374 N 
HETATM   23  C13 UNL     1      -5.015   0.782  -0.203  1.00  0.00     0.112 A 
ATOM     24  H3  UNL     1      -6.622   1.609   0.774  1.00  0.00     0.164 HD
ENDBRANCH  15  18
ENDBRANCH  13  15
ENDBRANCH   1  13
BRANCH   1  25
HETATM   25  C14 UNL     1       0.230  -2.096  -0.687  1.00  0.00     0.018 C 
HETATM   26  C15 UNL     1       0.181  -2.635   0.730  1.00  0.00     0.007 C 
HETATM   27  C16 UNL     1       1.399  -3.510   0.992  1.00  0.00     0.000 C 
HETATM   28  C17 UNL     1       1.711  -4.371  -0.203  1.00  0.00     0.000 C 
HETATM   29  C18 UNL     1       2.206  -3.470  -1.315  1.00  0.00     0.000 C 
HETATM   30  C19 UNL     1       1.608  -2.069  -1.220  1.00  0.00     0.007 C 
ENDBRANCH   1  25
TORSDOF 6
