REMARK  6 active torsions:
REMARK  status: ('A' for Active; 'I' for Inactive)
REMARK    1  A    between atoms: C1_2  and  C2_3 
REMARK       I    between atoms: C1_2  and  N1_5 
REMARK    2  A    between atoms: N1_5  and  C3_7 
REMARK    3  A    between atoms: C7_11  and  N2_12 
REMARK    4  A    between atoms: N2_12  and  C8_14 
REMARK    5  A    between atoms: C11_17  and  C12_18 
REMARK    6  A    between atoms: N3_21  and  C15_22 
ROOT
HETATM    1  C8  UNL     1       1.784  -1.125   0.947  1.00  0.00     0.028 A 
HETATM    2  C9  UNL     1       1.114  -0.775  -0.192  1.00  0.00     0.029 A 
HETATM    3  C10 UNL     1      -0.277  -0.614  -0.225  1.00  0.00     0.010 A 
HETATM    4  C11 UNL     1      -1.051  -0.798   0.889  1.00  0.00    -0.054 A 
HETATM    5  C20 UNL     1      -0.400  -1.150   2.044  1.00  0.00     0.010 A 
HETATM    6  C21 UNL     1       0.954  -1.307   2.078  1.00  0.00     0.029 A 
ENDROOT
BRANCH   1   7
HETATM    7  N2  UNL     1       3.174  -1.312   1.085  1.00  0.00    -0.383 N 
ATOM      8  H2  UNL     1       3.509  -1.563   2.015  1.00  0.00     0.160 HD
BRANCH   7   9
HETATM    9  C7  UNL     1       4.151  -1.190   0.079  1.00  0.00     0.104 C 
HETATM   10  C3  UNL     1       4.231   0.163  -0.575  1.00  0.00     0.107 C 
HETATM   11  C4  UNL     1       4.506  -0.105  -2.061  1.00  0.00     0.027 C 
HETATM   12  C5  UNL     1       5.052  -1.505  -2.040  1.00  0.00     0.004 C 
HETATM   13  C6  UNL     1       4.110  -2.196  -1.043  1.00  0.00     0.027 C 
BRANCH  10  14
HETATM   14  N1  UNL     1       5.412   0.884  -0.047  1.00  0.00    -0.354 N 
HETATM   15  C1  UNL     1       5.247   2.161   0.537  1.00  0.00     0.231 C 
HETATM   16  O1  UNL     1       4.103   2.685   0.608  1.00  0.00    -0.272 OA
ATOM     17  H1  UNL     1       6.339   0.462  -0.104  1.00  0.00     0.163 HD
BRANCH  15  18
HETATM   18  C2  UNL     1       6.433   2.873   1.062  1.00  0.00     0.217 C 
HETATM   19 CL1  UNL     1       5.999   4.451   1.747  1.00  0.00    -0.121 Cl
ENDBRANCH  15  18
ENDBRANCH  10  14
ENDBRANCH   7   9
ENDBRANCH   1   7
BRANCH   4  20
HETATM   20  C12 UNL     1      -2.528  -0.624   0.846  1.00  0.00     0.022 C 
HETATM   21  C13 UNL     1      -2.795   0.858   0.606  1.00  0.00     0.039 C 
HETATM   22  C14 UNL     1      -4.298   1.144   0.732  1.00  0.00     0.273 C 
HETATM   23  N3  UNL     1      -4.976   0.014   0.187  1.00  0.00     0.094 N 
HETATM   24  C18 UNL     1      -4.243  -0.628  -0.888  1.00  0.00     0.273 C 
HETATM   25  C19 UNL     1      -3.174  -1.490  -0.204  1.00  0.00     0.039 C 
BRANCH  23  26
HETATM   26  C15 UNL     1      -6.331   0.236  -0.180  1.00  0.00     0.241 C 
HETATM   27  C16 UNL     1      -6.593   1.250  -1.263  1.00  0.00     0.110 C 
HETATM   28  S1  UNL     1      -8.316   1.362  -0.644  1.00  0.00    -0.165 SA
HETATM   29  C17 UNL     1      -7.189   1.007   0.758  1.00  0.00     0.110 C 
ENDBRANCH  23  26
ENDBRANCH   4  20
TORSDOF 6
