REMARK  7 active torsions:
REMARK  status: ('A' for Active; 'I' for Inactive)
REMARK    1  A    between atoms: C3_3  and  C4_4 
REMARK    2  A    between atoms: C4_4  and  O1_5 
REMARK    3  A    between atoms: C4_4  and  C5_7 
REMARK    4  A    between atoms: C4_4  and  C11_13 
REMARK    5  A    between atoms: N1_14  and  C12_15 
REMARK    6  A    between atoms: C12_15  and  C13_16 
REMARK    7  A    between atoms: C20_27  and  C22_29 
ROOT
HETATM    1  C1  UNL     1       1.140  -2.945  -3.540  1.00  0.00     0.112 C 
HETATM    2  C2  UNL     1       0.940  -2.080  -2.400  1.00  0.00    -0.107 C 
HETATM    3  C3  UNL     1       0.791  -1.338  -1.428  1.00  0.00    -0.062 C 
ENDROOT
BRANCH   3   4
HETATM    4  C4  UNL     1       0.650  -0.430  -0.226  1.00  0.00     0.166 C 
BRANCH   4   5
HETATM    5  O1  UNL     1      -0.032  -1.223   0.687  1.00  0.00    -0.371 OA
ATOM      6  H1  UNL     1      -0.121  -0.653   1.442  1.00  0.00     0.212 HD
ENDBRANCH   4   5
BRANCH   4   7
HETATM    7  C5  UNL     1       2.042  -0.390   0.246  1.00  0.00     0.039 C 
HETATM    8  C6  UNL     1       3.082   0.145  -0.712  1.00  0.00     0.009 C 
HETATM    9  C7  UNL     1       4.405  -0.602  -0.459  1.00  0.00     0.001 C 
HETATM   10  C8  UNL     1       4.827  -0.437   0.958  1.00  0.00     0.000 C 
HETATM   11  C9  UNL     1       3.756  -0.732   1.971  1.00  0.00     0.001 C 
HETATM   12  C10 UNL     1       2.436  -0.030   1.604  1.00  0.00     0.009 C 
ENDBRANCH   4   7
BRANCH   4  13
HETATM   13  C11 UNL     1      -0.134   0.702  -0.631  1.00  0.00     0.071 C 
HETATM   14  N1  UNL     1      -1.410   0.444  -1.274  1.00  0.00    -0.297 N 
HETATM   15  C19 UNL     1      -1.712   1.804  -1.742  1.00  0.00     0.195 C 
HETATM   16  N2  UNL     1      -2.554   2.164  -2.852  1.00  0.00    -0.063 NA
HETATM   17  N3  UNL     1      -1.127   2.659  -1.008  1.00  0.00    -0.349 N 
HETATM   18  C20 UNL     1      -0.362   1.940   0.054  1.00  0.00     0.075 C 
ATOM     19  H3  UNL     1      -1.172   3.671  -1.125  1.00  0.00     0.163 HD
HETATM   20  C21 UNL     1       0.826   2.928   0.124  1.00  0.00     0.046 C 
BRANCH  14  21
HETATM   21  C12 UNL     1      -2.315  -0.587  -1.554  1.00  0.00     0.111 C 
BRANCH  21  22
HETATM   22  C13 UNL     1      -2.974  -1.337  -0.480  1.00  0.00    -0.020 A 
HETATM   23  C14 UNL     1      -2.968  -2.728  -0.559  1.00  0.00     0.016 A 
HETATM   24  C15 UNL     1      -3.564  -3.538   0.366  1.00  0.00     0.043 A 
HETATM   25  C16 UNL     1      -4.202  -2.978   1.427  1.00  0.00     0.116 A 
HETATM   26  F1  UNL     1      -4.791  -3.782   2.342  1.00  0.00    -0.206 F 
HETATM   27  C17 UNL     1      -4.218  -1.595   1.521  1.00  0.00     0.043 A 
HETATM   28  C18 UNL     1      -3.618  -0.805   0.589  1.00  0.00     0.016 A 
ENDBRANCH  21  22
ENDBRANCH  14  21
BRANCH  18  29
HETATM   29  C22 UNL     1      -1.197   2.177   1.230  1.00  0.00     0.011 C 
HETATM   30  C23 UNL     1      -1.106   3.683   1.594  1.00  0.00     0.012 C 
HETATM   31  C24 UNL     1      -1.033   1.434   2.482  1.00  0.00     0.012 C 
ENDBRANCH  18  29
ENDBRANCH   4  13
ENDBRANCH   3   4
TORSDOF 7
