REMARK  5 active torsions:
REMARK  status: ('A' for Active; 'I' for Inactive)
REMARK       I    between atoms: C1_2  and  N1_3 
REMARK    1  A    between atoms: C1_2  and  C13_19 
REMARK    2  A    between atoms: N1_3  and  C2_5 
REMARK    3  A    between atoms: C5_8  and  N2_9 
REMARK    4  A    between atoms: N2_9  and  C6_12 
REMARK    5  A    between atoms: N3_23  and  C17_24 
ROOT
HETATM    1  O1  UNL     1      -1.495  -1.268   2.410  1.00  0.00    -0.273 OA
HETATM    2  C1  UNL     1      -1.683  -1.046   1.204  1.00  0.00     0.223 C 
HETATM    3  N1  UNL     1      -0.600  -0.656   0.386  1.00  0.00    -0.356 N 
ATOM      4  H1  UNL     1      -0.752  -0.472  -0.606  1.00  0.00     0.162 HD
ENDROOT
BRANCH   2   5
HETATM    5  C13 UNL     1      -3.018  -1.184   0.614  1.00  0.00     0.096 C 
HETATM    6  C14 UNL     1      -3.015  -2.208  -0.513  1.00  0.00     0.017 C 
HETATM    7  C15 UNL     1      -4.410  -2.417  -0.975  1.00  0.00     0.021 C 
HETATM    8  C16 UNL     1      -5.136  -1.149  -1.339  1.00  0.00     0.124 C 
HETATM    9  N3  UNL     1      -4.816  -0.054  -0.445  1.00  0.00    -0.366 N 
HETATM   10  C22 UNL     1      -3.449   0.136  -0.052  1.00  0.00     0.138 C 
BRANCH   9  11
HETATM   11  C17 UNL     1      -5.833   0.820   0.028  1.00  0.00     0.104 A 
HETATM   12  C18 UNL     1      -5.654   1.774   1.000  1.00  0.00     0.048 A 
HETATM   13  C19 UNL     1      -6.689   2.617   1.424  1.00  0.00     0.007 A 
HETATM   14  C20 UNL     1      -7.942   2.502   0.859  1.00  0.00     0.042 A 
HETATM   15  C21 UNL     1      -8.091   1.536  -0.114  1.00  0.00     0.104 A 
HETATM   16 CL1  UNL     1      -9.697   1.403  -0.828  1.00  0.00    -0.065 Cl
HETATM   17  N4  UNL     1      -7.090   0.739  -0.507  1.00  0.00    -0.333 N 
ATOM     18  H4  UNL     1      -7.271   0.045  -1.232  1.00  0.00     0.168 HD
ENDBRANCH   9  11
ENDBRANCH   2   5
BRANCH   3  19
HETATM   19  C2  UNL     1       0.736  -0.515   0.957  1.00  0.00     0.084 C 
HETATM   20  C3  UNL     1       1.578  -1.561   0.268  1.00  0.00     0.027 C 
HETATM   21  C4  UNL     1       3.040  -1.303   0.277  1.00  0.00     0.035 C 
HETATM   22  C5  UNL     1       3.421   0.152   0.129  1.00  0.00     0.186 C 
HETATM   23  C11 UNL     1       2.193   0.846  -0.450  1.00  0.00     0.035 C 
HETATM   24  C12 UNL     1       1.176   0.891   0.677  1.00  0.00     0.027 C 
BRANCH  22  25
HETATM   25  N2  UNL     1       4.553   0.312  -0.730  1.00  0.00    -0.067 N 
ATOM     26  H22 UNL     1       4.350  -0.007  -1.677  1.00  0.00     0.278 HD
ATOM     27  H21 UNL     1       4.733   1.296  -0.929  1.00  0.00     0.278 HD
BRANCH  25  28
HETATM   28  C6  UNL     1       5.717  -0.337  -0.197  1.00  0.00     0.186 C 
HETATM   29  C7  UNL     1       6.142   0.270   1.117  1.00  0.00     0.033 C 
HETATM   30  C8  UNL     1       6.602   1.643   0.656  1.00  0.00     0.002 C 
HETATM   31  C9  UNL     1       7.277   1.368  -0.693  1.00  0.00     0.002 C 
HETATM   32  C10 UNL     1       6.946  -0.068  -1.046  1.00  0.00     0.033 C 
ENDBRANCH  25  28
ENDBRANCH  22  25
ENDBRANCH   3  19
TORSDOF 5
