REMARK  7 active torsions:
REMARK  status: ('A' for Active; 'I' for Inactive)
REMARK    1  A    between atoms: C1_2  and  O1_3 
REMARK    2  A    between atoms: O1_3  and  C2_4 
REMARK    3  A    between atoms: C7_9  and  C8_10 
REMARK    4  A    between atoms: C9_11  and  C10_12 
REMARK    5  A    between atoms: C13_15  and  C14_16 
REMARK    6  A    between atoms: C14_16  and  N1_17 
REMARK    7  A    between atoms: N1_17  and  C15_19 
ROOT
HETATM    1  C10 UNL     1      -0.128   1.205  -0.039  1.00  0.00     0.018 A 
HETATM    2  C11 UNL     1      -0.817   0.563  -1.057  1.00  0.00     0.021 A 
HETATM    3  C12 UNL     1      -2.191   0.637  -1.128  1.00  0.00     0.010 A 
HETATM    4  C13 UNL     1      -2.928   1.345  -0.197  1.00  0.00    -0.041 A 
HETATM    5  C20 UNL     1      -2.230   1.979   0.810  1.00  0.00     0.010 A 
HETATM    6  C21 UNL     1      -0.846   1.914   0.894  1.00  0.00     0.021 A 
ENDROOT
BRANCH   1   7
HETATM    7  C9  UNL     1       1.313   1.136   0.044  1.00  0.00    -0.061 C 
HETATM    8  C8  UNL     1       2.516   1.076   0.091  1.00  0.00    -0.060 C 
BRANCH   8   9
HETATM    9  C7  UNL     1       3.947   0.999   0.121  1.00  0.00     0.034 A 
HETATM   10  C6  UNL     1       4.645  -0.192   0.231  1.00  0.00     0.035 A 
HETATM   11  C5  UNL     1       6.021  -0.253   0.256  1.00  0.00    -0.008 A 
HETATM   12  C4  UNL     1       6.696  -1.439   0.365  1.00  0.00     0.016 A 
HETATM   13  C23 UNL     1       6.733   0.924   0.166  1.00  0.00     0.045 A 
HETATM   14  C3  UNL     1       8.095  -1.493   0.388  1.00  0.00     0.038 A 
HETATM   15  C2  UNL     1       8.778  -0.308   0.297  1.00  0.00     0.078 A 
HETATM   16  C24 UNL     1       8.101   0.915   0.186  1.00  0.00     0.067 A 
HETATM   17  N3  UNL     1       6.039   2.099   0.057  1.00  0.00    -0.364 N 
HETATM   18  C22 UNL     1       4.695   2.144   0.035  1.00  0.00     0.109 A 
ATOM     19  H3  UNL     1       6.561   2.973  -0.010  1.00  0.00     0.165 HD
BRANCH  15  20
HETATM   20  O1  UNL     1      10.145  -0.279   0.312  1.00  0.00    -0.311 OA
BRANCH  20  21
HETATM   21  C1  UNL     1      10.972  -1.383   0.403  1.00  0.00     0.226 C 
HETATM   22 CL1  UNL     1      10.829  -2.546  -0.921  1.00  0.00    -0.070 Cl
ENDBRANCH  20  21
ENDBRANCH  15  20
ENDBRANCH   8   9
ENDBRANCH   1   7
BRANCH   4  23
HETATM   23  C14 UNL     1      -4.409   1.410  -0.300  1.00  0.00     0.153 C 
BRANCH  23  24
HETATM   24  N1  UNL     1      -4.966   0.291   0.387  1.00  0.00    -0.412 N 
ATOM     25  H1  UNL     1      -4.384  -0.404   0.855  1.00  0.00     0.153 HD
BRANCH  24  26
HETATM   26  C15 UNL     1      -6.387   0.206   0.378  1.00  0.00     0.102 C 
HETATM   27  C16 UNL     1      -6.986   0.048  -0.990  1.00  0.00     0.028 C 
HETATM   28  C17 UNL     1      -7.092  -1.404  -1.406  1.00  0.00     0.029 C 
HETATM   29  C18 UNL     1      -7.808  -2.234  -0.366  1.00  0.00     0.232 C 
HETATM   30  N2  UNL     1      -8.060  -1.442   0.846  1.00  0.00    -0.073 N 
HETATM   31  C19 UNL     1      -6.790  -0.947   1.288  1.00  0.00     0.256 C 
ATOM     32  H22 UNL     1      -8.753  -0.706   0.709  1.00  0.00     0.277 HD
ATOM     33  H21 UNL     1      -8.563  -1.959   1.567  1.00  0.00     0.277 HD
ENDBRANCH  24  26
ENDBRANCH  23  24
ENDBRANCH   4  23
TORSDOF 7
