REMARK  11 active torsions:
REMARK  status: ('A' for Active; 'I' for Inactive)
REMARK    1  A    between atoms: N1_2  and  C3_4 
REMARK    2  A    between atoms: C3_4  and  C4_5 
REMARK    3  A    between atoms: C4_5  and  C5_6 
REMARK    4  A    between atoms: C5_6  and  C6_7 
REMARK    5  A    between atoms: C9_10  and  N2_11 
REMARK    6  A    between atoms: N2_11  and  C11_13 
REMARK    7  A    between atoms: C13_16  and  N3_17 
REMARK    8  A    between atoms: C14_20  and  N4_21 
REMARK    9  A    between atoms: N4_21  and  C15_23 
REMARK   10  A    between atoms: C18_26  and  S2_27 
REMARK   11  A    between atoms: S2_27  and  N5_28 
ROOT
HETATM    1  C11 UNL     1       1.085   0.842  -2.530  1.00  0.00     0.115 A 
HETATM    2  C12 UNL     1       1.402   0.355  -3.775  1.00  0.00     0.100 A 
HETATM    3  S1  UNL     1       2.973  -0.224  -3.929  1.00  0.00    -0.077 SA
HETATM    4  C13 UNL     1       3.902  -0.090  -2.455  1.00  0.00     0.112 A 
HETATM    5  C14 UNL     1       3.197   0.469  -1.401  1.00  0.00     0.141 A 
HETATM    6  N6  UNL     1       1.901   0.880  -1.493  1.00  0.00    -0.326 N 
ATOM      7  H6  UNL     1       1.505   1.273  -0.639  1.00  0.00     0.169 HD
ENDROOT
BRANCH   1   8
HETATM    8  N2  UNL     1      -0.275   1.356  -2.375  1.00  0.00    -0.337 N 
HETATM    9  C10 UNL     1      -0.646   2.541  -3.130  1.00  0.00     0.158 C 
BRANCH   8  10
HETATM   10  C9  UNL     1      -1.237   0.750  -1.544  1.00  0.00     0.035 A 
HETATM   11  C8  UNL     1      -1.409   1.156  -0.237  1.00  0.00     0.030 A 
HETATM   12  C7  UNL     1      -2.351   0.580   0.606  1.00  0.00     0.009 A 
HETATM   13  C6  UNL     1      -3.158  -0.435   0.154  1.00  0.00    -0.058 A 
HETATM   14  C22 UNL     1      -3.002  -0.858  -1.155  1.00  0.00     0.009 A 
HETATM   15  C21 UNL     1      -2.062  -0.283  -1.996  1.00  0.00     0.030 A 
BRANCH  13  16
HETATM   16  C5  UNL     1      -4.179  -1.087   1.017  1.00  0.00     0.040 C 
BRANCH  16  17
HETATM   17  C4  UNL     1      -5.515  -0.407   0.966  1.00  0.00     0.035 C 
BRANCH  17  18
HETATM   18  C3  UNL     1      -6.464  -1.164   1.882  1.00  0.00     0.271 C 
BRANCH  18  19
HETATM   19  N1  UNL     1      -7.771  -0.586   1.907  1.00  0.00     0.080 N 
HETATM   20  C1  UNL     1      -8.530  -0.694   0.703  1.00  0.00     0.309 C 
HETATM   21  C2  UNL     1      -8.486  -1.045   3.071  1.00  0.00     0.309 C 
ENDBRANCH  18  19
ENDBRANCH  17  18
ENDBRANCH  16  17
ENDBRANCH  13  16
ENDBRANCH   8  10
ENDBRANCH   1   8
BRANCH   5  22
HETATM   22  N4  UNL     1       3.737   0.609  -0.272  1.00  0.00    -0.340 N 
ATOM     23  H4  UNL     1       3.073   1.034   0.375  1.00  0.00     0.167 HD
BRANCH  22  24
HETATM   24  C15 UNL     1       4.915   0.380   0.368  1.00  0.00     0.033 A 
HETATM   25  C16 UNL     1       5.224  -0.845   0.987  1.00  0.00     0.031 A 
HETATM   26  C17 UNL     1       6.416  -1.043   1.632  1.00  0.00     0.027 A 
HETATM   27  C18 UNL     1       7.366  -0.052   1.704  1.00  0.00     0.079 A 
HETATM   28  C19 UNL     1       7.100   1.163   1.111  1.00  0.00     0.027 A 
HETATM   29  C20 UNL     1       5.909   1.375   0.461  1.00  0.00     0.031 A 
BRANCH  27  30
HETATM   30  S2  UNL     1       8.906  -0.301   2.498  1.00  0.00     0.256 S 
HETATM   31  O1  UNL     1       9.293   0.914   3.270  1.00  0.00    -0.201 OA
HETATM   32  O2  UNL     1       8.867  -1.531   3.376  1.00  0.00    -0.201 OA
BRANCH  30  33
HETATM   33  N5  UNL     1      10.083  -0.667   1.257  1.00  0.00    -0.324 N 
ATOM     34  H52 UNL     1       9.891  -0.722   0.257  1.00  0.00     0.169 HD
ATOM     35  H51 UNL     1      10.980  -0.812   1.720  1.00  0.00     0.169 HD
ENDBRANCH  30  33
ENDBRANCH  27  30
ENDBRANCH  22  24
ENDBRANCH   5  22
BRANCH   4  36
HETATM   36  N3  UNL     1       5.091  -0.453  -2.400  1.00  0.00    -0.390 N 
ATOM     37  H32 UNL     1       5.610  -0.864  -3.176  1.00  0.00     0.157 HD
ATOM     38  H31 UNL     1       5.633  -0.375  -1.540  1.00  0.00     0.157 HD
ENDBRANCH   4  36
TORSDOF 11
