REMARK  11 active torsions:
REMARK  status: ('A' for Active; 'I' for Inactive)
REMARK    1  A    between atoms: O1_1  and  C1_3 
REMARK    2  A    between atoms: C1_3  and  C2_4 
REMARK    3  A    between atoms: C2_4  and  N1_5 
REMARK    4  A    between atoms: N2_8  and  C5_9 
REMARK    5  A    between atoms: C12_20  and  N5_21 
REMARK    6  A    between atoms: N5_21  and  C13_23 
REMARK    7  A    between atoms: C16_26  and  O2_27 
REMARK    8  A    between atoms: O2_27  and  C17_28 
REMARK    9  A    between atoms: C17_28  and  C18_29 
REMARK   10  A    between atoms: C18_29  and  C19_30 
REMARK   11  A    between atoms: C19_30  and  C20_31 
ROOT
HETATM    1  C5  UNL     1       2.703  -1.140   0.357  1.00  0.00     0.149 A 
HETATM    2  N3  UNL     1       3.255  -2.302   0.776  1.00  0.00    -0.338 N 
ATOM      3  H3  UNL     1       4.269  -2.352   0.873  1.00  0.00     0.167 HD
HETATM    4  C6  UNL     1       2.527  -3.395   1.070  1.00  0.00     0.060 A 
HETATM    5  C7  UNL     1       3.115  -4.579   1.499  1.00  0.00     0.032 A 
HETATM    6  C8  UNL     1       2.383  -5.705   1.804  1.00  0.00     0.002 A 
HETATM    7  C9  UNL     1       1.010  -5.665   1.682  1.00  0.00     0.002 A 
HETATM    8  C10 UNL     1       0.405  -4.481   1.252  1.00  0.00     0.032 A 
HETATM    9  C11 UNL     1       1.158  -3.367   0.953  1.00  0.00     0.060 A 
HETATM   10  N4  UNL     1       0.584  -2.224   0.538  1.00  0.00    -0.338 N 
ATOM     11  H4  UNL     1      -0.431  -2.181   0.443  1.00  0.00     0.167 HD
HETATM   12  C12 UNL     1       1.328  -1.123   0.242  1.00  0.00     0.151 A 
ENDROOT
BRANCH  12  13
HETATM   13  N5  UNL     1       0.740  -0.055  -0.148  1.00  0.00    -0.339 N 
ATOM     14  H5  UNL     1       1.303   0.767  -0.368  1.00  0.00     0.167 HD
BRANCH  13  15
HETATM   15  C13 UNL     1      -0.670   0.022  -0.284  1.00  0.00     0.033 A 
HETATM   16  C14 UNL     1      -1.436   0.612   0.701  1.00  0.00     0.032 A 
HETATM   17  C15 UNL     1      -2.823   0.699   0.590  1.00  0.00     0.039 A 
HETATM   18  C16 UNL     1      -3.459   0.192  -0.521  1.00  0.00     0.075 A 
HETATM   19  C23 UNL     1      -2.711  -0.401  -1.515  1.00  0.00     0.039 A 
HETATM   20  C24 UNL     1      -1.336  -0.480  -1.389  1.00  0.00     0.032 A 
BRANCH  18  21
HETATM   21  O2  UNL     1      -4.825   0.271  -0.645  1.00  0.00    -0.323 OA
BRANCH  21  22
HETATM   22  C17 UNL     1      -5.589  -0.186  -1.683  1.00  0.00     0.142 C 
BRANCH  22  23
HETATM   23  C18 UNL     1      -7.021  -0.030  -1.672  1.00  0.00     0.025 C 
BRANCH  23  24
HETATM   24  C19 UNL     1      -7.952   0.431  -0.970  1.00  0.00     0.016 C 
BRANCH  24  25
HETATM   25  C20 UNL     1      -8.076   1.099   0.296  1.00  0.00    -0.002 A 
HETATM   26  C21 UNL     1      -7.146   1.461   1.189  1.00  0.00     0.119 A 
HETATM   27  N6  UNL     1      -7.751   2.069   2.239  1.00  0.00    -0.311 N 
HETATM   28  N7  UNL     1      -9.033   2.100   2.032  1.00  0.00    -0.311 N 
ATOM     29  H6  UNL     1      -7.275   2.442   3.060  1.00  0.00     0.186 HD
HETATM   30  C22 UNL     1      -9.306   1.525   0.863  1.00  0.00     0.119 A 
ATOM     31  H7  UNL     1      -9.723   2.502   2.666  1.00  0.00     0.186 HD
ENDBRANCH  24  25
ENDBRANCH  23  24
ENDBRANCH  22  23
ENDBRANCH  21  22
ENDBRANCH  18  21
ENDBRANCH  13  15
ENDBRANCH  12  13
BRANCH   1  32
HETATM   32  N2  UNL     1       3.512  -0.001   0.052  1.00  0.00    -0.361 N 
HETATM   33  C4  UNL     1       3.585   0.640  -1.223  1.00  0.00     0.154 C 
HETATM   34  C3  UNL     1       3.650   2.148  -0.945  1.00  0.00     0.292 C 
HETATM   35  N1  UNL     1       4.834   2.505  -0.231  1.00  0.00     0.093 N 
HETATM   36  C26 UNL     1       5.433   1.415   0.487  1.00  0.00     0.292 C 
HETATM   37  C25 UNL     1       4.339   0.569   1.124  1.00  0.00     0.154 C 
BRANCH  35  38
HETATM   38  C2  UNL     1       5.807   3.198  -1.025  1.00  0.00     0.298 C 
BRANCH  38  39
HETATM   39  C1  UNL     1       7.032   3.545  -0.206  1.00  0.00     0.194 C 
BRANCH  39  40
HETATM   40  O1  UNL     1       7.966   4.223  -1.009  1.00  0.00    -0.399 OA
ATOM     41  H1  UNL     1       8.735   4.441  -0.495  1.00  0.00     0.209 HD
ENDBRANCH  39  40
ENDBRANCH  38  39
ENDBRANCH  35  38
ENDBRANCH   1  32
TORSDOF 11
