REMARK  5 active torsions:
REMARK  status: ('A' for Active; 'I' for Inactive)
REMARK    1  A    between atoms: C2_2  and  C3_3 
REMARK    2  A    between atoms: C3_3  and  C4_4 
REMARK    3  A    between atoms: C4_4  and  C5_6 
REMARK    4  A    between atoms: C16_17  and  O2_18 
REMARK    5  A    between atoms: C17_20  and  O3_21 
ROOT
HETATM    1  C5  UNL     1      -1.866  -1.063   0.324  1.00  0.00     0.060 C 
HETATM    2  C6  UNL     1      -2.926  -1.377   1.391  1.00  0.00     0.013 C 
HETATM    3  C7  UNL     1      -2.738  -0.212   2.327  1.00  0.00     0.010 C 
HETATM    4  C8  UNL     1      -1.272   0.158   2.257  1.00  0.00    -0.039 C 
HETATM    5  C9  UNL     1      -0.657  -0.201   3.616  1.00  0.00     0.015 C 
HETATM    6  C10 UNL     1      -1.181   1.612   2.025  1.00  0.00     0.010 C 
HETATM    7  C11 UNL     1      -0.003   2.110   1.269  1.00  0.00     0.006 C 
HETATM    8  C12 UNL     1       0.363   1.216   0.130  1.00  0.00    -0.003 C 
HETATM    9  C13 UNL     1       0.503  -0.222   0.529  1.00  0.00    -0.004 C 
HETATM   10  C14 UNL     1       1.714  -0.348   1.426  1.00  0.00     0.008 C 
HETATM   11  C15 UNL     1       2.921  -0.161   0.495  1.00  0.00     0.041 C 
HETATM   12  C16 UNL     1       2.877   1.297   0.068  1.00  0.00     0.087 C 
HETATM   13  C17 UNL     1       3.880   1.552  -1.045  1.00  0.00     0.153 C 
HETATM   14  C18 UNL     1       3.153   1.063  -2.277  1.00  0.00     0.035 C 
HETATM   15  C19 UNL     1       1.687   1.136  -1.995  1.00  0.00     0.011 C 
HETATM   16  C20 UNL     1       1.583   1.669  -0.598  1.00  0.00     0.027 C 
HETATM   17  C21 UNL     1      -0.696  -0.741   1.205  1.00  0.00     0.009 C 
ENDROOT
BRANCH   1  18
HETATM   18  C4  UNL     1      -1.678  -2.221  -0.571  1.00  0.00     0.131 C 
HETATM   19  O1  UNL     1      -0.603  -2.771  -0.633  1.00  0.00    -0.298 OA
BRANCH  18  20
HETATM   20  C3  UNL     1      -2.752  -2.779  -1.427  1.00  0.00     0.078 C 
BRANCH  20  21
HETATM   21  C2  UNL     1      -2.620  -2.370  -2.864  1.00  0.00     0.003 C 
HETATM   22  C1  UNL     1      -2.679  -0.853  -3.024  1.00  0.00     0.005 C 
ENDBRANCH  20  21
ENDBRANCH  18  20
ENDBRANCH   1  18
BRANCH  12  23
HETATM   23  O2  UNL     1       3.146   2.060   1.198  1.00  0.00    -0.387 OA
ATOM     24  H2  UNL     1       3.118   2.971   0.931  1.00  0.00     0.210 HD
ENDBRANCH  12  23
BRANCH  13  25
HETATM   25  O3  UNL     1       5.019   0.833  -0.765  1.00  0.00    -0.393 OA
ATOM     26  H3  UNL     1       5.646   0.992  -1.461  1.00  0.00     0.210 HD
ENDBRANCH  13  25
TORSDOF 5
