REMARK  5 active torsions:
REMARK  status: ('A' for Active; 'I' for Inactive)
REMARK    1  A    between atoms: C2_2  and  C3_3 
REMARK    2  A    between atoms: N1_9  and  C9_10 
REMARK    3  A    between atoms: C9_10  and  C10_11 
REMARK    4  A    between atoms: C10_11  and  O1_13 
REMARK    5  A    between atoms: C18_21  and  O2_22 
ROOT
HETATM    1  C3  UNL     1      -1.244  -1.493   0.858  1.00  0.00    -0.010 C 
HETATM    2  C4  UNL     1      -0.633  -1.007   2.138  1.00  0.00     0.006 C 
HETATM    3  C5  UNL     1      -0.365   0.446   2.244  1.00  0.00     0.010 C 
HETATM    4  C6  UNL     1       0.079   1.073   0.911  1.00  0.00    -0.033 C 
HETATM    5  C7  UNL     1       1.229   2.028   1.199  1.00  0.00     0.029 C 
HETATM    6  C8  UNL     1       2.077   2.298  -0.017  1.00  0.00     0.117 C 
HETATM    7  N1  UNL     1       2.563   1.057  -0.519  1.00  0.00    -0.410 N 
HETATM    8  C12 UNL     1       1.485   0.284  -1.022  1.00  0.00     0.122 C 
HETATM    9  C13 UNL     1       0.534  -0.056   0.068  1.00  0.00     0.017 C 
HETATM   10  C14 UNL     1      -0.684  -0.852  -0.374  1.00  0.00     0.001 C 
HETATM   11  C15 UNL     1      -1.573   0.043  -1.108  1.00  0.00     0.001 C 
HETATM   12  C16 UNL     1      -2.757  -0.474  -1.809  1.00  0.00     0.008 C 
HETATM   13  C17 UNL     1      -3.471   0.822  -2.211  1.00  0.00     0.033 C 
HETATM   14  C18 UNL     1      -2.661   1.967  -1.581  1.00  0.00     0.126 C 
HETATM   15  C19 UNL     1      -2.118   1.213  -0.347  1.00  0.00    -0.013 C 
HETATM   16  C20 UNL     1      -3.341   0.954   0.466  1.00  0.00     0.018 C 
HETATM   17  C21 UNL     1      -1.039   1.902   0.359  1.00  0.00     0.022 C 
ENDROOT
BRANCH   7  18
HETATM   18  C9  UNL     1       3.546   0.408   0.261  1.00  0.00     0.148 C 
BRANCH  18  19
HETATM   19  C10 UNL     1       4.025  -0.899  -0.322  1.00  0.00     0.131 C 
HETATM   20  C11 UNL     1       5.148  -1.474   0.556  1.00  0.00     0.041 C 
BRANCH  19  21
HETATM   21  O1  UNL     1       4.586  -0.743  -1.578  1.00  0.00    -0.394 OA
ATOM     22  H1  UNL     1       4.888  -1.566  -1.945  1.00  0.00     0.210 HD
ENDBRANCH  19  21
ENDBRANCH  18  19
ENDBRANCH   7  18
BRANCH   1  23
HETATM   23  C2  UNL     1      -0.874  -2.985   0.781  1.00  0.00     0.000 C 
HETATM   24  C1  UNL     1      -1.403  -3.651  -0.443  1.00  0.00     0.005 C 
ENDBRANCH   1  23
BRANCH  14  25
HETATM   25  O2  UNL     1      -3.469   3.016  -1.218  1.00  0.00    -0.395 OA
ATOM     26  H2  UNL     1      -2.969   3.723  -0.829  1.00  0.00     0.210 HD
ENDBRANCH  14  25
TORSDOF 5
