REMARK  5 active torsions:
REMARK  status: ('A' for Active; 'I' for Inactive)
REMARK    1  A    between atoms: C3_3  and  C4_4 
REMARK    2  A    between atoms: C6_6  and  O1_7 
REMARK    3  A    between atoms: C8_10  and  N1_11 
REMARK    4  A    between atoms: C14_20  and  C15_21 
REMARK    5  A    between atoms: C15_21  and  C17_23 
ROOT
HETATM    1  C1  UNL     1      -5.567   3.676   1.519  1.00  0.00     0.012 C 
HETATM    2  C2  UNL     1      -4.717   3.337   0.735  1.00  0.00    -0.114 C 
HETATM    3  C3  UNL     1      -3.704   2.906  -0.219  1.00  0.00     0.120 C 
ENDROOT
BRANCH   3   4
HETATM    4  C4  UNL     1      -2.695   1.978   0.386  1.00  0.00    -0.005 C 
HETATM    5  C5  UNL     1      -2.585   0.749   0.011  1.00  0.00    -0.029 C 
HETATM    6  C6  UNL     1      -3.497   0.243  -1.046  1.00  0.00     0.153 C 
HETATM    7  C23 UNL     1      -1.601  -0.190   0.596  1.00  0.00    -0.060 C 
HETATM    8  C7  UNL     1      -4.090  -1.102  -0.593  1.00  0.00     0.070 C 
HETATM    9  C8  UNL     1      -2.972  -2.059  -0.524  1.00  0.00     0.194 C 
HETATM   10  C9  UNL     1      -1.726  -1.594   0.077  1.00  0.00     0.046 C 
HETATM   11  C10 UNL     1      -0.619  -1.988  -0.889  1.00  0.00     0.012 C 
HETATM   12  C11 UNL     1       0.712  -1.839  -0.213  1.00  0.00     0.011 C 
HETATM   13  C12 UNL     1       0.901  -0.341  -0.045  1.00  0.00    -0.033 C 
HETATM   14  C13 UNL     1       0.765   0.304  -1.359  1.00  0.00     0.016 C 
HETATM   15  C14 UNL     1       2.028  -0.005   0.836  1.00  0.00    -0.002 C 
HETATM   16  C22 UNL     1      -0.242   0.184   0.879  1.00  0.00     0.024 C 
HETATM   17  C20 UNL     1       1.728   1.474   1.110  1.00  0.00     0.006 C 
HETATM   18  C21 UNL     1       0.218   1.565   1.060  1.00  0.00     0.010 C 
BRANCH   6  19
HETATM   19  O1  UNL     1      -2.956   0.130  -2.297  1.00  0.00    -0.391 OA
ATOM     20  H1  UNL     1      -3.539  -0.194  -2.973  1.00  0.00     0.210 HD
ENDBRANCH   6  19
BRANCH   9  21
HETATM   21  N1  UNL     1      -3.373  -3.326   0.114  1.00  0.00    -0.074 N 
ATOM     22  H13 UNL     1      -3.781  -3.165   1.035  1.00  0.00     0.274 HD
ATOM     23  H12 UNL     1      -4.184  -3.735  -0.351  1.00  0.00     0.274 HD
ATOM     24  H11 UNL     1      -2.599  -3.989   0.162  1.00  0.00     0.274 HD
ENDBRANCH   9  21
BRANCH  15  25
HETATM   25  C15 UNL     1       3.410  -0.323   0.703  1.00  0.00    -0.010 C 
HETATM   26  C16 UNL     1       4.069   0.279   2.025  1.00  0.00     0.011 C 
BRANCH  25  27
HETATM   27  C17 UNL     1       4.325   0.045  -0.374  1.00  0.00    -0.019 C 
HETATM   28  C18 UNL     1       5.763  -0.469  -0.102  1.00  0.00     0.010 C 
HETATM   29  C19 UNL     1       4.015  -0.450  -1.748  1.00  0.00     0.010 C 
ENDBRANCH  25  27
ENDBRANCH  15  25
ENDBRANCH   3   4
TORSDOF 5
