REMARK  4 active torsions:
REMARK  status: ('A' for Active; 'I' for Inactive)
REMARK    1  A    between atoms: C2_2  and  C3_3 
REMARK    2  A    between atoms: C2_2  and  C5_7 
REMARK    3  A    between atoms: C3_3  and  C4_4 
REMARK    4  A    between atoms: C14_16  and  O3_17 
ROOT
HETATM    1  C5  UNL     1       2.400  -0.997  -0.094  1.00  0.00    -0.002 C 
HETATM    2  C6  UNL     1       2.179  -1.884  -1.335  1.00  0.00     0.006 C 
HETATM    3  C7  UNL     1       0.711  -2.331  -1.170  1.00  0.00     0.006 C 
HETATM    4  C8  UNL     1       0.140  -1.024  -0.784  1.00  0.00    -0.002 C 
HETATM    5  C9  UNL     1      -1.212  -0.949  -0.211  1.00  0.00    -0.005 C 
HETATM    6  C10 UNL     1      -2.259  -1.666  -1.085  1.00  0.00     0.006 C 
HETATM    7  C11 UNL     1      -3.548  -1.530  -0.260  1.00  0.00     0.006 C 
HETATM    8  C12 UNL     1      -4.012  -0.112  -0.199  1.00  0.00    -0.001 C 
HETATM    9  C13 UNL     1      -4.664   0.310   1.100  1.00  0.00     0.038 C 
HETATM   10  C14 UNL     1      -3.344   1.007   1.471  1.00  0.00     0.127 C 
HETATM   11  C15 UNL     1      -2.944   0.894   0.061  1.00  0.00    -0.010 C 
HETATM   12  C16 UNL     1      -3.337   2.190  -0.681  1.00  0.00     0.018 C 
HETATM   13  C17 UNL     1      -1.570   0.535  -0.342  1.00  0.00     0.001 C 
HETATM   14  C18 UNL     1      -0.533   1.447   0.187  1.00  0.00     0.007 C 
HETATM   15  C19 UNL     1       0.806   0.923   0.550  1.00  0.00     0.010 C 
HETATM   16  C20 UNL     1       1.101  -0.501   0.291  1.00  0.00    -0.036 C 
HETATM   17  C21 UNL     1       0.666  -1.265   1.566  1.00  0.00     0.016 C 
ENDROOT
BRANCH   1  18
HETATM   18  C2  UNL     1       3.600  -0.185  -0.293  1.00  0.00    -0.004 C 
HETATM   19  C1  UNL     1       3.902   0.697   0.935  1.00  0.00     0.011 C 
BRANCH  18  20
HETATM   20  C3  UNL     1       3.739   0.622  -1.548  1.00  0.00     0.117 C 
BRANCH  20  21
HETATM   21  C4  UNL     1       5.162   1.126  -1.591  1.00  0.00     0.172 C 
HETATM   22  O1  UNL     1       6.015   0.858  -0.717  1.00  0.00    -0.648 OA
HETATM   23  O2  UNL     1       5.586   1.941  -2.653  1.00  0.00    -0.648 OA
ENDBRANCH  20  21
ENDBRANCH  18  20
ENDBRANCH   1  18
BRANCH  10  24
HETATM   24  O3  UNL     1      -2.638   0.382   2.458  1.00  0.00    -0.395 OA
ATOM     25  H3  UNL     1      -1.823   0.812   2.687  1.00  0.00     0.210 HD
ENDBRANCH  10  24
TORSDOF 4
