REMARK  3 active torsions:
REMARK  status: ('A' for Active; 'I' for Inactive)
REMARK    1  A    between atoms: C2_2  and  O1_3 
REMARK    2  A    between atoms: O1_3  and  C3_4 
REMARK    3  A    between atoms: C6_7  and  C7_8 
ROOT
HETATM    1  C3  UNL     1       3.381   0.027  -0.140  1.00  0.00     0.121 C 
HETATM    2  C4  UNL     1       2.557  -0.799   0.831  1.00  0.00     0.033 C 
HETATM    3  C5  UNL     1       1.239  -1.211   0.268  1.00  0.00     0.024 C 
HETATM    4  C6  UNL     1       0.638  -0.251  -0.723  1.00  0.00     0.056 C 
HETATM    5  C8  UNL     1       1.167   1.169  -0.508  1.00  0.00     0.007 C 
HETATM    6  C9  UNL     1       0.576   1.856   0.675  1.00  0.00     0.006 C 
HETATM    7  C10 UNL     1      -0.933   1.890   0.587  1.00  0.00     0.006 C 
HETATM    8  C11 UNL     1      -1.359   0.410   0.596  1.00  0.00    -0.004 C 
HETATM    9  C12 UNL     1      -2.792   0.292   0.859  1.00  0.00    -0.002 C 
HETATM   10  C13 UNL     1      -3.531   1.637   0.797  1.00  0.00     0.006 C 
HETATM   11  C14 UNL     1      -4.987   1.221   0.783  1.00  0.00     0.001 C 
HETATM   12  C15 UNL     1      -4.954   0.049  -0.194  1.00  0.00     0.009 C 
HETATM   13  C16 UNL     1      -3.598  -0.597   0.003  1.00  0.00    -0.040 C 
HETATM   14  C17 UNL     1      -3.778  -1.953   0.700  1.00  0.00     0.015 C 
HETATM   15  C18 UNL     1      -3.035  -0.879  -1.352  1.00  0.00     0.010 C 
HETATM   16  C19 UNL     1      -1.596  -1.381  -1.123  1.00  0.00     0.007 C 
HETATM   17  C20 UNL     1      -0.844  -0.155  -0.705  1.00  0.00     0.009 C 
HETATM   18  C21 UNL     1       2.648   1.275  -0.546  1.00  0.00     0.038 C 
ENDROOT
BRANCH   1  19
HETATM   19  O1  UNL     1       4.593   0.275   0.459  1.00  0.00    -0.386 OA
BRANCH  19  20
HETATM   20  C2  UNL     1       5.662  -0.315  -0.209  1.00  0.00     0.163 C 
HETATM   21  C1  UNL     1       6.973  -0.016   0.484  1.00  0.00     0.033 C 
ENDBRANCH  19  20
ENDBRANCH   1  19
BRANCH   4  22
HETATM   22  C7  UNL     1       1.078  -0.639  -2.086  1.00  0.00     0.182 C 
HETATM   23  O2  UNL     1       1.507   0.265  -2.862  1.00  0.00    -0.647 OA
HETATM   24  O3  UNL     1       1.052  -1.935  -2.578  1.00  0.00    -0.647 OA
ENDBRANCH   4  22
TORSDOF 3
