REMARK  3 active torsions:
REMARK  status: ('A' for Active; 'I' for Inactive)
REMARK       I    between atoms: C2_5  and  N4_7 
REMARK    1  A    between atoms: N6_12  and  C5_13 
REMARK    2  A    between atoms: C5_13  and  C6_14 
REMARK    3  A    between atoms: C6_14  and  N7_15 
ROOT
HETATM    1  N1  UNL     1       6.046   0.006  -1.010  1.00  0.00    -0.172 NA
HETATM    2  C1  UNL     1       4.882   0.053  -0.899  1.00  0.00     0.184 C 
HETATM    3  N2  UNL     1       3.495   0.095  -0.787  1.00  0.00    -0.267 N 
ATOM      4  H2  UNL     1       2.950   0.009  -1.645  1.00  0.00     0.180 HD
HETATM    5  C2  UNL     1       2.852   0.234   0.313  1.00  0.00     0.199 C 
HETATM    6  N3  UNL     1       3.587   0.352   1.519  1.00  0.00    -0.063 NA
HETATM    7  N4  UNL     1       1.434   0.245   0.290  1.00  0.00    -0.352 N 
HETATM    8  C3  UNL     1       0.849  -0.855   1.060  1.00  0.00     0.146 C 
HETATM    9  C4  UNL     1       0.079  -1.748   0.074  1.00  0.00     0.153 C 
HETATM   10  N5  UNL     1      -0.163  -0.948  -1.088  1.00  0.00    -0.353 N 
ATOM     11  H5  UNL     1       0.380  -1.061  -1.944  1.00  0.00     0.174 HD
HETATM   12  N6  UNL     1      -1.157  -0.031  -0.983  1.00  0.00    -0.233 NA
HETATM   13  C7  UNL     1      -0.641   1.244  -0.588  1.00  0.00     0.133 C 
HETATM   14  C8  UNL     1       0.866   1.299  -0.473  1.00  0.00     0.141 C 
ENDROOT
BRANCH  12  15
HETATM   15  C5  UNL     1      -2.314  -0.453  -0.278  1.00  0.00     0.140 C 
BRANCH  15  16
HETATM   16  C6  UNL     1      -3.565   0.306  -0.576  1.00  0.00     0.245 C 
BRANCH  16  17
HETATM   17  N7  UNL     1      -4.633  -0.262   0.268  1.00  0.00    -0.078 N 
ATOM     18  H73 UNL     1      -4.740  -1.270   0.152  1.00  0.00     0.274 HD
ATOM     19  H72 UNL     1      -4.397  -0.268   1.260  1.00  0.00     0.274 HD
ATOM     20  H71 UNL     1      -5.488   0.256   0.064  1.00  0.00     0.274 HD
ENDBRANCH  16  17
ENDBRANCH  15  16
ENDBRANCH  12  15
TORSDOF 3
