REMARK  5 active torsions:
REMARK  status: ('A' for Active; 'I' for Inactive)
REMARK    1  A    between atoms: N1_2  and  O1_3 
REMARK    2  A    between atoms: C2_5  and  C3_6 
REMARK    3  A    between atoms: C5_10  and  C6_11 
REMARK    4  A    between atoms: C6_11  and  N3_12 
REMARK    5  A    between atoms: C8_18  and  N6_19 
ROOT
HETATM    1  C3  UNL     1       1.755   0.246   0.312  1.00  0.00     0.123 A 
HETATM    2  N2  UNL     1       1.327  -0.384   1.418  1.00  0.00    -0.349 N 
ATOM      3  H2  UNL     1       1.895  -1.019   1.979  1.00  0.00     0.167 HD
HETATM    4  C4  UNL     1       0.047  -0.065   1.686  1.00  0.00     0.116 A 
HETATM    5  C5  UNL     1      -0.340   0.811   0.692  1.00  0.00     0.045 A 
HETATM    6  N7  UNL     1       0.716   0.977  -0.121  1.00  0.00    -0.342 N 
ATOM      7  H7  UNL     1       0.727   1.573  -0.949  1.00  0.00     0.167 HD
ENDROOT
BRANCH   5   8
HETATM    8  C6  UNL     1      -1.692   1.419   0.602  1.00  0.00     0.206 C 
BRANCH   8   9
HETATM    9  N3  UNL     1      -2.562   0.569  -0.191  1.00  0.00    -0.172 N 
HETATM   10  C7  UNL     1      -2.764   0.606  -1.521  1.00  0.00     0.218 A 
HETATM   11  N4  UNL     1      -3.655  -0.359  -1.871  1.00  0.00    -0.281 N 
HETATM   12  N5  UNL     1      -4.012  -0.997  -0.779  1.00  0.00    -0.131 N 
ATOM     13  H4  UNL     1      -3.988  -0.554  -2.815  1.00  0.00     0.188 HD
HETATM   14  C8  UNL     1      -3.341  -0.429   0.258  1.00  0.00     0.694 A 
ATOM     15  H5  UNL     1      -4.670  -1.774  -0.720  1.00  0.00     0.205 HD
BRANCH  14  16
HETATM   16  N6  UNL     1      -3.435  -0.791   1.498  1.00  0.00    -0.233 N 
ATOM     17  H62 UNL     1      -2.932  -0.365   2.276  1.00  0.00     0.174 HD
ATOM     18  H61 UNL     1      -4.027  -1.549   1.839  1.00  0.00     0.174 HD
ENDBRANCH  14  16
ENDBRANCH   8   9
ENDBRANCH   5   8
BRANCH   1  19
HETATM   19  C2  UNL     1       3.097   0.151  -0.299  1.00  0.00     0.164 C 
HETATM   20  N1  UNL     1       3.984  -0.601   0.248  1.00  0.00    -0.273 N 
HETATM   21  C1  UNL     1       5.313  -0.722  -0.320  1.00  0.00     0.184 C 
BRANCH  20  22
HETATM   22  O1  UNL     1       3.709  -1.320   1.392  1.00  0.00    -0.288 OA
ATOM     23  H1  UNL     1       2.838  -1.241   1.764  1.00  0.00     0.244 HD
ENDBRANCH  20  22
ENDBRANCH   1  19
TORSDOF 5
