REMARK  6 active torsions:
REMARK  status: ('A' for Active; 'I' for Inactive)
REMARK    1  A    between atoms: C5_5  and  N1_6 
REMARK    2  A    between atoms: N1_6  and  C6_9 
REMARK    3  A    between atoms: C6_9  and  C7_10 
REMARK    4  A    between atoms: C8_15  and  C9_16 
REMARK    5  A    between atoms: N4_20  and  S1_21 
REMARK    6  A    between atoms: S1_21  and  N5_24 
ROOT
HETATM    1  C7  UNL     1      -1.688  -0.960  -1.313  1.00  0.00     0.166 A 
HETATM    2  N2  UNL     1      -1.528   0.033  -2.199  1.00  0.00    -0.280 N 
ATOM      3  H2  UNL     1      -2.267   0.463  -2.756  1.00  0.00     0.189 HD
HETATM    4  N3  UNL     1      -0.236   0.362  -2.227  1.00  0.00    -0.281 N 
ATOM      5  H3  UNL     1       0.192   1.085  -2.805  1.00  0.00     0.189 HD
HETATM    6  C8  UNL     1       0.395  -0.436  -1.352  1.00  0.00     0.146 A 
HETATM    7  O3  UNL     1      -0.513  -1.218  -0.823  1.00  0.00    -0.280 OA
ENDROOT
BRANCH   6   8
HETATM    8  C9  UNL     1       1.844  -0.411  -1.064  1.00  0.00     0.081 C 
HETATM    9  C10 UNL     1       2.493  -1.754  -1.272  1.00  0.00     0.016 C 
HETATM   10  C11 UNL     1       3.241  -2.224  -0.048  1.00  0.00     0.021 C 
HETATM   11  C12 UNL     1       4.166  -1.136   0.517  1.00  0.00     0.137 C 
HETATM   12  N4  UNL     1       3.461   0.065   0.612  1.00  0.00    -0.293 N 
HETATM   13  C17 UNL     1       2.060  -0.071   0.411  1.00  0.00     0.149 C 
BRANCH  12  14
HETATM   14  S1  UNL     1       3.924   1.238   1.724  1.00  0.00     0.322 S 
HETATM   15  O1  UNL     1       3.751   0.768   3.156  1.00  0.00    -0.182 OA
HETATM   16  O2  UNL     1       2.971   2.426   1.550  1.00  0.00    -0.182 OA
BRANCH  14  17
HETATM   17  N5  UNL     1       5.484   1.813   1.425  1.00  0.00    -0.274 N 
HETATM   18  C13 UNL     1       6.573   0.931   1.492  1.00  0.00     0.077 C 
HETATM   19  C14 UNL     1       7.297   1.078   0.171  1.00  0.00     0.047 C 
HETATM   20  C15 UNL     1       6.964   2.454  -0.298  1.00  0.00     0.026 C 
HETATM   21  C16 UNL     1       5.578   2.664   0.281  1.00  0.00     0.142 C 
ENDBRANCH  14  17
ENDBRANCH  12  14
ENDBRANCH   6   8
BRANCH   1  22
HETATM   22  C6  UNL     1      -2.982  -1.604  -0.994  1.00  0.00     0.318 C 
BRANCH  22  23
HETATM   23  N1  UNL     1      -3.632  -0.901   0.091  1.00  0.00    -0.064 N 
ATOM     24  H12 UNL     1      -3.737   0.090  -0.125  1.00  0.00     0.278 HD
ATOM     25  H11 UNL     1      -3.017  -0.828   0.901  1.00  0.00     0.278 HD
BRANCH  23  26
HETATM   26  C5  UNL     1      -4.893  -1.487   0.451  1.00  0.00     0.186 C 
HETATM   27  C4  UNL     1      -5.893  -1.442  -0.662  1.00  0.00     0.033 C 
HETATM   28  C3  UNL     1      -6.023  -0.009  -1.110  1.00  0.00     0.006 C 
HETATM   29  C2  UNL     1      -6.643   0.764   0.030  1.00  0.00    -0.019 C 
HETATM   30  C1  UNL     1      -5.974   2.104   0.145  1.00  0.00     0.010 C 
HETATM   31  C19 UNL     1      -6.712   0.003   1.311  1.00  0.00     0.006 C 
HETATM   32  C18 UNL     1      -5.479  -0.770   1.649  1.00  0.00     0.033 C 
ENDBRANCH  23  26
ENDBRANCH  22  23
ENDBRANCH   1  22
TORSDOF 6
