REMARK  3 active torsions:
REMARK  status: ('A' for Active; 'I' for Inactive)
REMARK    1  A    between atoms: N1_1  and  C1_4 
REMARK    2  A    between atoms: C2_7  and  C3_8 
REMARK       I    between atoms: C3_8  and  N3_10 
REMARK    3  A    between atoms: N3_10  and  N4_12 
ROOT
HETATM    1  C1  UNL     1      -1.904  -0.849   0.665  1.00  0.00     0.681 A 
HETATM    2  N2  UNL     1      -0.586  -0.974   0.423  1.00  0.00    -0.171 N 
ATOM      3  H2  UNL     1      -0.097  -1.801   0.767  1.00  0.00     0.186 HD
HETATM    4  C2  UNL     1       0.112  -0.036  -0.263  1.00  0.00     0.195 A 
HETATM    5  N5  UNL     1      -0.513   1.043  -0.713  1.00  0.00    -0.289 N 
ATOM      6  H5  UNL     1      -0.004   1.759  -1.231  1.00  0.00     0.172 HD
HETATM    7  C4  UNL     1      -1.831   1.177  -0.475  1.00  0.00     0.340 A 
HETATM    8  O2  UNL     1      -2.410   2.207  -0.909  1.00  0.00    -0.246 OA
HETATM    9  N6  UNL     1      -2.538   0.237   0.214  1.00  0.00    -0.141 N 
ATOM     10  H6  UNL     1      -3.536   0.361   0.383  1.00  0.00     0.189 HD
ENDROOT
BRANCH   4  11
HETATM   11  C3  UNL     1       1.550  -0.232  -0.494  1.00  0.00     0.304 C 
HETATM   12  O1  UNL     1       2.116  -1.262  -0.057  1.00  0.00    -0.263 OA
HETATM   13  N3  UNL     1       2.269   0.758  -1.214  1.00  0.00    -0.270 N 
ATOM     14  H3  UNL     1       1.795   1.590  -1.564  1.00  0.00     0.189 HD
BRANCH  13  15
HETATM   15  N4  UNL     1       3.635   0.574  -1.435  1.00  0.00    -0.342 N 
ATOM     16  H42 UNL     1       4.094  -0.264  -1.078  1.00  0.00     0.176 HD
ATOM     17  H41 UNL     1       4.152   1.285  -1.952  1.00  0.00     0.176 HD
ENDBRANCH  13  15
ENDBRANCH   4  11
BRANCH   1  18
HETATM   18  N1  UNL     1      -2.518  -1.774   1.323  1.00  0.00    -0.234 N 
ATOM     19  H12 UNL     1      -2.034  -2.603   1.667  1.00  0.00     0.174 HD
ATOM     20  H11 UNL     1      -3.517  -1.679   1.506  1.00  0.00     0.174 HD
ENDBRANCH   1  18
TORSDOF 3
