REMARK  3 active torsions:
REMARK  status: ('A' for Active; 'I' for Inactive)
REMARK    1  A    between atoms: N1_1  and  N2_4 
REMARK       I    between atoms: N2_4  and  C1_6 
REMARK    2  A    between atoms: C1_6  and  C2_8 
REMARK    3  A    between atoms: N5_15  and  N6_16 
ROOT
HETATM    1  C2  UNL     1       0.288  -0.009  -0.197  1.00  0.00     0.171 A 
HETATM    2  C3  UNL     1       1.000   0.498  -1.298  1.00  0.00     0.155 A 
HETATM    3  N3  UNL     1       0.503   1.312  -2.346  1.00  0.00    -0.080 NA
HETATM    4  N4  UNL     1       2.266   0.055  -1.164  1.00  0.00    -0.293 N 
ATOM      5  H4  UNL     1       3.037   0.249  -1.804  1.00  0.00     0.172 HD
HETATM    6  C4  UNL     1       2.340  -0.681  -0.051  1.00  0.00     0.347 A 
HETATM    7  O2  UNL     1       3.349  -1.266   0.416  1.00  0.00    -0.245 OA
HETATM    8  N5  UNL     1       1.125  -0.729   0.556  1.00  0.00    -0.203 N 
ENDROOT
BRANCH   1   9
HETATM    9  C1  UNL     1      -1.140   0.276  -0.015  1.00  0.00     0.291 C 
HETATM   10  N2  UNL     1      -1.942  -0.176   1.040  1.00  0.00    -0.271 N 
ATOM     11  H2  UNL     1      -1.535  -0.760   1.771  1.00  0.00     0.189 HD
HETATM   12  O1  UNL     1      -1.742   1.007  -0.888  1.00  0.00    -0.264 OA
BRANCH  10  13
HETATM   13  N1  UNL     1      -3.291   0.166   1.099  1.00  0.00    -0.342 N 
ATOM     14  H12 UNL     1      -3.682   0.751   0.360  1.00  0.00     0.176 HD
ATOM     15  H11 UNL     1      -3.875  -0.163   1.868  1.00  0.00     0.176 HD
ENDBRANCH  10  13
ENDBRANCH   1   9
BRANCH   8  16
HETATM   16  N6  UNL     1       0.806  -1.398   1.736  1.00  0.00    -0.334 N 
ATOM     17  H62 UNL     1      -0.106  -1.434   2.192  1.00  0.00     0.177 HD
ATOM     18  H61 UNL     1       1.445  -1.948   2.311  1.00  0.00     0.177 HD
ENDBRANCH   8  16
TORSDOF 3
