REMARK  7 active torsions:
REMARK  status: ('A' for Active; 'I' for Inactive)
REMARK    1  A    between atoms: C2_2  and  C3_3 
REMARK    2  A    between atoms: C14_16  and  C15_17 
REMARK    3  A    between atoms: C20_23  and  O3_24 
REMARK    4  A    between atoms: C21_26  and  C22_27 
REMARK       I    between atoms: C22_27  and  N2_29 
REMARK    5  A    between atoms: N2_29  and  C23_31 
REMARK    6  A    between atoms: C23_31  and  C24_32 
REMARK    7  A    between atoms: C24_32  and  O6_34 
ROOT
HETATM    1  C3  UNL     1       1.027  -2.268  -0.319  1.00  0.00     0.057 C 
HETATM    2  C4  UNL     1       1.422  -3.439   0.577  1.00  0.00     0.009 C 
HETATM    3  C5  UNL     1       0.416  -3.692   1.362  1.00  0.00     0.091 C 
HETATM    4  N1  UNL     1      -0.672  -2.813   1.118  1.00  0.00    -0.327 N 
HETATM    5  C6  UNL     1      -0.489  -2.412  -0.266  1.00  0.00     0.152 C 
HETATM    6  C7  UNL     1      -1.707  -2.391   1.960  1.00  0.00     0.228 C 
HETATM    7  O1  UNL     1      -1.716  -2.640   3.202  1.00  0.00    -0.273 OA
HETATM    8  C8  UNL     1      -2.894  -1.609   1.470  1.00  0.00     0.078 C 
HETATM    9  C9  UNL     1      -4.094  -2.505   1.642  1.00  0.00     0.020 C 
HETATM   10  C10 UNL     1      -2.972  -0.355   2.291  1.00  0.00    -0.006 C 
HETATM   11  C11 UNL     1      -4.408   0.040   2.555  1.00  0.00     0.011 C 
HETATM   12  C12 UNL     1      -2.187   0.763   1.646  1.00  0.00     0.007 C 
HETATM   13  C13 UNL     1      -3.032   1.478   0.656  1.00  0.00     0.033 C 
HETATM   14  C14 UNL     1      -2.203   2.235  -0.400  1.00  0.00     0.125 C 
HETATM   15  O2  UNL     1      -1.262   1.392  -0.841  1.00  0.00    -0.378 OA
HETATM   16  C18 UNL     1      -0.083   1.873  -1.326  1.00  0.00     0.147 C 
HETATM   17  C19 UNL     1       0.542   2.995  -0.600  1.00  0.00     0.042 C 
HETATM   18  C20 UNL     1       0.892   0.677  -1.454  1.00  0.00     0.167 C 
HETATM   19  C21 UNL     1       1.555   0.336  -0.188  1.00  0.00     0.179 C 
HETATM   20  C26 UNL     1       1.397  -1.035   0.339  1.00  0.00     0.156 C 
HETATM   21  O7  UNL     1       1.624  -1.153   1.578  1.00  0.00    -0.296 OA
ENDROOT
BRANCH  19  22
HETATM   22  C22 UNL     1       2.988   0.677  -0.105  1.00  0.00     0.232 C 
HETATM   23  O4  UNL     1       3.356   1.401   0.855  1.00  0.00    -0.273 OA
HETATM   24  N2  UNL     1       3.989   0.272  -0.993  1.00  0.00    -0.351 N 
ATOM     25  H2  UNL     1       3.710  -0.313  -1.781  1.00  0.00     0.163 HD
BRANCH  24  26
HETATM   26  C23 UNL     1       5.380   0.614  -0.884  1.00  0.00     0.233 C 
BRANCH  26  27
HETATM   27  C24 UNL     1       6.040   0.138   0.343  1.00  0.00     0.276 C 
HETATM   28  O5  UNL     1       5.417  -0.531   1.199  1.00  0.00    -0.263 OA
BRANCH  27  29
HETATM   29  O6  UNL     1       7.373   0.404   0.612  1.00  0.00    -0.325 OA
HETATM   30  C25 UNL     1       8.008  -0.047   1.780  1.00  0.00     0.213 C 
ENDBRANCH  27  29
ENDBRANCH  26  27
ENDBRANCH  24  26
ENDBRANCH  19  22
BRANCH  18  31
HETATM   31  O3  UNL     1       1.805   1.069  -2.466  1.00  0.00    -0.392 OA
ATOM     32  H3  UNL     1       2.403   0.335  -2.545  1.00  0.00     0.210 HD
ENDBRANCH  18  31
BRANCH   1  33
HETATM   33  C2  UNL     1       1.624  -2.616  -1.620  1.00  0.00     0.018 C 
HETATM   34  C1  UNL     1       1.003  -3.953  -2.054  1.00  0.00     0.006 C 
ENDBRANCH   1  33
BRANCH  14  35
HETATM   35  C15 UNL     1      -3.212   2.695  -1.429  1.00  0.00     0.006 C 
HETATM   36  C16 UNL     1      -4.254   3.602  -0.805  1.00  0.00     0.012 C 
HETATM   37  C17 UNL     1      -2.629   3.405  -2.600  1.00  0.00     0.012 C 
ENDBRANCH  14  35
TORSDOF 7
