REMARK  6 active torsions:
REMARK  status: ('A' for Active; 'I' for Inactive)
REMARK    1  A    between atoms: C2_2  and  N1_3 
REMARK    2  A    between atoms: C2_2  and  N2_7 
REMARK    3  A    between atoms: N2_7  and  C4_9 
REMARK    4  A    between atoms: C4_9  and  C5_10 
REMARK    5  A    between atoms: C5_10  and  N3_11 
REMARK    6  A    between atoms: N3_11  and  C6_13 
ROOT
HETATM    1  N2  UNL     1      -1.352   0.462   0.619  1.00  0.00    -0.390 N 
HETATM    2  C3  UNL     1      -1.445  -0.555   1.597  1.00  0.00     0.145 C 
ENDROOT
BRANCH   1   3
HETATM    3  C2  UNL     1      -2.308   0.458  -0.431  1.00  0.00     0.275 C 
HETATM    4  C1  UNL     1      -3.744   0.663   0.031  1.00  0.00     0.063 C 
BRANCH   3   5
HETATM    5  N1  UNL     1      -2.325  -0.854  -1.100  1.00  0.00    -0.059 N 
ATOM      6  H13 UNL     1      -2.690  -1.612  -0.523  1.00  0.00     0.276 HD
ATOM      7  H12 UNL     1      -3.018  -0.935  -1.844  1.00  0.00     0.276 HD
ATOM      8  H11 UNL     1      -1.363  -0.991  -1.410  1.00  0.00     0.276 HD
ENDBRANCH   3   5
ENDBRANCH   1   3
BRANCH   1   9
HETATM    9  C4  UNL     1      -0.047   0.824   0.198  1.00  0.00     0.137 C 
BRANCH   9  10
HETATM   10  C5  UNL     1       0.646  -0.161  -0.703  1.00  0.00     0.133 C 
BRANCH  10  11
HETATM   11  N3  UNL     1       1.956   0.335  -1.046  1.00  0.00    -0.416 N 
ATOM     12  H3  UNL     1       2.198   0.633  -1.991  1.00  0.00     0.153 HD
BRANCH  11  13
HETATM   13  C6  UNL     1       2.889   0.379   0.033  1.00  0.00     0.076 A 
HETATM   14  C7  UNL     1       3.360  -0.787   0.773  1.00  0.00     0.027 A 
HETATM   15  C8  UNL     1       4.223  -0.328  -0.325  1.00  0.00     0.027 A 
ENDBRANCH  11  13
ENDBRANCH  10  11
ENDBRANCH   9  10
ENDBRANCH   1   9
TORSDOF 6
