REMARK  5 active torsions:
REMARK  status: ('A' for Active; 'I' for Inactive)
REMARK    1  A    between atoms: C2_2  and  C3_3 
REMARK    2  A    between atoms: C3_3  and  N1_4 
REMARK    3  A    between atoms: N1_4  and  S1_6 
REMARK    4  A    between atoms: S1_6  and  C4_8 
REMARK    5  A    between atoms: C4_8  and  N2_9 
ROOT
HETATM    1  N2  UNL     1      -3.007  -0.441  -0.258  1.00  0.00    -0.316 N 
ATOM      2  H2  UNL     1      -3.514  -0.449  -1.143  1.00  0.00     0.172 HD
HETATM    3  C5  UNL     1      -3.230   0.551   0.716  1.00  0.00     0.178 C 
HETATM    4  N3  UNL     1      -3.421   1.366   1.510  1.00  0.00    -0.172 NA
ENDROOT
BRANCH   1   5
HETATM    5  C4  UNL     1      -2.003  -1.465   0.071  1.00  0.00     0.262 C 
BRANCH   5   6
HETATM    6  S1  UNL     1      -0.620  -0.687   0.778  1.00  0.00     0.129 S 
HETATM    7  O1  UNL     1       0.351  -1.770   1.557  1.00  0.00    -0.234 OA
BRANCH   6   8
HETATM    8  N1  UNL     1       0.110   0.468  -0.191  1.00  0.00    -0.336 N 
ATOM      9  H1  UNL     1      -0.402   1.272  -0.554  1.00  0.00     0.170 HD
BRANCH   8  10
HETATM   10  C3  UNL     1       1.522   0.254  -0.484  1.00  0.00     0.156 C 
BRANCH  10  11
HETATM   11  C2  UNL     1       2.298   1.337   0.204  1.00  0.00    -0.017 C 
HETATM   12  C1  UNL     1       3.209   0.945   1.053  1.00  0.00     0.008 C 
ENDBRANCH  10  11
ENDBRANCH   8  10
ENDBRANCH   6   8
ENDBRANCH   5   6
ENDBRANCH   1   5
TORSDOF 5
