REMARK  14 active torsions:
REMARK  status: ('A' for Active; 'I' for Inactive)
REMARK    1  A    between atoms: O1_2  and  N1_3 
REMARK    2  A    between atoms: N1_3  and  C2_5 
REMARK    3  A    between atoms: C6_9  and  C7_10 
REMARK    4  A    between atoms: C7_10  and  O2_11 
REMARK    5  A    between atoms: C7_10  and  C8_13 
REMARK    6  A    between atoms: C8_13  and  O3_14 
REMARK    7  A    between atoms: C8_13  and  C9_16 
REMARK    8  A    between atoms: C9_16  and  O4_17 
REMARK    9  A    between atoms: C9_16  and  C10_19 
REMARK   10  A    between atoms: C10_19  and  O5_20 
REMARK   11  A    between atoms: C11_22  and  C13_24 
REMARK   12  A    between atoms: C20_34  and  O9_35 
REMARK   13  A    between atoms: C21_37  and  O10_38 
REMARK   14  A    between atoms: O10_38  and  S1_39 
ROOT
HETATM    1  C2  UNL     1      -1.599  -1.300   0.708  1.00  0.00     0.043 C 
HETATM    2  C3  UNL     1      -0.319  -1.727   0.239  1.00  0.00     0.039 C 
HETATM    3  C4  UNL     1       0.482  -1.038  -0.766  1.00  0.00     0.088 C 
HETATM    4  C5  UNL     1       1.500  -0.128  -0.036  1.00  0.00     0.053 C 
HETATM    5  C6  UNL     1       2.783  -0.435  -0.728  1.00  0.00     0.065 C 
HETATM    6  C11 UNL     1       2.612  -1.832  -1.131  1.00  0.00     0.152 C 
HETATM    7  C12 UNL     1       3.150  -1.998  -2.576  1.00  0.00     0.059 C 
HETATM    8  O8  UNL     1       1.286  -2.124  -1.230  1.00  0.00    -0.353 OA
HETATM    9  C14 UNL     1       0.031  -0.324  -1.930  1.00  0.00     0.041 A 
HETATM   10  C15 UNL     1      -1.255  -0.361  -2.557  1.00  0.00     0.007 A 
HETATM   11  C16 UNL     1      -2.340  -1.259  -2.103  1.00  0.00     0.012 C 
HETATM   12  C17 UNL     1      -3.208  -0.664  -1.152  1.00  0.00     0.003 C 
HETATM   13  C18 UNL     1      -4.709  -0.883  -1.136  1.00  0.00     0.009 C 
HETATM   14  C19 UNL     1      -5.006  -0.022   0.100  1.00  0.00     0.042 C 
HETATM   15  C20 UNL     1      -3.640   0.177   0.816  1.00  0.00     0.102 C 
HETATM   16  C21 UNL     1      -3.098   1.514   0.566  1.00  0.00     0.203 C 
HETATM   17  C22 UNL     1      -1.689   1.800   0.243  1.00  0.00     0.006 C 
HETATM   18  C23 UNL     1      -1.187   1.850  -1.135  1.00  0.00    -0.018 C 
HETATM   19  C24 UNL     1      -0.833   0.877  -2.107  1.00  0.00    -0.015 A 
HETATM   20  C25 UNL     1      -0.403   1.778  -3.364  1.00  0.00     0.020 C 
HETATM   21  C26 UNL     1      -2.930  -0.997   0.257  1.00  0.00     0.038 C 
HETATM   22  C27 UNL     1      -3.714  -2.284   0.574  1.00  0.00     0.025 C 
ENDROOT
BRANCH   1  23
HETATM   23  N1  UNL     1      -1.633  -1.139   2.012  1.00  0.00    -0.271 N 
ATOM     24  H1  UNL     1      -2.514  -0.834   2.426  1.00  0.00     0.194 HD
BRANCH  23  25
HETATM   25  O1  UNL     1      -0.592  -1.347   2.844  1.00  0.00    -0.285 OA
HETATM   26  C1  UNL     1      -0.869  -1.754   4.173  1.00  0.00     0.237 C 
ENDBRANCH  23  25
ENDBRANCH   1  23
BRANCH   5  27
HETATM   27  C7  UNL     1       4.026   0.122  -0.235  1.00  0.00     0.157 C 
BRANCH  27  28
HETATM   28  O2  UNL     1       5.055  -0.361  -1.066  1.00  0.00    -0.392 OA
ATOM     29  H2  UNL     1       5.870   0.004  -0.743  1.00  0.00     0.210 HD
ENDBRANCH  27  28
BRANCH  27  30
HETATM   30  C8  UNL     1       4.373   0.160   1.191  1.00  0.00     0.178 C 
BRANCH  30  31
HETATM   31  O3  UNL     1       3.324   0.708   1.952  1.00  0.00    -0.390 OA
ATOM     32  H3  UNL     1       3.549   0.733   2.875  1.00  0.00     0.210 HD
ENDBRANCH  30  31
BRANCH  30  33
HETATM   33  C9  UNL     1       5.565   1.027   1.513  1.00  0.00     0.172 C 
BRANCH  33  34
HETATM   34  O4  UNL     1       6.728   0.685   0.863  1.00  0.00    -0.391 OA
ATOM     35  H4  UNL     1       7.479   1.231   1.066  1.00  0.00     0.210 HD
ENDBRANCH  33  34
BRANCH  33  36
HETATM   36  C10 UNL     1       5.292   2.491   1.579  1.00  0.00     0.198 C 
BRANCH  36  37
HETATM   37  O5  UNL     1       5.196   3.141   0.360  1.00  0.00    -0.398 OA
ATOM     38  H5  UNL     1       5.022   4.074   0.402  1.00  0.00     0.209 HD
ENDBRANCH  36  37
ENDBRANCH  33  36
ENDBRANCH  30  33
ENDBRANCH  27  30
ENDBRANCH   5  27
BRANCH   6  39
HETATM   39  C13 UNL     1       3.228  -2.903  -0.326  1.00  0.00     0.209 C 
HETATM   40  O6  UNL     1       2.563  -3.818   0.223  1.00  0.00    -0.646 OA
HETATM   41  O7  UNL     1       4.584  -3.021  -0.092  1.00  0.00    -0.646 OA
ENDBRANCH   6  39
BRANCH  15  42
HETATM   42  O9  UNL     1      -3.911  -0.120   2.169  1.00  0.00    -0.386 OA
ATOM     43  H9  UNL     1      -3.076   0.002   2.606  1.00  0.00     0.210 HD
ENDBRANCH  15  42
BRANCH  16  44
HETATM   44  O10 UNL     1      -3.524   2.237   1.729  1.00  0.00    -0.244 OA
BRANCH  44  45
HETATM   45  S1  UNL     1      -4.606   3.429   1.424  1.00  0.00     0.252 S 
HETATM   46  O11 UNL     1      -4.653   3.870  -0.006  1.00  0.00    -0.572 OA
HETATM   47  O12 UNL     1      -4.253   4.641   2.251  1.00  0.00    -0.572 OA
HETATM   48  O13 UNL     1      -6.136   2.927   1.953  1.00  0.00    -0.572 OA
ENDBRANCH  44  45
ENDBRANCH  16  44
TORSDOF 14
