REMARK  10 active torsions:
REMARK  status: ('A' for Active; 'I' for Inactive)
REMARK    1  A    between atoms: N1_1  and  C1_5 
REMARK    2  A    between atoms: C1_5  and  C2_6 
REMARK    3  A    between atoms: C2_6  and  C3_7 
REMARK    4  A    between atoms: C3_7  and  C4_8 
REMARK    5  A    between atoms: C4_8  and  C5_9 
REMARK    6  A    between atoms: C5_9  and  N2_10 
REMARK    7  A    between atoms: N2_10  and  C6_13 
REMARK    8  A    between atoms: C6_13  and  C7_14 
REMARK    9  A    between atoms: C10_17  and  C11_18 
REMARK   10  A    between atoms: C11_18  and  N3_19 
ROOT
HETATM    1  N3  UNL     1       0.642   0.336   0.900  1.00  0.00     0.094 N 
HETATM    2  C12 UNL     1       1.189   1.595   0.547  1.00  0.00     0.274 C 
HETATM    3  C13 UNL     1       0.238   2.637   0.049  1.00  0.00     0.057 C 
HETATM    4  C14 UNL     1       0.025   3.655   1.144  1.00  0.00     0.234 C 
HETATM    5  N4  UNL     1      -1.113   4.483   0.940  1.00  0.00    -0.073 N 
ATOM      6  H41 UNL     1      -0.998   5.371   1.429  1.00  0.00     0.277 HD
ATOM      7  H42 UNL     1      -1.919   4.109   1.442  1.00  0.00     0.277 HD
HETATM    8  C15 UNL     1      -1.447   4.713  -0.447  1.00  0.00     0.259 C 
HETATM    9  C16 UNL     1      -2.974   4.590  -0.559  1.00  0.00     0.259 C 
HETATM   10  N5  UNL     1      -3.403   3.362   0.043  1.00  0.00    -0.072 N 
ATOM     11  H51 UNL     1      -4.030   3.538   0.828  1.00  0.00     0.277 HD
ATOM     12  H52 UNL     1      -2.636   2.911   0.542  1.00  0.00     0.277 HD
HETATM   13  C17 UNL     1      -4.006   2.456  -0.910  1.00  0.00     0.251 C 
HETATM   14  C18 UNL     1      -5.478   2.852  -1.085  1.00  0.00     0.141 C 
HETATM   15  N6  UNL     1      -6.260   1.843  -0.450  1.00  0.00    -0.420 N 
ATOM     16  H6  UNL     1      -5.862   0.944  -0.178  1.00  0.00     0.153 HD
HETATM   17  C19 UNL     1      -7.633   2.163  -0.216  1.00  0.00     0.115 C 
HETATM   18  C20 UNL     1      -8.170   1.326   0.934  1.00  0.00     0.046 C 
HETATM   19  C21 UNL     1      -8.566  -0.068   0.458  1.00  0.00     0.234 C 
HETATM   20  N7  UNL     1      -7.528  -1.040   0.649  1.00  0.00    -0.071 N 
ATOM     21  H71 UNL     1      -7.810  -1.745   1.330  1.00  0.00     0.277 HD
ATOM     22  H72 UNL     1      -6.736  -0.634   1.147  1.00  0.00     0.277 HD
HETATM   23  C22 UNL     1      -7.094  -1.665  -0.598  1.00  0.00     0.271 C 
HETATM   24  C23 UNL     1      -6.626  -3.035  -0.330  1.00  0.00    -0.025 A 
HETATM   25  C24 UNL     1      -7.635  -3.959  -0.021  1.00  0.00     0.009 A 
HETATM   26  C25 UNL     1      -7.351  -5.277   0.255  1.00  0.00     0.001 A 
HETATM   27  C26 UNL     1      -6.059  -5.714   0.230  1.00  0.00     0.001 A 
HETATM   28  C27 UNL     1      -5.062  -4.796  -0.077  1.00  0.00     0.009 A 
HETATM   29  C28 UNL     1      -5.319  -3.465  -0.357  1.00  0.00    -0.033 A 
HETATM   30  C29 UNL     1      -4.180  -2.539  -0.666  1.00  0.00     0.161 C 
HETATM   31  N8  UNL     1      -3.050  -3.246  -1.153  1.00  0.00    -0.360 N 
ATOM     32  H8  UNL     1      -3.170  -3.703  -2.057  1.00  0.00     0.162 HD
HETATM   33  C30 UNL     1      -1.773  -3.401  -0.548  1.00  0.00     0.184 C 
HETATM   34  N9  UNL     1      -1.180  -4.738  -0.702  1.00  0.00    -0.064 NA
HETATM   35  N10 UNL     1      -1.107  -2.558   0.071  1.00  0.00    -0.363 N 
ATOM     36  H10 UNL     1      -0.230  -2.972   0.387  1.00  0.00     0.162 HD
HETATM   37  C31 UNL     1      -1.175  -1.228   0.472  1.00  0.00     0.152 C 
HETATM   38  C32 UNL     1      -0.037  -0.358  -0.129  1.00  0.00     0.292 C 
ENDROOT
BRANCH   1  39
HETATM   39  C11 UNL     1       1.668  -0.451   1.511  1.00  0.00     0.318 C 
BRANCH  39  40
HETATM   40  C10 UNL     1       2.939  -0.388   0.687  1.00  0.00     0.011 A 
HETATM   41  C9  UNL     1       3.371  -1.109  -0.373  1.00  0.00     0.017 A 
HETATM   42  C8  UNL     1       4.577  -0.818  -0.887  1.00  0.00     0.017 A 
HETATM   43  C7  UNL     1       5.287   0.190  -0.299  1.00  0.00     0.008 A 
HETATM   44  S1  UNL     1       4.264   0.708   0.942  1.00  0.00    -0.096 SA
BRANCH  43  45
HETATM   45  C6  UNL     1       6.703   0.603  -0.632  1.00  0.00     0.278 C 
BRANCH  45  46
HETATM   46  N2  UNL     1       7.243   0.951   0.700  1.00  0.00    -0.071 N 
ATOM     47  H22 UNL     1       6.533   0.984   1.432  1.00  0.00     0.277 HD
ATOM     48  H21 UNL     1       7.544   1.923   0.777  1.00  0.00     0.277 HD
BRANCH  46  49
HETATM   49  C5  UNL     1       8.274   0.018   0.955  1.00  0.00     0.232 C 
BRANCH  49  50
HETATM   50  C4  UNL     1       9.481   0.185   0.078  1.00  0.00     0.027 C 
BRANCH  50  51
HETATM   51  C3  UNL     1      10.388  -0.970   0.461  1.00  0.00     0.003 C 
BRANCH  51  52
HETATM   52  C2  UNL     1      11.670  -1.113  -0.222  1.00  0.00     0.027 C 
BRANCH  52  53
HETATM   53  C1  UNL     1      12.686  -0.038  -0.073  1.00  0.00     0.229 C 
BRANCH  53  54
HETATM   54  N1  UNL     1      12.324   1.262  -0.535  1.00  0.00    -0.079 N 
ATOM     55  H13 UNL     1      12.027   1.207  -1.509  1.00  0.00     0.274 HD
ATOM     56  H12 UNL     1      11.454   1.552  -0.089  1.00  0.00     0.274 HD
ATOM     57  H11 UNL     1      13.021   2.000  -0.433  1.00  0.00     0.274 HD
ENDBRANCH  53  54
ENDBRANCH  52  53
ENDBRANCH  51  52
ENDBRANCH  50  51
ENDBRANCH  49  50
ENDBRANCH  46  49
ENDBRANCH  45  46
ENDBRANCH  43  45
ENDBRANCH  39  40
ENDBRANCH   1  39
TORSDOF 10
