REMARK  11 active torsions:
REMARK  status: ('A' for Active; 'I' for Inactive)
REMARK    1  A    between atoms: C2_2  and  O1_3 
REMARK    2  A    between atoms: C2_2  and  C23_41 
REMARK    3  A    between atoms: O1_3  and  C3_4 
REMARK       I    between atoms: C3_4  and  N1_6 
REMARK    4  A    between atoms: N1_6  and  C4_8 
REMARK    5  A    between atoms: C4_8  and  C5_9 
REMARK    6  A    between atoms: C5_9  and  C6_10 
REMARK    7  A    between atoms: C6_10  and  C7_11 
REMARK    8  A    between atoms: C7_11  and  S1_12 
REMARK    9  A    between atoms: S1_12  and  S2_13 
REMARK   10  A    between atoms: S2_13  and  C8_14 
REMARK   11  A    between atoms: C24_44  and  N7_45 
ROOT
HETATM    1  S2  UNL     1       0.520  -0.088  -2.716  1.00  0.00    -0.044 SA
ENDROOT
BRANCH   1   2
HETATM    2  S1  UNL     1       1.898   1.424  -2.275  1.00  0.00    -0.091 SA
BRANCH   2   3
HETATM    3  C7  UNL     1       3.029   0.958  -0.908  1.00  0.00     0.086 C 
BRANCH   3   4
HETATM    4  C6  UNL     1       2.240   0.848   0.339  1.00  0.00     0.012 C 
BRANCH   4   5
HETATM    5  C5  UNL     1       2.983   0.518   1.586  1.00  0.00     0.020 C 
BRANCH   5   6
HETATM    6  C4  UNL     1       3.709  -0.770   1.642  1.00  0.00     0.125 C 
BRANCH   6   7
HETATM    7  N1  UNL     1       4.765  -0.906   0.696  1.00  0.00    -0.337 N 
HETATM    8  C3  UNL     1       5.916  -0.070   0.656  1.00  0.00     0.361 C 
HETATM    9  O2  UNL     1       6.060   0.861   1.486  1.00  0.00    -0.238 OA
ATOM     10  H1  UNL     1       4.692  -1.650   0.003  1.00  0.00     0.164 HD
BRANCH   8  11
HETATM   11  O1  UNL     1       6.892  -0.261  -0.288  1.00  0.00    -0.291 OA
BRANCH  11  12
HETATM   12  C2  UNL     1       8.064   0.514  -0.408  1.00  0.00     0.198 C 
HETATM   13  C1  UNL     1       8.097   1.123  -1.806  1.00  0.00     0.048 C 
BRANCH  12  14
HETATM   14  C23 UNL     1       9.263  -0.350  -0.301  1.00  0.00     0.142 A 
HETATM   15  N6  UNL     1       9.273  -1.525  -0.952  1.00  0.00    -0.177 N 
HETATM   16  C24 UNL     1      10.334  -2.348  -0.900  1.00  0.00     0.691 A 
ATOM     17  H6  UNL     1       8.456  -1.799  -1.498  1.00  0.00     0.185 HD
HETATM   18  N8  UNL     1      11.419  -2.023  -0.197  1.00  0.00    -0.023 N 
HETATM   19  C25 UNL     1      11.435  -0.855   0.462  1.00  0.00     0.691 A 
ATOM     20  H8  UNL     1      12.222  -2.651  -0.161  1.00  0.00     0.203 HD
HETATM   21  N9  UNL     1      12.448  -0.496   1.147  1.00  0.00    -0.234 N 
HETATM   22  N10 UNL     1      10.349  -0.024   0.402  1.00  0.00    -0.177 N 
ATOM     23  H92 UNL     1      13.257  -1.115   1.192  1.00  0.00     0.174 HD
ATOM     24  H91 UNL     1      12.460   0.392   1.648  1.00  0.00     0.174 HD
ATOM     25  H10 UNL     1      10.370   0.863   0.905  1.00  0.00     0.185 HD
BRANCH  16  26
HETATM   26  N7  UNL     1      10.265  -3.475  -1.560  1.00  0.00    -0.234 N 
ATOM     27  H72 UNL     1       9.435  -3.724  -2.098  1.00  0.00     0.174 HD
ATOM     28  H71 UNL     1      11.070  -4.100  -1.521  1.00  0.00     0.174 HD
ENDBRANCH  16  26
ENDBRANCH  12  14
ENDBRANCH  11  12
ENDBRANCH   8  11
ENDBRANCH   6   7
ENDBRANCH   5   6
ENDBRANCH   4   5
ENDBRANCH   3   4
ENDBRANCH   2   3
ENDBRANCH   1   2
BRANCH   1  29
HETATM   29  C8  UNL     1      -1.020   0.077  -1.791  1.00  0.00     0.059 C 
HETATM   30  N2  UNL     1      -1.875  -0.883  -1.877  1.00  0.00    -0.324 N 
HETATM   31  C9  UNL     1      -3.116  -1.031  -1.290  1.00  0.00     0.223 C 
ATOM     32  H2  UNL     1      -1.589  -1.658  -2.475  1.00  0.00     0.169 HD
HETATM   33  O3  UNL     1      -4.255  -0.927  -1.867  1.00  0.00    -0.273 OA
HETATM   34  C10 UNL     1      -3.210  -1.349   0.179  1.00  0.00     0.130 C 
HETATM   35  C11 UNL     1      -3.685  -2.781   0.346  1.00  0.00     0.241 C 
HETATM   36  N3  UNL     1      -4.190  -3.030   1.660  1.00  0.00    -0.074 N 
HETATM   37  C12 UNL     1      -5.420  -2.338   1.965  1.00  0.00     0.241 C 
ATOM     38  H32 UNL     1      -4.297  -4.032   1.817  1.00  0.00     0.277 HD
ATOM     39  H31 UNL     1      -3.479  -2.819   2.361  1.00  0.00     0.277 HD
HETATM   40  C13 UNL     1      -6.470  -2.541   0.920  1.00  0.00     0.130 C 
HETATM   41  C14 UNL     1      -7.748  -2.017   1.425  1.00  0.00     0.219 C 
HETATM   42  O4  UNL     1      -8.173  -2.497   2.532  1.00  0.00    -0.274 OA
HETATM   43  N4  UNL     1      -8.538  -1.041   0.804  1.00  0.00    -0.361 N 
HETATM   44  C15 UNL     1      -8.147  -0.191  -0.289  1.00  0.00     0.122 C 
ATOM     45  H4  UNL     1      -9.485  -0.921   1.163  1.00  0.00     0.162 HD
HETATM   46  C16 UNL     1      -8.341   1.275   0.029  1.00  0.00     0.020 C 
HETATM   47  C17 UNL     1      -7.446   1.770   1.115  1.00  0.00     0.003 C 
HETATM   48  C18 UNL     1      -6.009   1.819   0.662  1.00  0.00     0.027 C 
HETATM   49  C19 UNL     1      -5.698   3.032  -0.157  1.00  0.00     0.232 C 
HETATM   50  N5  UNL     1      -4.612   2.850  -1.069  1.00  0.00    -0.075 N 
HETATM   51  C20 UNL     1      -3.354   2.503  -0.441  1.00  0.00     0.232 C 
ATOM     52  H52 UNL     1      -4.857   2.161  -1.780  1.00  0.00     0.277 HD
ATOM     53  H51 UNL     1      -4.500   3.676  -1.657  1.00  0.00     0.277 HD
HETATM   54  C21 UNL     1      -2.361   2.141  -1.507  1.00  0.00     0.034 C 
HETATM   55  C22 UNL     1      -1.199   1.306  -0.990  1.00  0.00     0.067 C 
ENDBRANCH   1  29
TORSDOF 11
