REMARK  1 active torsions:
REMARK  status: ('A' for Active; 'I' for Inactive)
REMARK    1  A    between atoms: N1_1  and  N2_4 
ROOT
HETATM    1  N2  UNL     1       0.873  -0.102  -0.115  1.00  0.00    -0.285 N 
HETATM    2  C1  UNL     1       0.048  -1.148   0.100  1.00  0.00     0.115 A 
HETATM    3  C2  UNL     1      -1.309  -0.969   0.283  1.00  0.00     0.019 A 
HETATM    4  C3  UNL     1      -1.877   0.291   0.252  1.00  0.00     0.003 A 
HETATM    5  C4  UNL     1      -1.014   1.345   0.031  1.00  0.00     0.019 A 
HETATM    6  C5  UNL     1       0.336   1.115  -0.146  1.00  0.00     0.115 A 
ENDROOT
BRANCH   1   7
HETATM    7  N1  UNL     1       2.244  -0.351  -0.294  1.00  0.00    -0.339 N 
ATOM      8  H12 UNL     1       2.656  -1.284  -0.270  1.00  0.00     0.177 HD
ATOM      9  H11 UNL     1       2.868   0.440  -0.457  1.00  0.00     0.177 HD
ENDBRANCH   1   7
TORSDOF 1
