REMARK  3 active torsions:
REMARK  status: ('A' for Active; 'I' for Inactive)
REMARK    1  A    between atoms: C3_3  and  C4_4 
REMARK    2  A    between atoms: C5_5  and  C6_6 
REMARK    3  A    between atoms: C6_6  and  N1_7 
ROOT
HETATM    1  C1  UNL     1       3.878   0.053  -0.091  1.00  0.00     0.113 C 
HETATM    2  C2  UNL     1       2.420   0.028   0.066  1.00  0.00    -0.097 C 
HETATM    3  C3  UNL     1       1.218   0.001   0.215  1.00  0.00    -0.015 C 
ENDROOT
BRANCH   3   4
HETATM    4  C4  UNL     1      -0.194  -0.031   0.413  1.00  0.00    -0.013 C 
HETATM    5  C5  UNL     1      -1.390  -0.060   0.602  1.00  0.00    -0.065 C 
BRANCH   5   6
HETATM    6  C6  UNL     1      -2.832  -0.099   0.852  1.00  0.00     0.324 C 
BRANCH   6   7
HETATM    7  N1  UNL     1      -3.490   0.146  -0.421  1.00  0.00    -0.069 N 
ATOM      8  H13 UNL     1      -3.184   1.009  -0.871  1.00  0.00     0.275 HD
ATOM      9  H12 UNL     1      -3.193  -0.496  -1.156  1.00  0.00     0.275 HD
ATOM     10  H11 UNL     1      -4.495   0.119  -0.247  1.00  0.00     0.275 HD
ENDBRANCH   6   7
ENDBRANCH   5   6
ENDBRANCH   3   4
TORSDOF 3
