REMARK  0 active torsions:
REMARK  status: ('A' for Active; 'I' for Inactive)
ROOT
HETATM    1  C1  UNL     1       1.309  -0.724  -0.391  1.00  0.00     0.160 C 
HETATM    2  S1  UNL     1       0.028   0.214   0.363  1.00  0.00     0.137 S 
HETATM    3  C2  UNL     1      -1.609  -0.152  -0.259  1.00  0.00     0.160 C 
HETATM    4  O1  UNL     1       0.030  -0.076   2.040  1.00  0.00    -0.229 OA
HETATM    5  O2  UNL     1       0.316   1.883   0.080  1.00  0.00    -0.229 OA
ENDROOT
TORSDOF 0
