REMARK  2 active torsions:
REMARK  status: ('A' for Active; 'I' for Inactive)
REMARK    1  A    between atoms: N1_1  and  C1_5 
REMARK    2  A    between atoms: N2_9  and  C5_10 
ROOT
HETATM    1  C1  UNL     1      -1.544   0.919   0.625  1.00  0.00     0.211 C 
HETATM    2  C2  UNL     1      -2.146  -0.457   0.541  1.00  0.00     0.036 C 
HETATM    3  C3  UNL     1      -1.670  -1.002  -0.801  1.00  0.00     0.032 C 
HETATM    4  C4  UNL     1      -0.195  -1.211  -0.665  1.00  0.00     0.273 C 
HETATM    5  N2  UNL     1       0.555  -0.105  -0.222  1.00  0.00     0.095 N 
HETATM    6  C8  UNL     1      -0.063   0.904   0.539  1.00  0.00     0.305 C 
ENDROOT
BRANCH   1   7
HETATM    7  N1  UNL     1      -2.052   1.765  -0.452  1.00  0.00    -0.073 N 
ATOM      8  H13 UNL     1      -1.905   1.342  -1.368  1.00  0.00     0.274 HD
ATOM      9  H12 UNL     1      -3.071   1.797  -0.461  1.00  0.00     0.274 HD
ATOM     10  H11 UNL     1      -1.644   2.698  -0.395  1.00  0.00     0.274 HD
ENDBRANCH   1   7
BRANCH   5  11
HETATM   11  C5  UNL     1       1.811  -0.461   0.385  1.00  0.00     0.223 A 
HETATM   12  C6  UNL     1       2.916   0.568   0.068  1.00  0.00     0.038 A 
HETATM   13  C7  UNL     1       3.003  -0.836  -0.390  1.00  0.00     0.038 A 
ENDBRANCH   5  11
TORSDOF 2
