REMARK  2 active torsions:
REMARK  status: ('A' for Active; 'I' for Inactive)
REMARK    1  A    between atoms: O1_1  and  C1_3 
REMARK    2  A    between atoms: C4_7  and  C5_8 
ROOT
HETATM    1  C1  UNL     1      -0.670   0.122  -0.898  1.00  0.00     0.149 C 
HETATM    2  C2  UNL     1      -2.152   0.376  -0.581  1.00  0.00     0.060 C 
HETATM    3  C3  UNL     1      -2.337  -0.435   0.675  1.00  0.00     0.171 C 
HETATM    4  O2  UNL     1      -1.096  -0.224   1.308  1.00  0.00    -0.383 OA
HETATM    5  C4  UNL     1      -0.236  -0.646   0.271  1.00  0.00     0.158 C 
ENDROOT
BRANCH   5   6
HETATM    6  C5  UNL     1       1.186  -0.556   0.708  1.00  0.00     0.043 A 
HETATM    7  C6  UNL     1       1.760   0.687   1.091  1.00  0.00    -0.023 A 
HETATM    8  C7  UNL     1       2.645   0.671   0.138  1.00  0.00    -0.029 A 
HETATM    9  C8  UNL     1       2.163  -0.611  -0.374  1.00  0.00     0.038 A 
ENDBRANCH   5   6
BRANCH   1  10
HETATM   10  O1  UNL     1      -0.093   1.328  -1.138  1.00  0.00    -0.393 OA
ATOM     11  H1  UNL     1       0.823   1.171  -1.334  1.00  0.00     0.210 HD
ENDBRANCH   1  10
TORSDOF 2
