REMARK  1 active torsions:
REMARK  status: ('A' for Active; 'I' for Inactive)
REMARK    1  A    between atoms: C3_3  and  N1_4 
ROOT
HETATM    1  N1  UNL     1      -0.294  -0.408   0.425  1.00  0.00     0.124 N 
HETATM    2  C4  UNL     1      -1.110  -0.805  -0.727  1.00  0.00     0.308 C 
HETATM    3  C5  UNL     1      -2.435  -0.702  -0.032  1.00  0.00     0.157 C 
HETATM    4  C6  UNL     1      -2.387   0.735   0.409  1.00  0.00     0.098 C 
HETATM    5  C7  UNL     1      -1.320   0.088   1.278  1.00  0.00     0.362 C 
HETATM    6  O1  UNL     1      -2.190  -1.015   1.314  1.00  0.00    -0.350 OA
ENDROOT
BRANCH   1   7
HETATM    7  C3  UNL     1       0.756   0.494   0.097  1.00  0.00     0.226 A 
HETATM    8  C2  UNL     1       2.039   0.032   0.780  1.00  0.00     0.036 A 
HETATM    9  C1  UNL     1       2.749  -0.122  -0.544  1.00  0.00     0.004 A 
HETATM   10  C8  UNL     1       1.440   0.239  -1.232  1.00  0.00     0.036 A 
ENDBRANCH   1   7
TORSDOF 1
