REMARK  2 active torsions:
REMARK  status: ('A' for Active; 'I' for Inactive)
REMARK    1  A    between atoms: C3_3  and  N1_4 
REMARK    2  A    between atoms: C3_3  and  C4_8 
ROOT
HETATM    1  C1  UNL     1       3.364   1.195   0.361  1.00  0.00     0.014 C 
HETATM    2  C2  UNL     1       2.508   0.341   0.269  1.00  0.00    -0.084 C 
HETATM    3  C3  UNL     1       1.481  -0.704   0.164  1.00  0.00     0.267 C 
ENDROOT
BRANCH   3   4
HETATM    4  N1  UNL     1       1.329  -1.016  -1.265  1.00  0.00    -0.064 N 
ATOM      5  H13 UNL     1       1.125  -0.195  -1.835  1.00  0.00     0.275 HD
ATOM      6  H12 UNL     1       2.208  -1.272  -1.715  1.00  0.00     0.275 HD
ATOM      7  H11 UNL     1       0.616  -1.742  -1.338  1.00  0.00     0.275 HD
ENDBRANCH   3   4
BRANCH   3   8
HETATM    8  C4  UNL     1       0.166  -0.113   0.695  1.00  0.00     0.052 C 
HETATM    9  C5  UNL     1      -0.955  -1.082   0.640  1.00  0.00     0.012 C 
HETATM   10  C6  UNL     1      -2.294  -0.493   0.337  1.00  0.00     0.027 C 
HETATM   11  C7  UNL     1      -2.236   0.797  -0.430  1.00  0.00     0.167 C 
HETATM   12  O1  UNL     1      -1.305   1.656   0.195  1.00  0.00    -0.391 OA
HETATM   13  C8  UNL     1      -0.067   1.146  -0.104  1.00  0.00     0.175 C 
ENDBRANCH   3   8
TORSDOF 2
