REMARK  1 active torsions:
REMARK  status: ('A' for Active; 'I' for Inactive)
REMARK    1  A    between atoms: C2_2  and  C4_5 
ROOT
HETATM    1  C1  UNL     1       0.607   1.334  -0.177  1.00  0.00     0.032 C 
HETATM    2  C2  UNL     1       0.590  -0.028   0.530  1.00  0.00     0.147 C 
HETATM    3  C3  UNL     1       1.427  -0.961  -0.219  1.00  0.00     0.070 C 
HETATM    4  N1  UNL     1       2.082  -1.697  -0.825  1.00  0.00    -0.197 NA
ENDROOT
BRANCH   2   5
HETATM    5  C4  UNL     1      -0.796  -0.510   0.591  1.00  0.00     0.107 C 
HETATM    6  N2  UNL     1      -1.576  -0.738  -0.567  1.00  0.00    -0.093 NA
HETATM    7  S1  UNL     1      -1.467  -0.793   2.047  1.00  0.00    -0.067 SA
ENDBRANCH   2   5
TORSDOF 1
