REMARK  1 active torsions:
REMARK  status: ('A' for Active; 'I' for Inactive)
REMARK    1  A    between atoms: N1_2  and  C3_5 
ROOT
HETATM    1  C1  UNL     1      -1.655  -0.168   0.507  1.00  0.00     0.171 C 
HETATM    2  N1  UNL     1      -0.389   0.242  -0.057  1.00  0.00    -0.268 N 
HETATM    3  C2  UNL     1      -0.261   1.410  -0.817  1.00  0.00     0.185 C 
HETATM    4  N2  UNL     1      -0.170   2.391  -1.442  1.00  0.00    -0.172 NA
ENDROOT
BRANCH   2   5
HETATM    5  C3  UNL     1       0.743  -0.576   0.177  1.00  0.00     0.196 C 
HETATM    6  N3  UNL     1       2.038  -0.248  -0.343  1.00  0.00    -0.069 NA
HETATM    7  S1  UNL     1       0.590  -1.934   1.062  1.00  0.00    -0.043 SA
ENDBRANCH   2   5
TORSDOF 1
