REMARK  1 active torsions:
REMARK  status: ('A' for Active; 'I' for Inactive)
REMARK    1  A    between atoms: C6_7  and  O2_8 
ROOT
HETATM    1  C1  UNL     1      -1.777   0.525   0.227  1.00  0.00     0.012 C 
HETATM    2  C2  UNL     1      -0.638  -0.037  -0.557  1.00  0.00     0.015 C 
HETATM    3  C3  UNL     1      -0.137  -1.365   0.054  1.00  0.00     0.041 C 
HETATM    4  C4  UNL     1       1.294  -1.223  -0.325  1.00  0.00     0.154 A 
HETATM    5  O1  UNL     1       2.357  -0.790   0.288  1.00  0.00    -0.373 OA
HETATM    6  C5  UNL     1       1.452   0.141   0.420  1.00  0.00     0.180 A 
HETATM    7  C6  UNL     1       0.593   0.889  -0.527  1.00  0.00     0.153 C 
ENDROOT
BRANCH   7   8
HETATM    8  O2  UNL     1       1.115   0.979  -1.810  1.00  0.00    -0.393 OA
ATOM      9  H2  UNL     1       1.874   1.550  -1.792  1.00  0.00     0.210 HD
ENDBRANCH   7   8
TORSDOF 1
