REMARK  2 active torsions:
REMARK  status: ('A' for Active; 'I' for Inactive)
REMARK    1  A    between atoms: C6_7  and  N2_8 
REMARK    2  A    between atoms: N2_8  and  N3_10 
ROOT
HETATM    1  C1  UNL     1       0.462   1.702   0.630  1.00  0.00     0.157 C 
HETATM    2  N1  UNL     1      -0.164   0.432   0.271  1.00  0.00    -0.347 N 
HETATM    3  C2  UNL     1      -1.452   0.205   0.678  1.00  0.00     0.092 A 
HETATM    4  C3  UNL     1      -2.135  -0.950   0.397  1.00  0.00     0.017 A 
HETATM    5  C4  UNL     1      -1.533  -1.956  -0.328  1.00  0.00     0.005 A 
HETATM    6  C5  UNL     1      -0.253  -1.743  -0.739  1.00  0.00     0.050 A 
HETATM    7  C6  UNL     1       0.434  -0.532  -0.432  1.00  0.00     0.120 A 
ENDROOT
BRANCH   7   8
HETATM    8  N2  UNL     1       1.621  -0.422  -0.854  1.00  0.00    -0.292 N 
ATOM      9  H2  UNL     1       1.974  -1.222  -1.380  1.00  0.00     0.188 HD
BRANCH   8  10
HETATM   10  N3  UNL     1       2.483   0.597  -0.709  1.00  0.00    -0.344 N 
ATOM     11  H32 UNL     1       2.112   1.387  -0.181  1.00  0.00     0.176 HD
ATOM     12  H31 UNL     1       3.440   0.686  -1.049  1.00  0.00     0.176 HD
ENDBRANCH   8  10
ENDBRANCH   7   8
TORSDOF 2
