REMARK  2 active torsions:
REMARK  status: ('A' for Active; 'I' for Inactive)
REMARK    1  A    between atoms: N1_3  and  N2_4 
REMARK    2  A    between atoms: N3_8  and  O1_9 
ROOT
HETATM    1  C1  UNL     1      -1.559  -0.359   0.158  1.00  0.00     0.060 C 
HETATM    2  C2  UNL     1      -0.310   0.152  -0.499  1.00  0.00     0.232 A 
HETATM    3  N1  UNL     1       0.934  -0.207   0.131  1.00  0.00    -0.267 N 
HETATM    4  C3  UNL     1       1.132   1.170   0.328  1.00  0.00     0.231 A 
HETATM    5  N3  UNL     1       0.033   1.512  -0.227  1.00  0.00    -0.230 N 
ENDROOT
BRANCH   3   6
HETATM    6  N2  UNL     1       1.575  -1.420   0.385  1.00  0.00    -0.340 N 
ATOM      7  H22 UNL     1       1.431  -2.420   0.242  1.00  0.00     0.177 HD
ATOM      8  H21 UNL     1       2.456  -1.674   0.831  1.00  0.00     0.177 HD
ENDBRANCH   3   6
BRANCH   5   9
HETATM    9  O1  UNL     1      -0.602   2.701  -0.480  1.00  0.00    -0.285 OA
ATOM     10  H1  UNL     1      -0.374   3.605  -0.299  1.00  0.00     0.245 HD
ENDBRANCH   5   9
TORSDOF 2
