REMARK  4 active torsions:
REMARK  status: ('A' for Active; 'I' for Inactive)
REMARK    1  A    between atoms: C2_2  and  O1_4 
REMARK    2  A    between atoms: C2_2  and  C4_6 
REMARK    3  A    between atoms: C5_7  and  C6_8 
REMARK    4  A    between atoms: C6_8  and  N1_9 
ROOT
HETATM    1  C4  UNL     1       0.158   0.053   0.191  1.00  0.00    -0.067 C 
HETATM    2  C5  UNL     1       1.335   0.001  -0.038  1.00  0.00    -0.076 C 
ENDROOT
BRANCH   1   3
HETATM    3  C2  UNL     1      -1.289   0.103   0.452  1.00  0.00     0.114 C 
HETATM    4  C1  UNL     1      -1.772  -1.274   0.923  1.00  0.00     0.060 C 
HETATM    5  C3  UNL     1      -2.070   0.442  -0.787  1.00  0.00     0.060 C 
BRANCH   3   6
HETATM    6  O1  UNL     1      -1.474   1.048   1.467  1.00  0.00    -0.378 OA
ATOM      7  H1  UNL     1      -1.175   1.901   1.175  1.00  0.00     0.211 HD
ENDBRANCH   3   6
ENDBRANCH   1   3
BRANCH   2   8
HETATM    8  C6  UNL     1       2.766  -0.080  -0.337  1.00  0.00     0.323 C 
BRANCH   8   9
HETATM    9  N1  UNL     1       3.485   0.576   0.705  1.00  0.00    -0.069 N 
ATOM     10  H13 UNL     1       3.170   1.535   0.854  1.00  0.00     0.275 HD
ATOM     11  H12 UNL     1       3.257   0.209   1.629  1.00  0.00     0.275 HD
ATOM     12  H11 UNL     1       4.482   0.520   0.497  1.00  0.00     0.275 HD
ENDBRANCH   8   9
ENDBRANCH   2   8
TORSDOF 4
