REMARK  2 active torsions:
REMARK  status: ('A' for Active; 'I' for Inactive)
REMARK    1  A    between atoms: N1_1  and  C1_5 
REMARK    2  A    between atoms: C4_8  and  O1_9 
ROOT
HETATM    1  C1  UNL     1      -1.288  -0.024  -0.578  1.00  0.00     0.184 C 
HETATM    2  C2  UNL     1      -0.511   1.249  -0.317  1.00  0.00     0.040 C 
HETATM    3  C3  UNL     1       0.629   0.847   0.579  1.00  0.00     0.023 A 
HETATM    4  C4  UNL     1       1.825   0.270  -0.059  1.00  0.00     0.127 A 
HETATM    5  C5  UNL     1       0.762  -0.641   0.515  1.00  0.00     0.023 A 
HETATM    6  C6  UNL     1      -0.319  -1.156  -0.407  1.00  0.00     0.040 C 
ENDROOT
BRANCH   1   7
HETATM    7  N1  UNL     1      -2.469  -0.141   0.225  1.00  0.00    -0.075 N 
ATOM      8  H13 UNL     1      -2.244  -0.050   1.216  1.00  0.00     0.274 HD
ATOM      9  H12 UNL     1      -3.067   0.678   0.112  1.00  0.00     0.274 HD
ATOM     10  H11 UNL     1      -2.992  -0.999   0.049  1.00  0.00     0.274 HD
ENDBRANCH   1   7
BRANCH   4  11
HETATM   11  O1  UNL     1       3.061   0.243   0.567  1.00  0.00    -0.395 OA
ATOM     12  H1  UNL     1       3.832  -0.129   0.156  1.00  0.00     0.210 HD
ENDBRANCH   4  11
TORSDOF 2
