REMARK  2 active torsions:
REMARK  status: ('A' for Active; 'I' for Inactive)
REMARK    1  A    between atoms: O1_1  and  C1_3 
REMARK    2  A    between atoms: C6_8  and  O2_9 
ROOT
HETATM    1  C1  UNL     1      -0.638   0.911   0.343  1.00  0.00     0.169 C 
HETATM    2  C2  UNL     1       0.768   1.330   0.096  1.00  0.00     0.003 C 
HETATM    3  C3  UNL     1       1.552   0.504  -0.586  1.00  0.00    -0.028 C 
HETATM    4  C4  UNL     1       1.011  -0.811  -1.086  1.00  0.00     0.029 C 
HETATM    5  C5  UNL     1       0.328  -1.405   0.152  1.00  0.00     0.038 C 
HETATM    6  C6  UNL     1      -0.800  -0.540   0.649  1.00  0.00     0.151 C 
ENDROOT
BRANCH   1   7
HETATM    7  O1  UNL     1      -1.196   1.666   1.401  1.00  0.00    -0.389 OA
ATOM      8  H1  UNL     1      -2.094   1.398   1.559  1.00  0.00     0.210 HD
ENDBRANCH   1   7
BRANCH   6   9
HETATM    9  O2  UNL     1      -1.992  -1.073   0.173  1.00  0.00    -0.393 OA
ATOM     10  H2  UNL     1      -2.095  -1.997   0.368  1.00  0.00     0.210 HD
ENDBRANCH   6   9
TORSDOF 2
