REMARK  2 active torsions:
REMARK  status: ('A' for Active; 'I' for Inactive)
REMARK    1  A    between atoms: C1_4  and  O1_5 
REMARK    2  A    between atoms: C1_4  and  N2_7 
ROOT
HETATM    1  N1  UNL     1       2.643  -0.650  -0.822  1.00  0.00    -0.365 N 
ATOM      2  H11 UNL     1       2.326  -0.765  -1.785  1.00  0.00     0.159 HD
ATOM      3  H12 UNL     1       3.639  -0.773  -0.639  1.00  0.00     0.159 HD
HETATM    4  C1  UNL     1       1.882  -0.367   0.163  1.00  0.00     0.212 C 
ENDROOT
BRANCH   4   5
HETATM    5  O1  UNL     1       2.313  -0.211   1.473  1.00  0.00    -0.333 OA
ATOM      6  H1  UNL     1       1.747  -0.000   2.206  1.00  0.00     0.220 HD
ENDBRANCH   4   5
BRANCH   4   7
HETATM    7  N2  UNL     1       0.492  -0.196  -0.092  1.00  0.00    -0.348 N 
HETATM    8  C2  UNL     1      -0.538  -1.039   0.455  1.00  0.00     0.126 C 
HETATM    9  C3  UNL     1      -1.757  -0.147   0.497  1.00  0.00     0.021 C 
HETATM   10  C4  UNL     1      -1.531   0.882  -0.584  1.00  0.00     0.021 C 
HETATM   11  C5  UNL     1      -0.077   0.839  -0.930  1.00  0.00     0.126 C 
ENDBRANCH   4   7
TORSDOF 2
