REMARK  7 active torsions:
REMARK  status: ('A' for Active; 'I' for Inactive)
REMARK    1  A    between atoms: C13_13  and  C14_14 
REMARK    2  A    between atoms: C14_14  and  O2_16 
REMARK    3  A    between atoms: C17_20  and  O4_21 
REMARK    4  A    between atoms: C20_24  and  O5_25 
REMARK    5  A    between atoms: C22_27  and  O6_28 
REMARK    6  A    between atoms: C24_31  and  C25_32 
REMARK    7  A    between atoms: N1_33  and  O7_35 
ROOT
HETATM    1  C1  UNL     1       5.751  -1.587  -1.289  1.00  0.00     0.014 C 
HETATM    2  C2  UNL     1       4.906  -0.592  -1.225  1.00  0.00    -0.085 C 
HETATM    3  C3  UNL     1       5.015   0.695  -1.966  1.00  0.00     0.034 C 
HETATM    4  C4  UNL     1       3.714   1.447  -1.701  1.00  0.00     0.010 C 
HETATM    5  C5  UNL     1       2.803   0.332  -1.357  1.00  0.00    -0.002 C 
HETATM    6  C6  UNL     1       3.651  -0.493  -0.419  1.00  0.00     0.018 C 
HETATM    7  C7  UNL     1       2.969  -1.772  -0.149  1.00  0.00     0.010 C 
HETATM    8  C8  UNL     1       1.536  -1.877  -0.502  1.00  0.00     0.007 C 
HETATM    9  C9  UNL     1       0.729  -0.676  -0.649  1.00  0.00     0.009 C 
HETATM   10  C10 UNL     1       1.531   0.633  -0.711  1.00  0.00    -0.004 C 
HETATM   11  C11 UNL     1       1.575   0.988   0.736  1.00  0.00     0.014 C 
HETATM   12  C12 UNL     1       0.093   0.840   1.126  1.00  0.00     0.044 C 
HETATM   13  C13 UNL     1      -0.664   2.081   0.867  1.00  0.00     0.234 C 
HETATM   14  O3  UNL     1      -2.040   1.800   0.749  1.00  0.00    -0.332 OA
HETATM   15  C16 UNL     1      -2.504   0.773  -0.037  1.00  0.00     0.113 A 
HETATM   16  C17 UNL     1      -3.775   0.834  -0.629  1.00  0.00     0.104 A 
HETATM   17  C19 UNL     1      -4.237  -0.195  -1.412  1.00  0.00     0.079 A 
HETATM   18  C20 UNL     1      -3.417  -1.291  -1.601  1.00  0.00     0.104 A 
HETATM   19  C22 UNL     1      -2.154  -1.336  -1.004  1.00  0.00     0.109 A 
HETATM   20  C23 UNL     1      -1.686  -0.305  -0.218  1.00  0.00     0.029 A 
HETATM   21  C24 UNL     1      -0.327  -0.399   0.390  1.00  0.00     0.037 C 
ENDROOT
BRANCH  21  22
HETATM   22  C25 UNL     1      -0.422  -1.494   1.399  1.00  0.00     0.102 C 
HETATM   23  N1  UNL     1       0.320  -1.454   2.447  1.00  0.00    -0.281 N 
ATOM     24  H1  UNL     1       0.952  -0.659   2.541  1.00  0.00     0.193 HD
BRANCH  23  25
HETATM   25  O7  UNL     1       0.334  -2.374   3.433  1.00  0.00    -0.286 OA
HETATM   26  C26 UNL     1      -0.790  -2.821   4.152  1.00  0.00     0.237 C 
ENDBRANCH  23  25
ENDBRANCH  21  22
BRANCH  13  27
HETATM   27  C14 UNL     1      -0.511   3.007   2.023  1.00  0.00     0.288 C 
HETATM   28  O1  UNL     1      -1.503   3.375   2.696  1.00  0.00    -0.262 OA
BRANCH  27  29
HETATM   29  O2  UNL     1       0.725   3.482   2.375  1.00  0.00    -0.324 OA
HETATM   30  C15 UNL     1       1.003   4.351   3.431  1.00  0.00     0.213 C 
ENDBRANCH  27  29
ENDBRANCH  13  27
BRANCH  19  31
HETATM   31  O6  UNL     1      -1.405  -2.471  -1.249  1.00  0.00    -0.357 OA
ATOM     32  H6  UNL     1      -0.547  -2.502  -0.843  1.00  0.00     0.217 HD
ENDBRANCH  19  31
BRANCH  16  33
HETATM   33  O4  UNL     1      -4.566   1.949  -0.415  1.00  0.00    -0.353 OA
HETATM   34  C18 UNL     1      -5.833   2.013  -1.003  1.00  0.00     0.210 C 
ENDBRANCH  16  33
BRANCH  18  35
HETATM   35  O5  UNL     1      -3.837  -2.360  -2.385  1.00  0.00    -0.353 OA
HETATM   36  C21 UNL     1      -5.117  -2.294  -2.979  1.00  0.00     0.210 C 
ENDBRANCH  18  35
TORSDOF 7
