REMARK  4 active torsions:
REMARK  status: ('A' for Active; 'I' for Inactive)
REMARK    1  A    between atoms: O1_2  and  C2_3 
REMARK    2  A    between atoms: C5_6  and  C6_7 
REMARK    3  A    between atoms: C6_7  and  N1_8 
REMARK    4  A    between atoms: N1_8  and  C7_10 
ROOT
HETATM    1  C2  UNL     1       1.528  -0.472  -0.528  1.00  0.00     0.141 A 
HETATM    2  C3  UNL     1       1.154   0.842  -0.721  1.00  0.00     0.058 A 
HETATM    3  C4  UNL     1       0.104   1.112   0.127  1.00  0.00     0.031 A 
HETATM    4  C5  UNL     1      -0.130  -0.054   0.815  1.00  0.00     0.029 A 
HETATM    5  N3  UNL     1       0.730  -1.006   0.417  1.00  0.00    -0.339 N 
ATOM      6  H3  UNL     1       0.771  -1.963   0.768  1.00  0.00     0.168 HD
ENDROOT
BRANCH   4   7
HETATM    7  C6  UNL     1      -1.197  -0.213   1.853  1.00  0.00     0.177 C 
BRANCH   7   8
HETATM    8  N1  UNL     1      -2.445  -0.659   1.264  1.00  0.00    -0.381 N 
ATOM      9  H1  UNL     1      -2.842  -1.545   1.576  1.00  0.00     0.160 HD
BRANCH   8  10
HETATM   10  C7  UNL     1      -3.134   0.078   0.280  1.00  0.00     0.169 C 
HETATM   11  N2  UNL     1      -3.409   1.338   0.394  1.00  0.00    -0.396 N 
ATOM     12  H22 UNL     1      -3.104   1.807   1.247  1.00  0.00     0.156 HD
ATOM     13  H21 UNL     1      -3.908   1.871  -0.318  1.00  0.00     0.156 HD
ENDBRANCH   8  10
ENDBRANCH   7   8
ENDBRANCH   4   7
BRANCH   1  14
HETATM   14  O1  UNL     1       2.571  -1.126  -1.214  1.00  0.00    -0.341 OA
HETATM   15  C1  UNL     1       3.318  -0.444  -2.173  1.00  0.00     0.211 C 
ENDBRANCH   1  14
TORSDOF 4
