REMARK  2 active torsions:
REMARK  status: ('A' for Active; 'I' for Inactive)
REMARK    1  A    between atoms: C21_40  and  C22_41 
REMARK    2  A    between atoms: C22_41  and  N8_42 
ROOT
HETATM    1  C1  UNL     1      -4.540   1.308   1.484  1.00  0.00     0.311 C 
HETATM    2  N1  UNL     1      -4.356   0.914   0.131  1.00  0.00     0.101 N 
HETATM    3  C2  UNL     1      -3.468   1.750  -0.605  1.00  0.00     0.300 C 
HETATM    4  C3  UNL     1      -3.143   3.048   0.097  1.00  0.00     0.262 C 
HETATM    5  N2  UNL     1      -2.812   4.027  -0.921  1.00  0.00    -0.073 N 
ATOM      6  H21 UNL     1      -3.484   4.794  -0.932  1.00  0.00     0.277 HD
ATOM      7  H22 UNL     1      -2.976   3.659  -1.858  1.00  0.00     0.277 HD
HETATM    8  C4  UNL     1      -1.444   4.520  -0.774  1.00  0.00     0.234 C 
HETATM    9  C5  UNL     1      -0.489   3.721  -1.625  1.00  0.00     0.055 C 
HETATM   10  C6  UNL     1       0.346   2.772  -0.801  1.00  0.00     0.234 C 
HETATM   11  N3  UNL     1       1.755   3.096  -0.835  1.00  0.00    -0.073 N 
ATOM     12  H31 UNL     1       2.027   3.567  -1.698  1.00  0.00     0.277 HD
ATOM     13  H32 UNL     1       2.344   2.269  -0.935  1.00  0.00     0.277 HD
HETATM   14  C7  UNL     1       2.082   3.871   0.347  1.00  0.00     0.259 C 
HETATM   15  C8  UNL     1       3.567   3.852   0.632  1.00  0.00     0.259 C 
HETATM   16  N4  UNL     1       4.124   2.521   0.473  1.00  0.00    -0.072 N 
ATOM     17  H41 UNL     1       4.352   2.300  -0.496  1.00  0.00     0.277 HD
ATOM     18  H42 UNL     1       3.435   1.783   0.621  1.00  0.00     0.277 HD
HETATM   19  C9  UNL     1       5.269   2.411   1.362  1.00  0.00     0.259 C 
HETATM   20  C10 UNL     1       5.436   0.976   1.865  1.00  0.00     0.259 C 
HETATM   21  N5  UNL     1       5.673   0.067   0.764  1.00  0.00    -0.074 N 
ATOM     22  H51 UNL     1       6.269  -0.719   1.024  1.00  0.00     0.277 HD
ATOM     23  H52 UNL     1       6.278   0.468   0.047  1.00  0.00     0.277 HD
HETATM   24  C11 UNL     1       4.398  -0.353   0.243  1.00  0.00     0.232 C 
HETATM   25  C12 UNL     1       4.300  -1.868   0.251  1.00  0.00     0.027 C 
HETATM   26  C13 UNL     1       2.949  -2.308  -0.225  1.00  0.00     0.002 C 
HETATM   27  C14 UNL     1       3.065  -3.711  -0.780  1.00  0.00     0.000 C 
HETATM   28  C15 UNL     1       1.869  -4.064  -1.628  1.00  0.00     0.002 C 
HETATM   29  C16 UNL     1       0.870  -4.910  -0.861  1.00  0.00     0.020 C 
HETATM   30  C17 UNL     1      -0.353  -4.080  -0.451  1.00  0.00     0.122 C 
HETATM   31  N6  UNL     1      -0.814  -4.529   0.849  1.00  0.00    -0.360 N 
ATOM     32  H6  UNL     1      -0.112  -4.864   1.509  1.00  0.00     0.162 HD
HETATM   33  C18 UNL     1      -2.165  -4.537   1.270  1.00  0.00     0.235 C 
HETATM   34  O1  UNL     1      -2.568  -5.362   2.133  1.00  0.00    -0.272 OA
HETATM   35  C19 UNL     1      -3.194  -3.578   0.727  1.00  0.00     0.225 C 
HETATM   36  N7  UNL     1      -3.251  -2.374   1.527  1.00  0.00    -0.350 N 
ATOM     37  H7  UNL     1      -3.298  -2.497   2.539  1.00  0.00     0.163 HD
HETATM   38  C20 UNL     1      -3.248  -1.045   1.047  1.00  0.00     0.253 C 
HETATM   39  O2  UNL     1      -2.466  -0.232   1.620  1.00  0.00    -0.271 OA
HETATM   40  C21 UNL     1      -4.060  -0.493  -0.053  1.00  0.00     0.338 C 
ENDROOT
BRANCH  40  41
HETATM   41  C22 UNL     1      -5.325  -1.282  -0.313  1.00  0.00     0.275 C 
BRANCH  41  42
HETATM   42  N8  UNL     1      -6.267  -1.176   0.792  1.00  0.00    -0.077 N 
ATOM     43  H83 UNL     1      -5.835  -1.448   1.675  1.00  0.00     0.274 HD
ATOM     44  H82 UNL     1      -6.476  -0.202   1.009  1.00  0.00     0.274 HD
ATOM     45  H81 UNL     1      -7.120  -1.708   0.617  1.00  0.00     0.274 HD
ENDBRANCH  41  42
ENDBRANCH  40  41
TORSDOF 2
