REMARK  2 active torsions:
REMARK  status: ('A' for Active; 'I' for Inactive)
REMARK    1  A    between atoms: C2_2  and  C3_3 
REMARK    2  A    between atoms: C2_2  and  N2_6 
ROOT
HETATM    1  N2  UNL     1       3.873   0.390  -0.044  1.00  0.00     0.103 N 
HETATM    2  C4  UNL     1       3.977   1.765  -0.409  1.00  0.00     0.275 C 
HETATM    3  C5  UNL     1       2.935   2.164  -1.428  1.00  0.00     0.057 C 
HETATM    4  C6  UNL     1       2.303   3.474  -1.026  1.00  0.00     0.234 C 
HETATM    5  N3  UNL     1       0.874   3.341  -1.250  1.00  0.00    -0.075 N 
ATOM      6  H31 UNL     1       0.601   2.360  -1.316  1.00  0.00     0.277 HD
ATOM      7  H32 UNL     1       0.618   3.644  -2.190  1.00  0.00     0.277 HD
HETATM    8  C7  UNL     1       0.093   4.036  -0.244  1.00  0.00     0.241 C 
HETATM    9  C8  UNL     1      -1.363   3.638  -0.475  1.00  0.00     0.130 C 
HETATM   10  C9  UNL     1      -2.288   4.683   0.017  1.00  0.00     0.219 C 
HETATM   11  O2  UNL     1      -1.918   5.896   0.033  1.00  0.00    -0.274 OA
HETATM   12  N4  UNL     1      -3.590   4.345   0.473  1.00  0.00    -0.359 N 
ATOM     13  H4  UNL     1      -4.364   4.966   0.239  1.00  0.00     0.162 HD
HETATM   14  C10 UNL     1      -3.867   3.162   1.252  1.00  0.00     0.150 C 
HETATM   15  C11 UNL     1      -5.189   2.521   0.861  1.00  0.00     0.252 C 
HETATM   16  N5  UNL     1      -4.948   1.392   0.013  1.00  0.00    -0.072 N 
ATOM     17  H51 UNL     1      -3.947   1.230  -0.099  1.00  0.00     0.277 HD
ATOM     18  H52 UNL     1      -5.194   1.606  -0.954  1.00  0.00     0.277 HD
HETATM   19  C12 UNL     1      -5.616   0.189   0.459  1.00  0.00     0.259 C 
HETATM   20  C13 UNL     1      -5.047  -0.956  -0.377  1.00  0.00     0.259 C 
HETATM   21  N6  UNL     1      -5.530  -2.239   0.066  1.00  0.00    -0.073 N 
ATOM     22  H61 UNL     1      -5.946  -2.755  -0.709  1.00  0.00     0.277 HD
ATOM     23  H62 UNL     1      -6.353  -2.130   0.658  1.00  0.00     0.277 HD
HETATM   24  C14 UNL     1      -4.534  -3.030   0.725  1.00  0.00     0.234 C 
HETATM   25  C15 UNL     1      -3.536  -3.559  -0.261  1.00  0.00     0.055 C 
HETATM   26  C16 UNL     1      -2.377  -4.196   0.506  1.00  0.00     0.233 C 
HETATM   27  N7  UNL     1      -1.164  -3.654  -0.026  1.00  0.00    -0.075 N 
ATOM     28  H71 UNL     1      -0.836  -2.872   0.540  1.00  0.00     0.277 HD
ATOM     29  H72 UNL     1      -1.339  -3.164  -0.903  1.00  0.00     0.277 HD
HETATM   30  C17 UNL     1      -0.122  -4.645  -0.188  1.00  0.00     0.233 C 
HETATM   31  C18 UNL     1       0.907  -4.042  -1.130  1.00  0.00     0.055 C 
HETATM   32  C19 UNL     1       1.978  -3.423  -0.233  1.00  0.00     0.234 C 
HETATM   33  N8  UNL     1       2.996  -2.775  -1.024  1.00  0.00    -0.073 N 
ATOM     34  H81 UNL     1       3.168  -3.278  -1.895  1.00  0.00     0.277 HD
ATOM     35  H82 UNL     1       3.918  -2.875  -0.599  1.00  0.00     0.277 HD
HETATM   36  C20 UNL     1       2.671  -1.368  -1.274  1.00  0.00     0.262 C 
HETATM   37  C21 UNL     1       3.912  -0.506  -1.182  1.00  0.00     0.300 C 
ENDROOT
BRANCH   1  38
HETATM   38  C2  UNL     1       4.782   0.026   0.990  1.00  0.00     0.307 C 
HETATM   39  C1  UNL     1       4.515   0.802   2.255  1.00  0.00     0.053 C 
BRANCH  38  40
HETATM   40  C3  UNL     1       6.209   0.124   0.661  1.00  0.00     0.264 C 
HETATM   41  N1  UNL     1       7.134  -0.172   1.710  1.00  0.00    -0.060 NA
HETATM   42  O1  UNL     1       6.705   0.440  -0.442  1.00  0.00    -0.274 OA
ENDBRANCH  38  40
ENDBRANCH   1  38
TORSDOF 2
