REMARK  7 active torsions:
REMARK  status: ('A' for Active; 'I' for Inactive)
REMARK    1  A    between atoms: C2_2  and  N1_3 
REMARK    2  A    between atoms: C2_2  and  C17_37 
REMARK       I    between atoms: N5_7  and  C3_8 
REMARK       I    between atoms: C3_8  and  N6_10 
REMARK    3  A    between atoms: N6_10  and  C4_12 
REMARK    4  A    between atoms: C4_12  and  C5_13 
REMARK    5  A    between atoms: C5_13  and  S1_14 
REMARK    6  A    between atoms: S1_14  and  C6_17 
REMARK    7  A    between atoms: C9_25  and  N8_26 
ROOT
HETATM    1  N1  UNL     1      -4.301   0.004   1.432  1.00  0.00    -0.174 NA
HETATM    2  N2  UNL     1      -5.129  -0.841   2.131  1.00  0.00    -0.033 NA
HETATM    3  N3  UNL     1      -4.527  -2.007   2.556  1.00  0.00     0.000 NA
HETATM    4  N4  UNL     1      -3.972  -2.743   1.525  1.00  0.00    -0.003 NA
HETATM    5  N5  UNL     1      -2.943  -1.946   0.949  1.00  0.00    -0.195 N 
HETATM    6  C3  UNL     1      -1.950  -2.567   0.155  1.00  0.00     0.337 C 
HETATM    7  O1  UNL     1      -2.031  -3.803  -0.037  1.00  0.00    -0.246 OA
HETATM    8  N6  UNL     1      -0.892  -1.839  -0.414  1.00  0.00    -0.341 N 
ATOM      9  H6  UNL     1      -0.842  -0.836  -0.238  1.00  0.00     0.164 HD
HETATM   10  C15 UNL     1      -2.982  -0.546   1.190  1.00  0.00     0.310 C 
HETATM   11  C16 UNL     1      -2.099  -0.090   2.264  1.00  0.00     0.103 C 
HETATM   12  N10 UNL     1      -1.417   0.268   3.126  1.00  0.00    -0.194 NA
ENDROOT
BRANCH   1  13
HETATM   13  C2  UNL     1      -4.863   0.621   0.273  1.00  0.00     0.084 C 
HETATM   14  C1  UNL     1      -5.094  -0.336  -0.877  1.00  0.00     0.029 C 
BRANCH  13  15
HETATM   15  C17 UNL     1      -6.048   1.468   0.598  1.00  0.00    -0.034 C 
HETATM   16  C18 UNL     1      -5.677   2.371   1.751  1.00  0.00     0.016 C 
HETATM   17  C19 UNL     1      -7.271   0.656   0.975  1.00  0.00     0.016 C 
HETATM   18  C20 UNL     1      -6.374   2.372  -0.590  1.00  0.00     0.016 C 
ENDBRANCH  13  15
ENDBRANCH   1  13
BRANCH   8  19
HETATM   19  C4  UNL     1       0.118  -2.441  -1.229  1.00  0.00     0.140 C 
BRANCH  19  20
HETATM   20  C5  UNL     1       0.917  -3.483  -0.505  1.00  0.00     0.168 C 
BRANCH  20  21
HETATM   21  S1  UNL     1       1.721  -2.700   0.881  1.00  0.00     0.209 S 
HETATM   22  O2  UNL     1       0.790  -2.233   1.922  1.00  0.00    -0.220 OA
HETATM   23  O3  UNL     1       2.572  -3.794   1.516  1.00  0.00    -0.220 OA
BRANCH  21  24
HETATM   24  C6  UNL     1       2.786  -1.391   0.333  1.00  0.00     0.213 A 
HETATM   25  N7  UNL     1       2.240  -0.226   0.237  1.00  0.00    -0.256 N 
HETATM   26  S2  UNL     1       3.098   1.170  -0.276  1.00  0.00     0.267 S 
ATOM     27  H7  UNL     1       1.253  -0.130   0.477  1.00  0.00     0.181 HD
HETATM   28  O4  UNL     1       3.093   2.142   0.894  1.00  0.00    -0.200 OA
HETATM   29  O5  UNL     1       2.459   1.831  -1.461  1.00  0.00    -0.200 OA
HETATM   30  C7  UNL     1       4.738   0.667  -0.606  1.00  0.00     0.108 A 
HETATM   31  C8  UNL     1       5.689   1.553  -1.040  1.00  0.00     0.057 A 
HETATM   32  C14 UNL     1       5.067  -0.652  -0.420  1.00  0.00     0.057 A 
HETATM   33  C9  UNL     1       7.006   1.215  -1.317  1.00  0.00     0.031 A 
HETATM   34  C12 UNL     1       7.339  -0.113  -1.131  1.00  0.00     0.031 A 
HETATM   35  C13 UNL     1       6.392  -1.009  -0.696  1.00  0.00     0.033 A 
HETATM   36  N9  UNL     1       4.132  -1.626   0.027  1.00  0.00    -0.331 N 
ATOM     37  H9  UNL     1       4.473  -2.581   0.134  1.00  0.00     0.168 HD
BRANCH  33  38
HETATM   38  N8  UNL     1       7.931   2.185  -1.761  1.00  0.00    -0.390 N 
HETATM   39  C10 UNL     1       7.503   3.545  -1.927  1.00  0.00     0.149 C 
HETATM   40  C11 UNL     1       9.286   1.806  -2.041  1.00  0.00     0.149 C 
ENDBRANCH  33  38
ENDBRANCH  21  24
ENDBRANCH  20  21
ENDBRANCH  19  20
ENDBRANCH   8  19
TORSDOF 7
