REMARK  8 active torsions:
REMARK  status: ('A' for Active; 'I' for Inactive)
REMARK    1  A    between atoms: C4_4  and  C5_5 
REMARK    2  A    between atoms: C5_5  and  N1_6 
REMARK    3  A    between atoms: N1_6  and  C6_8 
REMARK    4  A    between atoms: C7_11  and  N3_12 
REMARK    5  A    between atoms: C13_18  and  N4_19 
REMARK    6  A    between atoms: C15_26  and  N6_27 
REMARK    7  A    between atoms: N6_27  and  C16_29 
REMARK    8  A    between atoms: C22_40  and  C23_41 
ROOT
HETATM    1  C6  UNL     1      -1.532   0.590  -0.334  1.00  0.00     0.707 A 
HETATM    2  N2  UNL     1      -2.276  -0.511  -0.326  1.00  0.00    -0.021 N 
ATOM      3  H2  UNL     1      -1.816  -1.406  -0.160  1.00  0.00     0.203 HD
HETATM    4  C7  UNL     1      -3.610  -0.503  -0.527  1.00  0.00     0.709 A 
HETATM    5  N5  UNL     1      -4.155   0.693  -0.738  1.00  0.00    -0.021 N 
ATOM      6  H5  UNL     1      -5.162   0.735  -0.893  1.00  0.00     0.203 HD
HETATM    7  C15 UNL     1      -3.462   1.864  -0.761  1.00  0.00     0.707 A 
HETATM    8  N8  UNL     1      -2.150   1.776  -0.555  1.00  0.00    -0.021 N 
ATOM      9  H8  UNL     1      -1.591   2.629  -0.564  1.00  0.00     0.203 HD
ENDROOT
BRANCH   1  10
HETATM   10  N1  UNL     1      -0.260   0.607  -0.141  1.00  0.00    -0.221 N 
ATOM     11  H1  UNL     1       0.232   1.500  -0.165  1.00  0.00     0.178 HD
BRANCH  10  12
HETATM   12  C5  UNL     1       0.496  -0.607   0.110  1.00  0.00     0.176 C 
BRANCH  12  13
HETATM   13  C4  UNL     1       1.942  -0.371   0.195  1.00  0.00    -0.039 A 
HETATM   14  C3  UNL     1       2.538   0.848  -0.014  1.00  0.00     0.016 A 
HETATM   15  C2  UNL     1       3.920   1.063   0.073  1.00  0.00    -0.051 A 
HETATM   16  C1  UNL     1       4.438   2.438  -0.175  1.00  0.00     0.049 C 
HETATM   17  C22 UNL     1       4.696  -0.016   0.384  1.00  0.00    -0.004 A 
HETATM   18  C21 UNL     1       4.132  -1.239   0.596  1.00  0.00     0.012 A 
HETATM   19  C20 UNL     1       2.760  -1.433   0.506  1.00  0.00     0.009 A 
BRANCH  17  20
HETATM   20  C23 UNL     1       6.176   0.086   0.482  1.00  0.00     0.135 C 
HETATM   21  C24 UNL     1       6.415   1.193   1.544  1.00  0.00     0.069 C 
HETATM   22  N9  UNL     1       6.790   0.477  -0.720  1.00  0.00    -0.334 N 
HETATM   23  C25 UNL     1       7.602  -0.248  -1.371  1.00  0.00     0.192 C 
ATOM     24  H9  UNL     1       6.569   1.401  -1.092  1.00  0.00     0.165 HD
HETATM   25  N10 UNL     1       8.139   0.309  -2.604  1.00  0.00    -0.063 NA
HETATM   26  N11 UNL     1       8.061  -1.519  -0.925  1.00  0.00    -0.305 N 
HETATM   27  C26 UNL     1       7.600  -1.900   0.222  1.00  0.00     0.194 C 
ATOM     28  H11 UNL     1       8.707  -2.089  -1.471  1.00  0.00     0.171 HD
HETATM   29  N12 UNL     1       8.001  -3.180   0.755  1.00  0.00    -0.063 NA
HETATM   30  N13 UNL     1       6.779  -1.087   1.020  1.00  0.00    -0.329 N 
HETATM   31  C27 UNL     1       6.592  -1.472   2.434  1.00  0.00     0.155 C 
ENDBRANCH  17  20
ENDBRANCH  12  13
ENDBRANCH  10  12
ENDBRANCH   1  10
BRANCH   4  32
HETATM   32  N3  UNL     1      -4.370  -1.707  -0.514  1.00  0.00    -0.215 N 
HETATM   33  C8  UNL     1      -3.508  -2.870  -0.285  1.00  0.00     0.141 C 
HETATM   34  C9  UNL     1      -3.682  -3.354   1.128  1.00  0.00     0.020 C 
HETATM   35  C10 UNL     1      -4.671  -2.573   1.923  1.00  0.00     0.002 C 
HETATM   36  C11 UNL     1      -6.093  -2.944   1.725  1.00  0.00     0.002 C 
HETATM   37  C12 UNL     1      -6.413  -3.606   0.422  1.00  0.00     0.034 C 
HETATM   38  C13 UNL     1      -6.613  -2.686  -0.723  1.00  0.00     0.202 C 
HETATM   39  C14 UNL     1      -5.763  -1.460  -0.724  1.00  0.00     0.173 C 
BRANCH  38  40
HETATM   40  N4  UNL     1      -6.490  -3.443  -1.967  1.00  0.00    -0.073 N 
ATOM     41  H43 UNL     1      -5.608  -3.952  -2.027  1.00  0.00     0.274 HD
ATOM     42  H42 UNL     1      -7.120  -4.245  -1.998  1.00  0.00     0.274 HD
ATOM     43  H41 UNL     1      -6.628  -2.810  -2.755  1.00  0.00     0.274 HD
ENDBRANCH  38  40
ENDBRANCH   4  32
BRANCH   7  44
HETATM   44  N6  UNL     1      -4.063   2.943  -0.967  1.00  0.00    -0.219 N 
ATOM     45  H6  UNL     1      -5.064   2.804  -1.102  1.00  0.00     0.178 HD
BRANCH  44  46
HETATM   46  C16 UNL     1      -3.702   4.296  -1.058  1.00  0.00     0.126 C 
HETATM   47  C17 UNL     1      -3.030   4.868   0.167  1.00  0.00     0.055 C 
HETATM   48  C18 UNL     1      -1.940   5.748  -0.358  1.00  0.00     0.234 C 
HETATM   49  N7  UNL     1      -2.224   5.931  -1.775  1.00  0.00    -0.073 N 
HETATM   50  C19 UNL     1      -2.812   4.662  -2.198  1.00  0.00     0.257 C 
ATOM     51  H72 UNL     1      -2.801   6.746  -1.982  1.00  0.00     0.277 HD
ATOM     52  H71 UNL     1      -1.417   6.220  -2.327  1.00  0.00     0.277 HD
ENDBRANCH  44  46
ENDBRANCH   7  44
TORSDOF 8
