REMARK  7 active torsions:
REMARK  status: ('A' for Active; 'I' for Inactive)
REMARK    1  A    between atoms: C1_2  and  C2_4 
REMARK    2  A    between atoms: N1_6  and  C4_7 
REMARK       I    between atoms: N3_17  and  C11_18 
REMARK    3  A    between atoms: C11_18  and  C12_20 
REMARK       I    between atoms: N4_27  and  C19_28 
REMARK    4  A    between atoms: C19_28  and  C20_30 
REMARK    5  A    between atoms: C20_30  and  O5_31 
REMARK    6  A    between atoms: C20_30  and  N5_33 
REMARK    7  A    between atoms: C29_42  and  C30_43 
ROOT
HETATM    1  C12 UNL     1       0.116  -1.947   0.017  1.00  0.00     0.184 C 
HETATM    2  C13 UNL     1      -0.211  -3.188  -0.841  1.00  0.00     0.018 C 
HETATM    3  C14 UNL     1      -0.869  -4.279  -0.078  1.00  0.00     0.007 C 
HETATM    4  C15 UNL     1       0.127  -5.417   0.046  1.00  0.00     0.007 C 
HETATM    5  C16 UNL     1       1.430  -4.584  -0.018  1.00  0.00     0.004 C 
HETATM    6  C17 UNL     1       1.104  -3.835  -1.290  1.00  0.00     0.013 C 
HETATM    7  C18 UNL     1       1.366  -3.700   1.199  1.00  0.00     0.132 C 
HETATM    8  N4  UNL     1       1.270  -2.299   0.814  1.00  0.00    -0.331 N 
HETATM    9  C19 UNL     1       2.281  -1.396   1.271  1.00  0.00     0.295 C 
HETATM   10  O4  UNL     1       3.236  -1.930   1.920  1.00  0.00    -0.264 OA
ENDROOT
BRANCH   1  11
HETATM   11  C11 UNL     1      -1.037  -1.581   0.874  1.00  0.00     0.244 C 
HETATM   12  N3  UNL     1      -2.269  -1.059   0.401  1.00  0.00    -0.333 N 
HETATM   13  C2  UNL     1      -3.352  -0.732   1.331  1.00  0.00     0.205 C 
HETATM   14  C10 UNL     1      -2.492  -0.828  -0.998  1.00  0.00     0.146 C 
HETATM   15  C3  UNL     1      -4.593  -0.462   0.531  1.00  0.00     0.153 C 
HETATM   16  N1  UNL     1      -4.428   0.513  -0.484  1.00  0.00    -0.404 N 
HETATM   17  C9  UNL     1      -3.288   0.462  -1.263  1.00  0.00     0.137 C 
HETATM   18  O3  UNL     1      -0.919  -1.744   2.117  1.00  0.00    -0.271 OA
BRANCH  13  19
HETATM   19  C1  UNL     1      -2.976   0.402   2.207  1.00  0.00     0.198 C 
HETATM   20  O1  UNL     1      -3.799   0.821   3.053  1.00  0.00    -0.646 OA
HETATM   21  O2  UNL     1      -1.750   1.044   2.154  1.00  0.00    -0.646 OA
ENDBRANCH  13  19
BRANCH  16  22
HETATM   22  C4  UNL     1      -5.512   1.333  -0.670  1.00  0.00     0.082 C 
HETATM   23  C5  UNL     1      -6.709   0.479  -1.114  1.00  0.00     0.052 C 
HETATM   24  C6  UNL     1      -6.722   0.239  -2.585  1.00  0.00     0.234 C 
HETATM   25  N2  UNL     1      -6.949   1.550  -3.212  1.00  0.00    -0.075 N 
HETATM   26  C7  UNL     1      -5.748   2.311  -2.995  1.00  0.00     0.234 C 
ATOM     27  H22 UNL     1      -7.219   1.489  -4.194  1.00  0.00     0.277 HD
ATOM     28  H21 UNL     1      -7.792   2.018  -2.880  1.00  0.00     0.277 HD
HETATM   29  C8  UNL     1      -5.429   2.507  -1.552  1.00  0.00     0.052 C 
ENDBRANCH  16  22
ENDBRANCH   1  11
BRANCH   9  30
HETATM   30  C20 UNL     1       2.271   0.013   1.044  1.00  0.00     0.208 C 
BRANCH  30  31
HETATM   31  O5  UNL     1       1.183   0.538   0.520  1.00  0.00    -0.342 OA
ATOM     32  H5  UNL     1       1.176   1.476   0.369  1.00  0.00     0.219 HD
ENDBRANCH  30  31
BRANCH  30  33
HETATM   33  N5  UNL     1       3.253   0.978   1.291  1.00  0.00    -0.342 N 
HETATM   34  C21 UNL     1       2.780   2.358   1.048  1.00  0.00     0.126 C 
HETATM   35  C22 UNL     1       3.124   2.778  -0.320  1.00  0.00     0.024 C 
HETATM   36  C23 UNL     1       4.533   3.307  -0.476  1.00  0.00    -0.013 C 
HETATM   37  C24 UNL     1       5.388   2.302  -1.198  1.00  0.00     0.005 C 
HETATM   38  C28 UNL     1       5.147   3.795   0.809  1.00  0.00     0.005 C 
HETATM   39  C25 UNL     1       5.871   1.189  -0.323  1.00  0.00     0.007 C 
HETATM   40  C26 UNL     1       5.690   1.364   1.141  1.00  0.00     0.019 C 
HETATM   41  C27 UNL     1       5.728   2.736   1.673  1.00  0.00     0.007 C 
HETATM   42  C29 UNL     1       4.524   0.496   1.696  1.00  0.00     0.191 C 
BRANCH  42  43
HETATM   43  C30 UNL     1       4.716   0.527   3.165  1.00  0.00     0.197 C 
HETATM   44  O6  UNL     1       3.765   0.933   3.887  1.00  0.00    -0.646 OA
HETATM   45  O7  UNL     1       5.889   0.132   3.782  1.00  0.00    -0.646 OA
ENDBRANCH  42  43
ENDBRANCH  30  33
ENDBRANCH   9  30
TORSDOF 7
