REMARK  5 active torsions:
REMARK  status: ('A' for Active; 'I' for Inactive)
REMARK    1  A    between atoms: C2_2  and  C3_3 
REMARK    2  A    between atoms: C3_3  and  C5_5 
REMARK    3  A    between atoms: C7_10  and  C8_11 
REMARK    4  A    between atoms: N4_33  and  S2_34 
REMARK    5  A    between atoms: C23_38  and  C24_39 
REMARK       I    between atoms: C24_39  and  N5_41 
ROOT
HETATM    1  C5  UNL     1      -2.560   0.492   0.495  1.00  0.00     0.043 C 
HETATM    2  N1  UNL     1      -2.147   1.763  -0.071  1.00  0.00    -0.327 N 
ATOM      3  H1  UNL     1      -2.853   2.238  -0.633  1.00  0.00     0.168 HD
HETATM    4  C6  UNL     1      -0.919   2.436   0.041  1.00  0.00     0.245 C 
HETATM    5  O1  UNL     1      -0.863   3.556   0.676  1.00  0.00    -0.271 OA
HETATM    6  C7  UNL     1       0.418   2.064  -0.480  1.00  0.00     0.180 C 
HETATM    7  N2  UNL     1       1.423   2.003   0.569  1.00  0.00    -0.347 N 
ATOM      8  H2  UNL     1       1.397   2.684   1.328  1.00  0.00     0.163 HD
HETATM    9  C11 UNL     1       2.441   1.012   0.556  1.00  0.00     0.223 C 
HETATM   10  O2  UNL     1       3.142   1.033   1.602  1.00  0.00    -0.273 OA
HETATM   11  C12 UNL     1       2.702   0.057  -0.503  1.00  0.00     0.088 C 
HETATM   12  C13 UNL     1       4.184   0.275  -0.911  1.00  0.00     0.072 C 
HETATM   13  C14 UNL     1       5.100  -0.478   0.027  1.00  0.00     0.027 A 
HETATM   14  N3  UNL     1       6.121  -0.089   0.730  1.00  0.00    -0.320 N 
ATOM     15  H3  UNL     1       6.422   0.885   0.703  1.00  0.00     0.169 HD
HETATM   16  C15 UNL     1       6.765  -0.963   1.479  1.00  0.00     0.288 A 
HETATM   17  O3  UNL     1       7.782  -0.789   2.238  1.00  0.00    -0.260 OA
HETATM   18  S1  UNL     1       5.890  -2.426   1.184  1.00  0.00    -0.032 SA
HETATM   19  C16 UNL     1       4.733  -1.782   0.092  1.00  0.00     0.011 A 
HETATM   20  C17 UNL     1       3.557  -2.192  -0.725  1.00  0.00     0.054 C 
HETATM   21  C18 UNL     1       2.315  -1.334  -0.461  1.00  0.00     0.013 C 
HETATM   22  C19 UNL     1       1.309  -1.917   0.483  1.00  0.00    -0.030 C 
HETATM   23  C20 UNL     1       1.274  -1.427   1.881  1.00  0.00     0.016 C 
HETATM   24  C21 UNL     1       1.815  -3.371   0.724  1.00  0.00     0.016 C 
HETATM   25  C22 UNL     1      -0.045  -2.042  -0.115  1.00  0.00     0.125 C 
HETATM   26  N4  UNL     1      -1.278  -1.702   0.505  1.00  0.00    -0.149 NA
HETATM   27  C23 UNL     1      -2.075  -0.737  -0.214  1.00  0.00     0.118 C 
ENDROOT
BRANCH  27  28
HETATM   28  C24 UNL     1      -3.098  -1.271  -1.147  1.00  0.00     0.267 C 
HETATM   29  O7  UNL     1      -4.145  -1.704  -0.614  1.00  0.00    -0.266 OA
HETATM   30  N5  UNL     1      -3.033  -1.346  -2.552  1.00  0.00    -0.356 N 
HETATM   31  C25 UNL     1      -4.160  -1.914  -3.320  1.00  0.00     0.152 C 
HETATM   32  C26 UNL     1      -1.931  -0.899  -3.378  1.00  0.00     0.152 C 
ENDBRANCH  27  28
BRANCH   1  33
HETATM   33  C3  UNL     1      -2.825   0.510   1.939  1.00  0.00     0.033 C 
HETATM   34  C4  UNL     1      -1.798   0.958   2.891  1.00  0.00     0.016 C 
BRANCH  33  35
HETATM   35  C2  UNL     1      -3.974   1.543   2.174  1.00  0.00     0.006 C 
HETATM   36  C1  UNL     1      -4.445   1.487   3.589  1.00  0.00     0.006 C 
ENDBRANCH  33  35
ENDBRANCH   1  33
BRANCH  26  37
HETATM   37  S2  UNL     1      -2.151  -3.171   0.676  1.00  0.00     0.190 S 
HETATM   38  O4  UNL     1      -1.323  -4.266   1.352  1.00  0.00    -0.582 OA
HETATM   39  O5  UNL     1      -3.322  -3.166   1.588  1.00  0.00    -0.582 OA
HETATM   40  O6  UNL     1      -2.478  -3.912  -0.821  1.00  0.00    -0.582 OA
ENDBRANCH  26  37
BRANCH   6  41
HETATM   41  C8  UNL     1       0.893   3.180  -1.437  1.00  0.00     0.009 C 
HETATM   42  C9  UNL     1      -0.123   3.292  -2.579  1.00  0.00     0.012 C 
HETATM   43  C10 UNL     1       1.070   4.492  -0.764  1.00  0.00     0.012 C 
ENDBRANCH   6  41
TORSDOF 5
