REMARK  8 active torsions:
REMARK  status: ('A' for Active; 'I' for Inactive)
REMARK    1  A    between atoms: C2_2  and  C3_3 
REMARK    2  A    between atoms: C10_17  and  O3_18 
REMARK    3  A    between atoms: C11_21  and  O4_22 
REMARK    4  A    between atoms: C12_24  and  C13_25 
REMARK    5  A    between atoms: C13_25  and  C14_26 
REMARK    6  A    between atoms: C18_32  and  C19_33 
REMARK    7  A    between atoms: C23_38  and  O7_39 
REMARK    8  A    between atoms: C24_41  and  C25_42 
ROOT
HETATM    1  C3  UNL     1      -3.662  -1.351  -0.339  1.00  0.00     0.106 C 
HETATM    2  N1  UNL     1      -4.780  -0.594  -0.642  1.00  0.00    -0.326 N 
ATOM      3  H1  UNL     1      -5.019   0.342  -0.313  1.00  0.00     0.165 HD
HETATM    4  C4  UNL     1      -5.535  -1.455  -1.544  1.00  0.00     0.317 C 
HETATM    5  O1  UNL     1      -6.757  -1.326  -1.879  1.00  0.00    -0.247 OA
HETATM    6  N2  UNL     1      -4.620  -2.491  -1.985  1.00  0.00    -0.327 N 
ATOM      7  H2  UNL     1      -4.828  -3.413  -2.369  1.00  0.00     0.165 HD
HETATM    8  C5  UNL     1      -3.356  -1.884  -1.742  1.00  0.00     0.213 C 
HETATM    9  C6  UNL     1      -2.191  -2.639  -1.421  1.00  0.00     0.250 C 
HETATM   10  O2  UNL     1      -1.835  -3.793  -1.858  1.00  0.00    -0.271 OA
HETATM   11  N3  UNL     1      -1.444  -1.853  -0.478  1.00  0.00    -0.315 N 
HETATM   12  C7  UNL     1      -0.031  -1.957  -0.140  1.00  0.00     0.157 C 
HETATM   13  C8  UNL     1       0.248  -2.068   1.288  1.00  0.00     0.111 C 
HETATM   14  C9  UNL     1       0.170  -3.569   1.709  1.00  0.00     0.081 C 
HETATM   15  C10 UNL     1       0.902  -2.997   2.886  1.00  0.00     0.224 C 
HETATM   16  N4  UNL     1       1.516  -2.089   1.850  1.00  0.00    -0.330 N 
HETATM   17  C11 UNL     1       2.770  -1.502   1.605  1.00  0.00     0.146 C 
HETATM   18  C12 UNL     1       3.081  -0.441   0.671  1.00  0.00     0.206 C 
HETATM   19  O5  UNL     1       2.138   0.589   0.667  1.00  0.00    -0.306 OA
HETATM   20  C17 UNL     1       1.633   1.609   1.287  1.00  0.00     0.283 C 
HETATM   21  O6  UNL     1       1.388   1.793   2.547  1.00  0.00    -0.263 OA
HETATM   22  C18 UNL     1       1.224   2.846   0.521  1.00  0.00     0.189 C 
HETATM   23  N5  UNL     1       0.607   2.679  -0.733  1.00  0.00    -0.351 N 
HETATM   24  C22 UNL     1       1.087   3.635  -1.775  1.00  0.00     0.152 C 
HETATM   25  C23 UNL     1      -0.380   1.800  -1.200  1.00  0.00     0.145 C 
HETATM   26  C24 UNL     1      -1.736   1.418  -0.834  1.00  0.00    -0.002 C 
HETATM   27  C28 UNL     1      -1.973   0.487   0.271  1.00  0.00     0.039 C 
HETATM   28  C29 UNL     1      -2.366  -0.909   0.116  1.00  0.00     0.046 C 
ENDROOT
BRANCH  18  29
HETATM   29  C13 UNL     1       3.502  -0.861  -0.687  1.00  0.00     0.044 C 
BRANCH  29  30
HETATM   30  C14 UNL     1       4.717  -1.716  -0.870  1.00  0.00    -0.020 C 
HETATM   31  C15 UNL     1       4.939  -1.892  -2.399  1.00  0.00     0.009 C 
HETATM   32  C16 UNL     1       4.537  -3.130  -0.349  1.00  0.00     0.009 C 
ENDBRANCH  29  30
ENDBRANCH  18  29
BRANCH  17  33
HETATM   33  O4  UNL     1       3.804  -1.932   2.290  1.00  0.00    -0.347 OA
ATOM     34  H4  UNL     1       4.651  -1.535   2.124  1.00  0.00     0.219 HD
ENDBRANCH  17  33
BRANCH  15  35
HETATM   35  O3  UNL     1       0.085  -2.310   3.774  1.00  0.00    -0.377 OA
ATOM     36  H3  UNL     1       0.549  -1.948   4.520  1.00  0.00     0.212 HD
ENDBRANCH  15  35
BRANCH  22  37
HETATM   37  C19 UNL     1       2.447   3.714   0.586  1.00  0.00     0.010 C 
HETATM   38  C20 UNL     1       2.760   4.031   2.073  1.00  0.00     0.012 C 
HETATM   39  C21 UNL     1       3.722   3.005   0.145  1.00  0.00     0.012 C 
ENDBRANCH  22  37
BRANCH  25  40
HETATM   40  O7  UNL     1       0.084   1.172  -2.260  1.00  0.00    -0.346 OA
ATOM     41  H7  UNL     1      -0.585   0.576  -2.576  1.00  0.00     0.219 HD
ENDBRANCH  25  40
BRANCH  26  42
HETATM   42  C25 UNL     1      -2.717   2.610  -0.836  1.00  0.00     0.015 C 
HETATM   43  C26 UNL     1      -2.785   3.246  -2.200  1.00  0.00     0.015 C 
HETATM   44  C27 UNL     1      -2.483   3.581   0.285  1.00  0.00     0.015 C 
ENDBRANCH  26  42
BRANCH   1  45
HETATM   45  C2  UNL     1      -4.185  -2.532   0.508  1.00  0.00     0.036 C 
HETATM   46  C1  UNL     1      -4.839  -1.961   1.747  1.00  0.00     0.008 C 
ENDBRANCH   1  45
TORSDOF 8
