REMARK  8 active torsions:
REMARK  status: ('A' for Active; 'I' for Inactive)
REMARK    1  A    between atoms: O1_1  and  C1_3 
REMARK    2  A    between atoms: C1_3  and  C2_5 
REMARK    3  A    between atoms: C2_5  and  S1_6 
REMARK    4  A    between atoms: C2_5  and  C5_16 
REMARK    5  A    between atoms: S1_6  and  C3_7 
REMARK    6  A    between atoms: C3_7  and  C4_8 
REMARK    7  A    between atoms: N6_20  and  C7_21 
REMARK    8  A    between atoms: C12_29  and  C13_30 
ROOT
HETATM    1  C5  UNL     1       0.625   0.132   0.063  1.00  0.00     0.007 A 
HETATM    2  C6  UNL     1       0.710  -0.650   1.216  1.00  0.00     0.118 A 
HETATM    3  N5  UNL     1      -0.518  -1.109   1.554  1.00  0.00    -0.303 N 
ATOM      4  H5  UNL     1      -0.727  -1.703   2.357  1.00  0.00     0.186 HD
HETATM    5  N6  UNL     1      -1.431  -0.651   0.651  1.00  0.00    -0.239 N 
HETATM    6  C12 UNL     1      -0.778   0.078  -0.226  1.00  0.00     0.077 A 
ENDROOT
BRANCH   1   7
HETATM    7  C2  UNL     1       1.741   0.571  -0.688  1.00  0.00     0.144 C 
BRANCH   7   8
HETATM    8  C1  UNL     1       2.592   1.722  -0.348  1.00  0.00     0.322 C 
HETATM    9  F1  UNL     1       3.090   1.851   0.915  1.00  0.00    -0.218 F 
BRANCH   8  10
HETATM   10  O1  UNL     1       3.665   1.748  -1.233  1.00  0.00    -0.366 OA
ATOM     11  H1  UNL     1       3.318   1.658  -2.113  1.00  0.00     0.213 HD
ENDBRANCH   8  10
ENDBRANCH   7   8
BRANCH   7  12
HETATM   12  S1  UNL     1       3.069  -0.843  -0.513  1.00  0.00    -0.146 SA
BRANCH  12  13
HETATM   13  C3  UNL     1       4.020  -0.571   0.970  1.00  0.00     0.153 C 
BRANCH  13  14
HETATM   14  C4  UNL     1       4.825  -1.812   1.295  1.00  0.00     0.119 A 
HETATM   15  N1  UNL     1       4.364  -2.881   1.934  1.00  0.00    -0.270 N 
HETATM   16  N2  UNL     1       5.359  -3.759   2.053  1.00  0.00    -0.005 NA
ATOM     17  H1  UNL     1       3.411  -3.008   2.275  1.00  0.00     0.185 HD
HETATM   18  N3  UNL     1       6.453  -3.266   1.502  1.00  0.00    -0.225 N 
HETATM   19  N4  UNL     1       6.121  -2.096   1.049  1.00  0.00    -0.274 N 
ATOM     20  H3  UNL     1       7.369  -3.712   1.444  1.00  0.00     0.205 HD
ATOM     21  H4  UNL     1       6.762  -1.467   0.565  1.00  0.00     0.189 HD
ENDBRANCH  13  14
ENDBRANCH  12  13
ENDBRANCH   7  12
ENDBRANCH   1   7
BRANCH   6  22
HETATM   22  C13 UNL     1      -1.357   0.951  -1.258  1.00  0.00    -0.006 A 
HETATM   23  C14 UNL     1      -2.336   0.508  -2.090  1.00  0.00     0.017 A 
HETATM   24  C15 UNL     1      -2.961   1.374  -2.959  1.00  0.00     0.043 A 
HETATM   25  C16 UNL     1      -2.661   2.716  -3.053  1.00  0.00     0.116 A 
HETATM   26  F3  UNL     1      -3.290   3.561  -3.920  1.00  0.00    -0.206 F 
HETATM   27  C17 UNL     1      -1.671   3.133  -2.201  1.00  0.00     0.043 A 
HETATM   28  C18 UNL     1      -1.008   2.273  -1.305  1.00  0.00     0.017 A 
ENDBRANCH   6  22
BRANCH   5  29
HETATM   29  C7  UNL     1      -2.782  -0.937   0.838  1.00  0.00     0.127 A 
HETATM   30  C8  UNL     1      -3.463  -0.114   1.745  1.00  0.00     0.053 A 
HETATM   31  C9  UNL     1      -4.774  -0.301   2.088  1.00  0.00     0.047 A 
HETATM   32  C10 UNL     1      -5.443  -1.358   1.500  1.00  0.00     0.131 A 
HETATM   33  F2  UNL     1      -6.749  -1.673   1.774  1.00  0.00    -0.205 F 
HETATM   34  C11 UNL     1      -4.759  -2.178   0.595  1.00  0.00     0.132 A 
HETATM   35  N7  UNL     1      -3.463  -1.922   0.311  1.00  0.00    -0.348 N 
ATOM     36  H7  UNL     1      -2.988  -2.533  -0.353  1.00  0.00     0.167 HD
ENDBRANCH   5  29
TORSDOF 8
