REMARK  7 active torsions:
REMARK  status: ('A' for Active; 'I' for Inactive)
REMARK    1  A    between atoms: C3_7  and  C4_8 
REMARK    2  A    between atoms: C4_8  and  O1_9 
REMARK    3  A    between atoms: O1_9  and  C5_10 
REMARK    4  A    between atoms: C8_15  and  C9_16 
REMARK    5  A    between atoms: N4_17  and  N5_19 
REMARK    6  A    between atoms: N5_19  and  C10_21 
REMARK    7  A    between atoms: C16_31  and  C17_32 
ROOT
HETATM    1  C5  UNL     1       2.004  -1.257  -0.747  1.00  0.00     0.154 A 
HETATM    2  N3  UNL     1       1.611  -0.046  -1.181  1.00  0.00    -0.340 N 
ATOM      3  H3  UNL     1       2.334   0.637  -1.407  1.00  0.00     0.168 HD
HETATM    4  C6  UNL     1       0.331   0.321  -1.336  1.00  0.00     0.019 A 
HETATM    5  C7  UNL     1      -0.075   1.669  -1.818  1.00  0.00     0.069 C 
HETATM    6  C8  UNL     1      -0.636  -0.629  -1.023  1.00  0.00     0.004 A 
HETATM    7  C15 UNL     1      -0.256  -1.899  -0.570  1.00  0.00     0.032 A 
HETATM    8  C16 UNL     1       1.072  -2.222  -0.428  1.00  0.00     0.058 A 
ENDROOT
BRANCH   6   9
HETATM    9  C9  UNL     1      -2.030  -0.276  -1.178  1.00  0.00     0.120 C 
HETATM   10  N4  UNL     1      -2.930  -1.134  -0.895  1.00  0.00    -0.309 N 
ATOM     11  H4  UNL     1      -2.626  -2.050  -0.565  1.00  0.00     0.186 HD
BRANCH  10  12
HETATM   12  N5  UNL     1      -4.296  -0.906  -1.005  1.00  0.00    -0.286 N 
ATOM     13  H5  UNL     1      -4.763  -0.997  -1.907  1.00  0.00     0.188 HD
BRANCH  12  14
HETATM   14  C10 UNL     1      -4.967  -0.578   0.045  1.00  0.00     0.120 A 
HETATM   15  C11 UNL     1      -6.337  -0.343  -0.034  1.00  0.00     0.051 A 
HETATM   16  C12 UNL     1      -7.045   0.006   1.090  1.00  0.00     0.031 A 
HETATM   17  C13 UNL     1      -6.354   0.111   2.277  1.00  0.00     0.072 A 
HETATM   18 CL1  UNL     1      -7.184   0.553   3.767  1.00  0.00    -0.081 Cl
HETATM   19  C14 UNL     1      -4.991  -0.128   2.329  1.00  0.00     0.127 A 
HETATM   20 CL2  UNL     1      -4.126   0.012   3.860  1.00  0.00    -0.063 Cl
HETATM   21  N6  UNL     1      -4.329  -0.463   1.233  1.00  0.00    -0.331 N 
ATOM     22  H6  UNL     1      -3.325  -0.637   1.284  1.00  0.00     0.168 HD
ENDBRANCH  12  14
ENDBRANCH  10  12
ENDBRANCH   6   9
BRANCH   8  23
HETATM   23  C17 UNL     1       1.502  -3.583   0.057  1.00  0.00     0.390 C 
HETATM   24  F1  UNL     1       2.349  -4.128  -0.870  1.00  0.00    -0.209 F 
HETATM   25  F2  UNL     1       2.199  -3.470   1.250  1.00  0.00    -0.209 F 
ENDBRANCH   8  23
BRANCH   1  26
HETATM   26  O1  UNL     1       3.344  -1.614  -0.594  1.00  0.00    -0.328 OA
BRANCH  26  27
HETATM   27  C4  UNL     1       4.426  -0.785  -0.861  1.00  0.00     0.255 C 
BRANCH  27  28
HETATM   28  C3  UNL     1       4.445   0.456  -0.030  1.00  0.00     0.122 A 
HETATM   29  N2  UNL     1       3.704   0.747   1.062  1.00  0.00    -0.286 N 
HETATM   30  N1  UNL     1       4.023   1.965   1.511  1.00  0.00    -0.288 N 
ATOM     31  H2  UNL     1       3.007   0.131   1.480  1.00  0.00     0.188 HD
HETATM   32  C2  UNL     1       4.983   2.467   0.697  1.00  0.00     0.093 A 
ATOM     33  H1  UNL     1       3.617   2.433   2.321  1.00  0.00     0.188 HD
HETATM   34  C1  UNL     1       5.647   3.804   0.810  1.00  0.00     0.090 C 
HETATM   35  N7  UNL     1       5.224   1.536  -0.231  1.00  0.00    -0.332 N 
ATOM     36  H7  UNL     1       5.903   1.630  -0.986  1.00  0.00     0.168 HD
ENDBRANCH  27  28
ENDBRANCH  26  27
ENDBRANCH   1  26
TORSDOF 7
