REMARK  8 active torsions:
REMARK  status: ('A' for Active; 'I' for Inactive)
REMARK    1  A    between atoms: S1_2  and  C2_3 
REMARK    2  A    between atoms: N2_7  and  C4_9 
REMARK    3  A    between atoms: C4_9  and  C5_10 
REMARK    4  A    between atoms: C5_10  and  S2_11 
REMARK    5  A    between atoms: S2_11  and  C6_12 
REMARK    6  A    between atoms: N3_18  and  C10_19 
REMARK    7  A    between atoms: C10_19  and  N4_20 
REMARK    8  A    between atoms: C10_19  and  C11_24 
ROOT
HETATM    1  C2  UNL     1      -2.407  -1.356   0.587  1.00  0.00     0.160 A 
HETATM    2  N1  UNL     1      -1.078  -1.311   0.408  1.00  0.00    -0.318 N 
ATOM      3  H1  UNL     1      -0.499  -2.133   0.579  1.00  0.00     0.169 HD
HETATM    4  C3  UNL     1      -0.531  -0.157  -0.002  1.00  0.00     0.174 A 
HETATM    5  N2  UNL     1       0.740  -0.008  -0.202  1.00  0.00    -0.371 N 
ATOM      6  H2  UNL     1       1.108   0.891  -0.514  1.00  0.00     0.161 HD
HETATM    7  C9  UNL     1      -1.367   0.943  -0.224  1.00  0.00     0.308 A 
HETATM    8  O1  UNL     1      -0.892   2.036  -0.607  1.00  0.00    -0.262 OA
HETATM    9  N3  UNL     1      -2.703   0.887  -0.041  1.00  0.00    -0.216 N 
HETATM   10  N5  UNL     1      -3.189  -0.272   0.363  1.00  0.00    -0.273 N 
ATOM     11  H5  UNL     1      -4.195  -0.355   0.513  1.00  0.00     0.189 HD
ENDROOT
BRANCH   5  12
HETATM   12  C4  UNL     1       1.628  -1.112   0.017  1.00  0.00     0.131 C 
BRANCH  12  13
HETATM   13  C5  UNL     1       2.448  -0.841   1.253  1.00  0.00     0.095 C 
BRANCH  13  14
HETATM   14  S2  UNL     1       3.414   0.667   1.163  1.00  0.00    -0.142 SA
BRANCH  14  15
HETATM   15  C6  UNL     1       4.710   0.535  -0.073  1.00  0.00     0.077 C 
HETATM   16  C7  UNL     1       5.597   1.780  -0.068  1.00  0.00     0.044 C 
HETATM   17  C8  UNL     1       5.571  -0.661   0.255  1.00  0.00     0.044 C 
HETATM   18 CL1  UNL     1       3.963   0.388  -1.690  1.00  0.00    -0.108 Cl
ENDBRANCH  14  15
ENDBRANCH  13  14
ENDBRANCH  12  13
ENDBRANCH   5  12
BRANCH   1  19
HETATM   19  S1  UNL     1      -3.153  -2.906   1.143  1.00  0.00    -0.097 SA
HETATM   20  C1  UNL     1      -3.616  -3.931  -0.256  1.00  0.00     0.099 C 
ENDBRANCH   1  19
BRANCH   9  21
HETATM   21  C10 UNL     1      -3.542   2.042  -0.273  1.00  0.00     0.361 C 
BRANCH  21  22
HETATM   22  N4  UNL     1      -4.698   1.695  -1.065  1.00  0.00    -0.052 N 
ATOM     23  H43 UNL     1      -4.432   1.243  -1.940  1.00  0.00     0.277 HD
ATOM     24  H42 UNL     1      -5.223   0.927  -0.646  1.00  0.00     0.277 HD
ATOM     25  H41 UNL     1      -5.290   2.510  -1.229  1.00  0.00     0.277 HD
ENDBRANCH  21  22
BRANCH  21  26
HETATM   26  C11 UNL     1      -3.899   2.748   1.017  1.00  0.00     0.235 C 
HETATM   27 CL2  UNL     1      -4.781   1.698   2.138  1.00  0.00    -0.079 Cl
HETATM   28 CL3  UNL     1      -4.776   4.250   0.658  1.00  0.00    -0.079 Cl
HETATM   29 CL4  UNL     1      -2.389   3.230   1.857  1.00  0.00    -0.079 Cl
ENDBRANCH  21  26
ENDBRANCH   9  21
TORSDOF 8
