REMARK  4 active torsions:
REMARK  status: ('A' for Active; 'I' for Inactive)
REMARK    1  A    between atoms: O1_2  and  C2_3 
REMARK    2  A    between atoms: C10_12  and  O3_13 
REMARK    3  A    between atoms: O3_13  and  C11_14 
REMARK    4  A    between atoms: C17_21  and  O5_22 
ROOT
HETATM    1  C2  UNL     1      -2.346   1.110  -0.867  1.00  0.00     0.059 C 
HETATM    2  C3  UNL     1      -3.271   0.253  -0.452  1.00  0.00     0.084 C 
HETATM    3  C4  UNL     1      -2.633  -1.107  -0.394  1.00  0.00     0.164 C 
HETATM    4  O2  UNL     1      -3.189  -2.185  -0.648  1.00  0.00    -0.292 OA
HETATM    5  C5  UNL     1      -1.305  -0.680   0.023  1.00  0.00     0.066 C 
HETATM    6  C6  UNL     1      -1.511  -0.015   1.367  1.00  0.00     0.028 C 
HETATM    7  C7  UNL     1      -1.151   0.341  -1.097  1.00  0.00     0.025 C 
HETATM    8  C8  UNL     1      -1.391  -0.278  -2.471  1.00  0.00     0.024 C 
HETATM    9  C9  UNL     1       0.194   0.804  -1.003  1.00  0.00     0.051 C 
HETATM   10  C10 UNL     1       1.065   0.333   0.141  1.00  0.00     0.144 C 
HETATM   11  C13 UNL     1       0.955  -0.949   0.753  1.00  0.00     0.021 A 
HETATM   12  C14 UNL     1       1.793  -1.012   1.952  1.00  0.00     0.021 C 
HETATM   13  C15 UNL     1       0.425  -2.316   0.836  1.00  0.00     0.032 A 
HETATM   14  C16 UNL     1       1.450  -3.421   0.549  1.00  0.00     0.014 C 
HETATM   15  C17 UNL     1      -0.097  -1.494  -0.064  1.00  0.00     0.088 A 
ENDROOT
BRANCH  10  16
HETATM   16  O3  UNL     1       2.418   0.653  -0.144  1.00  0.00    -0.315 OA
BRANCH  16  17
HETATM   17  C11 UNL     1       3.133   1.705   0.324  1.00  0.00     0.255 C 
HETATM   18  C12 UNL     1       4.545   1.894  -0.062  1.00  0.00     0.126 C 
HETATM   19  O4  UNL     1       2.498   2.463   1.081  1.00  0.00    -0.266 OA
ENDBRANCH  16  17
ENDBRANCH  10  16
BRANCH  15  20
HETATM   20  O5  UNL     1       0.235  -1.862  -1.404  1.00  0.00    -0.387 OA
ATOM     21  H5  UNL     1       1.021  -2.392  -1.461  1.00  0.00     0.210 HD
ENDBRANCH  15  20
BRANCH   1  22
HETATM   22  O1  UNL     1      -2.486   2.477  -1.059  1.00  0.00    -0.359 OA
HETATM   23  C1  UNL     1      -3.248   3.298  -0.199  1.00  0.00     0.209 C 
ENDBRANCH   1  22
TORSDOF 4
