REMARK  5 active torsions:
REMARK  status: ('A' for Active; 'I' for Inactive)
REMARK    1  A    between atoms: S1_2  and  S2_3 
REMARK    2  A    between atoms: S2_3  and  C2_4 
REMARK    3  A    between atoms: C2_4  and  C3_6 
REMARK    4  A    between atoms: C5_8  and  C6_9 
REMARK    5  A    between atoms: C13_17  and  N2_18 
ROOT
HETATM    1  C3  UNL     1       1.480  -0.238   0.122  1.00  0.00     0.164 C 
HETATM    2  C4  UNL     1       0.535  -0.781   1.172  1.00  0.00     0.089 C 
HETATM    3  C5  UNL     1      -0.340  -0.738  -0.063  1.00  0.00     0.099 C 
HETATM    4  C12 UNL     1       0.225  -1.827  -0.957  1.00  0.00     0.076 C 
HETATM    5  C13 UNL     1       1.716  -1.488  -0.741  1.00  0.00     0.229 C 
HETATM    6  O2  UNL     1       0.376   0.398  -0.432  1.00  0.00    -0.356 OA
ENDROOT
BRANCH   3   7
HETATM    7  C6  UNL     1      -1.780  -0.658   0.092  1.00  0.00     0.257 C 
HETATM    8  C7  UNL     1      -2.295   0.215   1.178  1.00  0.00     0.045 C 
HETATM    9  C8  UNL     1      -3.449   0.955   0.526  1.00  0.00     0.012 C 
HETATM   10  C9  UNL     1      -3.592   2.342   1.118  1.00  0.00     0.012 C 
HETATM   11  C10 UNL     1      -3.078   0.982  -0.920  1.00  0.00     0.277 C 
HETATM   12  N1  UNL     1      -2.398  -0.252  -1.154  1.00  0.00     0.092 N 
HETATM   13  C11 UNL     1      -3.206  -1.270  -1.752  1.00  0.00     0.310 C 
ENDBRANCH   3   7
BRANCH   1  14
HETATM   14  C2  UNL     1       2.615   0.526   0.525  1.00  0.00     0.233 C 
HETATM   15  O1  UNL     1       2.662   1.735   0.403  1.00  0.00    -0.281 OA
BRANCH  14  16
HETATM   16  S2  UNL     1       4.024  -0.316   1.235  1.00  0.00    -0.017 SA
BRANCH  16  17
HETATM   17  S1  UNL     1       5.573   1.028   1.749  1.00  0.00    -0.094 SA
HETATM   18  C1  UNL     1       6.729   1.271   0.363  1.00  0.00     0.103 C 
ENDBRANCH  16  17
ENDBRANCH  14  16
ENDBRANCH   1  14
BRANCH   5  19
HETATM   19  N2  UNL     1       2.374  -1.181  -1.967  1.00  0.00    -0.072 N 
ATOM     20  H23 UNL     1       1.868  -0.464  -2.487  1.00  0.00     0.274 HD
ATOM     21  H22 UNL     1       3.245  -0.677  -1.802  1.00  0.00     0.274 HD
ATOM     22  H21 UNL     1       2.531  -2.010  -2.540  1.00  0.00     0.274 HD
ENDBRANCH   5  19
TORSDOF 5
