REMARK  4 active torsions:
REMARK  status: ('A' for Active; 'I' for Inactive)
REMARK    1  A    between atoms: C2_2  and  N1_3 
REMARK    2  A    between atoms: N1_3  and  C3_4 
REMARK       I    between atoms: N1_3  and  C5_6 
REMARK       I    between atoms: C5_6  and  N2_8 
REMARK    3  A    between atoms: N2_8  and  C6_10 
REMARK    4  A    between atoms: C6_10  and  C7_11 
ROOT
HETATM    1  N1  UNL     1       3.294   0.400  -0.390  1.00  0.00    -0.335 N 
HETATM    2  C5  UNL     1       2.047   0.950   0.022  1.00  0.00     0.318 C 
HETATM    3  O1  UNL     1       1.980   2.190   0.275  1.00  0.00    -0.247 OA
HETATM    4  N2  UNL     1       0.878   0.154   0.157  1.00  0.00    -0.343 N 
ATOM      5  H2  UNL     1       0.919  -0.845  -0.044  1.00  0.00     0.164 HD
ENDROOT
BRANCH   4   6
HETATM    6  C6  UNL     1      -0.366   0.751   0.577  1.00  0.00     0.129 C 
BRANCH   6   7
HETATM    7  C7  UNL     1      -1.484  -0.230   0.665  1.00  0.00     0.008 C 
HETATM    8  C8  UNL     1      -1.805  -0.919  -0.619  1.00  0.00     0.011 C 
HETATM    9  C9  UNL     1      -3.305  -1.109  -0.761  1.00  0.00    -0.014 C 
HETATM   10  C10 UNL     1      -3.961   0.240  -1.064  1.00  0.00     0.005 C 
HETATM   11  C14 UNL     1      -3.924  -1.568   0.563  1.00  0.00     0.005 C 
HETATM   12  C11 UNL     1      -3.323   1.232  -0.094  1.00  0.00     0.005 C 
HETATM   13  C12 UNL     1      -2.732   0.525   1.109  1.00  0.00    -0.009 C 
HETATM   14  C13 UNL     1      -3.696  -0.532   1.629  1.00  0.00     0.005 C 
ENDBRANCH   6   7
ENDBRANCH   4   6
BRANCH   1  15
HETATM   15  C2  UNL     1       3.445  -1.007  -0.698  1.00  0.00     0.123 C 
HETATM   16  C1  UNL     1       3.833  -1.748   0.581  1.00  0.00     0.026 C 
ENDBRANCH   1  15
BRANCH   1  17
HETATM   17  C3  UNL     1       4.459   1.254  -0.510  1.00  0.00     0.123 C 
HETATM   18  C4  UNL     1       4.525   1.814  -1.922  1.00  0.00     0.026 C 
ENDBRANCH   1  17
TORSDOF 4
