REMARK  4 active torsions:
REMARK  status: ('A' for Active; 'I' for Inactive)
REMARK       I    between atoms: C1_2  and  N1_3 
REMARK       I    between atoms: C1_2  and  N2_14 
REMARK    1  A    between atoms: N1_3  and  C2_5 
REMARK    2  A    between atoms: C2_5  and  C3_6 
REMARK    3  A    between atoms: C3_6  and  C4_7 
REMARK    4  A    between atoms: C4_7  and  C5_8 
ROOT
HETATM    1  O1  UNL     1      -3.246  -2.159   0.827  1.00  0.00    -0.247 OA
HETATM    2  C1  UNL     1      -2.677  -1.089   0.461  1.00  0.00     0.322 C 
HETATM    3  N1  UNL     1      -1.219  -1.038   0.410  1.00  0.00    -0.319 N 
ATOM      4  H1  UNL     1      -0.716  -0.198   0.122  1.00  0.00     0.170 HD
HETATM    5  N2  UNL     1      -3.476   0.006   0.119  1.00  0.00    -0.331 N 
HETATM    6  C11 UNL     1      -3.025   1.294  -0.319  1.00  0.00     0.130 C 
HETATM    7  C12 UNL     1      -3.943   1.526  -1.530  1.00  0.00     0.058 C 
HETATM    8  C13 UNL     1      -5.218   0.814  -1.140  1.00  0.00     0.189 C 
HETATM    9  F1  UNL     1      -6.274   1.676  -0.993  1.00  0.00    -0.248 F 
HETATM   10  C14 UNL     1      -4.907   0.066   0.138  1.00  0.00     0.164 C 
ENDROOT
BRANCH   3  11
HETATM   11  C2  UNL     1      -0.550  -2.218   0.782  1.00  0.00     0.092 C 
BRANCH  11  12
HETATM   12  C3  UNL     1       0.873  -2.355   0.807  1.00  0.00     0.013 C 
BRANCH  12  13
HETATM   13  C4  UNL     1       1.941  -1.680   0.596  1.00  0.00    -0.021 C 
BRANCH  13  14
HETATM   14  C5  UNL     1       2.086  -0.290   0.186  1.00  0.00     0.008 C 
HETATM   15  C6  UNL     1       3.059   0.332   1.239  1.00  0.00     0.008 C 
HETATM   16  C7  UNL     1       3.524   1.633   0.631  1.00  0.00     0.001 C 
HETATM   17  C8  UNL     1       4.658   1.288  -0.315  1.00  0.00     0.000 C 
HETATM   18  C9  UNL     1       4.297  -0.015  -0.999  1.00  0.00     0.001 C 
HETATM   19  C10 UNL     1       2.801  -0.143  -1.150  1.00  0.00     0.008 C 
ENDBRANCH  13  14
ENDBRANCH  12  13
ENDBRANCH  11  12
ENDBRANCH   3  11
TORSDOF 4
