REMARK  3 active torsions:
REMARK  status: ('A' for Active; 'I' for Inactive)
REMARK       I    between atoms: C1_2  and  N1_3 
REMARK    1  A    between atoms: C1_2  and  C13_16 
REMARK    2  A    between atoms: N1_3  and  C2_5 
REMARK    3  A    between atoms: C2_5  and  C3_6 
ROOT
HETATM    1  C3  UNL     1      -0.486  -0.536  -0.183  1.00  0.00    -0.007 C 
HETATM    2  C4  UNL     1      -1.604  -1.510  -0.657  1.00  0.00     0.019 C 
HETATM    3  C5  UNL     1      -2.918  -0.836  -0.594  1.00  0.00    -0.013 C 
HETATM    4  C6  UNL     1      -3.209  -0.557   0.885  1.00  0.00     0.009 C 
HETATM    5  C7  UNL     1      -2.142   0.341   1.409  1.00  0.00    -0.013 C 
HETATM    6  C8  UNL     1      -2.183   1.643   0.683  1.00  0.00     0.009 C 
HETATM    7  C9  UNL     1      -1.923   1.370  -0.770  1.00  0.00    -0.013 C 
HETATM    8  C10 UNL     1      -2.988   0.471  -1.331  1.00  0.00     0.009 C 
HETATM    9  C11 UNL     1      -0.579   0.771  -0.962  1.00  0.00     0.019 C 
HETATM   10  C12 UNL     1      -0.728  -0.236   1.233  1.00  0.00     0.019 C 
ENDROOT
BRANCH   1  11
HETATM   11  C2  UNL     1       0.759  -1.210  -0.613  1.00  0.00     0.073 C 
BRANCH  11  12
HETATM   12  N1  UNL     1       2.029  -0.674  -0.399  1.00  0.00    -0.340 N 
HETATM   13  C1  UNL     1       2.698  -0.494   0.807  1.00  0.00     0.228 C 
HETATM   14  O1  UNL     1       2.184  -0.843   1.901  1.00  0.00    -0.273 OA
ATOM     15  H1  UNL     1       2.532  -0.376  -1.235  1.00  0.00     0.167 HD
BRANCH  13  16
HETATM   16  C13 UNL     1       4.072   0.129   0.883  1.00  0.00     0.115 A 
HETATM   17  C14 UNL     1       4.377   1.170  -0.189  1.00  0.00     0.055 A 
HETATM   18  C15 UNL     1       5.085  -0.191  -0.137  1.00  0.00     0.184 A 
HETATM   19  F1  UNL     1       4.860  -1.065  -1.150  1.00  0.00    -0.248 F 
ENDBRANCH  13  16
ENDBRANCH  11  12
ENDBRANCH   1  11
TORSDOF 3
