REMARK  12 active torsions:
REMARK  status: ('A' for Active; 'I' for Inactive)
REMARK    1  A    between atoms: N1_1  and  C1_5 
REMARK    2  A    between atoms: C1_5  and  C2_6 
REMARK       I    between atoms: C2_6  and  N2_8 
REMARK    3  A    between atoms: N2_8  and  C3_10 
REMARK    4  A    between atoms: C3_10  and  O2_11 
REMARK    5  A    between atoms: C3_10  and  C4_13 
REMARK    6  A    between atoms: C4_13  and  C5_14 
REMARK    7  A    between atoms: C5_14  and  N3_15 
REMARK    8  A    between atoms: C5_14  and  C6_19 
REMARK       I    between atoms: C6_19  and  N4_21 
REMARK    9  A    between atoms: N4_21  and  C7_23 
REMARK   10  A    between atoms: C7_23  and  C8_24 
REMARK   11  A    between atoms: C8_24  and  C9_25 
REMARK   12  A    between atoms: C9_25  and  O4_26 
ROOT
HETATM    1  C5  UNL     1       0.084  -1.959  -0.214  1.00  0.00     0.282 C 
ENDROOT
BRANCH   1   2
HETATM    2  C4  UNL     1       1.314  -1.010  -0.090  1.00  0.00     0.126 C 
BRANCH   2   3
HETATM    3  C3  UNL     1       1.205   0.001  -1.124  1.00  0.00     0.120 C 
BRANCH   3   4
HETATM    4  N2  UNL     1       2.128   1.037  -1.340  1.00  0.00    -0.310 N 
HETATM    5  C2  UNL     1       3.280   1.300  -0.623  1.00  0.00     0.248 C 
HETATM    6  O1  UNL     1       3.998   2.293  -1.030  1.00  0.00    -0.271 OA
ATOM      7  H2  UNL     1       1.925   1.668  -2.115  1.00  0.00     0.170 HD
BRANCH   5   8
HETATM    8  C1  UNL     1       3.747   0.557   0.543  1.00  0.00     0.332 C 
BRANCH   8   9
HETATM    9  N1  UNL     1       5.026   1.138   1.003  1.00  0.00    -0.071 N 
ATOM     10  H13 UNL     1       5.725   1.176   0.261  1.00  0.00     0.274 HD
ATOM     11  H12 UNL     1       4.955   2.139   1.183  1.00  0.00     0.274 HD
ATOM     12  H11 UNL     1       5.352   0.619   1.818  1.00  0.00     0.274 HD
ENDBRANCH   8   9
ENDBRANCH   5   8
ENDBRANCH   3   4
BRANCH   3  13
HETATM   13  O2  UNL     1       0.167  -0.049  -1.927  1.00  0.00    -0.349 OA
ATOM     14  H2  UNL     1      -0.457  -0.750  -1.781  1.00  0.00     0.219 HD
ENDBRANCH   3  13
ENDBRANCH   2   3
ENDBRANCH   1   2
BRANCH   1  15
HETATM   15  N3  UNL     1       0.113  -2.551  -1.493  1.00  0.00    -0.066 N 
ATOM     16  H33 UNL     1       0.156  -1.863  -2.244  1.00  0.00     0.275 HD
ATOM     17  H32 UNL     1       0.996  -3.023  -1.688  1.00  0.00     0.275 HD
ATOM     18  H31 UNL     1      -0.692  -3.172  -1.574  1.00  0.00     0.275 HD
ENDBRANCH   1  15
BRANCH   1  19
HETATM   19  C6  UNL     1      -1.092  -1.172   0.166  1.00  0.00     0.248 C 
HETATM   20  O3  UNL     1      -0.984  -0.529   1.270  1.00  0.00    -0.271 OA
HETATM   21  N4  UNL     1      -2.278  -1.084  -0.571  1.00  0.00    -0.359 N 
ATOM     22  H4  UNL     1      -2.334  -1.612  -1.442  1.00  0.00     0.162 HD
BRANCH  21  23
HETATM   23  C7  UNL     1      -3.438  -0.293  -0.184  1.00  0.00     0.125 C 
BRANCH  23  24
HETATM   24  C8  UNL     1      -3.078   1.151  -0.106  1.00  0.00     0.046 C 
BRANCH  24  25
HETATM   25  C9  UNL     1      -4.362   1.893   0.295  1.00  0.00     0.165 C 
BRANCH  25  26
HETATM   26  O4  UNL     1      -4.781   1.401   1.530  1.00  0.00    -0.401 OA
ATOM     27  H4  UNL     1      -5.575   1.860   1.778  1.00  0.00     0.209 HD
ENDBRANCH  25  26
ENDBRANCH  24  25
ENDBRANCH  23  24
ENDBRANCH  21  23
ENDBRANCH   1  19
TORSDOF 12
