REMARK  2 active torsions:
REMARK  status: ('A' for Active; 'I' for Inactive)
REMARK    1  A    between atoms: C2_2  and  C3_3 
REMARK    2  A    between atoms: C2_2  and  N1_6 
REMARK       I    between atoms: N1_6  and  C6_8 
REMARK       I    between atoms: C6_8  and  N3_12 
ROOT
HETATM    1  N1  UNL     1       0.844  -0.900  -1.155  1.00  0.00    -0.215 N 
HETATM    2  C5  UNL     1       0.407  -2.207  -1.567  1.00  0.00     0.169 C 
HETATM    3  C6  UNL     1      -0.058   0.202  -1.370  1.00  0.00     0.672 C 
HETATM    4  N2  UNL     1       0.025   0.760  -2.466  1.00  0.00    -0.235 N 
ATOM      5  H21 UNL     1      -0.614   1.540  -2.618  1.00  0.00     0.174 HD
ATOM      6  H22 UNL     1       0.667   0.475  -3.206  1.00  0.00     0.174 HD
HETATM    7  N3  UNL     1      -0.964   0.605  -0.326  1.00  0.00    -0.214 N 
HETATM    8  C7  UNL     1      -0.547   1.545   0.700  1.00  0.00     0.141 C 
HETATM    9  C8  UNL     1      -1.848   2.149   1.205  1.00  0.00     0.022 C 
HETATM   10  C9  UNL     1      -2.747   0.945   1.168  1.00  0.00     0.027 C 
HETATM   11  C10 UNL     1      -2.322   0.202  -0.082  1.00  0.00     0.098 C 
HETATM   12  C11 UNL     1      -2.410  -1.283   0.285  1.00  0.00     0.033 C 
ENDROOT
BRANCH   1  13
HETATM   13  C2  UNL     1       2.113  -0.701  -0.546  1.00  0.00     0.121 C 
HETATM   14  C1  UNL     1       2.212  -1.425   0.794  1.00  0.00     0.037 C 
BRANCH  13  15
HETATM   15  C3  UNL     1       2.533   0.701  -0.363  1.00  0.00     0.010 C 
HETATM   16  C4  UNL     1       3.341   1.087   0.609  1.00  0.00     0.082 C 
HETATM   17 CL1  UNL     1       3.785   2.760   0.749  1.00  0.00    -0.097 Cl
ENDBRANCH  13  15
ENDBRANCH   1  13
TORSDOF 2
