REMARK  2 active torsions:
REMARK  status: ('A' for Active; 'I' for Inactive)
REMARK    1  A    between atoms: C5_8  and  C6_9 
REMARK    2  A    between atoms: C6_9  and  N2_10 
ROOT
HETATM    1  C6  UNL     1       0.687   0.240   0.948  1.00  0.00     0.219 C 
ENDROOT
BRANCH   1   2
HETATM    2  C5  UNL     1       1.837   0.639   0.118  1.00  0.00     0.049 A 
HETATM    3  C2  UNL     1       2.944  -0.193  -0.050  1.00  0.00     0.019 A 
HETATM    4  C1  UNL     1       2.949  -1.633   0.291  1.00  0.00     0.069 C 
HETATM    5  N1  UNL     1       3.964   0.505  -0.572  1.00  0.00    -0.366 N 
HETATM    6  C3  UNL     1       3.573   1.769  -0.743  1.00  0.00     0.131 A 
ATOM      7  H1  UNL     1       4.885   0.131  -0.800  1.00  0.00     0.165 HD
HETATM    8  C4  UNL     1       2.264   1.855  -0.344  1.00  0.00     0.145 A 
HETATM    9  F1  UNL     1       1.604   3.034  -0.330  1.00  0.00    -0.204 F 
ENDBRANCH   1   2
BRANCH   1  10
HETATM   10  N2  UNL     1      -0.611   0.216   0.405  1.00  0.00    -0.046 N 
HETATM   11  C7  UNL     1      -1.472  -0.269   1.508  1.00  0.00     0.243 C 
HETATM   12  C8  UNL     1      -2.803  -0.739   1.066  1.00  0.00     0.033 C 
HETATM   13  C9  UNL     1      -2.967  -0.422  -0.396  1.00  0.00    -0.010 C 
HETATM   14  C10 UNL     1      -1.907  -1.211  -1.131  1.00  0.00     0.033 C 
HETATM   15  C12 UNL     1      -2.639   1.043  -0.592  1.00  0.00     0.033 C 
HETATM   16  C11 UNL     1      -0.555  -0.951  -0.552  1.00  0.00     0.243 C 
HETATM   17  C13 UNL     1      -1.156   1.275  -0.307  1.00  0.00     0.243 C 
ENDBRANCH   1  10
TORSDOF 2
