REMARK  2 active torsions:
REMARK  status: ('A' for Active; 'I' for Inactive)
REMARK    1  A    between atoms: C3_3  and  C8_9 
REMARK    2  A    between atoms: C4_4  and  C5_6 
ROOT
HETATM    1  C1  UNL     1       0.141   2.766   1.381  1.00  0.00     0.018 C 
HETATM    2  C2  UNL     1       0.205   1.670   0.883  1.00  0.00    -0.074 C 
HETATM    3  C3  UNL     1       0.270   0.360   0.271  1.00  0.00     0.057 C 
HETATM    4  C4  UNL     1      -0.822  -0.339   0.084  1.00  0.00     0.014 C 
HETATM    5 BR1  UNL     1      -0.746  -2.055  -0.713  1.00  0.00    -0.054 Br
ENDROOT
BRANCH   3   6
HETATM    6  C8  UNL     1       1.562  -0.160  -0.155  1.00  0.00     0.051 A 
HETATM    7  C9  UNL     1       2.716  -0.094   0.650  1.00  0.00     0.032 A 
HETATM    8  C10 UNL     1       3.718  -0.655  -0.097  1.00  0.00     0.019 A 
HETATM    9  C11 UNL     1       3.228  -1.051  -1.302  1.00  0.00     0.088 A 
HETATM   10  N1  UNL     1       1.910  -0.738  -1.315  1.00  0.00    -0.365 N 
ATOM     11  H1  UNL     1       1.275  -0.916  -2.093  1.00  0.00     0.165 HD
ENDBRANCH   3   6
BRANCH   4  12
HETATM   12  C5  UNL     1      -2.166   0.205   0.498  1.00  0.00     0.027 A 
HETATM   13  C6  UNL     1      -3.288  -0.751   0.439  1.00  0.00     0.010 A 
HETATM   14  C7  UNL     1      -3.161   0.362  -0.559  1.00  0.00     0.010 A 
ENDBRANCH   4  12
TORSDOF 2
