REMARK  3 active torsions:
REMARK  status: ('A' for Active; 'I' for Inactive)
REMARK    1  A    between atoms: C2_2  and  C3_4 
REMARK    2  A    between atoms: C3_4  and  C4_5 
REMARK    3  A    between atoms: C6_7  and  C7_8 
ROOT
HETATM    1  C4  UNL     1      -0.381   0.354  -0.532  1.00  0.00     0.000 C 
HETATM    2  C5  UNL     1      -1.067   0.074  -1.879  1.00  0.00     0.018 C 
HETATM    3  C6  UNL     1       0.540  -0.844  -0.192  1.00  0.00     0.062 C 
HETATM    4  C11 UNL     1      -0.002  -1.144   1.154  1.00  0.00     0.201 C 
HETATM    5  C12 UNL     1      -0.300   0.208   1.770  1.00  0.00     0.068 C 
HETATM    6  C13 UNL     1      -1.306   0.207   0.612  1.00  0.00     0.201 C 
HETATM    7  N2  UNL     1      -1.417  -1.210   0.939  1.00  0.00    -0.065 N 
HETATM    8  C14 UNL     1      -2.111  -1.339   2.235  1.00  0.00     0.273 C 
HETATM    9  C15 UNL     1      -1.993  -2.091   0.016  1.00  0.00     0.273 C 
ENDROOT
BRANCH   3  10
HETATM   10  C7  UNL     1       1.954  -0.544  -0.195  1.00  0.00    -0.035 A 
HETATM   11  C8  UNL     1       2.782  -0.149   0.826  1.00  0.00     0.026 A 
HETATM   12  C9  UNL     1       4.057   0.029   0.319  1.00  0.00     0.088 A 
HETATM   13  N1  UNL     1       4.018  -0.251  -0.993  1.00  0.00    -0.375 N 
HETATM   14  C10 UNL     1       2.767  -0.599  -1.332  1.00  0.00     0.095 A 
ATOM     15  H1  UNL     1       4.813  -0.206  -1.631  1.00  0.00     0.164 HD
ENDBRANCH   3  10
BRANCH   1  16
HETATM   16  C3  UNL     1       0.380   1.606  -0.676  1.00  0.00     0.081 C 
BRANCH  16  17
HETATM   17  C2  UNL     1      -0.349   2.833  -1.004  1.00  0.00     0.085 C 
HETATM   18  C1  UNL     1      -1.623   3.023  -1.180  1.00  0.00     0.051 C 
HETATM   19  F1  UNL     1       0.445   3.956  -1.147  1.00  0.00    -0.212 F 
ENDBRANCH  16  17
ENDBRANCH   1  16
TORSDOF 3
