REMARK  5 active torsions:
REMARK  status: ('A' for Active; 'I' for Inactive)
REMARK    1  A    between atoms: C1_2  and  C2_3 
REMARK    2  A    between atoms: C3_4  and  C4_5 
REMARK    3  A    between atoms: C7_10  and  C8_11 
REMARK    4  A    between atoms: C9_12  and  C10_13 
REMARK    5  A    between atoms: C10_13  and  C11_14 
ROOT
HETATM    1  C4  UNL     1       2.424   0.361   1.027  1.00  0.00     0.045 A 
HETATM    2  C5  UNL     1       2.981   0.892   2.170  1.00  0.00     0.040 A 
HETATM    3  C6  UNL     1       2.055   1.660   2.844  1.00  0.00     0.090 A 
HETATM    4  N1  UNL     1       0.915   1.612   2.124  1.00  0.00    -0.365 N 
ATOM      5  H1  UNL     1       0.045   2.085   2.368  1.00  0.00     0.165 HD
HETATM    6  C7  UNL     1       1.106   0.833   1.019  1.00  0.00     0.050 A 
ENDROOT
BRANCH   6   7
HETATM    7  C8  UNL     1       0.137   0.523  -0.013  1.00  0.00     0.027 C 
HETATM    8  C9  UNL     1      -1.081   1.013   0.063  1.00  0.00    -0.024 C 
BRANCH   8   9
HETATM    9  C10 UNL     1      -2.122   0.727  -0.971  1.00  0.00     0.031 C 
BRANCH   9  10
HETATM   10  C11 UNL     1      -3.302   0.036  -0.318  1.00  0.00    -0.011 A 
HETATM   11  C12 UNL     1      -4.451  -0.326  -1.232  1.00  0.00     0.005 A 
HETATM   12  C13 UNL     1      -3.526  -1.397  -0.585  1.00  0.00     0.005 A 
ENDBRANCH   9  10
ENDBRANCH   8   9
ENDBRANCH   6   7
BRANCH   1  13
HETATM   13  C3  UNL     1       3.024  -0.491   0.038  1.00  0.00    -0.064 C 
HETATM   14  C2  UNL     1       3.514  -1.204  -0.806  1.00  0.00    -0.090 C 
BRANCH  14  15
HETATM   15  C1  UNL     1       4.123  -2.058  -1.842  1.00  0.00     0.179 C 
HETATM   16 BR1  UNL     1       5.769  -1.272  -2.499  1.00  0.00    -0.083 Br
ENDBRANCH  14  15
ENDBRANCH   1  13
TORSDOF 5
