REMARK  4 active torsions:
REMARK  status: ('A' for Active; 'I' for Inactive)
REMARK    1  A    between atoms: C2_2  and  N1_3 
REMARK       I    between atoms: N1_3  and  C3_5 
REMARK    2  A    between atoms: C3_5  and  C4_7 
REMARK    3  A    between atoms: C5_8  and  C6_9 
REMARK    4  A    between atoms: C6_9  and  C7_10 
ROOT
HETATM    1  C4  UNL     1       0.786  -0.056  -0.279  1.00  0.00     0.087 C 
HETATM    2  C5  UNL     1      -0.568  -0.251   0.404  1.00  0.00    -0.000 C 
HETATM    3  C10 UNL     1      -0.944   1.135   0.759  1.00  0.00     0.011 C 
HETATM    4  C11 UNL     1       0.366   1.743   1.267  1.00  0.00    -0.000 A 
HETATM    5  C12 UNL     1       1.464   1.014   0.485  1.00  0.00     0.012 A 
HETATM    6  C13 UNL     1       1.219   2.451   0.275  1.00  0.00    -0.039 A 
HETATM    7  C14 UNL     1       0.517   2.975  -0.950  1.00  0.00     0.015 C 
HETATM    8  C15 UNL     1       2.261   3.388   0.849  1.00  0.00     0.015 C 
ENDROOT
BRANCH   1   9
HETATM    9  C3  UNL     1       1.530  -1.366  -0.102  1.00  0.00     0.226 C 
HETATM   10  N1  UNL     1       2.812  -1.501  -0.624  1.00  0.00    -0.338 N 
ATOM     11  H1  UNL     1       3.166  -0.674  -1.105  1.00  0.00     0.168 HD
HETATM   12  O1  UNL     1       0.993  -2.310   0.507  1.00  0.00    -0.273 OA
BRANCH  10  13
HETATM   13  C2  UNL     1       3.689  -2.577  -0.597  1.00  0.00     0.081 C 
HETATM   14  C1  UNL     1       3.451  -3.736  -0.039  1.00  0.00     0.030 C 
ENDBRANCH  10  13
ENDBRANCH   1   9
BRANCH   2  15
HETATM   15  C6  UNL     1      -1.523  -0.914  -0.508  1.00  0.00     0.009 C 
BRANCH  15  16
HETATM   16  C7  UNL     1      -2.863  -1.181   0.072  1.00  0.00    -0.022 C 
HETATM   17  C8  UNL     1      -3.697  -0.046   0.514  1.00  0.00     0.009 C 
HETATM   18  C9  UNL     1      -3.706  -2.051  -0.894  1.00  0.00     0.009 C 
ENDBRANCH  15  16
ENDBRANCH   2  15
TORSDOF 4
