REMARK  4 active torsions:
REMARK  status: ('A' for Active; 'I' for Inactive)
REMARK    1  A    between atoms: C2_2  and  C4_4 
REMARK    2  A    between atoms: C4_4  and  C5_5 
REMARK    3  A    between atoms: C9_9  and  C10_11 
REMARK    4  A    between atoms: C13_14  and  C14_15 
ROOT
HETATM    1  C5  UNL     1       0.229   0.255   0.132  1.00  0.00     0.020 A 
HETATM    2  C6  UNL     1       1.251   1.396  -0.036  1.00  0.00     0.034 A 
HETATM    3  C7  UNL     1       1.320   1.250  -1.447  1.00  0.00    -0.021 C 
HETATM    4  C8  UNL     1       1.263  -0.030  -1.789  1.00  0.00     0.014 C 
HETATM    5  C9  UNL     1       1.133  -0.762  -0.493  1.00  0.00     0.134 C 
HETATM    6  F1  UNL     1       0.511  -1.989  -0.678  1.00  0.00    -0.237 F 
HETATM    7  C13 UNL     1       0.470   1.244   1.124  1.00  0.00     0.096 A 
ENDROOT
BRANCH   1   8
HETATM    8  C4  UNL     1      -1.121   0.375  -0.496  1.00  0.00     0.018 C 
BRANCH   8   9
HETATM    9  C2  UNL     1      -2.068  -0.738  -0.327  1.00  0.00    -0.022 C 
HETATM   10  C1  UNL     1      -2.374  -0.998   1.139  1.00  0.00     0.009 C 
HETATM   11  C3  UNL     1      -3.421  -0.236  -0.889  1.00  0.00     0.009 C 
ENDBRANCH   8   9
ENDBRANCH   1   8
BRANCH   5  12
HETATM   12  C10 UNL     1       2.375  -1.080   0.245  1.00  0.00     0.030 A 
HETATM   13  C11 UNL     1       3.359  -2.053  -0.401  1.00  0.00     0.009 A 
HETATM   14  C12 UNL     1       2.557  -2.462   0.828  1.00  0.00     0.009 A 
ENDBRANCH   5  12
BRANCH   7  15
HETATM   15  C14 UNL     1      -0.320   2.418   1.509  1.00  0.00     0.236 C 
HETATM   16  N1  UNL     1      -0.696   3.364   0.494  1.00  0.00    -0.062 NA
HETATM   17  O1  UNL     1      -0.699   2.671   2.693  1.00  0.00    -0.276 OA
ENDBRANCH   7  15
TORSDOF 4
