REMARK  3 active torsions:
REMARK  status: ('A' for Active; 'I' for Inactive)
REMARK    1  A    between atoms: N1_2  and  C1_4 
REMARK    2  A    between atoms: C4_8  and  N2_9 
REMARK    3  A    between atoms: N2_9  and  C5_11 
ROOT
HETATM    1  C1  UNL     1      -3.222   0.135   0.314  1.00  0.00     0.241 A 
HETATM    2  O3  UNL     1      -3.844  -0.286   1.415  1.00  0.00    -0.299 OA
HETATM    3  C2  UNL     1      -3.014  -0.879   2.227  1.00  0.00     0.147 A 
HETATM    4  C3  UNL     1      -1.772  -0.853   1.638  1.00  0.00     0.058 A 
HETATM    5  C4  UNL     1      -1.889  -0.203   0.403  1.00  0.00     0.090 A 
ENDROOT
BRANCH   5   6
HETATM    6  N2  UNL     1      -0.831   0.030  -0.519  1.00  0.00    -0.360 N 
ATOM      7  H2  UNL     1      -1.010   0.506  -1.403  1.00  0.00     0.162 HD
BRANCH   6   8
HETATM    8  C5  UNL     1       0.505  -0.419  -0.184  1.00  0.00     0.220 C 
HETATM    9  C6  UNL     1       1.424  -0.085  -1.312  1.00  0.00     0.054 C 
HETATM   10  C7  UNL     1       2.824  -0.527  -0.910  1.00  0.00     0.006 C 
HETATM   11  C8  UNL     1       3.220   0.302   0.281  1.00  0.00     0.026 C 
HETATM   12  C9  UNL     1       2.010   0.951   0.918  1.00  0.00     0.170 C 
HETATM   13  O4  UNL     1       0.939   0.100   1.033  1.00  0.00    -0.367 OA
ENDBRANCH   6   8
ENDBRANCH   5   6
BRANCH   1  14
HETATM   14  N1  UNL     1      -3.841   0.821  -0.774  1.00  0.00    -0.088 N 
HETATM   15  O1  UNL     1      -3.261   1.204  -1.781  1.00  0.00    -0.530 OA
HETATM   16  O2  UNL     1      -5.208   1.067  -0.667  1.00  0.00    -0.530 OA
ENDBRANCH   1  14
TORSDOF 3
