REMARK  4 active torsions:
REMARK  status: ('A' for Active; 'I' for Inactive)
REMARK    1  A    between atoms: C1_4  and  O1_5 
REMARK    2  A    between atoms: C1_4  and  C7_14 
REMARK    3  A    between atoms: O1_5  and  N2_6 
REMARK    4  A    between atoms: C2_8  and  C3_9 
ROOT
HETATM    1  N1  UNL     1      -1.571  -1.001   1.988  1.00  0.00    -0.376 N 
ATOM      2  H11 UNL     1      -2.481  -0.801   2.403  1.00  0.00     0.158 HD
ATOM      3  H12 UNL     1      -0.864  -1.543   2.484  1.00  0.00     0.158 HD
HETATM    4  C1  UNL     1      -1.368  -0.532   0.813  1.00  0.00     0.198 C 
ENDROOT
BRANCH   4   5
HETATM    5  O1  UNL     1      -0.118  -0.806   0.243  1.00  0.00    -0.218 OA
BRANCH   5   6
HETATM    6  N2  UNL     1       0.549  -1.979   0.478  1.00  0.00    -0.268 N 
HETATM    7  C2  UNL     1       1.825  -1.998   0.336  1.00  0.00     0.151 C 
ATOM      8  H2  UNL     1       0.043  -2.819   0.760  1.00  0.00     0.194 HD
BRANCH   7   9
HETATM    9  C3  UNL     1       2.531  -0.788  -0.067  1.00  0.00     0.092 A 
HETATM   10  C4  UNL     1       3.905  -0.680  -0.254  1.00  0.00     0.040 A 
HETATM   11  C5  UNL     1       4.189   0.622  -0.633  1.00  0.00     0.027 A 
HETATM   12  C6  UNL     1       2.943   1.248  -0.656  1.00  0.00     0.142 A 
HETATM   13  O2  UNL     1       2.034   0.392  -0.324  1.00  0.00    -0.321 OA
ENDBRANCH   7   9
ENDBRANCH   5   6
ENDBRANCH   4   5
BRANCH   4  14
HETATM   14  C7  UNL     1      -2.377   0.242   0.105  1.00  0.00     0.127 A 
HETATM   15  C8  UNL     1      -3.618   0.535   0.625  1.00  0.00     0.043 A 
HETATM   16  C9  UNL     1      -4.305   1.289  -0.332  1.00  0.00     0.027 A 
HETATM   17  C10 UNL     1      -3.408   1.400  -1.389  1.00  0.00     0.142 A 
HETATM   18  O3  UNL     1      -2.295   0.773  -1.090  1.00  0.00    -0.318 OA
ENDBRANCH   4  14
TORSDOF 4
