REMARK  3 active torsions:
REMARK  status: ('A' for Active; 'I' for Inactive)
REMARK    1  A    between atoms: N1_2  and  C1_4 
REMARK    2  A    between atoms: C6_9  and  N2_10 
REMARK    3  A    between atoms: N2_10  and  N3_12 
ROOT
HETATM    1  C1  UNL     1      -1.510   0.678   0.069  1.00  0.00     0.130 A 
HETATM    2  C2  UNL     1      -2.793   0.351   0.583  1.00  0.00     0.038 A 
HETATM    3  C3  UNL     1      -3.278  -0.915   0.410  1.00  0.00     0.003 A 
HETATM    4  C4  UNL     1      -2.538  -1.871  -0.257  1.00  0.00     0.002 A 
HETATM    5  C5  UNL     1      -1.297  -1.586  -0.762  1.00  0.00     0.033 A 
HETATM    6  C6  UNL     1      -0.793  -0.284  -0.584  1.00  0.00     0.081 A 
ENDROOT
BRANCH   6   7
HETATM    7  N2  UNL     1       0.476  -0.044  -1.159  1.00  0.00    -0.293 N 
ATOM      8  H2  UNL     1       0.545   0.073  -2.170  1.00  0.00     0.187 HD
BRANCH   7   9
HETATM    9  N3  UNL     1       1.627   0.038  -0.398  1.00  0.00    -0.278 N 
HETATM   10  C7  UNL     1       1.801  -0.201   0.913  1.00  0.00     0.115 A 
HETATM   11  C8  UNL     1       3.125   0.003   1.269  1.00  0.00     0.021 A 
HETATM   12  C9  UNL     1       3.795   0.384   0.129  1.00  0.00     0.021 A 
HETATM   13  C10 UNL     1       2.856   0.397  -0.875  1.00  0.00     0.115 A 
ENDBRANCH   7   9
ENDBRANCH   6   7
BRANCH   1  14
HETATM   14  N1  UNL     1      -1.091   2.007   0.171  1.00  0.00    -0.113 N 
HETATM   15  O1  UNL     1      -0.009   2.532   0.293  1.00  0.00    -0.532 OA
HETATM   16  O2  UNL     1      -2.150   2.964   0.108  1.00  0.00    -0.532 OA
ENDBRANCH   1  14
TORSDOF 3
