REMARK  4 active torsions:
REMARK  status: ('A' for Active; 'I' for Inactive)
REMARK    1  A    between atoms: C2_2  and  N1_4 
REMARK    2  A    between atoms: C5_6  and  C6_7 
REMARK    3  A    between atoms: C6_7  and  N2_8 
REMARK    4  A    between atoms: C9_11  and  C10_12 
ROOT
HETATM    1  N1  UNL     1       0.052   2.015   0.327  1.00  0.00     0.112 N 
HETATM    2  C4  UNL     1       0.987   1.107  -0.314  1.00  0.00     0.281 C 
HETATM    3  C5  UNL     1       0.551  -0.208   0.347  1.00  0.00     0.052 C 
HETATM    4  C9  UNL     1      -0.925  -0.122   0.405  1.00  0.00     0.073 C 
HETATM    5  C14 UNL     1      -1.209   1.334   0.012  1.00  0.00     0.325 C 
HETATM    6 CL1  UNL     1      -1.374   1.402  -1.765  1.00  0.00    -0.091 Cl
ENDROOT
BRANCH   4   7
HETATM    7  C10 UNL     1      -1.663  -1.053  -0.506  1.00  0.00     0.164 A 
HETATM    8  O1  UNL     1      -3.130  -0.792  -0.286  1.00  0.00    -0.369 OA
HETATM    9  C11 UNL     1      -2.520  -2.053   0.078  1.00  0.00     0.081 A 
HETATM   10  C12 UNL     1      -2.394  -2.310   1.564  1.00  0.00     0.048 C 
HETATM   11  C13 UNL     1      -3.169  -3.177  -0.681  1.00  0.00     0.048 C 
ENDBRANCH   4   7
BRANCH   3  12
HETATM   12  C6  UNL     1       1.107  -1.395  -0.392  1.00  0.00     0.278 C 
BRANCH  12  13
HETATM   13  N2  UNL     1       2.541  -1.293  -0.365  1.00  0.00     0.080 N 
HETATM   14  C7  UNL     1       3.126  -1.467   0.927  1.00  0.00     0.309 C 
HETATM   15  C8  UNL     1       3.209  -2.073  -1.355  1.00  0.00     0.309 C 
ENDBRANCH  12  13
ENDBRANCH   3  12
BRANCH   1  16
HETATM   16  C2  UNL     1       0.049   3.328  -0.230  1.00  0.00     0.217 C 
HETATM   17  C1  UNL     1       1.364   4.011  -0.079  1.00  0.00     0.042 C 
HETATM   18  C3  UNL     1      -1.062   4.104   0.494  1.00  0.00     0.042 C 
ENDBRANCH   1  16
TORSDOF 4
