REMARK  4 active torsions:
REMARK  status: ('A' for Active; 'I' for Inactive)
REMARK    1  A    between atoms: C5_5  and  O1_6 
REMARK    2  A    between atoms: C5_5  and  C6_8 
REMARK    3  A    between atoms: C6_8  and  N1_10 
REMARK       I    between atoms: N1_10  and  C8_12 
REMARK    4  A    between atoms: C8_12  and  C9_14 
ROOT
HETATM    1  C1  UNL     1       3.651   0.427   4.275  1.00  0.00     0.017 C 
HETATM    2  C2  UNL     1       3.313   0.166   3.165  1.00  0.00    -0.080 C 
HETATM    3  C3  UNL     1       2.889  -0.132   1.846  1.00  0.00     0.022 C 
HETATM    4  C4  UNL     1       3.410  -1.330   1.152  1.00  0.00     0.061 C 
HETATM    5  C5  UNL     1       2.028   0.642   1.209  1.00  0.00     0.080 C 
ENDROOT
BRANCH   5   6
HETATM    6  O1  UNL     1       1.533   1.768   1.849  1.00  0.00    -0.362 OA
ATOM      7  H1  UNL     1       0.914   2.324   1.391  1.00  0.00     0.217 HD
ENDBRANCH   5   6
BRANCH   5   8
HETATM    8  C6  UNL     1       1.556   0.370  -0.170  1.00  0.00     0.138 C 
HETATM    9  C7  UNL     1       1.933   1.544  -1.053  1.00  0.00     0.039 C 
BRANCH   8  10
HETATM   10  N1  UNL     1       0.129   0.136  -0.217  1.00  0.00    -0.351 N 
HETATM   11  C8  UNL     1      -0.470  -1.063  -0.663  1.00  0.00     0.223 C 
HETATM   12  O2  UNL     1       0.368  -1.965  -1.033  1.00  0.00    -0.273 OA
ATOM     13  H1  UNL     1      -0.486   0.888   0.093  1.00  0.00     0.163 HD
BRANCH  11  14
HETATM   14  C9  UNL     1      -1.891  -1.358  -0.736  1.00  0.00     0.086 A 
HETATM   15  C10 UNL     1      -2.741  -0.774   0.403  1.00  0.00     0.024 A 
HETATM   16  C11 UNL     1      -2.950  -0.367  -1.044  1.00  0.00    -0.035 A 
HETATM   17  C12 UNL     1      -4.271  -0.889  -1.584  1.00  0.00     0.015 C 
HETATM   18  C13 UNL     1      -2.678   1.062  -1.362  1.00  0.00     0.015 C 
ENDBRANCH  11  14
ENDBRANCH   8  10
ENDBRANCH   5   8
TORSDOF 4
