REMARK  3 active torsions:
REMARK  status: ('A' for Active; 'I' for Inactive)
REMARK    1  A    between atoms: C2_2  and  C3_3 
REMARK    2  A    between atoms: C5_5  and  C6_6 
REMARK    3  A    between atoms: C11_13  and  C13_15 
ROOT
HETATM    1  C3  UNL     1      -0.718  -0.406   0.177  1.00  0.00     0.019 C 
HETATM    2  C4  UNL     1       0.147  -0.596   1.404  1.00  0.00     0.002 C 
HETATM    3  C5  UNL     1       1.333  -0.122   0.982  1.00  0.00     0.010 C 
HETATM    4  C7  UNL     1       1.029   0.288  -0.430  1.00  0.00     0.051 C 
HETATM    5  C8  UNL     1       0.226  -0.915  -0.872  1.00  0.00    -0.023 C 
HETATM    6  C9  UNL     1      -0.221  -0.990  -2.279  1.00  0.00     0.017 C 
HETATM    7  C10 UNL     1       0.958  -2.208  -0.502  1.00  0.00     0.017 C 
HETATM    8  C11 UNL     1      -0.287   0.984  -0.179  1.00  0.00     0.058 C 
HETATM    9  C12 UNL     1      -0.256   1.860   1.080  1.00  0.00     0.027 C 
ENDROOT
BRANCH   8  10
HETATM   10  C13 UNL     1      -0.925   1.697  -1.255  1.00  0.00     0.241 C 
HETATM   11  N2  UNL     1      -2.317   1.965  -1.294  1.00  0.00    -0.061 NA
HETATM   12  O2  UNL     1      -0.238   2.114  -2.220  1.00  0.00    -0.276 OA
ENDBRANCH   8  10
BRANCH   1  13
HETATM   13  C2  UNL     1      -2.068  -0.791   0.227  1.00  0.00    -0.021 C 
HETATM   14  C1  UNL     1      -2.732  -0.805   1.401  1.00  0.00     0.008 C 
ENDBRANCH   1  13
BRANCH   3  15
HETATM   15  C6  UNL     1       2.580  -0.027   1.692  1.00  0.00     0.261 C 
HETATM   16  N1  UNL     1       3.723   0.514   1.044  1.00  0.00    -0.058 NA
HETATM   17  O1  UNL     1       2.615  -0.432   2.884  1.00  0.00    -0.271 OA
ENDBRANCH   3  15
TORSDOF 3
