REMARK  1 active torsions:
REMARK  status: ('A' for Active; 'I' for Inactive)
REMARK    1  A    between atoms: C5_5  and  C6_6 
ROOT
HETATM    1  C6  UNL     1       0.820  -0.524   0.189  1.00  0.00     0.131 A 
HETATM    2  N1  UNL     1       1.883  -1.311   0.408  1.00  0.00    -0.336 N 
ATOM      3  H1  UNL     1       1.839  -2.284   0.710  1.00  0.00     0.168 HD
HETATM    4  C7  UNL     1       3.016  -0.627   0.171  1.00  0.00     0.089 A 
HETATM    5  C8  UNL     1       4.395  -0.587   0.127  1.00  0.00     0.079 A 
HETATM    6  C9  UNL     1       4.820   0.662  -0.269  1.00  0.00     0.120 A 
HETATM    7  N2  UNL     1       6.168   1.107  -0.437  1.00  0.00    -0.083 NA
HETATM    8  N3  UNL     1       3.699   1.381  -0.466  1.00  0.00    -0.323 N 
ATOM      9  H3  UNL     1       3.679   2.355  -0.767  1.00  0.00     0.169 HD
HETATM   10  C10 UNL     1       2.605   0.633  -0.210  1.00  0.00     0.178 A 
HETATM   11  O1  UNL     1       1.294   0.642  -0.182  1.00  0.00    -0.278 OA
ENDROOT
BRANCH   1  12
HETATM   12  C5  UNL     1      -0.590  -0.946   0.352  1.00  0.00     0.061 C 
HETATM   13  C4  UNL     1      -1.249  -0.841  -0.999  1.00  0.00     0.013 C 
HETATM   14  C3  UNL     1      -2.747  -0.887  -0.932  1.00  0.00     0.005 C 
HETATM   15  C2  UNL     1      -3.182   0.326  -0.100  1.00  0.00    -0.019 C 
HETATM   16  C1  UNL     1      -4.652   0.545  -0.147  1.00  0.00     0.010 C 
HETATM   17  C12 UNL     1      -2.702   0.018   1.311  1.00  0.00     0.005 C 
HETATM   18  C11 UNL     1      -1.214  -0.051   1.385  1.00  0.00     0.013 C 
ENDBRANCH   1  12
TORSDOF 1
