REMARK  2 active torsions:
REMARK  status: ('A' for Active; 'I' for Inactive)
REMARK    1  A    between atoms: C2_2  and  C3_3 
REMARK    2  A    between atoms: C4_7  and  C5_8 
ROOT
HETATM    1  C3  UNL     1       1.846   0.091   0.906  1.00  0.00     0.041 A 
HETATM    2  N1  UNL     1       1.120   0.713   1.834  1.00  0.00    -0.264 N 
ATOM      3  H1  UNL     1       1.507   1.156   2.668  1.00  0.00     0.194 HD
HETATM    4  O1  UNL     1      -0.109   0.683   1.547  1.00  0.00    -0.235 OA
HETATM    5  C4  UNL     1      -0.315   0.039   0.404  1.00  0.00     0.135 A 
HETATM    6  C9  UNL     1       0.918  -0.350  -0.027  1.00  0.00     0.001 A 
HETATM    7  C10 UNL     1       1.258  -1.102  -1.252  1.00  0.00     0.053 C 
ENDROOT
BRANCH   5   8
HETATM    8  C5  UNL     1      -1.627  -0.177  -0.217  1.00  0.00     0.093 A 
HETATM    9  N2  UNL     1      -1.921  -0.807  -1.352  1.00  0.00    -0.329 N 
HETATM   10  C6  UNL     1      -3.262  -0.786  -1.572  1.00  0.00     0.176 A 
ATOM     11  H2  UNL     1      -1.237  -1.244  -1.969  1.00  0.00     0.168 HD
HETATM   12  S1  UNL     1      -4.077  -1.436  -2.842  1.00  0.00    -0.041 SA
HETATM   13  N3  UNL     1      -3.784  -0.125  -0.539  1.00  0.00    -0.335 N 
HETATM   14  C7  UNL     1      -2.821   0.267   0.317  1.00  0.00     0.037 A 
ATOM     15  H3  UNL     1      -4.779   0.059  -0.414  1.00  0.00     0.168 HD
HETATM   16  C8  UNL     1      -3.010   1.029   1.586  1.00  0.00     0.070 C 
ENDBRANCH   5   8
BRANCH   1  17
HETATM   17  C2  UNL     1       3.315  -0.059   0.926  1.00  0.00     0.055 C 
HETATM   18  C1  UNL     1       3.960   0.909  -0.057  1.00  0.00     0.011 C 
ENDBRANCH   1  17
TORSDOF 2
