REMARK  6 active torsions:
REMARK  status: ('A' for Active; 'I' for Inactive)
REMARK    1  A    between atoms: C4_4  and  C5_5 
REMARK    2  A    between atoms: C5_5  and  C6_6 
REMARK    3  A    between atoms: C6_6  and  C7_11 
REMARK    4  A    between atoms: N1_7  and  O1_9 
REMARK    5  A    between atoms: C7_11  and  O2_12 
REMARK    6  A    between atoms: C9_15  and  C10_16 
ROOT
HETATM    1  C6  UNL     1      -0.670  -0.712  -1.441  1.00  0.00     0.048 C 
HETATM    2  N1  UNL     1      -0.221  -1.138  -2.568  1.00  0.00    -0.274 N 
ATOM      3  H1  UNL     1       0.782  -1.063  -2.736  1.00  0.00     0.193 HD
ENDROOT
BRANCH   1   4
HETATM    4  C5  UNL     1      -2.106  -0.769  -1.086  1.00  0.00     0.085 C 
BRANCH   4   5
HETATM    5  C4  UNL     1      -2.677   0.566  -0.823  1.00  0.00    -0.019 C 
HETATM    6  C2  UNL     1      -3.247   0.951   0.311  1.00  0.00    -0.091 C 
HETATM    7  C1  UNL     1      -3.388   0.065   1.494  1.00  0.00     0.042 C 
HETATM    8  C3  UNL     1      -3.781   2.348   0.427  1.00  0.00     0.042 C 
ENDBRANCH   4   5
ENDBRANCH   1   4
BRANCH   1   9
HETATM    9  C7  UNL     1       0.295  -0.150  -0.479  1.00  0.00     0.103 A 
HETATM   10  C8  UNL     1       0.357  -0.889   0.843  1.00  0.00     0.053 A 
HETATM   11  C9  UNL     1       1.513  -0.912  -0.156  1.00  0.00     0.036 A 
BRANCH   9  12
HETATM   12  O2  UNL     1       0.247   1.235  -0.372  1.00  0.00    -0.383 OA
ATOM     13  H2  UNL     1       0.869   1.597   0.248  1.00  0.00     0.211 HD
ENDBRANCH   9  12
BRANCH  11  14
HETATM   14  C10 UNL     1       2.760  -0.260   0.367  1.00  0.00    -0.044 C 
HETATM   15  C11 UNL     1       2.537   0.463   1.672  1.00  0.00     0.015 C 
HETATM   16  C12 UNL     1       3.305   0.769  -0.617  1.00  0.00     0.015 C 
HETATM   17  C13 UNL     1       3.796  -1.335   0.619  1.00  0.00     0.015 C 
ENDBRANCH  11  14
ENDBRANCH   1   9
BRANCH   2  18
HETATM   18  O1  UNL     1      -0.987  -1.682  -3.554  1.00  0.00    -0.290 OA
ATOM     19  H1  UNL     1      -0.655  -1.997  -4.387  1.00  0.00     0.244 HD
ENDBRANCH   2  18
TORSDOF 6
