REMARK  3 active torsions:
REMARK  status: ('A' for Active; 'I' for Inactive)
REMARK    1  A    between atoms: C3_4  and  N1_5 
REMARK    2  A    between atoms: C4_10  and  S2_11 
REMARK    3  A    between atoms: S2_11  and  C5_12 
ROOT
HETATM    1  C1  UNL     1      -3.065   2.546  -0.622  1.00  0.00     0.059 C 
HETATM    2  C2  UNL     1      -2.915   1.090  -0.374  1.00  0.00     0.016 A 
HETATM    3  S1  UNL     1      -4.158  -0.075  -0.435  1.00  0.00    -0.057 SA
HETATM    4  C3  UNL     1      -3.226  -1.455  -0.050  1.00  0.00     0.143 A 
HETATM    5  N2  UNL     1      -2.004  -0.948   0.105  1.00  0.00    -0.331 N 
ATOM      6  H2  UNL     1      -1.221  -1.557   0.344  1.00  0.00     0.168 HD
HETATM    7  C4  UNL     1      -1.818   0.327  -0.051  1.00  0.00     0.085 A 
ENDROOT
BRANCH   7   8
HETATM    8  S2  UNL     1      -0.221   1.183   0.118  1.00  0.00    -0.106 SA
BRANCH   8   9
HETATM    9  C5  UNL     1       1.116   0.116   0.510  1.00  0.00     0.054 C 
HETATM   10  C6  UNL     1       1.533  -0.875  -0.513  1.00  0.00     0.015 C 
HETATM   11  C7  UNL     1       2.908  -1.295   0.034  1.00  0.00     0.001 C 
HETATM   12  C8  UNL     1       3.525   0.065   0.273  1.00  0.00     0.001 C 
HETATM   13  C9  UNL     1       2.374   0.981   0.628  1.00  0.00     0.015 C 
ENDBRANCH   8   9
ENDBRANCH   7   8
BRANCH   4  14
HETATM   14  N1  UNL     1      -3.626  -2.700   0.061  1.00  0.00    -0.380 N 
ATOM     15  H12 UNL     1      -4.562  -3.088  -0.058  1.00  0.00     0.158 HD
ATOM     16  H11 UNL     1      -3.070  -3.524   0.291  1.00  0.00     0.158 HD
ENDBRANCH   4  14
TORSDOF 3
