REMARK  3 active torsions:
REMARK  status: ('A' for Active; 'I' for Inactive)
REMARK    1  A    between atoms: C1_2  and  C2_3 
REMARK    2  A    between atoms: C2_3  and  C3_4 
REMARK    3  A    between atoms: C4_5  and  C5_6 
ROOT
HETATM    1  C5  UNL     1       0.286   0.003  -0.544  1.00  0.00    -0.013 A 
HETATM    2  C6  UNL     1       0.327   0.901  -1.595  1.00  0.00     0.100 A 
HETATM    3  N1  UNL     1      -0.919   1.242  -1.955  1.00  0.00    -0.368 N 
ATOM      4  H1  UNL     1      -1.167   1.889  -2.704  1.00  0.00     0.165 HD
HETATM    5  C7  UNL     1      -1.785   0.590  -1.165  1.00  0.00     0.016 A 
HETATM    6  C8  UNL     1      -1.045  -0.193  -0.273  1.00  0.00    -0.024 A 
HETATM    7  C9  UNL     1      -1.777  -1.005   0.700  1.00  0.00     0.041 C 
HETATM    8  C10 UNL     1      -2.773  -0.085   1.376  1.00  0.00     0.005 C 
HETATM    9  C11 UNL     1      -3.742   0.455   0.380  1.00  0.00     0.006 C 
HETATM   10  C12 UNL     1      -3.262   0.511  -1.029  1.00  0.00     0.057 C 
ENDROOT
BRANCH   1  11
HETATM   11  C4  UNL     1       1.397  -0.616   0.145  1.00  0.00     0.009 C 
HETATM   12  C3  UNL     1       2.649  -0.346  -0.210  1.00  0.00    -0.025 C 
BRANCH  12  13
HETATM   13  C2  UNL     1       3.790  -0.973   0.487  1.00  0.00     0.038 C 
BRANCH  13  14
HETATM   14  C1  UNL     1       4.710   0.045   1.133  1.00  0.00     0.089 C 
HETATM   15 BR1  UNL     1       5.430   1.238  -0.208  1.00  0.00    -0.096 Br
ENDBRANCH  13  14
ENDBRANCH  12  13
ENDBRANCH   1  11
TORSDOF 3
