REMARK  2 active torsions:
REMARK  status: ('A' for Active; 'I' for Inactive)
REMARK    1  A    between atoms: C1_2  and  C2_3 
REMARK    2  A    between atoms: C2_3  and  C3_4 
ROOT
HETATM    1  C3  UNL     1      -0.879  -0.022  -0.581  1.00  0.00    -0.008 C 
HETATM    2  C4  UNL     1      -0.476  -1.404  -0.110  1.00  0.00     0.011 C 
HETATM    3  C5  UNL     1       0.981  -1.577  -0.534  1.00  0.00     0.058 C 
HETATM    4  C6  UNL     1       1.767  -0.392  -0.149  1.00  0.00     0.016 A 
HETATM    5  N1  UNL     1       3.110  -0.225  -0.132  1.00  0.00    -0.367 N 
ATOM      6  H1  UNL     1       3.784  -0.942  -0.400  1.00  0.00     0.165 HD
HETATM    7  C7  UNL     1       3.436   1.003   0.282  1.00  0.00     0.107 A 
HETATM    8  C8  UNL     1       2.246   1.668   0.547  1.00  0.00     0.034 A 
HETATM    9 BR1  UNL     1       2.170   3.469   1.169  1.00  0.00    -0.049 Br
HETATM   10  C9  UNL     1       1.212   0.796   0.277  1.00  0.00    -0.017 A 
HETATM   11  C10 UNL     1      -0.262   0.961   0.378  1.00  0.00     0.046 C 
ENDROOT
BRANCH   1  12
HETATM   12  C2  UNL     1      -2.372   0.127  -0.686  1.00  0.00     0.036 C 
BRANCH  12  13
HETATM   13  C1  UNL     1      -3.067  -0.095   0.633  1.00  0.00     0.222 C 
HETATM   14  F1  UNL     1      -4.430   0.068   0.412  1.00  0.00    -0.255 F 
ENDBRANCH  12  13
ENDBRANCH   1  12
TORSDOF 2
