REMARK  4 active torsions:
REMARK  status: ('A' for Active; 'I' for Inactive)
REMARK    1  A    between atoms: O1_1  and  N1_3 
REMARK    2  A    between atoms: N3_11  and  N4_12 
REMARK    3  A    between atoms: N4_12  and  C6_14 
REMARK    4  A    between atoms: C6_14  and  C7_15 
ROOT
HETATM    1  N1  UNL     1      -1.473  -1.191  -0.014  1.00  0.00    -0.136 N 
HETATM    2  C1  UNL     1      -2.610  -0.445  -0.017  1.00  0.00     0.131 A 
HETATM    3  C2  UNL     1      -3.969  -0.273  -0.134  1.00  0.00     0.039 A 
HETATM    4  C3  UNL     1      -4.579   0.961  -0.004  1.00  0.00     0.020 A 
HETATM    5  C4  UNL     1      -3.749   2.033   0.254  1.00  0.00     0.090 A 
HETATM    6  N2  UNL     1      -2.407   1.870   0.370  1.00  0.00    -0.348 N 
ATOM      7  H2  UNL     1      -1.828   2.688   0.560  1.00  0.00     0.167 HD
HETATM    8  C5  UNL     1      -1.810   0.669   0.244  1.00  0.00     0.179 A 
HETATM    9  N3  UNL     1      -0.735  -0.128   0.232  1.00  0.00    -0.151 N 
ENDROOT
BRANCH   9  10
HETATM   10  N4  UNL     1       0.632   0.061   0.407  1.00  0.00    -0.284 N 
ATOM     11  H4  UNL     1       0.979   0.648   1.166  1.00  0.00     0.188 HD
BRANCH  10  12
HETATM   12  C6  UNL     1       1.442  -0.506  -0.390  1.00  0.00     0.146 C 
BRANCH  12  13
HETATM   13  C7  UNL     1       2.894  -0.305  -0.204  1.00  0.00     0.091 A 
HETATM   14  C8  UNL     1       3.495   0.458   0.774  1.00  0.00     0.040 A 
HETATM   15  C9  UNL     1       4.867   0.397   0.616  1.00  0.00     0.027 A 
HETATM   16  C10 UNL     1       5.040  -0.433  -0.493  1.00  0.00     0.142 A 
HETATM   17  O2  UNL     1       3.862  -0.811  -0.929  1.00  0.00    -0.321 OA
ENDBRANCH  12  13
ENDBRANCH  10  12
ENDBRANCH   9  10
BRANCH   1  18
HETATM   18  O1  UNL     1      -1.294  -2.546  -0.209  1.00  0.00    -0.266 OA
ATOM     19  H1  UNL     1      -0.500  -3.067  -0.207  1.00  0.00     0.247 HD
ENDBRANCH   1  18
TORSDOF 4
