REMARK  5 active torsions:
REMARK  status: ('A' for Active; 'I' for Inactive)
REMARK    1  A    between atoms: C2_2  and  N1_3 
REMARK    2  A    between atoms: C2_2  and  C3_7 
REMARK    3  A    between atoms: N2_8  and  N3_10 
REMARK    4  A    between atoms: C4_12  and  N5_15 
REMARK    5  A    between atoms: N6_17  and  C6_19 
ROOT
HETATM    1  N3  UNL     1      -1.184   1.153   0.754  1.00  0.00    -0.276 N 
ATOM      2  H3  UNL     1      -0.888   1.757  -0.013  1.00  0.00     0.189 HD
HETATM    3  C4  UNL     1      -0.476   0.132   1.099  1.00  0.00     0.217 C 
HETATM    4  C5  UNL     1      -0.826  -0.761   2.165  1.00  0.00     0.139 C 
HETATM    5  N4  UNL     1      -1.125  -1.491   3.018  1.00  0.00    -0.188 NA
ENDROOT
BRANCH   3   6
HETATM    6  N5  UNL     1       0.721  -0.109   0.370  1.00  0.00    -0.275 N 
HETATM    7  N6  UNL     1       1.812   0.135   0.969  1.00  0.00    -0.299 N 
ATOM      8  H6  UNL     1       1.826   0.487   1.926  1.00  0.00     0.187 HD
ATOM      9  H5  UNL     1       0.703  -0.461  -0.587  1.00  0.00     0.189 HD
BRANCH   7  10
HETATM   10  C6  UNL     1       3.016  -0.103   0.249  1.00  0.00     0.048 A 
HETATM   11  C7  UNL     1       3.204   0.596  -0.917  1.00  0.00     0.031 A 
HETATM   12  C8  UNL     1       4.361   0.373  -1.617  1.00  0.00     0.002 A 
HETATM   13  C9  UNL     1       5.292  -0.529  -1.147  1.00  0.00     0.000 A 
HETATM   14  C10 UNL     1       5.079  -1.220   0.029  1.00  0.00     0.002 A 
HETATM   15  C11 UNL     1       3.916  -1.012   0.755  1.00  0.00     0.031 A 
ENDBRANCH   7  10
ENDBRANCH   3   6
BRANCH   1  16
HETATM   16  N2  UNL     1      -2.362   1.415   1.450  1.00  0.00    -0.312 N 
HETATM   17  C3  UNL     1      -3.490   1.155   0.900  1.00  0.00     0.112 C 
ATOM     18  H2  UNL     1      -2.327   1.810   2.390  1.00  0.00     0.185 HD
BRANCH  17  19
HETATM   19  C2  UNL     1      -3.559   0.578  -0.467  1.00  0.00     0.219 C 
HETATM   20  C1  UNL     1      -4.001  -0.865  -0.424  1.00  0.00     0.045 C 
BRANCH  19  21
HETATM   21  N1  UNL     1      -4.531   1.349  -1.215  1.00  0.00    -0.071 N 
ATOM     22  H13 UNL     1      -4.697   0.966  -2.146  1.00  0.00     0.275 HD
ATOM     23  H12 UNL     1      -5.476   1.244  -0.847  1.00  0.00     0.275 HD
ATOM     24  H11 UNL     1      -4.232   2.324  -1.244  1.00  0.00     0.275 HD
ENDBRANCH  19  21
ENDBRANCH  17  19
ENDBRANCH   1  16
TORSDOF 5
