REMARK  3 active torsions:
REMARK  status: ('A' for Active; 'I' for Inactive)
REMARK    1  A    between atoms: C3_4  and  N1_5 
REMARK    2  A    between atoms: C4_7  and  C5_8 
REMARK    3  A    between atoms: C8_11  and  N2_12 
ROOT
HETATM    1  N1  UNL     1      -1.086   1.369   1.434  1.00  0.00    -0.342 N 
ATOM      2  H1  UNL     1      -1.504   2.096   2.014  1.00  0.00     0.167 HD
HETATM    3  C4  UNL     1       0.143   1.497   1.357  1.00  0.00     0.127 C 
ENDROOT
BRANCH   1   4
HETATM    4  C3  UNL     1      -2.038   0.501   0.941  1.00  0.00     0.175 A 
HETATM    5  C2  UNL     1      -2.805   0.731  -0.203  1.00  0.00     0.134 A 
HETATM    6  C1  UNL     1      -3.635  -0.354  -0.367  1.00  0.00     0.269 A 
HETATM    7  O1  UNL     1      -4.488  -0.562  -1.265  1.00  0.00    -0.266 OA
HETATM    8  N3  UNL     1      -3.344  -1.166   0.650  1.00  0.00    -0.224 N 
HETATM    9  O5  UNL     1      -2.427  -0.680   1.404  1.00  0.00    -0.217 OA
ATOM     10  H3  UNL     1      -3.797  -2.066   0.809  1.00  0.00     0.198 HD
ENDBRANCH   1   4
BRANCH   3  11
HETATM   11  C5  UNL     1       1.067   0.648   0.620  1.00  0.00     0.093 A 
HETATM   12  C6  UNL     1       0.799  -0.459  -0.139  1.00  0.00     0.043 A 
HETATM   13  C7  UNL     1       2.021  -0.922  -0.640  1.00  0.00     0.065 A 
HETATM   14  C8  UNL     1       2.973  -0.071  -0.160  1.00  0.00     0.215 A 
HETATM   15  O4  UNL     1       2.389   0.833   0.570  1.00  0.00    -0.287 OA
BRANCH  14  16
HETATM   16  N2  UNL     1       4.377  -0.178  -0.430  1.00  0.00    -0.090 N 
HETATM   17  O2  UNL     1       4.844  -1.082  -1.144  1.00  0.00    -0.530 OA
HETATM   18  O3  UNL     1       5.245   0.736   0.107  1.00  0.00    -0.530 OA
ENDBRANCH  14  16
ENDBRANCH   3  11
TORSDOF 3
