REMARK  4 active torsions:
REMARK  status: ('A' for Active; 'I' for Inactive)
REMARK    1  A    between atoms: N1_1  and  N2_4 
REMARK    2  A    between atoms: C1_5  and  N3_6 
REMARK    3  A    between atoms: C2_8  and  C3_9 
REMARK    4  A    between atoms: C9_16  and  N4_17 
ROOT
HETATM    1  N2  UNL     1      -2.112   0.531   0.205  1.00  0.00    -0.225 N 
HETATM    2  C1  UNL     1      -1.023  -0.256   0.190  1.00  0.00     0.128 A 
HETATM    3  C7  UNL     1      -1.414  -1.577   0.173  1.00  0.00     0.054 A 
HETATM    4  C8  UNL     1      -2.790  -1.561   0.177  1.00  0.00     0.060 A 
HETATM    5  C9  UNL     1      -3.220  -0.261   0.197  1.00  0.00     0.196 A 
ENDROOT
BRANCH   2   6
HETATM    6  N3  UNL     1       0.329   0.156   0.192  1.00  0.00    -0.348 N 
HETATM    7  C2  UNL     1       1.296  -0.596  -0.220  1.00  0.00     0.127 C 
ATOM      8  H3  UNL     1       0.552   1.091   0.535  1.00  0.00     0.167 HD
BRANCH   7   9
HETATM    9  C3  UNL     1       2.671  -0.058  -0.171  1.00  0.00     0.090 A 
HETATM   10  C4  UNL     1       3.827  -0.701  -0.563  1.00  0.00     0.040 A 
HETATM   11  C5  UNL     1       4.892   0.140  -0.358  1.00  0.00     0.027 A 
HETATM   12  C6  UNL     1       4.338   1.294   0.164  1.00  0.00     0.142 A 
HETATM   13  O1  UNL     1       3.041   1.125   0.252  1.00  0.00    -0.321 OA
ENDBRANCH   7   9
ENDBRANCH   2   6
BRANCH   1  14
HETATM   14  N1  UNL     1      -2.169   1.925   0.224  1.00  0.00    -0.335 N 
ATOM     15  H12 UNL     1      -1.339   2.518   0.230  1.00  0.00     0.177 HD
ATOM     16  H11 UNL     1      -2.996   2.522   0.235  1.00  0.00     0.177 HD
ENDBRANCH   1  14
BRANCH   5  17
HETATM   17  N4  UNL     1      -4.569   0.219   0.208  1.00  0.00    -0.096 N 
HETATM   18  O2  UNL     1      -4.795   1.439   0.225  1.00  0.00    -0.530 OA
HETATM   19  O3  UNL     1      -5.578  -0.713   0.197  1.00  0.00    -0.530 OA
ENDBRANCH   5  17
TORSDOF 4
