REMARK  4 active torsions:
REMARK  status: ('A' for Active; 'I' for Inactive)
REMARK    1  A    between atoms: N2_3  and  O1_4 
REMARK    2  A    between atoms: N2_3  and  C2_6 
REMARK    3  A    between atoms: C5_9  and  C6_10 
REMARK    4  A    between atoms: C9_16  and  O3_17 
ROOT
HETATM    1  N1  UNL     1       4.653   1.604  -0.704  1.00  0.00    -0.176 NA
HETATM    2  C1  UNL     1       4.154   0.627  -0.301  1.00  0.00     0.184 C 
HETATM    3  N2  UNL     1       3.582  -0.548   0.181  1.00  0.00    -0.063 NA
ENDROOT
BRANCH   3   4
HETATM    4  O1  UNL     1       3.966  -1.642  -0.493  1.00  0.00    -0.294 OA
ATOM      5  H1  UNL     1       3.576  -2.443  -0.164  1.00  0.00     0.238 HD
ENDBRANCH   3   4
BRANCH   3   6
HETATM    6  C2  UNL     1       2.143  -0.477   0.189  1.00  0.00     0.055 A 
HETATM    7  C3  UNL     1       1.399  -1.546   0.634  1.00  0.00     0.028 A 
HETATM    8  C4  UNL     1       0.048  -1.445   0.628  1.00  0.00     0.019 A 
HETATM    9  C5  UNL     1      -0.637  -0.301   0.190  1.00  0.00     0.033 A 
HETATM   10  C9  UNL     1       0.119   0.747  -0.247  1.00  0.00     0.080 A 
HETATM   11  C10 UNL     1       1.523   0.667  -0.251  1.00  0.00     0.064 A 
BRANCH   9  12
HETATM   12  C6  UNL     1      -2.073  -0.263   0.210  1.00  0.00     0.113 A 
HETATM   13  C7  UNL     1      -2.939   0.719  -0.159  1.00  0.00     0.059 A 
HETATM   14  C8  UNL     1      -4.238   0.230   0.069  1.00  0.00     0.117 A 
HETATM   15  N3  UNL     1      -4.056  -1.004   0.556  1.00  0.00    -0.272 N 
HETATM   16  O2  UNL     1      -2.812  -1.280   0.635  1.00  0.00    -0.237 OA
ATOM     17  H3  UNL     1      -4.809  -1.637   0.827  1.00  0.00     0.194 HD
ENDBRANCH   9  12
BRANCH  10  18
HETATM   18  O3  UNL     1      -0.454   1.922  -0.701  1.00  0.00    -0.360 OA
ATOM     19  H3  UNL     1       0.072   2.652  -1.005  1.00  0.00     0.217 HD
ENDBRANCH  10  18
ENDBRANCH   3   6
TORSDOF 4
