REMARK  2 active torsions:
REMARK  status: ('A' for Active; 'I' for Inactive)
REMARK    1  A    between atoms: C2_2  and  N1_4 
REMARK       I    between atoms: N1_4  and  C4_6 
REMARK       I    between atoms: C4_6  and  N2_8 
REMARK    2  A    between atoms: N2_8  and  C5_10 
ROOT
HETATM    1  C5  UNL     1      -1.128  -0.273   0.410  1.00  0.00     0.041 C 
HETATM    2  C6  UNL     1      -2.172  -0.670   1.475  1.00  0.00     0.036 C 
HETATM    3  C7  UNL     1      -3.329   0.198   1.023  1.00  0.00    -0.009 C 
HETATM    4  C8  UNL     1      -2.615   1.549   0.943  1.00  0.00     0.012 C 
HETATM    5  C9  UNL     1      -1.446   1.149   0.030  1.00  0.00     0.017 C 
HETATM    6  C10 UNL     1      -2.056   1.085  -1.378  1.00  0.00     0.050 C 
HETATM    7  C11 UNL     1      -2.669  -0.292  -1.344  1.00  0.00     0.106 C 
HETATM    8  F1  UNL     1      -3.111  -0.741  -2.538  1.00  0.00    -0.243 F 
HETATM    9  C12 UNL     1      -3.782  -0.271  -0.324  1.00  0.00     0.048 C 
HETATM   10  C13 UNL     1      -1.498  -1.117  -0.792  1.00  0.00     0.075 C 
ENDROOT
BRANCH   1  11
HETATM   11  N2  UNL     1       0.198  -0.488   0.895  1.00  0.00    -0.333 N 
HETATM   12  C4  UNL     1       1.322  -0.190   0.089  1.00  0.00     0.317 C 
HETATM   13  N1  UNL     1       2.636  -0.413   0.594  1.00  0.00    -0.339 N 
HETATM   14  O1  UNL     1       1.204   0.270  -1.073  1.00  0.00    -0.247 OA
ATOM     15  H1  UNL     1       2.770  -0.786   1.534  1.00  0.00     0.164 HD
ATOM     16  H2  UNL     1       0.336  -0.861   1.834  1.00  0.00     0.165 HD
BRANCH  13  17
HETATM   17  C2  UNL     1       3.777  -0.105  -0.238  1.00  0.00     0.078 C 
HETATM   18  C1  UNL     1       4.626  -1.319  -0.504  1.00  0.00     0.032 C 
HETATM   19  C3  UNL     1       4.593   1.010   0.388  1.00  0.00     0.032 C 
ENDBRANCH  13  17
ENDBRANCH   1  11
TORSDOF 2
