REMARK  4 active torsions:
REMARK  status: ('A' for Active; 'I' for Inactive)
REMARK    1  A    between atoms: C5_6  and  N1_7 
REMARK    2  A    between atoms: N1_7  and  C6_9 
REMARK    3  A    between atoms: C6_9  and  N2_11 
REMARK    4  A    between atoms: N2_11  and  C7_13 
ROOT
HETATM    1  C6  UNL     1       0.050  -1.273  -0.186  1.00  0.00     0.168 C 
HETATM    2  S1  UNL     1      -0.523  -2.828  -0.336  1.00  0.00    -0.041 SA
ENDROOT
BRANCH   1   3
HETATM    3  N1  UNL     1      -0.858  -0.210   0.033  1.00  0.00    -0.360 N 
ATOM      4  H1  UNL     1      -0.519   0.748   0.125  1.00  0.00     0.162 HD
BRANCH   3   5
HETATM    5  C5  UNL     1      -2.270  -0.497   0.125  1.00  0.00     0.117 C 
HETATM    6  C1  UNL     1      -3.056   0.787   0.385  1.00  0.00     0.192 C 
HETATM    7  F1  UNL     1      -3.369   0.934   1.717  1.00  0.00    -0.247 F 
HETATM    8  C2  UNL     1      -4.341   0.530  -0.409  1.00  0.00     0.039 C 
HETATM    9  C3  UNL     1      -3.748   0.018  -1.704  1.00  0.00     0.005 C 
HETATM   10  C4  UNL     1      -2.754  -1.008  -1.204  1.00  0.00     0.028 C 
ENDBRANCH   3   5
ENDBRANCH   1   3
BRANCH   1  11
HETATM   11  N2  UNL     1       1.455  -1.128  -0.291  1.00  0.00    -0.363 N 
ATOM     12  H2  UNL     1       2.000  -1.973  -0.461  1.00  0.00     0.162 HD
BRANCH  11  13
HETATM   13  C7  UNL     1       2.184   0.119  -0.177  1.00  0.00     0.083 C 
HETATM   14  C8  UNL     1       2.093   0.596   1.245  1.00  0.00     0.025 C 
HETATM   15  C9  UNL     1       3.467   1.246   1.459  1.00  0.00     0.002 C 
HETATM   16  C10 UNL     1       4.375   0.216   0.836  1.00  0.00     0.002 C 
HETATM   17  C11 UNL     1       3.642  -0.049  -0.488  1.00  0.00     0.025 C 
ENDBRANCH  11  13
ENDBRANCH   1  11
TORSDOF 4
