REMARK  6 active torsions:
REMARK  status: ('A' for Active; 'I' for Inactive)
REMARK    1  A    between atoms: C1_4  and  O1_6 
REMARK    2  A    between atoms: O1_6  and  N3_7 
REMARK    3  A    between atoms: C2_9  and  O2_10 
REMARK    4  A    between atoms: C2_9  and  N4_12 
REMARK    5  A    between atoms: N4_12  and  S1_14 
REMARK    6  A    between atoms: S1_14  and  N5_15 
ROOT
HETATM    1  N3  UNL     1      -0.738   0.768  -0.104  1.00  0.00    -0.221 N 
ATOM      2  H3  UNL     1      -0.732   1.550  -0.759  1.00  0.00     0.198 HD
HETATM    3  C2  UNL     1       0.301   0.013  -0.021  1.00  0.00     0.252 C 
ENDROOT
BRANCH   3   4
HETATM    4  O2  UNL     1       0.228  -1.044   0.898  1.00  0.00    -0.331 OA
ATOM      5  H2  UNL     1       0.995  -1.601   0.959  1.00  0.00     0.221 HD
ENDBRANCH   3   4
BRANCH   3   6
HETATM    6  N4  UNL     1       1.459   0.230  -0.811  1.00  0.00    -0.231 N 
ATOM      7  H4  UNL     1       1.538  -0.220  -1.723  1.00  0.00     0.184 HD
BRANCH   6   8
HETATM    8  S1  UNL     1       2.730   1.241  -0.251  1.00  0.00     0.319 S 
HETATM    9  O3  UNL     1       2.210   2.402   0.552  1.00  0.00    -0.183 OA
HETATM   10  O4  UNL     1       3.452   1.828  -1.456  1.00  0.00    -0.183 OA
BRANCH   8  11
HETATM   11  N5  UNL     1       3.864   0.306   0.628  1.00  0.00    -0.311 N 
ATOM     12  H52 UNL     1       3.783  -0.698   0.786  1.00  0.00     0.170 HD
ATOM     13  H51 UNL     1       4.619   0.906   0.961  1.00  0.00     0.170 HD
ENDBRANCH   8  11
ENDBRANCH   6   8
ENDBRANCH   3   6
BRANCH   1  14
HETATM   14  O1  UNL     1      -1.839   0.554   0.654  1.00  0.00    -0.201 OA
BRANCH  14  15
HETATM   15  C1  UNL     1      -2.812  -0.392   0.363  1.00  0.00     0.249 C 
HETATM   16  N1  UNL     1      -2.483  -1.378  -0.388  1.00  0.00    -0.366 N 
ATOM     17  H12 UNL     1      -3.198  -2.073  -0.602  1.00  0.00     0.159 HD
ATOM     18  H11 UNL     1      -1.538  -1.466  -0.761  1.00  0.00     0.159 HD
HETATM   19  N2  UNL     1      -4.130  -0.270   0.883  1.00  0.00    -0.055 NA
ENDBRANCH  14  15
ENDBRANCH   1  14
TORSDOF 6
