REMARK  3 active torsions:
REMARK  status: ('A' for Active; 'I' for Inactive)
REMARK    1  A    between atoms: N1_1  and  N2_4 
REMARK       I    between atoms: N2_4  and  C1_6 
REMARK       I    between atoms: C1_6  and  N3_8 
REMARK    2  A    between atoms: N3_8  and  N4_10 
REMARK       I    between atoms: N4_10  and  C2_12 
REMARK    3  A    between atoms: C2_12  and  C3_14 
ROOT
HETATM    1  N4  UNL     1       1.020   0.506  -0.026  1.00  0.00    -0.262 N 
ATOM      2  H4  UNL     1       0.774   0.546  -1.015  1.00  0.00     0.190 HD
HETATM    3  C2  UNL     1       0.073   0.046   0.924  1.00  0.00     0.270 C 
HETATM    4  O2  UNL     1       0.405  -0.004   2.162  1.00  0.00    -0.266 OA
ENDROOT
BRANCH   1   5
HETATM    5  N3  UNL     1       2.282   0.901   0.393  1.00  0.00    -0.247 N 
HETATM    6  C1  UNL     1       3.427   0.488  -0.353  1.00  0.00     0.353 C 
HETATM    7  N2  UNL     1       4.713   0.902   0.100  1.00  0.00    -0.257 N 
HETATM    8  O1  UNL     1       3.272  -0.216  -1.367  1.00  0.00    -0.244 OA
ATOM      9  H2  UNL     1       4.814   1.478   0.936  1.00  0.00     0.191 HD
ATOM     10  H3  UNL     1       2.391   1.480   1.225  1.00  0.00     0.192 HD
BRANCH   7  11
HETATM   11  N1  UNL     1       5.829   0.498  -0.630  1.00  0.00    -0.341 N 
ATOM     12  H12 UNL     1       5.711  -0.078  -1.463  1.00  0.00     0.177 HD
ATOM     13  H11 UNL     1       6.750   0.794  -0.306  1.00  0.00     0.177 HD
ENDBRANCH   7  11
ENDBRANCH   1   5
BRANCH   3  14
HETATM   14  C3  UNL     1      -1.278  -0.387   0.629  1.00  0.00     0.035 A 
HETATM   15  C4  UNL     1      -1.518  -1.630   0.110  1.00  0.00     0.017 A 
HETATM   16  C5  UNL     1      -2.823  -2.060  -0.180  1.00  0.00     0.003 A 
HETATM   17  C6  UNL     1      -3.879  -1.211   0.064  1.00  0.00     0.026 A 
HETATM   18  C7  UNL     1      -3.668   0.048   0.586  1.00  0.00     0.047 A 
HETATM   19  N5  UNL     1      -4.723   0.974   0.858  1.00  0.00    -0.102 NA
HETATM   20  C8  UNL     1      -2.361   0.439   0.860  1.00  0.00     0.043 A 
ENDBRANCH   3  14
TORSDOF 3
