REMARK  3 active torsions:
REMARK  status: ('A' for Active; 'I' for Inactive)
REMARK    1  A    between atoms: O1_2  and  C2_3 
REMARK    2  A    between atoms: C2_3  and  N2_7 
REMARK       I    between atoms: N2_7  and  C3_9 
REMARK       I    between atoms: C3_9  and  N4_13 
REMARK    3  A    between atoms: N4_13  and  S1_15 
ROOT
HETATM    1  N2  UNL     1       0.381   1.532  -0.273  1.00  0.00    -0.155 N 
ATOM      2  H2  UNL     1       0.363   2.493  -0.615  1.00  0.00     0.188 HD
HETATM    3  C3  UNL     1      -0.824   0.981   0.257  1.00  0.00     0.690 C 
HETATM    4  N3  UNL     1      -1.744   1.758   0.742  1.00  0.00    -0.234 N 
ATOM      5  H31 UNL     1      -2.605   1.364   1.121  1.00  0.00     0.174 HD
ATOM      6  H32 UNL     1      -1.556   2.760   0.722  1.00  0.00     0.174 HD
HETATM    7  N4  UNL     1      -1.083  -0.399   0.285  1.00  0.00    -0.098 N 
ATOM      8  H4  UNL     1      -0.423  -1.038   0.729  1.00  0.00     0.200 HD
ENDROOT
BRANCH   1   9
HETATM    9  C2  UNL     1       1.597   0.819  -0.350  1.00  0.00     0.231 C 
HETATM   10  N1  UNL     1       2.752   1.410  -0.251  1.00  0.00    -0.365 N 
ATOM     11  H12 UNL     1       3.631   0.895  -0.307  1.00  0.00     0.159 HD
ATOM     12  H11 UNL     1       2.726   2.420  -0.114  1.00  0.00     0.159 HD
BRANCH   9  13
HETATM   13  O1  UNL     1       1.632  -0.556  -0.537  1.00  0.00    -0.327 OA
HETATM   14  C1  UNL     1       2.704  -1.290   0.071  1.00  0.00     0.213 C 
ENDBRANCH   9  13
ENDBRANCH   1   9
BRANCH   7  15
HETATM   15  S1  UNL     1      -2.517  -0.998  -0.433  1.00  0.00     0.223 S 
HETATM   16  O2  UNL     1      -2.288  -2.368  -1.029  1.00  0.00    -0.577 OA
HETATM   17  O3  UNL     1      -2.914  -0.114  -1.606  1.00  0.00    -0.577 OA
HETATM   18  O4  UNL     1      -3.781  -1.045   0.664  1.00  0.00    -0.577 OA
ENDBRANCH   7  15
TORSDOF 3
