REMARK  3 active torsions:
REMARK  status: ('A' for Active; 'I' for Inactive)
REMARK    1  A    between atoms: O1_3  and  C2_4 
REMARK       I    between atoms: C2_4  and  N2_6 
REMARK       I    between atoms: N2_6  and  C3_8 
REMARK       I    between atoms: C3_8  and  N4_12 
REMARK    2  A    between atoms: N4_12  and  N5_14 
REMARK    3  A    between atoms: N5_14  and  C4_16 
ROOT
HETATM    1  N1  UNL     1       3.935   1.070   3.188  1.00  0.00    -0.163 NA
HETATM    2  C1  UNL     1       3.392   1.313   2.198  1.00  0.00     0.238 C 
HETATM    3  O1  UNL     1       2.762   1.614   1.043  1.00  0.00    -0.185 OA
ENDROOT
BRANCH   3   4
HETATM    4  C2  UNL     1       1.804   0.762   0.453  1.00  0.00     0.393 C 
HETATM    5  O2  UNL     1       1.587  -0.292   1.085  1.00  0.00    -0.236 OA
HETATM    6  N2  UNL     1       1.182   1.143  -0.760  1.00  0.00    -0.133 N 
HETATM    7  C3  UNL     1       0.220   0.311  -1.376  1.00  0.00     0.695 C 
ATOM      8  H2  UNL     1       1.432   2.031  -1.196  1.00  0.00     0.189 HD
HETATM    9  N3  UNL     1      -0.307   0.741  -2.496  1.00  0.00    -0.233 N 
HETATM   10  N4  UNL     1      -0.192  -0.939  -0.857  1.00  0.00    -0.130 N 
ATOM     11  H32 UNL     1      -0.010   1.642  -2.870  1.00  0.00     0.174 HD
ATOM     12  H31 UNL     1      -1.001   0.140  -2.941  1.00  0.00     0.174 HD
ATOM     13  H4  UNL     1       0.484  -1.647  -0.570  1.00  0.00     0.205 HD
BRANCH  10  14
HETATM   14  N5  UNL     1      -1.572  -1.160  -0.755  1.00  0.00    -0.264 N 
ATOM     15  H5  UNL     1      -1.992  -1.814  -1.416  1.00  0.00     0.189 HD
BRANCH  14  16
HETATM   16  C4  UNL     1      -2.424  -0.555   0.183  1.00  0.00     0.200 C 
HETATM   17  N6  UNL     1      -1.901   0.361   1.125  1.00  0.00    -0.068 NA
HETATM   18  S1  UNL     1      -4.014  -0.886   0.210  1.00  0.00    -0.043 SA
ENDBRANCH  14  16
ENDBRANCH  10  14
ENDBRANCH   3   4
TORSDOF 3
