REMARK  2 active torsions:
REMARK  status: ('A' for Active; 'I' for Inactive)
REMARK    1  A    between atoms: C3_6  and  N2_7 
REMARK    2  A    between atoms: C4_11  and  N4_12 
ROOT
HETATM    1  C1  UNL     1      -3.554  -0.793  -0.326  1.00  0.00     0.211 C 
HETATM    2  O1  UNL     1      -2.283  -0.785  -0.226  1.00  0.00    -0.338 OA
HETATM    3  C2  UNL     1      -0.984  -0.778  -0.074  1.00  0.00     0.203 A 
HETATM    4  N1  UNL     1      -0.119  -1.839   0.090  1.00  0.00    -0.166 N 
ATOM      5  H1  UNL     1      -0.394  -2.821   0.116  1.00  0.00     0.186 HD
HETATM    6  C3  UNL     1       1.131  -1.391   0.210  1.00  0.00     0.701 A 
HETATM    7  N3  UNL     1       1.159  -0.054   0.136  1.00  0.00     0.042 N 
HETATM    8  C4  UNL     1       2.178   0.842   0.203  1.00  0.00     0.703 A 
HETATM    9  N5  UNL     1       1.889   2.170   0.092  1.00  0.00    -0.140 N 
ATOM     10  H5  UNL     1       2.629   2.871   0.139  1.00  0.00     0.189 HD
HETATM   11  C5  UNL     1       0.612   2.532  -0.080  1.00  0.00     0.340 A 
HETATM   12  O2  UNL     1       0.334   3.753  -0.184  1.00  0.00    -0.246 OA
HETATM   13  N6  UNL     1      -0.394   1.640  -0.146  1.00  0.00    -0.289 N 
ATOM     14  H6  UNL     1      -1.357   1.951  -0.277  1.00  0.00     0.172 HD
HETATM   15  C6  UNL     1      -0.105   0.327  -0.035  1.00  0.00     0.203 A 
ENDROOT
BRANCH   6  16
HETATM   16  N2  UNL     1       2.159  -2.163   0.376  1.00  0.00    -0.233 N 
ATOM     17  H22 UNL     1       2.138  -3.181   0.432  1.00  0.00     0.174 HD
ATOM     18  H21 UNL     1       3.115  -1.820   0.468  1.00  0.00     0.174 HD
ENDBRANCH   6  16
BRANCH   8  19
HETATM   19  N4  UNL     1       3.390   0.526   0.364  1.00  0.00    -0.233 N 
ATOM     20  H42 UNL     1       3.606  -0.467   0.447  1.00  0.00     0.174 HD
ATOM     21  H41 UNL     1       4.155   1.199   0.414  1.00  0.00     0.174 HD
ENDBRANCH   8  19
TORSDOF 2
