REMARK  2 active torsions:
REMARK  status: ('A' for Active; 'I' for Inactive)
REMARK       I    between atoms: C1_2  and  N6_10 
REMARK    1  A    between atoms: N2_3  and  N3_5 
REMARK    2  A    between atoms: N6_10  and  C3_12 
ROOT
HETATM    1  N1  UNL     1       0.349  -2.612  -0.426  1.00  0.00    -0.062 NA
HETATM    2  C1  UNL     1      -0.289  -1.384  -0.127  1.00  0.00     0.209 C 
HETATM    3  N2  UNL     1      -1.364  -1.368   0.565  1.00  0.00    -0.271 N 
ATOM      4  H2  UNL     1      -1.772  -2.237   0.908  1.00  0.00     0.189 HD
HETATM    5  N6  UNL     1       0.251  -0.160  -0.590  1.00  0.00    -0.308 N 
ATOM      6  H6  UNL     1      -0.302   0.511  -1.123  1.00  0.00     0.170 HD
ENDROOT
BRANCH   5   7
HETATM    7  C3  UNL     1       1.514   0.054  -0.287  1.00  0.00     0.169 A 
HETATM    8  N7  UNL     1       2.252   1.118  -0.601  1.00  0.00    -0.277 N 
HETATM    9  N8  UNL     1       3.470   1.161  -0.224  1.00  0.00    -0.278 N 
ATOM     10  H7  UNL     1       1.849   1.888  -1.135  1.00  0.00     0.189 HD
HETATM   11  C4  UNL     1       3.969   0.140   0.473  1.00  0.00     0.160 A 
ATOM     12  H8  UNL     1       4.054   1.965  -0.453  1.00  0.00     0.189 HD
HETATM   13  N9  UNL     1       5.189   0.005   0.944  1.00  0.00    -0.379 N 
HETATM   14  S1  UNL     1       2.625  -0.910   0.581  1.00  0.00    -0.015 SA
ATOM     15  H92 UNL     1       5.991   0.632   0.880  1.00  0.00     0.158 HD
ATOM     16  H91 UNL     1       5.571  -0.776   1.477  1.00  0.00     0.158 HD
ENDBRANCH   5   7
BRANCH   3  17
HETATM   17  N3  UNL     1      -1.968  -0.144   0.842  1.00  0.00    -0.274 N 
HETATM   18  C2  UNL     1      -3.185   0.021   0.484  1.00  0.00     0.215 C 
HETATM   19  N4  UNL     1      -3.935  -0.991  -0.182  1.00  0.00    -0.065 NA
HETATM   20  N5  UNL     1      -3.789   1.289   0.778  1.00  0.00    -0.065 NA
ATOM     21  H3  UNL     1      -1.455   0.599   1.316  1.00  0.00     0.189 HD
ENDBRANCH   3  17
TORSDOF 2
