REMARK  3 active torsions:
REMARK  status: ('A' for Active; 'I' for Inactive)
REMARK    1  A    between atoms: N1_1  and  C1_5 
REMARK    2  A    between atoms: C1_5  and  O1_6 
REMARK    3  A    between atoms: C1_5  and  C2_8 
ROOT
HETATM    1  C2  UNL     1       1.728   0.063   0.355  1.00  0.00     0.069 C 
HETATM    2  C3  UNL     1       1.361   1.563   0.287  1.00  0.00     0.030 C 
HETATM    3  C4  UNL     1       0.054   1.882   0.924  1.00  0.00     0.119 C 
HETATM    4  N2  UNL     1      -1.070   1.922   0.069  1.00  0.00    -0.398 N 
ATOM      5  H2  UNL     1      -0.945   2.056  -0.934  1.00  0.00     0.158 HD
HETATM    6  C5  UNL     1      -2.346   1.778   0.599  1.00  0.00     0.099 C 
HETATM    7  C6  UNL     1      -3.104   0.524   0.188  1.00  0.00     0.099 C 
HETATM    8  N3  UNL     1      -2.374  -0.372  -0.615  1.00  0.00    -0.396 N 
ATOM      9  H3  UNL     1      -2.138  -0.155  -1.583  1.00  0.00     0.158 HD
HETATM   10  C7  UNL     1      -1.975  -1.618   0.004  1.00  0.00     0.146 C 
HETATM   11  C8  UNL     1      -0.901  -2.343  -0.726  1.00  0.00     0.251 C 
HETATM   12  N4  UNL     1       0.467  -1.980  -0.401  1.00  0.00    -0.073 N 
ATOM     13  H41 UNL     1       1.129  -2.228  -1.137  1.00  0.00     0.277 HD
ATOM     14  H42 UNL     1       0.866  -2.558   0.338  1.00  0.00     0.277 HD
HETATM   15  C9  UNL     1       0.482  -0.605  -0.090  1.00  0.00     0.241 C 
ENDROOT
BRANCH   1  16
HETATM   16  C1  UNL     1       2.916  -0.136  -0.529  1.00  0.00     0.321 C 
BRANCH  16  17
HETATM   17  N1  UNL     1       3.338  -1.522  -0.520  1.00  0.00    -0.053 N 
ATOM     18  H13 UNL     1       4.194  -1.684  -1.051  1.00  0.00     0.277 HD
ATOM     19  H12 UNL     1       3.689  -1.828   0.388  1.00  0.00     0.277 HD
ATOM     20  H11 UNL     1       2.549  -2.077  -0.852  1.00  0.00     0.277 HD
ENDBRANCH  16  17
BRANCH  16  21
HETATM   21  O1  UNL     1       3.998   0.625  -0.073  1.00  0.00    -0.369 OA
ATOM     22  H1  UNL     1       3.721   1.534  -0.079  1.00  0.00     0.212 HD
ENDBRANCH  16  21
ENDBRANCH   1  16
TORSDOF 3
