REMARK  6 active torsions:
REMARK  status: ('A' for Active; 'I' for Inactive)
REMARK    1  A    between atoms: C3_3  and  N1_4 
REMARK    2  A    between atoms: N1_4  and  C4_7 
REMARK    3  A    between atoms: C5_8  and  N2_9 
REMARK    4  A    between atoms: C9_16  and  C10_17 
REMARK    5  A    between atoms: C10_17  and  N5_18 
REMARK    6  A    between atoms: C10_17  and  C11_22 
ROOT
HETATM    1  C1  UNL     1       1.135   4.985   0.376  1.00  0.00     0.013 C 
HETATM    2  C2  UNL     1       0.978   3.913  -0.143  1.00  0.00    -0.090 C 
HETATM    3  C3  UNL     1       0.784   2.604  -0.809  1.00  0.00     0.325 C 
ENDROOT
BRANCH   3   4
HETATM    4  N1  UNL     1       0.024   1.791   0.109  1.00  0.00    -0.059 N 
ATOM      5  H12 UNL     1       0.481   1.754   1.020  1.00  0.00     0.278 HD
ATOM      6  H11 UNL     1      -0.843   2.259   0.372  1.00  0.00     0.278 HD
BRANCH   4   7
HETATM    7  C4  UNL     1      -0.240   0.480  -0.374  1.00  0.00     0.215 C 
HETATM    8  C5  UNL     1       1.000  -0.359  -0.589  1.00  0.00     0.115 C 
HETATM    9  C7  UNL     1       0.644  -1.766  -0.214  1.00  0.00     0.028 C 
HETATM   10  C8  UNL     1      -0.851  -1.737  -0.086  1.00  0.00     0.011 C 
HETATM   11  C9  UNL     1      -1.087  -0.375   0.546  1.00  0.00     0.052 C 
BRANCH   8  12
HETATM   12  N2  UNL     1       2.091   0.058   0.265  1.00  0.00    -0.360 N 
HETATM   13  C6  UNL     1       3.221  -0.534   0.123  1.00  0.00     0.197 C 
HETATM   14  N3  UNL     1       4.358  -0.185   0.928  1.00  0.00    -0.067 NA
HETATM   15  N4  UNL     1       3.397  -1.564  -0.837  1.00  0.00    -0.067 NA
ATOM     16  H2  UNL     1       1.966   0.797   0.956  1.00  0.00     0.162 HD
ENDBRANCH   8  12
BRANCH  11  17
HETATM   17  C10 UNL     1      -2.550   0.013   0.480  1.00  0.00     0.211 C 
BRANCH  17  18
HETATM   18  N5  UNL     1      -2.999  -0.165  -0.873  1.00  0.00    -0.071 N 
ATOM     19  H53 UNL     1      -2.426   0.342  -1.548  1.00  0.00     0.275 HD
ATOM     20  H52 UNL     1      -2.825  -1.106  -1.225  1.00  0.00     0.275 HD
ATOM     21  H51 UNL     1      -3.984   0.096  -0.917  1.00  0.00     0.275 HD
ENDBRANCH  17  18
BRANCH  17  22
HETATM   22  C11 UNL     1      -3.283  -0.848   1.426  1.00  0.00    -0.004 C 
HETATM   23  C12 UNL     1      -3.798  -1.989   1.031  1.00  0.00     0.009 C 
ENDBRANCH  17  22
ENDBRANCH  11  17
ENDBRANCH   4   7
ENDBRANCH   3   4
TORSDOF 6
