REMARK  6 active torsions:
REMARK  status: ('A' for Active; 'I' for Inactive)
REMARK    1  A    between atoms: C3_3  and  N1_4 
REMARK    2  A    between atoms: N1_4  and  C4_5 
REMARK    3  A    between atoms: N1_4  and  C6_9 
REMARK    4  A    between atoms: C4_5  and  C5_6 
REMARK    5  A    between atoms: C5_6  and  O1_7 
REMARK    6  A    between atoms: C9_12  and  N2_13 
ROOT
HETATM    1  C1  UNL     1       3.372  -3.037   1.172  1.00  0.00     0.018 C 
HETATM    2  C2  UNL     1       2.857  -2.320   0.345  1.00  0.00    -0.072 C 
HETATM    3  C3  UNL     1       2.207  -1.472  -0.664  1.00  0.00     0.150 C 
ENDROOT
BRANCH   3   4
HETATM    4  N1  UNL     1       1.738  -0.286  -0.118  1.00  0.00    -0.376 N 
BRANCH   4   5
HETATM    5  C4  UNL     1       2.662   0.691   0.325  1.00  0.00     0.149 C 
BRANCH   5   6
HETATM    6  C5  UNL     1       3.418   1.409  -0.763  1.00  0.00     0.183 C 
BRANCH   6   7
HETATM    7  O1  UNL     1       4.309   2.335  -0.244  1.00  0.00    -0.399 OA
ATOM      8  H1  UNL     1       4.786   2.788  -0.930  1.00  0.00     0.209 HD
ENDBRANCH   6   7
ENDBRANCH   5   6
ENDBRANCH   4   5
BRANCH   4   9
HETATM    9  C6  UNL     1       0.400  -0.074   0.162  1.00  0.00     0.086 C 
HETATM   10  C7  UNL     1      -0.202  -0.952   1.274  1.00  0.00     0.027 C 
HETATM   11  C8  UNL     1      -1.603  -0.301   1.264  1.00  0.00     0.027 C 
HETATM   12  C9  UNL     1      -1.926  -0.342  -0.220  1.00  0.00     0.085 C 
HETATM   13  C11 UNL     1      -0.564  -0.421  -0.942  1.00  0.00     0.050 C 
BRANCH  12  14
HETATM   14  N2  UNL     1      -2.606   0.868  -0.574  1.00  0.00    -0.362 N 
HETATM   15  C10 UNL     1      -3.836   1.029  -0.279  1.00  0.00     0.197 C 
HETATM   16  N3  UNL     1      -4.497   2.241  -0.641  1.00  0.00    -0.067 NA
HETATM   17  N4  UNL     1      -4.594   0.039   0.414  1.00  0.00    -0.067 NA
ATOM     18  H2  UNL     1      -2.103   1.606  -1.066  1.00  0.00     0.162 HD
ENDBRANCH  12  14
ENDBRANCH   4   9
ENDBRANCH   3   4
TORSDOF 6
