REMARK  9 active torsions:
REMARK  status: ('A' for Active; 'I' for Inactive)
REMARK    1  A    between atoms: C1_4  and  O1_6 
REMARK    2  A    between atoms: O1_6  and  C2_7 
REMARK    3  A    between atoms: C2_7  and  C3_8 
REMARK    4  A    between atoms: C4_9  and  O2_10 
REMARK    5  A    between atoms: C6_13  and  C7_14 
REMARK    6  A    between atoms: C7_14  and  C8_15 
REMARK    7  A    between atoms: C9_16  and  C10_17 
REMARK    8  A    between atoms: C10_17  and  C11_18 
REMARK    9  A    between atoms: N3_19  and  N4_21 
ROOT
HETATM    1  C3  UNL     1       1.318  -0.627  -0.759  1.00  0.00     0.043 C 
HETATM    2  C4  UNL     1       2.030  -1.014   0.484  1.00  0.00     0.125 C 
HETATM    3  C5  UNL     1       0.772  -1.887   0.807  1.00  0.00     0.037 C 
HETATM    4  C6  UNL     1       0.011  -0.875  -0.039  1.00  0.00    -0.000 C 
ENDROOT
BRANCH   4   5
HETATM    5  C7  UNL     1      -0.500   0.245   0.828  1.00  0.00     0.032 C 
BRANCH   5   6
HETATM    6  C8  UNL     1      -1.771  -0.239   1.420  1.00  0.00    -0.030 C 
HETATM    7  C9  UNL     1      -2.937   0.304   1.267  1.00  0.00    -0.026 C 
BRANCH   7   8
HETATM    8  C10 UNL     1      -3.206   1.504   0.475  1.00  0.00     0.073 C 
BRANCH   8   9
HETATM    9  C11 UNL     1      -4.172   1.181  -0.619  1.00  0.00     0.083 C 
HETATM   10  N3  UNL     1      -4.083   0.046  -1.213  1.00  0.00    -0.322 N 
ATOM     11  H3  UNL     1      -3.359  -0.616  -0.932  1.00  0.00     0.185 HD
BRANCH  10  12
HETATM   12  N4  UNL     1      -4.966  -0.290  -2.238  1.00  0.00    -0.346 N 
ATOM     13  H42 UNL     1      -5.684   0.383  -2.507  1.00  0.00     0.176 HD
ATOM     14  H41 UNL     1      -4.895  -1.192  -2.710  1.00  0.00     0.176 HD
ENDBRANCH  10  12
ENDBRANCH   8   9
ENDBRANCH   7   8
ENDBRANCH   5   6
ENDBRANCH   4   5
BRANCH   1  15
HETATM   15  C2  UNL     1       1.516   0.690  -1.372  1.00  0.00     0.186 C 
BRANCH  15  16
HETATM   16  O1  UNL     1       2.812   0.927  -1.778  1.00  0.00    -0.324 OA
BRANCH  16  17
HETATM   17  C1  UNL     1       3.927   1.003  -1.006  1.00  0.00     0.225 C 
HETATM   18  N1  UNL     1       3.859   1.745   0.044  1.00  0.00    -0.368 N 
ATOM     19  H12 UNL     1       4.696   1.802   0.624  1.00  0.00     0.159 HD
ATOM     20  H11 UNL     1       2.998   2.243   0.271  1.00  0.00     0.159 HD
HETATM   21  N2  UNL     1       5.150   0.296  -1.328  1.00  0.00    -0.057 NA
ENDBRANCH  16  17
ENDBRANCH  15  16
ENDBRANCH   1  15
BRANCH   2  22
HETATM   22  O2  UNL     1       3.090  -1.931   0.354  1.00  0.00    -0.395 OA
ATOM     23  H2  UNL     1       3.546  -2.179   1.150  1.00  0.00     0.210 HD
ENDBRANCH   2  22
TORSDOF 9
