REMARK  9 active torsions:
REMARK  status: ('A' for Active; 'I' for Inactive)
REMARK    1  A    between atoms: C3_3  and  N1_4 
REMARK    2  A    between atoms: N1_4  and  C4_5 
REMARK    3  A    between atoms: C4_5  and  C5_6 
REMARK    4  A    between atoms: C5_6  and  N2_7 
REMARK    5  A    between atoms: N2_7  and  C6_9 
REMARK    6  A    between atoms: C6_9  and  C7_10 
REMARK    7  A    between atoms: C6_9  and  C8_15 
REMARK    8  A    between atoms: C7_10  and  N3_11 
REMARK    9  A    between atoms: C8_15  and  O1_16 
ROOT
HETATM    1  C1  UNL     1      -4.487   2.030   0.990  1.00  0.00     0.013 C 
HETATM    2  C2  UNL     1      -3.360   1.627   1.122  1.00  0.00    -0.089 C 
HETATM    3  C3  UNL     1      -2.004   1.170   1.289  1.00  0.00     0.330 C 
ENDROOT
BRANCH   3   4
HETATM    4  N1  UNL     1      -1.575   0.252   0.245  1.00  0.00    -0.056 N 
HETATM    5  C9  UNL     1      -1.770  -1.081   0.774  1.00  0.00     0.238 C 
HETATM    6  C10 UNL     1      -2.364  -1.909  -0.326  1.00  0.00     0.030 C 
HETATM    7  C11 UNL     1      -3.253  -0.879  -1.017  1.00  0.00     0.030 C 
HETATM    8  C12 UNL     1      -2.383   0.346  -0.955  1.00  0.00     0.238 C 
BRANCH   4   9
HETATM    9  C4  UNL     1      -0.199   0.567  -0.042  1.00  0.00     0.257 C 
BRANCH   9  10
HETATM   10  C5  UNL     1       0.559  -0.530  -0.747  1.00  0.00     0.142 C 
BRANCH  10  11
HETATM   11  N2  UNL     1       1.899  -0.119  -0.991  1.00  0.00    -0.412 N 
ATOM     12  H2  UNL     1       2.227   0.043  -1.943  1.00  0.00     0.153 HD
BRANCH  11  13
HETATM   13  C6  UNL     1       2.767   0.060   0.108  1.00  0.00     0.125 C 
BRANCH  13  14
HETATM   14  C7  UNL     1       4.090   0.589  -0.480  1.00  0.00     0.256 C 
BRANCH  14  15
HETATM   15  N3  UNL     1       3.812   1.830  -1.149  1.00  0.00    -0.077 N 
ATOM     16  H33 UNL     1       3.075   1.745  -1.849  1.00  0.00     0.274 HD
ATOM     17  H32 UNL     1       3.349   2.509  -0.545  1.00  0.00     0.274 HD
ATOM     18  H31 UNL     1       4.687   2.180  -1.538  1.00  0.00     0.274 HD
ENDBRANCH  14  15
ENDBRANCH  13  14
BRANCH  13  19
HETATM   19  C8  UNL     1       3.126  -1.141   0.906  1.00  0.00     0.190 C 
BRANCH  19  20
HETATM   20  O1  UNL     1       2.068  -1.797   1.502  1.00  0.00    -0.399 OA
ATOM     21  H1  UNL     1       2.298  -2.565   2.012  1.00  0.00     0.209 HD
ENDBRANCH  19  20
ENDBRANCH  13  19
ENDBRANCH  11  13
ENDBRANCH  10  11
ENDBRANCH   9  10
ENDBRANCH   4   9
ENDBRANCH   3   4
TORSDOF 9
