REMARK  7 active torsions:
REMARK  status: ('A' for Active; 'I' for Inactive)
REMARK       I    between atoms: C1_4  and  N3_6 
REMARK    1  A    between atoms: N4_9  and  C4_10 
REMARK    2  A    between atoms: C4_10  and  C5_11 
REMARK    3  A    between atoms: C5_11  and  N5_12 
REMARK    4  A    between atoms: N5_12  and  C6_15 
REMARK    5  A    between atoms: C6_15  and  C7_16 
REMARK    6  A    between atoms: C7_16  and  C8_17 
REMARK    7  A    between atoms: C8_17  and  N6_18 
ROOT
HETATM    1  C4  UNL     1       0.109  -2.005   0.179  1.00  0.00     0.149 C 
ENDROOT
BRANCH   1   2
HETATM    2  N4  UNL     1      -0.959  -1.098   0.384  1.00  0.00    -0.389 N 
HETATM    3  C3  UNL     1      -0.878   0.182  -0.101  1.00  0.00     0.078 C 
HETATM    4  C2  UNL     1      -2.117   0.795  -0.695  1.00  0.00     0.169 C 
HETATM    5  N3  UNL     1      -3.284   0.375   0.019  1.00  0.00    -0.350 N 
HETATM    6  C1  UNL     1      -4.337   1.337   0.285  1.00  0.00     0.184 C 
HETATM    7  C10 UNL     1      -3.410  -0.985   0.447  1.00  0.00     0.145 C 
HETATM    8  N1  UNL     1      -5.559   0.972   0.033  1.00  0.00    -0.374 N 
HETATM    9  N2  UNL     1      -4.044   2.625   0.801  1.00  0.00    -0.064 NA
ATOM     10  H12 UNL     1      -6.299   1.648   0.220  1.00  0.00     0.158 HD
ATOM     11  H11 UNL     1      -5.770   0.046  -0.338  1.00  0.00     0.158 HD
HETATM   12  C9  UNL     1      -2.186  -1.814   0.355  1.00  0.00     0.141 C 
ENDBRANCH   1   2
BRANCH   1  13
HETATM   13  C5  UNL     1       1.355  -1.745   0.928  1.00  0.00     0.252 C 
BRANCH  13  14
HETATM   14  N5  UNL     1       2.088  -0.569   0.679  1.00  0.00    -0.074 N 
ATOM     15  H52 UNL     1       1.491   0.251   0.790  1.00  0.00     0.277 HD
ATOM     16  H51 UNL     1       2.757  -0.403   1.431  1.00  0.00     0.277 HD
BRANCH  14  17
HETATM   17  C6  UNL     1       2.755  -0.535  -0.604  1.00  0.00     0.234 C 
BRANCH  17  18
HETATM   18  C7  UNL     1       3.529   0.758  -0.700  1.00  0.00     0.055 C 
BRANCH  18  19
HETATM   19  C8  UNL     1       4.568   0.852   0.406  1.00  0.00     0.231 C 
BRANCH  19  20
HETATM   20  N6  UNL     1       5.285   2.095   0.255  1.00  0.00    -0.079 N 
ATOM     21  H63 UNL     1       5.691   2.202  -0.674  1.00  0.00     0.274 HD
ATOM     22  H62 UNL     1       4.665   2.904   0.230  1.00  0.00     0.274 HD
ATOM     23  H61 UNL     1       5.982   2.158   0.997  1.00  0.00     0.274 HD
ENDBRANCH  19  20
ENDBRANCH  18  19
ENDBRANCH  17  18
ENDBRANCH  14  17
ENDBRANCH  13  14
ENDBRANCH   1  13
TORSDOF 7
