REMARK  8 active torsions:
REMARK  status: ('A' for Active; 'I' for Inactive)
REMARK    1  A    between atoms: N1_2  and  C4_5 
REMARK    2  A    between atoms: C4_5  and  C5_6 
REMARK    3  A    between atoms: N2_7  and  C6_8 
REMARK    4  A    between atoms: C6_8  and  C7_9 
REMARK    5  A    between atoms: C7_9  and  N3_10 
REMARK    6  A    between atoms: N3_10  and  C8_13 
REMARK    7  A    between atoms: C8_13  and  C9_14 
REMARK    8  A    between atoms: C9_14  and  N4_15 
ROOT
HETATM    1  C6  UNL     1       0.935   0.228  -0.665  1.00  0.00     0.178 C 
ENDROOT
BRANCH   1   2
HETATM    2  N2  UNL     1      -0.271  -0.460  -0.217  1.00  0.00    -0.275 N 
HETATM    3  C5  UNL     1      -1.464  -0.398   0.397  1.00  0.00     0.139 A 
HETATM    4  N5  UNL     1      -1.009  -1.636  -0.117  1.00  0.00    -0.283 N 
ATOM      5  H5  UNL     1      -1.130  -2.635  -0.286  1.00  0.00     0.188 HD
BRANCH   3   6
HETATM    6  C4  UNL     1      -2.476   0.438   1.098  1.00  0.00     0.315 C 
BRANCH   6   7
HETATM    7  N1  UNL     1      -3.701   0.364   0.327  1.00  0.00    -0.072 N 
HETATM    8  C1  UNL     1      -4.610   1.398   0.768  1.00  0.00     0.272 C 
HETATM    9  C2  UNL     1      -4.360  -0.903   0.442  1.00  0.00     0.272 C 
HETATM   10  C3  UNL     1      -3.332   0.633  -1.064  1.00  0.00     0.272 C 
ENDBRANCH   6   7
ENDBRANCH   3   6
ENDBRANCH   1   2
BRANCH   1  11
HETATM   11  C7  UNL     1       2.099  -0.428   0.018  1.00  0.00     0.254 C 
BRANCH  11  12
HETATM   12  N3  UNL     1       3.370   0.145  -0.326  1.00  0.00    -0.072 N 
ATOM     13  H32 UNL     1       3.535   0.164  -1.332  1.00  0.00     0.277 HD
ATOM     14  H31 UNL     1       3.406   1.151  -0.163  1.00  0.00     0.277 HD
BRANCH  12  15
HETATM   15  C8  UNL     1       4.394  -0.575   0.394  1.00  0.00     0.259 C 
BRANCH  15  16
HETATM   16  C9  UNL     1       5.778  -0.059   0.111  1.00  0.00     0.257 C 
BRANCH  16  17
HETATM   17  N4  UNL     1       6.154  -0.140  -1.260  1.00  0.00    -0.078 N 
ATOM     18  H43 UNL     1       6.049  -1.094  -1.605  1.00  0.00     0.274 HD
ATOM     19  H42 UNL     1       5.468   0.332  -1.849  1.00  0.00     0.274 HD
ATOM     20  H41 UNL     1       7.093   0.210  -1.452  1.00  0.00     0.274 HD
ENDBRANCH  16  17
ENDBRANCH  15  16
ENDBRANCH  12  15
ENDBRANCH  11  12
ENDBRANCH   1  11
TORSDOF 8
