REMARK  7 active torsions:
REMARK  status: ('A' for Active; 'I' for Inactive)
REMARK    1  A    between atoms: N3_10  and  C5_11 
REMARK    2  A    between atoms: C5_11  and  C6_12 
REMARK    3  A    between atoms: C6_12  and  O1_13 
REMARK    4  A    between atoms: O1_13  and  C7_14 
REMARK    5  A    between atoms: C7_14  and  C8_15 
REMARK    6  A    between atoms: C8_15  and  N4_16 
REMARK    7  A    between atoms: N4_16  and  N5_17 
ROOT
HETATM    1  N1  UNL     1      -2.467  -1.657  -1.551  1.00  0.00    -0.234 N 
ATOM      2  H11 UNL     1      -1.481  -1.893  -1.661  1.00  0.00     0.174 HD
ATOM      3  H12 UNL     1      -3.195  -2.245  -1.957  1.00  0.00     0.174 HD
HETATM    4  C1  UNL     1      -2.772  -0.594  -0.890  1.00  0.00     0.677 A 
HETATM    5  N2  UNL     1      -4.104  -0.275  -0.741  1.00  0.00    -0.202 N 
ATOM      6  H2  UNL     1      -4.810  -0.880  -1.159  1.00  0.00     0.183 HD
HETATM    7  C2  UNL     1      -4.494   0.811  -0.060  1.00  0.00     0.107 A 
HETATM    8  C3  UNL     1      -3.529   1.610   0.492  1.00  0.00     0.035 A 
HETATM    9  C4  UNL     1      -2.203   1.284   0.337  1.00  0.00     0.110 A 
HETATM   10  N3  UNL     1      -1.821   0.174  -0.359  1.00  0.00    -0.192 N 
ENDROOT
BRANCH  10  11
HETATM   11  C5  UNL     1      -0.411  -0.126  -0.507  1.00  0.00     0.173 C 
BRANCH  11  12
HETATM   12  C6  UNL     1       0.081  -1.031   0.600  1.00  0.00     0.188 C 
BRANCH  12  13
HETATM   13  O1  UNL     1       1.394  -1.326   0.441  1.00  0.00    -0.388 OA
BRANCH  13  14
HETATM   14  C7  UNL     1       2.192  -0.223   0.466  1.00  0.00     0.185 C 
BRANCH  14  15
HETATM   15  C8  UNL     1       3.680  -0.605   0.323  1.00  0.00     0.160 C 
BRANCH  15  16
HETATM   16  N4  UNL     1       4.414   0.654   0.365  1.00  0.00    -0.146 NA
BRANCH  16  17
HETATM   17  N5  UNL     1       5.779   0.488   0.248  1.00  0.00    -0.348 N 
ATOM     18  H52 UNL     1       6.214  -0.428   0.143  1.00  0.00     0.172 HD
ATOM     19  H51 UNL     1       6.293   1.369   0.277  1.00  0.00     0.172 HD
ENDBRANCH  16  17
ENDBRANCH  15  16
ENDBRANCH  14  15
ENDBRANCH  13  14
ENDBRANCH  12  13
ENDBRANCH  11  12
ENDBRANCH  10  11
TORSDOF 7
