REMARK  7 active torsions:
REMARK  status: ('A' for Active; 'I' for Inactive)
REMARK    1  A    between atoms: N2_4  and  N3_6 
REMARK    2  A    between atoms: C1_8  and  N4_9 
REMARK    3  A    between atoms: N4_9  and  C2_11 
REMARK    4  A    between atoms: C2_11  and  C3_12 
REMARK    5  A    between atoms: C5_17  and  C6_18 
REMARK    6  A    between atoms: C6_18  and  N6_19 
REMARK    7  A    between atoms: N6_19  and  C7_21 
ROOT
HETATM    1  C3  UNL     1      -0.191  -0.034  -0.190  1.00  0.00     0.120 C 
HETATM    2  C4  UNL     1      -0.034  -1.506  -0.261  1.00  0.00     0.225 C 
HETATM    3  O1  UNL     1      -0.481  -2.567   0.212  1.00  0.00    -0.273 OA
HETATM    4  N5  UNL     1       0.981  -1.269  -1.222  1.00  0.00    -0.354 N 
ATOM      5  H5  UNL     1       1.338  -1.747  -2.049  1.00  0.00     0.163 HD
HETATM    6  C5  UNL     1       1.287  -0.040  -0.502  1.00  0.00     0.116 C 
ENDROOT
BRANCH   1   7
HETATM    7  C2  UNL     1      -0.631   0.538   1.107  1.00  0.00     0.136 C 
BRANCH   7   8
HETATM    8  N4  UNL     1      -1.922   0.053   1.550  1.00  0.00    -0.384 N 
ATOM      9  H4  UNL     1      -1.943  -0.548   2.374  1.00  0.00     0.160 HD
BRANCH   8  10
HETATM   10  C1  UNL     1      -3.147   0.349   0.929  1.00  0.00     0.194 C 
HETATM   11  N3  UNL     1      -3.384   0.218  -0.324  1.00  0.00    -0.283 N 
ATOM     12  H3  UNL     1      -2.641  -0.126  -0.933  1.00  0.00     0.189 HD
BRANCH  11  13
HETATM   13  N2  UNL     1      -4.622   0.529  -0.883  1.00  0.00    -0.248 N 
HETATM   14  N1  UNL     1      -5.205   1.627  -0.631  1.00  0.00    -0.331 N 
ATOM     15  H12 UNL     1      -4.744   2.286  -0.003  1.00  0.00     0.178 HD
ATOM     16  H11 UNL     1      -6.111   1.855  -1.040  1.00  0.00     0.178 HD
ATOM     17  H2  UNL     1      -5.069  -0.141  -1.509  1.00  0.00     0.207 HD
ENDBRANCH  11  13
ENDBRANCH   8  10
ENDBRANCH   7   8
ENDBRANCH   1   7
BRANCH   6  18
HETATM   18  C6  UNL     1       2.177  -0.363   0.670  1.00  0.00     0.148 C 
BRANCH  18  19
HETATM   19  N6  UNL     1       3.571  -0.341   0.228  1.00  0.00    -0.366 N 
ATOM     20  H6  UNL     1       4.137  -1.188   0.286  1.00  0.00     0.161 HD
BRANCH  19  21
HETATM   21  C7  UNL     1       4.133   0.845  -0.276  1.00  0.00     0.348 C 
HETATM   22  O2  UNL     1       3.556   1.940  -0.393  1.00  0.00    -0.284 OA
ENDBRANCH  19  21
ENDBRANCH  18  19
ENDBRANCH   6  18
TORSDOF 7
