REMARK  7 active torsions:
REMARK  status: ('A' for Active; 'I' for Inactive)
REMARK    1  A    between atoms: C4_8  and  C5_9 
REMARK    2  A    between atoms: C5_9  and  N3_10 
REMARK    3  A    between atoms: N3_10  and  C6_13 
REMARK    4  A    between atoms: C6_13  and  C7_14 
REMARK    5  A    between atoms: C7_14  and  N4_15 
REMARK    6  A    between atoms: C8_17  and  N5_18 
REMARK    7  A    between atoms: N5_18  and  N6_20 
ROOT
HETATM    1  N3  UNL     1       0.087   0.467   0.234  1.00  0.00    -0.070 N 
ATOM      2  H31 UNL     1      -0.330   0.241   1.137  1.00  0.00     0.277 HD
ATOM      3  H32 UNL     1      -0.180   1.449   0.170  1.00  0.00     0.277 HD
ENDROOT
BRANCH   1   4
HETATM    4  C5  UNL     1      -0.512  -0.293  -0.808  1.00  0.00     0.295 C 
BRANCH   4   5
HETATM    5  C4  UNL     1      -1.899   0.152  -1.074  1.00  0.00     0.415 C 
HETATM    6  N1  UNL     1      -2.953   0.166  -0.175  1.00  0.00    -0.020 N 
HETATM    7  C1  UNL     1      -3.979  -0.881  -0.401  1.00  0.00     0.276 C 
HETATM    8  C2  UNL     1      -2.870   0.414   1.212  1.00  0.00     0.276 C 
HETATM    9  C3  UNL     1      -3.425   1.413  -0.860  1.00  0.00     0.472 C 
HETATM   10  N2  UNL     1      -2.054   1.609  -1.258  1.00  0.00    -0.020 N 
ATOM     11  H22 UNL     1      -1.810   2.068  -2.136  1.00  0.00     0.281 HD
ATOM     12  H21 UNL     1      -1.448   2.277  -0.783  1.00  0.00     0.281 HD
ENDBRANCH   4   5
ENDBRANCH   1   4
BRANCH   1  13
HETATM   13  C6  UNL     1       1.537   0.323   0.278  1.00  0.00     0.252 C 
BRANCH  13  14
HETATM   14  C7  UNL     1       1.980  -1.036   0.700  1.00  0.00     0.148 C 
BRANCH  14  15
HETATM   15  N4  UNL     1       3.439  -1.048   0.745  1.00  0.00    -0.383 N 
HETATM   16  C8  UNL     1       4.070  -0.818  -0.354  1.00  0.00     0.194 C 
ATOM     17  H4  UNL     1       3.940  -1.232   1.614  1.00  0.00     0.160 HD
BRANCH  16  18
HETATM   18  N5  UNL     1       5.494  -0.837  -0.253  1.00  0.00    -0.283 N 
ATOM     19  H5  UNL     1       6.021  -1.710  -0.251  1.00  0.00     0.189 HD
BRANCH  18  20
HETATM   20  N6  UNL     1       6.132   0.413  -0.156  1.00  0.00    -0.248 N 
HETATM   21  N7  UNL     1       5.545   1.464  -0.583  1.00  0.00    -0.331 N 
ATOM     22  H72 UNL     1       4.614   1.380  -0.991  1.00  0.00     0.178 HD
ATOM     23  H71 UNL     1       6.008   2.370  -0.513  1.00  0.00     0.178 HD
ATOM     24  H6  UNL     1       7.063   0.480   0.255  1.00  0.00     0.207 HD
ENDBRANCH  18  20
ENDBRANCH  16  18
ENDBRANCH  14  15
ENDBRANCH  13  14
ENDBRANCH   1  13
TORSDOF 7
