REMARK  7 active torsions:
REMARK  status: ('A' for Active; 'I' for Inactive)
REMARK    1  A    between atoms: C4_7  and  C5_8 
REMARK    2  A    between atoms: C5_8  and  N3_9 
REMARK    3  A    between atoms: N3_9  and  C6_12 
REMARK    4  A    between atoms: C6_12  and  C7_13 
REMARK    5  A    between atoms: C7_13  and  N4_14 
REMARK    6  A    between atoms: N4_14  and  C8_17 
REMARK    7  A    between atoms: C8_17  and  N5_18 
ROOT
HETATM    1  N3  UNL     1      -0.082  -0.583  -0.385  1.00  0.00    -0.068 N 
ATOM      2  H31 UNL     1      -0.324   0.093  -1.110  1.00  0.00     0.277 HD
ATOM      3  H32 UNL     1       0.194  -1.354  -0.993  1.00  0.00     0.277 HD
ENDROOT
BRANCH   1   4
HETATM    4  C5  UNL     1      -1.235  -0.927   0.467  1.00  0.00     0.290 C 
BRANCH   4   5
HETATM    5  C4  UNL     1      -2.430  -0.132   0.127  1.00  0.00     0.053 A 
HETATM    6  N1  UNL     1      -3.700  -0.511   0.011  1.00  0.00    -0.348 N 
HETATM    7  C1  UNL     1      -4.138  -1.872   0.093  1.00  0.00     0.157 C 
HETATM    8  C2  UNL     1      -4.421   0.620  -0.209  1.00  0.00     0.182 A 
HETATM    9  N2  UNL     1      -3.591   1.669  -0.219  1.00  0.00    -0.360 N 
HETATM   10  C3  UNL     1      -2.348   1.259  -0.025  1.00  0.00     0.115 A 
ATOM     11  H2  UNL     1      -3.874   2.639  -0.356  1.00  0.00     0.166 HD
ENDBRANCH   4   5
ENDBRANCH   1   4
BRANCH   1  12
HETATM   12  C6  UNL     1       0.995  -0.131   0.443  1.00  0.00     0.260 C 
BRANCH  12  13
HETATM   13  C7  UNL     1       2.291  -0.100  -0.275  1.00  0.00     0.261 C 
BRANCH  13  14
HETATM   14  N4  UNL     1       3.336   0.535   0.558  1.00  0.00    -0.057 N 
ATOM     15  H42 UNL     1       3.150   1.519   0.750  1.00  0.00     0.279 HD
ATOM     16  H41 UNL     1       3.329   0.208   1.524  1.00  0.00     0.279 HD
BRANCH  14  17
HETATM   17  C8  UNL     1       4.596   0.319  -0.100  1.00  0.00     0.370 C 
BRANCH  17  18
HETATM   18  N5  UNL     1       5.601   1.033   0.667  1.00  0.00    -0.318 N 
HETATM   19  N6  UNL     1       6.724   1.138   0.160  1.00  0.00    -0.348 N 
ATOM     20  H62 UNL     1       6.919   0.735  -0.757  1.00  0.00     0.176 HD
ATOM     21  H61 UNL     1       7.430   1.640   0.699  1.00  0.00     0.176 HD
ATOM     22  H5  UNL     1       5.390   1.430   1.583  1.00  0.00     0.181 HD
ENDBRANCH  17  18
ENDBRANCH  14  17
ENDBRANCH  13  14
ENDBRANCH  12  13
ENDBRANCH   1  12
TORSDOF 7
