REMARK  6 active torsions:
REMARK  status: ('A' for Active; 'I' for Inactive)
REMARK    1  A    between atoms: N1_2  and  C2_5 
REMARK    2  A    between atoms: C2_5  and  C3_6 
REMARK    3  A    between atoms: C3_6  and  N2_7 
REMARK    4  A    between atoms: C6_10  and  N3_11 
REMARK    5  A    between atoms: N3_11  and  C7_13 
REMARK    6  A    between atoms: N4_14  and  N5_16 
ROOT
HETATM    1  N2  UNL     1      -0.136   0.521  -0.296  1.00  0.00    -0.043 N 
HETATM    2  C4  UNL     1       0.026   1.037  -1.638  1.00  0.00     0.275 C 
HETATM    3  C5  UNL     1       0.966   0.892   0.616  1.00  0.00     0.294 A 
HETATM    4  C6  UNL     1       0.823  -0.481   0.065  1.00  0.00     0.315 A 
ENDROOT
BRANCH   4   5
HETATM    5  N3  UNL     1       1.844  -0.929  -0.822  1.00  0.00    -0.356 N 
ATOM      6  H3  UNL     1       1.631  -1.182  -1.787  1.00  0.00     0.162 HD
BRANCH   5   7
HETATM    7  C7  UNL     1       3.174  -1.011  -0.314  1.00  0.00     0.196 C 
HETATM    8  N4  UNL     1       3.796   0.105  -0.152  1.00  0.00    -0.283 N 
ATOM      9  H4  UNL     1       3.316   0.973  -0.389  1.00  0.00     0.189 HD
BRANCH   8  10
HETATM   10  N5  UNL     1       5.097   0.171   0.334  1.00  0.00    -0.248 N 
HETATM   11  N6  UNL     1       5.943   0.831  -0.342  1.00  0.00    -0.331 N 
ATOM     12  H62 UNL     1       5.663   1.291  -1.208  1.00  0.00     0.178 HD
ATOM     13  H61 UNL     1       6.897   0.879   0.015  1.00  0.00     0.178 HD
ATOM     14  H5  UNL     1       5.361  -0.294   1.202  1.00  0.00     0.207 HD
ENDBRANCH   8  10
ENDBRANCH   5   7
ENDBRANCH   4   5
BRANCH   1  15
HETATM   15  C3  UNL     1      -1.416   0.547   0.348  1.00  0.00     0.267 C 
BRANCH  15  16
HETATM   16  C2  UNL     1      -2.508  -0.109  -0.456  1.00  0.00     0.259 C 
BRANCH  16  17
HETATM   17  N1  UNL     1      -3.778  -0.073   0.207  1.00  0.00    -0.077 N 
HETATM   18  C1  UNL     1      -3.863  -0.881   1.385  1.00  0.00     0.267 C 
ATOM     19  H12 UNL     1      -4.524  -0.318  -0.444  1.00  0.00     0.276 HD
ATOM     20  H11 UNL     1      -4.039   0.890   0.419  1.00  0.00     0.276 HD
ENDBRANCH  16  17
ENDBRANCH  15  16
ENDBRANCH   1  15
TORSDOF 6
