REMARK  8 active torsions:
REMARK  status: ('A' for Active; 'I' for Inactive)
REMARK    1  A    between atoms: N1_2  and  C3_4 
REMARK    2  A    between atoms: N1_2  and  C6_16 
REMARK    3  A    between atoms: C3_4  and  C4_5 
REMARK    4  A    between atoms: C4_5  and  N2_6 
REMARK    5  A    between atoms: C5_8  and  N3_9 
REMARK    6  A    between atoms: N3_9  and  N4_11 
REMARK    7  A    between atoms: C6_16  and  O1_17 
REMARK    8  A    between atoms: O1_17  and  N6_18 
ROOT
HETATM    1  C4  UNL     1       1.126  -1.400  -0.084  1.00  0.00     0.148 C 
ENDROOT
BRANCH   1   2
HETATM    2  C3  UNL     1      -0.149  -1.271   0.684  1.00  0.00     0.258 C 
BRANCH   2   3
HETATM    3  N1  UNL     1      -1.178  -0.499   0.070  1.00  0.00    -0.050 N 
HETATM    4  C1  UNL     1      -0.860  -0.003  -1.242  1.00  0.00     0.274 C 
HETATM    5  C2  UNL     1      -2.351  -1.374  -0.072  1.00  0.00     0.274 C 
BRANCH   3   6
HETATM    6  C6  UNL     1      -1.477   0.626   0.931  1.00  0.00     0.436 C 
BRANCH   6   7
HETATM    7  O1  UNL     1      -2.804   0.955   1.012  1.00  0.00    -0.260 OA
BRANCH   7   8
HETATM    8  N6  UNL     1      -3.400   1.294  -0.121  1.00  0.00    -0.309 N 
ATOM      9  H62 UNL     1      -2.883   1.305  -1.000  1.00  0.00     0.184 HD
ATOM     10  H61 UNL     1      -4.388   1.539  -0.061  1.00  0.00     0.184 HD
ENDBRANCH   7   8
ENDBRANCH   6   7
ENDBRANCH   3   6
ENDBRANCH   2   3
ENDBRANCH   1   2
BRANCH   1  11
HETATM   11  N2  UNL     1       1.780  -0.160  -0.366  1.00  0.00    -0.383 N 
HETATM   12  C5  UNL     1       2.719   0.316   0.379  1.00  0.00     0.194 C 
ATOM     13  H2  UNL     1       1.492   0.369  -1.189  1.00  0.00     0.160 HD
BRANCH  12  14
HETATM   14  N3  UNL     1       3.331   1.553   0.048  1.00  0.00    -0.283 N 
ATOM     15  H3  UNL     1       2.787   2.416   0.040  1.00  0.00     0.189 HD
BRANCH  14  16
HETATM   16  N4  UNL     1       4.685   1.566  -0.265  1.00  0.00    -0.248 N 
HETATM   17  N5  UNL     1       5.159   0.684  -1.030  1.00  0.00    -0.331 N 
ATOM     18  H52 UNL     1       4.537  -0.030  -1.410  1.00  0.00     0.178 HD
ATOM     19  H51 UNL     1       6.153   0.694  -1.260  1.00  0.00     0.178 HD
ATOM     20  H4  UNL     1       5.293   2.287   0.123  1.00  0.00     0.207 HD
ENDBRANCH  14  16
ENDBRANCH  12  14
ENDBRANCH   1  11
TORSDOF 8
