REMARK  6 active torsions:
REMARK  status: ('A' for Active; 'I' for Inactive)
REMARK    1  A    between atoms: C2_2  and  C3_3 
REMARK    2  A    between atoms: C3_3  and  N1_4 
REMARK    3  A    between atoms: C5_6  and  C6_7 
REMARK    4  A    between atoms: C5_6  and  C8_15 
REMARK    5  A    between atoms: C6_7  and  N2_8 
REMARK       I    between atoms: N2_8  and  C7_10 
REMARK    6  A    between atoms: C8_15  and  N5_16 
ROOT
HETATM    1  N1  UNL     1      -0.799  -0.414  -0.480  1.00  0.00     0.109 N 
HETATM    2  C4  UNL     1      -1.013   0.074  -1.838  1.00  0.00     0.319 A 
HETATM    3  C5  UNL     1      -0.013   0.703  -0.853  1.00  0.00     0.218 A 
ENDROOT
BRANCH   3   4
HETATM    4  C6  UNL     1       1.389   0.560  -1.380  1.00  0.00     0.167 C 
BRANCH   4   5
HETATM    5  N2  UNL     1       2.344  -0.072  -0.539  1.00  0.00    -0.362 N 
HETATM    6  C7  UNL     1       2.327  -1.449  -0.235  1.00  0.00     0.181 C 
HETATM    7  N3  UNL     1       2.939  -1.874   0.832  1.00  0.00    -0.374 N 
HETATM    8  N4  UNL     1       1.675  -2.413  -1.034  1.00  0.00    -0.064 NA
ATOM      9  H32 UNL     1       3.410  -1.177   1.409  1.00  0.00     0.158 HD
ATOM     10  H31 UNL     1       2.927  -2.870   1.052  1.00  0.00     0.158 HD
ATOM     11  H2  UNL     1       3.083   0.502  -0.133  1.00  0.00     0.162 HD
ENDBRANCH   4   5
ENDBRANCH   3   4
BRANCH   3  12
HETATM   12  C8  UNL     1      -0.448   2.103  -0.441  1.00  0.00     0.184 C 
BRANCH  12  13
HETATM   13  N5  UNL     1      -0.533   2.271   0.959  1.00  0.00    -0.340 N 
HETATM   14  N6  UNL     1      -1.244   3.129   1.524  1.00  0.00    -0.349 N 
ATOM     15  H62 UNL     1      -1.793   3.740   0.920  1.00  0.00     0.176 HD
ATOM     16  H61 UNL     1      -1.305   3.250   2.535  1.00  0.00     0.176 HD
ATOM     17  H5  UNL     1       0.023   1.651   1.548  1.00  0.00     0.179 HD
ENDBRANCH  12  13
ENDBRANCH   3  12
BRANCH   1  18
HETATM   18  C3  UNL     1      -2.013  -0.323   0.293  1.00  0.00     0.300 C 
BRANCH  18  19
HETATM   19  C2  UNL     1      -1.926  -0.795   1.663  1.00  0.00    -0.007 C 
HETATM   20  C1  UNL     1      -0.872  -1.289   2.261  1.00  0.00     0.008 C 
ENDBRANCH  18  19
ENDBRANCH   1  18
TORSDOF 6
