REMARK  7 active torsions:
REMARK  status: ('A' for Active; 'I' for Inactive)
REMARK    1  A    between atoms: N1_2  and  C2_5 
REMARK    2  A    between atoms: C2_5  and  N2_6 
REMARK    3  A    between atoms: N2_6  and  C3_7 
REMARK    4  A    between atoms: C3_7  and  C4_8 
REMARK    5  A    between atoms: C4_8  and  N3_9 
REMARK    6  A    between atoms: N3_9  and  C5_11 
REMARK    7  A    between atoms: C5_11  and  N4_12 
ROOT
HETATM    1  N2  UNL     1      -0.840  -0.468   0.024  1.00  0.00    -0.017 N 
HETATM    2  C6  UNL     1      -1.453  -1.213  -1.053  1.00  0.00     0.270 C 
HETATM    3  C7  UNL     1      -1.124  -2.433  -0.245  1.00  0.00     0.155 A 
HETATM    4  N6  UNL     1      -1.361  -2.698   1.116  1.00  0.00    -0.384 N 
ATOM      5  H6  UNL     1      -1.356  -3.405   1.851  1.00  0.00     0.155 HD
HETATM    6  C8  UNL     1      -1.600  -1.406   0.813  1.00  0.00     0.311 A 
ENDROOT
BRANCH   1   7
HETATM    7  C2  UNL     1      -1.394   0.873   0.209  1.00  0.00     0.470 C 
BRANCH   7   8
HETATM    8  N1  UNL     1      -2.640   1.120  -0.429  1.00  0.00    -0.055 N 
HETATM    9  C1  UNL     1      -2.984   2.512  -0.086  1.00  0.00     0.269 C 
ATOM     10  H12 UNL     1      -3.366   0.446  -0.188  1.00  0.00     0.278 HD
ATOM     11  H11 UNL     1      -2.633   0.933  -1.432  1.00  0.00     0.278 HD
ENDBRANCH   7   8
ENDBRANCH   1   7
BRANCH   1  12
HETATM   12  C3  UNL     1       0.560  -0.480   0.193  1.00  0.00     0.261 C 
BRANCH  12  13
HETATM   13  C4  UNL     1       1.415  -0.432  -1.032  1.00  0.00     0.143 C 
BRANCH  13  14
HETATM   14  N3  UNL     1       2.799  -0.464  -0.606  1.00  0.00    -0.403 N 
ATOM     15  H3  UNL     1       3.397  -1.275  -0.765  1.00  0.00     0.154 HD
BRANCH  14  16
HETATM   16  C5  UNL     1       3.272   0.711   0.051  1.00  0.00     0.255 C 
BRANCH  16  17
HETATM   17  N4  UNL     1       4.648   0.495   0.431  1.00  0.00    -0.325 N 
HETATM   18  N5  UNL     1       5.482   1.370   0.173  1.00  0.00    -0.348 N 
ATOM     19  H52 UNL     1       5.187   2.224  -0.301  1.00  0.00     0.176 HD
ATOM     20  H51 UNL     1       6.454   1.217   0.441  1.00  0.00     0.176 HD
ATOM     21  H4  UNL     1       4.927  -0.365   0.904  1.00  0.00     0.181 HD
ENDBRANCH  16  17
ENDBRANCH  14  16
ENDBRANCH  13  14
ENDBRANCH  12  13
ENDBRANCH   1  12
TORSDOF 7
