REMARK  2 active torsions:
REMARK  status: ('A' for Active; 'I' for Inactive)
REMARK    1  A    between atoms: C2_2  and  N1_3 
REMARK    2  A    between atoms: C2_2  and  C6_10 
REMARK       I    between atoms: C3_5  and  N3_7 
ROOT
HETATM    1  C1  UNL     1       0.220  -2.369   0.626  1.00  0.00     0.032 C 
HETATM    2  C2  UNL     1       0.015  -0.897   0.877  1.00  0.00     0.088 C 
ENDROOT
BRANCH   2   3
HETATM    3  N1  UNL     1       1.145  -0.105   0.578  1.00  0.00    -0.360 N 
HETATM    4  C3  UNL     1       2.096  -0.307  -0.216  1.00  0.00     0.185 C 
HETATM    5  N2  UNL     1       2.276  -1.439  -1.050  1.00  0.00    -0.064 NA
HETATM    6  N3  UNL     1       3.108   0.695  -0.300  1.00  0.00    -0.364 N 
HETATM    7  C4  UNL     1       3.745   1.241   0.858  1.00  0.00     0.151 C 
HETATM    8  C5  UNL     1       3.468   1.142  -1.630  1.00  0.00     0.151 C 
ATOM      9  H1  UNL     1       1.197   0.775   1.091  1.00  0.00     0.162 HD
ENDBRANCH   2   3
BRANCH   2  10
HETATM   10  C6  UNL     1      -1.220  -0.388   0.110  1.00  0.00     0.063 C 
HETATM   11  C7  UNL     1      -2.453  -1.100   0.529  1.00  0.00     0.011 C 
HETATM   12  C8  UNL     1      -3.707  -0.325   0.612  1.00  0.00     0.001 C 
HETATM   13  C9  UNL     1      -3.697   0.824  -0.372  1.00  0.00     0.004 C 
HETATM   14  C10 UNL     1      -2.584   1.732   0.096  1.00  0.00     0.061 C 
HETATM   15  C11 UNL     1      -1.247   1.087   0.069  1.00  0.00     0.184 C 
HETATM   16  F1  UNL     1      -0.531   1.672   1.128  1.00  0.00    -0.225 F 
HETATM   17 CL1  UNL     1      -0.407   1.690  -1.407  1.00  0.00    -0.082 Cl
ENDBRANCH   2  10
TORSDOF 2
