REMARK  3 active torsions:
REMARK  status: ('A' for Active; 'I' for Inactive)
REMARK    1  A    between atoms: C1_2  and  C2_3 
REMARK    2  A    between atoms: C2_3  and  C3_4 
REMARK    3  A    between atoms: C3_4  and  C4_5 
ROOT
HETATM    1  C4  UNL     1       0.489  -0.338  -0.601  1.00  0.00    -0.006 C 
HETATM    2  C5  UNL     1      -0.468   0.686  -1.174  1.00  0.00    -0.008 C 
HETATM    3  C6  UNL     1      -0.855   1.723  -0.150  1.00  0.00     0.010 C 
HETATM    4  C7  UNL     1      -1.560   1.051   0.991  1.00  0.00    -0.012 C 
HETATM    5  C8  UNL     1      -0.621   0.062   1.614  1.00  0.00     0.010 C 
HETATM    6  C9  UNL     1      -0.131  -0.942   0.603  1.00  0.00    -0.008 C 
HETATM    7  C10 UNL     1      -1.362  -1.711   0.140  1.00  0.00     0.026 C 
HETATM    8  C11 UNL     1      -2.367  -0.727  -0.463  1.00  0.00     0.019 C 
HETATM    9 BR1  UNL     1      -3.917  -1.694  -1.038  1.00  0.00    -0.086 Br
HETATM   10  C12 UNL     1      -2.796   0.305   0.550  1.00  0.00     0.025 C 
HETATM   11  C13 UNL     1      -1.741  -0.001  -1.625  1.00  0.00     0.026 C 
ENDROOT
BRANCH   1  12
HETATM   12  C3  UNL     1       1.836   0.265  -0.403  1.00  0.00     0.007 C 
BRANCH  12  13
HETATM   13  C2  UNL     1       2.871  -0.648   0.157  1.00  0.00     0.032 C 
BRANCH  13  14
HETATM   14  C1  UNL     1       4.165   0.171   0.277  1.00  0.00     0.222 C 
HETATM   15  F1  UNL     1       4.565   0.644  -0.959  1.00  0.00    -0.255 F 
ENDBRANCH  13  14
ENDBRANCH  12  13
ENDBRANCH   1  12
TORSDOF 3
