REMARK  3 active torsions:
REMARK  status: ('A' for Active; 'I' for Inactive)
REMARK    1  A    between atoms: C7_10  and  C8_11 
REMARK    2  A    between atoms: C8_11  and  C9_12 
REMARK    3  A    between atoms: C9_12  and  C10_13 
ROOT
HETATM    1  F1  UNL     1      -2.401  -2.476   0.522  1.00  0.00    -0.249 F 
HETATM    2  C1  UNL     1      -1.756  -1.392   1.095  1.00  0.00     0.174 C 
HETATM    3  C2  UNL     1      -2.564  -0.145   1.086  1.00  0.00     0.038 C 
HETATM    4  C3  UNL     1      -3.345   0.105  -0.169  1.00  0.00     0.009 C 
HETATM    5  C4  UNL     1      -2.540  -0.073  -1.425  1.00  0.00     0.057 C 
HETATM    6  C5  UNL     1      -1.208   0.518  -1.174  1.00  0.00     0.016 A 
HETATM    7  N1  UNL     1      -0.711   1.630  -1.732  1.00  0.00    -0.368 N 
ATOM      8  H1  UNL     1      -1.202   2.211  -2.412  1.00  0.00     0.165 HD
HETATM    9  C6  UNL     1       0.527   1.870  -1.268  1.00  0.00     0.095 A 
HETATM   10  C7  UNL     1       0.816   0.848  -0.372  1.00  0.00    -0.034 A 
HETATM   11  C11 UNL     1      -0.263   0.005  -0.312  1.00  0.00    -0.025 A 
HETATM   12  C12 UNL     1      -0.340  -1.217   0.551  1.00  0.00     0.078 C 
ENDROOT
BRANCH  10  13
HETATM   13  C8  UNL     1       2.078   0.686   0.387  1.00  0.00     0.041 C 
BRANCH  13  14
HETATM   14  C9  UNL     1       2.977  -0.369  -0.238  1.00  0.00     0.015 C 
BRANCH  14  15
HETATM   15  C10 UNL     1       4.241  -0.462   0.621  1.00  0.00     0.085 C 
HETATM   16 BR1  UNL     1       5.122   1.270   0.652  1.00  0.00    -0.097 Br
ENDBRANCH  14  15
ENDBRANCH  13  14
ENDBRANCH  10  13
TORSDOF 3
