REMARK  3 active torsions:
REMARK  status: ('A' for Active; 'I' for Inactive)
REMARK    1  A    between atoms: C2_2  and  C3_3 
REMARK    2  A    between atoms: C3_3  and  N1_4 
REMARK       I    between atoms: N1_4  and  C4_6 
REMARK    3  A    between atoms: C4_6  and  C5_8 
ROOT
HETATM    1  C1  UNL     1      -1.235  -1.893  -0.443  1.00  0.00     0.045 C 
HETATM    2  C2  UNL     1      -1.407  -0.470  -0.737  1.00  0.00    -0.063 C 
HETATM    3  C10 UNL     1      -2.484   0.132  -0.196  1.00  0.00    -0.067 C 
HETATM    4  C11 UNL     1      -2.894   1.582  -0.341  1.00  0.00     0.044 C 
HETATM    5  C12 UNL     1      -4.121   1.526   0.535  1.00  0.00     0.046 C 
HETATM    6  C13 UNL     1      -4.778   0.231   0.046  1.00  0.00     0.023 C 
HETATM    7  C14 UNL     1      -3.527  -0.408   0.655  1.00  0.00     0.071 C 
HETATM    8  C15 UNL     1      -3.663   0.702   1.711  1.00  0.00     0.190 C 
HETATM    9  F1  UNL     1      -2.487   1.122   2.247  1.00  0.00    -0.224 F 
HETATM   10 CL1  UNL     1      -4.939   0.275   2.871  1.00  0.00    -0.081 Cl
ENDROOT
BRANCH   2  11
HETATM   11  C3  UNL     1      -0.514   0.311  -1.599  1.00  0.00     0.156 C 
BRANCH  11  12
HETATM   12  N1  UNL     1       0.813   0.464  -1.138  1.00  0.00    -0.357 N 
HETATM   13  C4  UNL     1       1.833  -0.475  -0.929  1.00  0.00     0.222 C 
HETATM   14  O1  UNL     1       1.737  -1.696  -1.142  1.00  0.00    -0.273 OA
ATOM     15  H1  UNL     1       1.074   1.425  -0.919  1.00  0.00     0.162 HD
BRANCH  13  16
HETATM   16  C5  UNL     1       3.168   0.005  -0.403  1.00  0.00     0.078 C 
HETATM   17  C6  UNL     1       2.994   0.674   0.946  1.00  0.00     0.014 C 
HETATM   18  C7  UNL     1       4.118   0.206   1.814  1.00  0.00     0.001 C 
HETATM   19  C8  UNL     1       5.040  -0.557   0.896  1.00  0.00     0.001 C 
HETATM   20  C9  UNL     1       4.089  -1.137  -0.123  1.00  0.00     0.014 C 
ENDBRANCH  13  16
ENDBRANCH  11  12
ENDBRANCH   2  11
TORSDOF 3
