REMARK  6 active torsions:
REMARK  status: ('A' for Active; 'I' for Inactive)
REMARK    1  A    between atoms: C3_3  and  C4_4 
REMARK    2  A    between atoms: C7_10  and  C8_11 
REMARK    3  A    between atoms: C9_12  and  C10_13 
REMARK    4  A    between atoms: C10_13  and  C11_14 
REMARK    5  A    between atoms: C11_14  and  C12_15 
REMARK    6  A    between atoms: C12_15  and  C13_16 
ROOT
HETATM    1  C1  UNL     1      -3.508  -2.982   0.457  1.00  0.00     0.112 C 
HETATM    2  C2  UNL     1      -3.279  -1.548   0.207  1.00  0.00    -0.105 C 
HETATM    3  C3  UNL     1      -3.107  -0.366  -0.011  1.00  0.00    -0.063 C 
ENDROOT
BRANCH   3   4
HETATM    4  C4  UNL     1      -2.927   1.037  -0.261  1.00  0.00     0.071 A 
HETATM    5  C5  UNL     1      -3.854   1.996  -0.615  1.00  0.00     0.048 A 
HETATM    6 BR1  UNL     1      -5.705   1.612  -0.860  1.00  0.00    -0.048 Br
HETATM    7  C6  UNL     1      -3.215   3.219  -0.749  1.00  0.00     0.109 A 
HETATM    8  N1  UNL     1      -1.915   3.004  -0.480  1.00  0.00    -0.356 N 
HETATM    9  C7  UNL     1      -1.714   1.688  -0.181  1.00  0.00     0.107 A 
ATOM     10  H1  UNL     1      -1.187   3.719  -0.497  1.00  0.00     0.166 HD
BRANCH   9  11
HETATM   11  C8  UNL     1      -0.461   1.069   0.162  1.00  0.00    -0.047 C 
HETATM   12  C9  UNL     1       0.599   0.563   0.436  1.00  0.00    -0.100 C 
BRANCH  12  13
HETATM   13  C10 UNL     1       1.907  -0.052   0.774  1.00  0.00     0.094 C 
BRANCH  13  14
HETATM   14  C11 UNL     1       2.842   0.332  -0.349  1.00  0.00     0.014 C 
BRANCH  14  15
HETATM   15  C12 UNL     1       4.233  -0.212  -0.167  1.00  0.00     0.032 C 
BRANCH  15  16
HETATM   16  C13 UNL     1       4.180  -1.704  -0.110  1.00  0.00     0.222 C 
HETATM   17  F1  UNL     1       5.486  -2.158   0.057  1.00  0.00    -0.255 F 
ENDBRANCH  15  16
ENDBRANCH  14  15
ENDBRANCH  13  14
ENDBRANCH  12  13
ENDBRANCH   9  11
ENDBRANCH   3   4
TORSDOF 6
