REMARK  9 active torsions:
REMARK  status: ('A' for Active; 'I' for Inactive)
REMARK    1  A    between atoms: C2_2  and  C3_3 
REMARK    2  A    between atoms: C3_3  and  C4_4 
REMARK    3  A    between atoms: C4_4  and  C5_5 
REMARK    4  A    between atoms: C5_5  and  N1_6 
REMARK    5  A    between atoms: C5_5  and  N4_20 
REMARK       I    between atoms: N1_6  and  C6_8 
REMARK    6  A    between atoms: C6_8  and  C7_10 
REMARK    7  A    between atoms: C7_10  and  C8_11 
REMARK    8  A    between atoms: C8_11  and  C9_12 
REMARK    9  A    between atoms: N4_20  and  C13_22 
ROOT
HETATM    1  C5  UNL     1      -0.237   1.771  -0.334  1.00  0.00     0.085 C 
ENDROOT
BRANCH   1   2
HETATM    2  C4  UNL     1      -0.926   3.062  -0.697  1.00  0.00     0.076 C 
BRANCH   2   3
HETATM    3  C3  UNL     1      -2.346   2.961  -0.249  1.00  0.00     0.007 C 
BRANCH   3   4
HETATM    4  C2  UNL     1      -3.161   4.179  -0.545  1.00  0.00    -0.004 C 
HETATM    5  C1  UNL     1      -2.644   5.421   0.103  1.00  0.00     0.005 C 
ENDBRANCH   3   4
ENDBRANCH   2   3
ENDBRANCH   1   2
BRANCH   1   6
HETATM    6  N1  UNL     1       0.753   1.861   0.449  1.00  0.00    -0.317 N 
HETATM    7  C6  UNL     1       1.569   0.833   0.947  1.00  0.00     0.223 C 
HETATM    8  O1  UNL     1       1.640   0.750   2.217  1.00  0.00    -0.273 OA
ATOM      9  H1  UNL     1       0.989   2.804   0.759  1.00  0.00     0.170 HD
BRANCH   7  10
HETATM   10  C7  UNL     1       2.327  -0.127   0.151  1.00  0.00     0.109 C 
BRANCH  10  11
HETATM   11  C8  UNL     1       3.104  -1.067   1.048  1.00  0.00     0.068 C 
BRANCH  11  12
HETATM   12  C9  UNL     1       3.867  -2.039   0.201  1.00  0.00     0.033 A 
HETATM   13  N2  UNL     1       3.530  -3.346  -0.005  1.00  0.00    -0.354 N 
HETATM   14  C10 UNL     1       4.467  -3.857  -0.816  1.00  0.00     0.180 A 
ATOM     15  H2  UNL     1       2.724  -3.837   0.382  1.00  0.00     0.166 HD
HETATM   16  N3  UNL     1       5.388  -2.940  -1.141  1.00  0.00    -0.354 N 
HETATM   17  C11 UNL     1       5.017  -1.798  -0.506  1.00  0.00     0.029 A 
ATOM     18  H3  UNL     1       6.201  -3.072  -1.742  1.00  0.00     0.166 HD
HETATM   19  C12 UNL     1       5.759  -0.503  -0.582  1.00  0.00     0.070 C 
ENDBRANCH  11  12
ENDBRANCH  10  11
ENDBRANCH   7  10
ENDBRANCH   1   6
BRANCH   1  20
HETATM   20  N4  UNL     1      -0.760   0.606  -0.899  1.00  0.00    -0.332 N 
ATOM     21  H4  UNL     1      -0.534   0.460  -1.883  1.00  0.00     0.168 HD
BRANCH  20  22
HETATM   22  C13 UNL     1      -1.473  -0.295  -0.370  1.00  0.00     0.107 A 
HETATM   23  C14 UNL     1      -1.850  -1.358  -1.198  1.00  0.00     0.055 A 
HETATM   24  C15 UNL     1      -2.626  -2.398  -0.733  1.00  0.00    -0.057 A 
HETATM   25  C16 UNL     1      -3.020  -3.534  -1.644  1.00  0.00     0.048 C 
HETATM   26  C17 UNL     1      -3.026  -2.365   0.585  1.00  0.00     0.031 A 
HETATM   27  C18 UNL     1      -2.665  -1.329   1.412  1.00  0.00     0.007 A 
HETATM   28  C19 UNL     1      -3.090  -1.278   2.842  1.00  0.00     0.068 C 
HETATM   29  N5  UNL     1      -1.904  -0.344   0.892  1.00  0.00    -0.346 N 
ATOM     30  H5  UNL     1      -1.638   0.422   1.511  1.00  0.00     0.167 HD
ENDBRANCH  20  22
ENDBRANCH   1  20
TORSDOF 9
