REMARK  9 active torsions:
REMARK  status: ('A' for Active; 'I' for Inactive)
REMARK    1  A    between atoms: C2_2  and  C3_3 
REMARK    2  A    between atoms: C3_3  and  C4_4 
REMARK    3  A    between atoms: C4_4  and  N1_5 
REMARK       I    between atoms: N1_5  and  C5_7 
REMARK       I    between atoms: C5_7  and  N2_9 
REMARK    4  A    between atoms: N3_12  and  C8_13 
REMARK    5  A    between atoms: C8_13  and  O2_14 
REMARK    6  A    between atoms: C8_13  and  N4_16 
REMARK    7  A    between atoms: N4_16  and  C9_18 
REMARK    8  A    between atoms: C9_18  and  C10_19 
REMARK    9  A    between atoms: C10_19  and  C11_20 
ROOT
HETATM    1  N1  UNL     1       3.974  -0.165   1.356  1.00  0.00    -0.343 N 
ATOM      2  H1  UNL     1       3.559   0.215   2.207  1.00  0.00     0.164 HD
HETATM    3  C5  UNL     1       3.102  -0.652   0.357  1.00  0.00     0.318 C 
HETATM    4  O1  UNL     1       3.589  -1.129  -0.700  1.00  0.00    -0.247 OA
HETATM    5  N2  UNL     1       1.673  -0.626   0.494  1.00  0.00    -0.330 N 
HETATM    6  C6  UNL     1       0.970  -0.118   1.619  1.00  0.00     0.147 C 
HETATM    7  C7  UNL     1      -0.276   0.679   1.316  1.00  0.00     0.147 C 
HETATM    8  N3  UNL     1      -0.942   0.128   0.107  1.00  0.00    -0.335 N 
HETATM    9  C14 UNL     1      -0.074  -0.033  -0.983  1.00  0.00     0.052 C 
HETATM   10  C15 UNL     1      -0.459   0.052  -2.390  1.00  0.00     0.033 C 
HETATM   11  C16 UNL     1       0.877   0.767  -2.655  1.00  0.00     0.005 C 
HETATM   12  C17 UNL     1       0.728   1.279  -1.226  1.00  0.00     0.033 C 
HETATM   13  C18 UNL     1       0.872  -1.175  -0.619  1.00  0.00     0.158 C 
ENDROOT
BRANCH   8  14
HETATM   14  C8  UNL     1      -2.305  -0.171   0.160  1.00  0.00     0.215 C 
BRANCH  14  15
HETATM   15  O2  UNL     1      -2.887   0.105   1.290  1.00  0.00    -0.333 OA
ATOM     16  H2  UNL     1      -3.814  -0.098   1.326  1.00  0.00     0.220 HD
ENDBRANCH  14  15
BRANCH  14  17
HETATM   17  N4  UNL     1      -3.088  -0.731  -0.870  1.00  0.00    -0.356 N 
ATOM     18  H4  UNL     1      -2.644  -0.964  -1.758  1.00  0.00     0.163 HD
BRANCH  17  19
HETATM   19  C9  UNL     1      -4.492  -0.983  -0.707  1.00  0.00     0.123 C 
BRANCH  19  20
HETATM   20  C10 UNL     1      -5.230   0.308  -0.476  1.00  0.00     0.023 C 
BRANCH  20  21
HETATM   21  C11 UNL     1      -6.733   0.008  -0.309  1.00  0.00    -0.021 C 
HETATM   22  C12 UNL     1      -7.491   1.277  -0.078  1.00  0.00     0.009 C 
HETATM   23  C13 UNL     1      -6.858  -0.990   0.798  1.00  0.00     0.009 C 
ENDBRANCH  20  21
ENDBRANCH  19  20
ENDBRANCH  17  19
ENDBRANCH  14  17
ENDBRANCH   8  14
BRANCH   1  24
HETATM   24  C4  UNL     1       5.397  -0.170   1.252  1.00  0.00     0.124 C 
BRANCH  24  25
HETATM   25  C3  UNL     1       5.882   0.652   0.082  1.00  0.00     0.019 C 
BRANCH  25  26
HETATM   26  C2  UNL     1       7.398   0.625   0.009  1.00  0.00    -0.003 C 
HETATM   27  C1  UNL     1       7.915  -0.787  -0.164  1.00  0.00     0.005 C 
ENDBRANCH  25  26
ENDBRANCH  24  25
ENDBRANCH   1  24
TORSDOF 9
