REMARK  8 active torsions:
REMARK  status: ('A' for Active; 'I' for Inactive)
REMARK    1  A    between atoms: N1_1  and  C1_5 
REMARK    2  A    between atoms: C1_5  and  C2_6 
REMARK    3  A    between atoms: C1_5  and  C9_14 
REMARK    4  A    between atoms: C2_6  and  C3_7 
REMARK    5  A    between atoms: C3_7  and  C4_8 
REMARK    6  A    between atoms: C4_8  and  N2_9 
REMARK    7  A    between atoms: C9_14  and  N3_16 
REMARK    8  A    between atoms: N3_16  and  C10_18 
ROOT
HETATM    1  C9  UNL     1      -0.094   0.758  -0.739  1.00  0.00     0.104 C 
HETATM    2  S1  UNL     1       0.293  -0.380   0.352  1.00  0.00    -0.063 SA
ENDROOT
BRANCH   1   3
HETATM    3  C1  UNL     1       0.937   1.565  -1.435  1.00  0.00     0.244 C 
BRANCH   3   4
HETATM    4  N1  UNL     1       0.739   3.002  -1.272  1.00  0.00    -0.069 N 
ATOM      5  H13 UNL     1       1.051   3.324  -0.356  1.00  0.00     0.275 HD
ATOM      6  H12 UNL     1       1.383   3.540  -1.852  1.00  0.00     0.275 HD
ATOM      7  H11 UNL     1      -0.232   3.258  -1.451  1.00  0.00     0.275 HD
ENDBRANCH   3   4
BRANCH   3   8
HETATM    8  C2  UNL     1       2.347   1.194  -1.175  1.00  0.00     0.042 C 
BRANCH   8   9
HETATM    9  C3  UNL     1       2.906   1.514   0.163  1.00  0.00     0.033 C 
BRANCH   9  10
HETATM   10  C4  UNL     1       4.361   1.106   0.294  1.00  0.00     0.272 C 
BRANCH  10  11
HETATM   11  N2  UNL     1       4.607  -0.283   0.110  1.00  0.00     0.088 N 
HETATM   12  C5  UNL     1       4.098  -1.142   1.129  1.00  0.00     0.272 C 
HETATM   13  C6  UNL     1       5.120  -2.230   1.362  1.00  0.00     0.032 C 
HETATM   14  C7  UNL     1       6.295  -1.910   0.501  1.00  0.00     0.032 C 
HETATM   15  C8  UNL     1       6.028  -0.530  -0.000  1.00  0.00     0.272 C 
ENDBRANCH  10  11
ENDBRANCH   9  10
ENDBRANCH   8   9
ENDBRANCH   3   8
ENDBRANCH   1   3
BRANCH   1  16
HETATM   16  N3  UNL     1      -1.451   0.980  -1.045  1.00  0.00    -0.373 N 
ATOM     17  H3  UNL     1      -1.623   1.702  -1.745  1.00  0.00     0.161 HD
BRANCH  16  18
HETATM   18  C10 UNL     1      -2.620   0.353  -0.528  1.00  0.00     0.032 C 
HETATM   19  C11 UNL     1      -3.843   0.995  -1.234  1.00  0.00     0.035 C 
HETATM   20  C12 UNL     1      -5.103   0.294  -0.866  1.00  0.00    -0.012 C 
HETATM   21  C13 UNL     1      -5.053  -1.148  -1.242  1.00  0.00     0.009 C 
HETATM   22  C17 UNL     1      -5.299   0.449   0.627  1.00  0.00     0.009 C 
HETATM   23  C14 UNL     1      -3.905  -1.806  -0.493  1.00  0.00    -0.012 C 
HETATM   24  C15 UNL     1      -4.155  -1.677   0.973  1.00  0.00     0.009 C 
HETATM   25  C19 UNL     1      -2.642  -1.097  -0.946  1.00  0.00     0.035 C 
HETATM   26  C16 UNL     1      -4.137  -0.217   1.328  1.00  0.00    -0.012 C 
HETATM   27  C18 UNL     1      -2.827   0.446   0.943  1.00  0.00     0.035 C 
ENDBRANCH  16  18
ENDBRANCH   1  16
TORSDOF 8
