REMARK  8 active torsions:
REMARK  status: ('A' for Active; 'I' for Inactive)
REMARK    1  A    between atoms: C2_2  and  C3_3 
REMARK    2  A    between atoms: C3_3  and  N1_4 
REMARK    3  A    between atoms: N1_4  and  C4_6 
REMARK    4  A    between atoms: C4_6  and  N2_8 
REMARK    5  A    between atoms: N2_8  and  N3_10 
REMARK    6  A    between atoms: C5_12  and  C6_13 
REMARK    7  A    between atoms: C10_17  and  C11_18 
REMARK    8  A    between atoms: C11_18  and  C12_19 
ROOT
HETATM    1  C6  UNL     1      -0.217  -0.828   0.213  1.00  0.00    -0.008 A 
HETATM    2  C7  UNL     1      -0.873  -2.030   0.498  1.00  0.00     0.021 A 
HETATM    3  C8  UNL     1      -2.216  -2.150   0.348  1.00  0.00    -0.054 A 
HETATM    4  C9  UNL     1      -2.841  -3.463   0.674  1.00  0.00     0.049 C 
HETATM    5  C10 UNL     1      -3.032  -1.133  -0.085  1.00  0.00    -0.040 A 
HETATM    6  C14 UNL     1      -2.379   0.069  -0.372  1.00  0.00    -0.003 A 
HETATM    7  C15 UNL     1      -3.089   1.140  -0.809  1.00  0.00     0.102 A 
HETATM    8  N4  UNL     1      -2.570   2.354  -1.118  1.00  0.00    -0.370 N 
HETATM    9  C16 UNL     1      -3.434   3.430  -1.578  1.00  0.00     0.154 C 
HETATM   10  C17 UNL     1      -1.253   2.476  -0.972  1.00  0.00     0.090 A 
HETATM   11  C18 UNL     1      -0.439   1.435  -0.530  1.00  0.00     0.030 A 
HETATM   12  C19 UNL     1      -0.985   0.204  -0.219  1.00  0.00    -0.011 A 
ENDROOT
BRANCH   1  13
HETATM   13  C5  UNL     1       1.209  -0.760   0.392  1.00  0.00     0.119 C 
HETATM   14  N3  UNL     1       1.947   0.231   0.186  1.00  0.00    -0.309 N 
ATOM     15  H3  UNL     1       1.515   1.094  -0.144  1.00  0.00     0.186 HD
BRANCH  14  16
HETATM   16  N2  UNL     1       3.346   0.216   0.386  1.00  0.00    -0.277 N 
ATOM     17  H2  UNL     1       3.911  -0.582   0.096  1.00  0.00     0.189 HD
BRANCH  16  18
HETATM   18  C4  UNL     1       3.936   1.339   0.999  1.00  0.00     0.186 C 
HETATM   19  S1  UNL     1       2.978   2.606   1.464  1.00  0.00    -0.040 SA
BRANCH  18  20
HETATM   20  N1  UNL     1       5.317   1.440   1.241  1.00  0.00    -0.366 N 
ATOM     21  H1  UNL     1       5.668   2.278   1.705  1.00  0.00     0.161 HD
BRANCH  20  22
HETATM   22  C3  UNL     1       6.254   0.426   0.868  1.00  0.00     0.121 C 
BRANCH  22  23
HETATM   23  C2  UNL     1       6.492   0.312  -0.620  1.00  0.00     0.015 C 
HETATM   24  C1  UNL     1       7.502  -0.818  -0.837  1.00  0.00     0.006 C 
ENDBRANCH  22  23
ENDBRANCH  20  22
ENDBRANCH  18  20
ENDBRANCH  16  18
ENDBRANCH  14  16
ENDBRANCH   1  13
BRANCH   5  25
HETATM   25  C11 UNL     1      -4.488  -1.239  -0.253  1.00  0.00     0.040 C 
BRANCH  25  26
HETATM   26  C12 UNL     1      -5.285  -1.186   1.023  1.00  0.00     0.000 C 
HETATM   27  C13 UNL     1      -5.122   0.045   1.838  1.00  0.00     0.005 C 
ENDBRANCH  25  26
ENDBRANCH   5  25
TORSDOF 8
