REMARK  6 active torsions:
REMARK  status: ('A' for Active; 'I' for Inactive)
REMARK       I    between atoms: C1_2  and  N1_3 
REMARK       I    between atoms: C1_2  and  N3_15 
REMARK    1  A    between atoms: N1_3  and  C2_5 
REMARK    2  A    between atoms: C2_5  and  C3_6 
REMARK    3  A    between atoms: C3_6  and  C4_7 
REMARK    4  A    between atoms: C4_7  and  C5_8 
REMARK    5  A    between atoms: C5_8  and  N2_9 
REMARK    6  A    between atoms: N3_15  and  C10_17 
ROOT
HETATM    1  O1  UNL     1      -0.888  -1.185  -1.918  1.00  0.00    -0.247 OA
HETATM    2  C1  UNL     1      -0.506  -1.095  -0.722  1.00  0.00     0.316 C 
HETATM    3  N1  UNL     1       0.815  -1.521  -0.420  1.00  0.00    -0.343 N 
ATOM      4  H1  UNL     1       1.167  -1.466   0.536  1.00  0.00     0.164 HD
HETATM    5  N3  UNL     1      -1.347  -0.588   0.308  1.00  0.00    -0.334 N 
ATOM      6  H3  UNL     1      -0.974  -0.541   1.256  1.00  0.00     0.165 HD
ENDROOT
BRANCH   3   7
HETATM    7  C2  UNL     1       1.644  -2.026  -1.462  1.00  0.00     0.124 C 
BRANCH   7   8
HETATM    8  C3  UNL     1       3.024  -2.414  -1.169  1.00  0.00     0.021 C 
BRANCH   8   9
HETATM    9  C4  UNL     1       3.954  -1.319  -0.797  1.00  0.00     0.021 C 
BRANCH   9  10
HETATM   10  C5  UNL     1       3.553  -0.546   0.391  1.00  0.00     0.126 C 
BRANCH  10  11
HETATM   11  N2  UNL     1       4.589   0.472   0.724  1.00  0.00    -0.352 N 
HETATM   12  C6  UNL     1       5.721   0.281   1.604  1.00  0.00     0.126 C 
HETATM   13  C7  UNL     1       6.781   1.171   0.994  1.00  0.00     0.029 C 
HETATM   14  C8  UNL     1       6.056   2.278   0.287  1.00  0.00     0.104 C 
HETATM   15  C9  UNL     1       4.662   1.806   0.248  1.00  0.00     0.219 C 
HETATM   16  O2  UNL     1       3.633   2.448  -0.142  1.00  0.00    -0.273 OA
ENDBRANCH  10  11
ENDBRANCH   9  10
ENDBRANCH   8   9
ENDBRANCH   7   8
ENDBRANCH   3   7
BRANCH   5  17
HETATM   17  C10 UNL     1      -2.686  -0.141   0.085  1.00  0.00     0.035 C 
HETATM   18  C11 UNL     1      -3.584  -1.221  -0.457  1.00  0.00     0.035 C 
HETATM   19  C12 UNL     1      -5.013  -0.719  -0.544  1.00  0.00    -0.012 C 
HETATM   20  C13 UNL     1      -5.017   0.417  -1.540  1.00  0.00     0.009 C 
HETATM   21  C17 UNL     1      -5.480  -0.316   0.819  1.00  0.00     0.009 C 
HETATM   22  C14 UNL     1      -4.150   1.531  -1.015  1.00  0.00    -0.012 C 
HETATM   23  C15 UNL     1      -4.709   2.018   0.289  1.00  0.00     0.009 C 
HETATM   24  C19 UNL     1      -2.732   1.029  -0.905  1.00  0.00     0.035 C 
HETATM   25  C16 UNL     1      -4.651   0.869   1.278  1.00  0.00    -0.012 C 
HETATM   26  C18 UNL     1      -3.237   0.420   1.397  1.00  0.00     0.035 C 
ENDBRANCH   5  17
TORSDOF 6
