REMARK  8 active torsions:
REMARK  status: ('A' for Active; 'I' for Inactive)
REMARK    1  A    between atoms: C4_4  and  C5_5 
REMARK    2  A    between atoms: C5_5  and  C7_7 
REMARK    3  A    between atoms: C10_12  and  O3_13 
REMARK    4  A    between atoms: C11_15  and  C12_16 
REMARK    5  A    between atoms: C12_16  and  O4_17 
REMARK    6  A    between atoms: O4_17  and  C13_18 
REMARK    7  A    between atoms: C13_18  and  C14_20 
REMARK    8  A    between atoms: C14_20  and  N1_21 
ROOT
HETATM    1  O4  UNL     1       0.600  -1.906   1.118  1.00  0.00    -0.318 OA
ENDROOT
BRANCH   1   2
HETATM    2  C12 UNL     1       1.879  -1.378   1.090  1.00  0.00     0.213 C 
BRANCH   2   3
HETATM    3  C11 UNL     1       2.374  -0.894  -0.232  1.00  0.00     0.178 C 
HETATM    4  C10 UNL     1       2.363  -2.053  -1.204  1.00  0.00     0.158 C 
HETATM    5  C9  UNL     1       2.154  -1.651  -2.628  1.00  0.00     0.145 C 
HETATM    6  C8  UNL     1       2.358  -0.166  -2.699  1.00  0.00     0.263 C 
HETATM    7  O1  UNL     1       3.307   0.592  -2.039  1.00  0.00    -0.289 OA
HETATM    8  O2  UNL     1       1.570   0.447  -3.449  1.00  0.00    -0.265 OA
HETATM    9  C7  UNL     1       4.262   0.113  -1.134  1.00  0.00     0.277 C 
HETATM   10  O7  UNL     1       3.685  -0.414  -0.006  1.00  0.00    -0.350 OA
BRANCH   4  11
HETATM   11  O3  UNL     1       3.526  -2.774  -0.994  1.00  0.00    -0.392 OA
ATOM     12  H3  UNL     1       3.659  -3.030  -0.089  1.00  0.00     0.210 HD
ENDBRANCH   4  11
BRANCH   9  13
HETATM   13  C5  UNL     1       5.360   1.102  -0.832  1.00  0.00     0.060 C 
HETATM   14  C6  UNL     1       6.147   1.402  -2.077  1.00  0.00     0.019 C 
BRANCH  13  15
HETATM   15  C4  UNL     1       6.279   0.438   0.142  1.00  0.00    -0.016 C 
HETATM   16  C2  UNL     1       6.504   0.952   1.349  1.00  0.00    -0.091 C 
HETATM   17  C1  UNL     1       5.843   2.218   1.778  1.00  0.00     0.042 C 
HETATM   18  C3  UNL     1       7.424   0.266   2.296  1.00  0.00     0.042 C 
ENDBRANCH  13  15
ENDBRANCH   9  13
ENDBRANCH   2   3
ENDBRANCH   1   2
BRANCH   1  19
HETATM   19  C13 UNL     1      -0.586  -1.296   0.801  1.00  0.00     0.277 C 
HETATM   20  O5  UNL     1      -0.518  -0.094   0.435  1.00  0.00    -0.263 OA
BRANCH  19  21
HETATM   21  C14 UNL     1      -1.902  -1.954   0.865  1.00  0.00     0.237 C 
BRANCH  21  22
HETATM   22  N1  UNL     1      -3.020  -1.080   0.610  1.00  0.00    -0.334 N 
HETATM   23  C15 UNL     1      -3.361  -0.992  -0.766  1.00  0.00     0.228 C 
HETATM   24  O6  UNL     1      -2.524  -1.482  -1.602  1.00  0.00    -0.273 OA
HETATM   25  C16 UNL     1      -4.543  -0.418  -1.418  1.00  0.00     0.034 C 
HETATM   26  C17 UNL     1      -4.077   0.137  -2.774  1.00  0.00     0.025 C 
HETATM   27  C18 UNL     1      -5.640  -1.389  -1.688  1.00  0.00     0.025 C 
HETATM   28  C19 UNL     1      -5.092   0.782  -0.680  1.00  0.00     0.023 C 
HETATM   29  C20 UNL     1      -5.789   0.485   0.582  1.00  0.00    -0.011 C 
HETATM   30  C21 UNL     1      -6.012   1.768   1.342  1.00  0.00     0.008 C 
HETATM   31  C26 UNL     1      -5.188  -0.467   1.521  1.00  0.00     0.034 C 
HETATM   32  C22 UNL     1      -4.810   2.634   1.424  1.00  0.00     0.027 C 
HETATM   33  C23 UNL     1      -3.604   2.084   1.993  1.00  0.00    -0.029 C 
HETATM   34  C24 UNL     1      -3.143   0.867   2.112  1.00  0.00    -0.006 C 
HETATM   35  C25 UNL     1      -3.698  -0.410   1.700  1.00  0.00     0.110 C 
ENDBRANCH  21  22
ENDBRANCH  19  21
ENDBRANCH   1  19
TORSDOF 8
