REMARK  5 active torsions:
REMARK  status: ('A' for Active; 'I' for Inactive)
REMARK    1  A    between atoms: C3_5  and  C4_6 
REMARK       I    between atoms: N2_9  and  C7_10 
REMARK    2  A    between atoms: C7_10  and  C8_12 
REMARK    3  A    between atoms: C12_16  and  N3_17 
REMARK    4  A    between atoms: C16_21  and  C17_22 
REMARK    5  A    between atoms: C16_21  and  N5_25 
ROOT
HETATM    1  C17 UNL     1      -6.454   1.324   1.023  1.00  0.00     0.162 C 
HETATM    2  C18 UNL     1      -5.976   2.641   0.781  1.00  0.00     0.062 C 
HETATM    3  N4  UNL     1      -5.592   3.719   0.613  1.00  0.00    -0.197 NA
ENDROOT
BRANCH   1   4
HETATM    4  C16 UNL     1      -5.836   0.257   0.160  1.00  0.00     0.099 C 
HETATM    5  C15 UNL     1      -6.056   0.440  -1.297  1.00  0.00     0.045 C 
HETATM    6  C14 UNL     1      -5.019   1.266  -1.948  1.00  0.00     0.047 C 
HETATM    7  C13 UNL     1      -3.631   1.164  -1.421  1.00  0.00     0.063 C 
HETATM    8  N3  UNL     1      -3.433   0.161  -0.457  1.00  0.00    -0.367 N 
HETATM    9  C21 UNL     1      -4.429  -0.050   0.507  1.00  0.00     0.097 C 
BRANCH   8  10
HETATM   10  C12 UNL     1      -2.134   0.024   0.075  1.00  0.00     0.089 C 
HETATM   11  C11 UNL     1      -1.746   1.312   0.787  1.00  0.00     0.026 C 
HETATM   12  C10 UNL     1      -0.784   0.925   1.876  1.00  0.00     0.003 C 
HETATM   13  C9  UNL     1       0.162  -0.119   1.299  1.00  0.00     0.014 C 
HETATM   14  C8  UNL     1       0.295  -0.024  -0.200  1.00  0.00     0.080 C 
HETATM   15  C22 UNL     1      -1.048  -0.267  -0.908  1.00  0.00     0.039 C 
BRANCH  14  16
HETATM   16  C7  UNL     1       1.303  -0.994  -0.660  1.00  0.00     0.224 C 
HETATM   17  N2  UNL     1       2.681  -0.871  -0.443  1.00  0.00    -0.352 N 
HETATM   18  C6  UNL     1       3.629  -1.891  -0.915  1.00  0.00     0.126 C 
HETATM   19  C23 UNL     1       3.263   0.254   0.233  1.00  0.00     0.126 C 
HETATM   20  C5  UNL     1       4.897  -1.720  -0.141  1.00  0.00     0.030 C 
HETATM   21  C4  UNL     1       5.528  -0.413  -0.638  1.00  0.00     0.040 C 
HETATM   22  C24 UNL     1       4.552   0.714  -0.431  1.00  0.00     0.030 C 
HETATM   23  O1  UNL     1       0.888  -2.019  -1.300  1.00  0.00    -0.273 OA
BRANCH  21  24
HETATM   24  C3  UNL     1       6.836  -0.184   0.020  1.00  0.00     0.030 A 
HETATM   25  N1  UNL     1       8.038  -0.089  -0.565  1.00  0.00    -0.348 N 
HETATM   26  C2  UNL     1       8.946   0.117   0.399  1.00  0.00     0.077 A 
ATOM     27  H1  UNL     1       8.228  -0.161  -1.565  1.00  0.00     0.167 HD
HETATM   28  C1  UNL     1      10.415   0.281   0.181  1.00  0.00     0.089 C 
HETATM   29  N8  UNL     1       8.326   0.152   1.584  1.00  0.00    -0.354 N 
HETATM   30  C25 UNL     1       7.021  -0.031   1.381  1.00  0.00     0.114 A 
ATOM     31  H8  UNL     1       8.775   0.294   2.489  1.00  0.00     0.166 HD
ENDBRANCH  21  24
ENDBRANCH  14  16
ENDBRANCH   8  10
BRANCH   4  32
HETATM   32  N5  UNL     1      -6.606  -0.972   0.511  1.00  0.00    -0.271 N 
HETATM   33  C19 UNL     1      -6.215  -2.235   0.292  1.00  0.00     0.202 A 
HETATM   34  N6  UNL     1      -7.176  -3.083   0.746  1.00  0.00    -0.346 N 
HETATM   35  C20 UNL     1      -8.153  -2.336   1.241  1.00  0.00     0.198 A 
ATOM     36  H6  UNL     1      -7.150  -4.102   0.712  1.00  0.00     0.167 HD
HETATM   37  N7  UNL     1      -7.785  -1.051   1.087  1.00  0.00    -0.292 N 
ATOM     38  H7  UNL     1      -8.344  -0.249   1.377  1.00  0.00     0.188 HD
ENDBRANCH   4  32
ENDBRANCH   1   4
TORSDOF 5
