REMARK  10 active torsions:
REMARK  status: ('A' for Active; 'I' for Inactive)
REMARK    1  A    between atoms: O1_2  and  C2_3 
REMARK    2  A    between atoms: C2_3  and  C3_5 
REMARK    3  A    between atoms: C3_5  and  C4_6 
REMARK    4  A    between atoms: C4_6  and  O4_8 
REMARK    5  A    between atoms: O4_8  and  C5_9 
REMARK    6  A    between atoms: C7_11  and  C8_12 
REMARK    7  A    between atoms: C8_12  and  C9_13 
REMARK    8  A    between atoms: C9_13  and  O6_15 
REMARK    9  A    between atoms: O6_15  and  C10_16 
REMARK   10  A    between atoms: C15_21  and  O7_22 
ROOT
HETATM    1  C5  UNL     1       2.031   0.002  -0.422  1.00  0.00     0.137 C 
HETATM    2  C6  UNL     1       0.944   0.141   0.615  1.00  0.00     0.040 C 
HETATM    3  C7  UNL     1       0.006  -1.031   0.576  1.00  0.00     0.021 C 
HETATM    4  C16 UNL     1       0.690  -2.280   0.561  1.00  0.00     0.098 C 
HETATM    5  C17 UNL     1       2.249  -2.021   0.852  1.00  0.00     0.051 C 
HETATM    6  C18 UNL     1       2.592  -3.477   1.081  1.00  0.00    -0.025 A 
HETATM    7  C19 UNL     1       3.419  -4.198   1.901  1.00  0.00     0.010 A 
HETATM    8  C20 UNL     1       3.480  -5.561   1.713  1.00  0.00     0.001 A 
HETATM    9  C21 UNL     1       2.749  -6.239   0.738  1.00  0.00     0.002 A 
HETATM   10  C22 UNL     1       1.920  -5.478  -0.075  1.00  0.00     0.030 A 
HETATM   11  C23 UNL     1       1.819  -4.118   0.069  1.00  0.00     0.037 A 
HETATM   12  N1  UNL     1       1.111  -3.031  -0.553  1.00  0.00    -0.374 N 
HETATM   13  C24 UNL     1       1.135  -2.697  -1.946  1.00  0.00     0.124 C 
HETATM   14  C25 UNL     1       2.532  -1.906  -1.772  1.00  0.00     0.028 C 
HETATM   15  C26 UNL     1       2.687  -1.395  -0.400  1.00  0.00     0.027 C 
ENDROOT
BRANCH   3  16
HETATM   16  C8  UNL     1      -1.246  -0.832  -0.222  1.00  0.00     0.117 C 
BRANCH  16  17
HETATM   17  C9  UNL     1      -2.125   0.255   0.266  1.00  0.00     0.259 C 
HETATM   18  O5  UNL     1      -1.811   0.942   1.249  1.00  0.00    -0.265 OA
BRANCH  17  19
HETATM   19  O6  UNL     1      -3.329   0.542  -0.363  1.00  0.00    -0.313 OA
BRANCH  19  20
HETATM   20  C10 UNL     1      -4.134   1.585   0.132  1.00  0.00     0.160 C 
HETATM   21  C11 UNL     1      -4.380   2.618  -0.912  1.00  0.00     0.035 C 
HETATM   22  C12 UNL     1      -5.227   2.073  -2.019  1.00  0.00     0.003 C 
HETATM   23  C13 UNL     1      -6.529   1.593  -1.467  1.00  0.00     0.003 C 
HETATM   24  C14 UNL     1      -6.621   1.657   0.032  1.00  0.00     0.034 C 
HETATM   25  C15 UNL     1      -5.439   1.045   0.717  1.00  0.00     0.147 C 
BRANCH  25  26
HETATM   26  O7  UNL     1      -5.556   1.335   2.083  1.00  0.00    -0.393 OA
ATOM     27  H7  UNL     1      -6.367   0.999   2.447  1.00  0.00     0.210 HD
ENDBRANCH  25  26
ENDBRANCH  19  20
ENDBRANCH  17  19
ENDBRANCH  16  17
ENDBRANCH   3  16
BRANCH   1  28
HETATM   28  O4  UNL     1       3.005   1.022  -0.262  1.00  0.00    -0.315 OA
BRANCH  28  29
HETATM   29  C4  UNL     1       3.190   2.085  -1.121  1.00  0.00     0.268 C 
HETATM   30  O3  UNL     1       2.475   2.198  -2.106  1.00  0.00    -0.265 OA
BRANCH  29  31
HETATM   31  C3  UNL     1       4.272   3.064  -0.801  1.00  0.00     0.222 C 
BRANCH  31  32
HETATM   32  C2  UNL     1       3.937   3.845   0.414  1.00  0.00     0.267 C 
HETATM   33  O2  UNL     1       2.868   3.629   1.021  1.00  0.00    -0.265 OA
BRANCH  32  34
HETATM   34  O1  UNL     1       4.818   4.797   0.851  1.00  0.00    -0.326 OA
HETATM   35  C1  UNL     1       4.588   5.599   2.017  1.00  0.00     0.213 C 
ENDBRANCH  32  34
ENDBRANCH  31  32
ENDBRANCH  29  31
ENDBRANCH  28  29
ENDBRANCH   1  28
TORSDOF 10
