REMARK  7 active torsions:
REMARK  status: ('A' for Active; 'I' for Inactive)
REMARK    1  A    between atoms: C2_2  and  C3_3 
REMARK       I    between atoms: C3_3  and  N1_5 
REMARK    2  A    between atoms: N1_5  and  C4_7 
REMARK    3  A    between atoms: C6_13  and  O2_14 
REMARK    4  A    between atoms: C8_17  and  N4_18 
REMARK    5  A    between atoms: N4_18  and  C9_20 
REMARK    6  A    between atoms: C11_22  and  C12_23 
REMARK       I    between atoms: C12_23  and  N5_25 
REMARK    7  A    between atoms: N5_25  and  C13_27 
ROOT
HETATM    1  C4  UNL     1       4.462  -1.323  -0.207  1.00  0.00     0.135 A 
HETATM    2  N2  UNL     1       4.455  -2.624  -0.486  1.00  0.00    -0.284 N 
ATOM      3  H2  UNL     1       5.214  -3.117  -0.956  1.00  0.00     0.188 HD
HETATM    4  N3  UNL     1       3.318  -3.203  -0.068  1.00  0.00    -0.295 N 
ATOM      5  H3  UNL     1       3.090  -4.192  -0.173  1.00  0.00     0.187 HD
HETATM    6  C5  UNL     1       2.528  -2.286   0.508  1.00  0.00     0.095 A 
HETATM    7  C6  UNL     1       1.269  -2.345   1.097  1.00  0.00     0.096 A 
HETATM    8  C7  UNL     1       0.717  -1.197   1.610  1.00  0.00     0.068 A 
HETATM    9  C8  UNL     1       1.379  -0.012   1.549  1.00  0.00     0.036 A 
HETATM   10  C20 UNL     1       2.625   0.017   0.961  1.00  0.00     0.047 A 
HETATM   11  C21 UNL     1       3.221  -1.106   0.432  1.00  0.00     0.042 A 
ENDROOT
BRANCH   9  12
HETATM   12  N4  UNL     1       0.858   1.191   2.026  1.00  0.00    -0.354 N 
ATOM     13  H4  UNL     1       1.543   1.816   2.451  1.00  0.00     0.166 HD
BRANCH  12  14
HETATM   14  C9  UNL     1      -0.458   1.678   2.014  1.00  0.00     0.072 A 
HETATM   15  C10 UNL     1      -1.451   1.074   1.277  1.00  0.00     0.053 A 
HETATM   16  C11 UNL     1      -2.763   1.591   1.242  1.00  0.00     0.072 A 
HETATM   17  C17 UNL     1      -3.027   2.718   1.966  1.00  0.00     0.135 A 
HETATM   18  F1  UNL     1      -4.257   3.289   2.016  1.00  0.00    -0.205 F 
HETATM   19  C18 UNL     1      -2.027   3.352   2.726  1.00  0.00     0.088 A 
HETATM   20  C19 UNL     1      -0.758   2.832   2.744  1.00  0.00     0.145 A 
HETATM   21  F2  UNL     1       0.250   3.388   3.454  1.00  0.00    -0.204 F 
BRANCH  16  22
HETATM   22  C12 UNL     1      -3.764   0.925   0.432  1.00  0.00     0.255 C 
HETATM   23  O3  UNL     1      -3.468  -0.267   0.007  1.00  0.00    -0.268 OA
HETATM   24  N5  UNL     1      -5.020   1.376   0.030  1.00  0.00    -0.349 N 
ATOM     25  H5  UNL     1      -5.325   2.305   0.320  1.00  0.00     0.163 HD
BRANCH  24  26
HETATM   26  C13 UNL     1      -5.915   0.564  -0.792  1.00  0.00     0.022 C 
HETATM   27  C14 UNL     1      -7.191   1.325  -1.063  1.00  0.00     0.037 C 
HETATM   28  C15 UNL     1      -5.260   0.250  -2.114  1.00  0.00     0.037 C 
HETATM   29  C16 UNL     1      -6.311  -0.708  -0.071  1.00  0.00     0.037 C 
ENDBRANCH  24  26
ENDBRANCH  16  22
ENDBRANCH  12  14
ENDBRANCH   9  12
BRANCH   7  30
HETATM   30  O2  UNL     1       0.606  -3.570   1.148  1.00  0.00    -0.358 OA
ATOM     31  H2  UNL     1      -0.254  -3.610   1.550  1.00  0.00     0.217 HD
ENDBRANCH   7  30
BRANCH   1  32
HETATM   32  N1  UNL     1       5.387  -0.292  -0.423  1.00  0.00    -0.311 N 
HETATM   33  C3  UNL     1       6.647  -0.367  -1.041  1.00  0.00     0.222 C 
HETATM   34  O1  UNL     1       7.302   0.749  -1.106  1.00  0.00    -0.273 OA
ATOM     35  H1  UNL     1       5.110   0.631  -0.089  1.00  0.00     0.170 HD
BRANCH  33  36
HETATM   36  C2  UNL     1       7.254  -1.587  -1.602  1.00  0.00     0.099 C 
HETATM   37  C1  UNL     1       8.636  -1.191  -2.152  1.00  0.00     0.014 C 
ENDBRANCH  33  36
ENDBRANCH   1  32
TORSDOF 7
