REMARK  7 active torsions:
REMARK  status: ('A' for Active; 'I' for Inactive)
REMARK    1  A    between atoms: C3_3  and  C4_4 
REMARK    2  A    between atoms: C4_4  and  C5_5 
REMARK       I    between atoms: C5_5  and  N1_7 
REMARK    3  A    between atoms: N1_7  and  C6_9 
REMARK    4  A    between atoms: C8_14  and  C9_15 
REMARK    5  A    between atoms: C9_15  and  C10_18 
REMARK    6  A    between atoms: C19_29  and  N4_30 
REMARK    7  A    between atoms: C20_35  and  N6_36 
ROOT
HETATM    1  C4  UNL     1      -1.311   0.299  -0.294  1.00  0.00     0.142 C 
ENDROOT
BRANCH   1   2
HETATM    2  C3  UNL     1      -2.690   0.416   0.135  1.00  0.00    -0.042 A 
HETATM    3  C2  UNL     1      -3.528  -0.700  -0.171  1.00  0.00    -0.039 A 
HETATM    4  C1  UNL     1      -3.024  -1.881  -0.867  1.00  0.00     0.050 C 
HETATM    5  C21 UNL     1      -4.847  -0.577   0.245  1.00  0.00     0.042 A 
HETATM    6  C18 UNL     1      -5.332   0.543   0.910  1.00  0.00     0.063 A 
HETATM    7  C20 UNL     1      -5.739  -1.599   0.000  1.00  0.00     0.127 A 
HETATM    8  C17 UNL     1      -4.509   1.572   1.179  1.00  0.00     0.031 A 
HETATM    9  N3  UNL     1      -6.609   0.610   1.288  1.00  0.00    -0.191 N 
HETATM   10  C16 UNL     1      -3.182   1.503   0.788  1.00  0.00     0.010 A 
HETATM   11  C19 UNL     1      -7.455  -0.392   1.040  1.00  0.00     0.677 A 
ATOM     12  H3  UNL     1      -6.945   1.441   1.775  1.00  0.00     0.184 HD
HETATM   13  N5  UNL     1      -7.030  -1.481   0.406  1.00  0.00    -0.176 N 
ATOM     14  H5  UNL     1      -7.685  -2.241   0.221  1.00  0.00     0.186 HD
BRANCH  11  15
HETATM   15  N4  UNL     1      -8.685  -0.296   1.419  1.00  0.00    -0.234 N 
ATOM     16  H42 UNL     1      -9.011   0.539   1.905  1.00  0.00     0.174 HD
ATOM     17  H41 UNL     1      -9.332  -1.062   1.229  1.00  0.00     0.174 HD
ENDBRANCH  11  15
BRANCH   7  18
HETATM   18  N6  UNL     1      -5.366  -2.647  -0.597  1.00  0.00    -0.384 N 
ATOM     19  H62 UNL     1      -6.026  -3.403  -0.778  1.00  0.00     0.157 HD
ATOM     20  H61 UNL     1      -4.397  -2.736  -0.902  1.00  0.00     0.157 HD
ENDBRANCH   7  18
ENDBRANCH   1   2
BRANCH   1  21
HETATM   21  C5  UNL     1      -0.389   1.429  -0.167  1.00  0.00     0.226 C 
HETATM   22  O1  UNL     1      -0.580   2.563   0.279  1.00  0.00    -0.273 OA
HETATM   23  N1  UNL     1       0.960   1.130  -0.655  1.00  0.00    -0.319 N 
ATOM     24  H1  UNL     1       1.203   0.218  -1.041  1.00  0.00     0.169 HD
BRANCH  23  25
HETATM   25  C6  UNL     1       1.919   2.189  -0.560  1.00  0.00     0.106 A 
HETATM   26  S1  UNL     1       1.647   3.797   0.042  1.00  0.00    -0.065 SA
HETATM   27  C7  UNL     1       3.204   4.429  -0.194  1.00  0.00     0.140 A 
HETATM   28  N2  UNL     1       3.846   3.402  -0.710  1.00  0.00    -0.356 N 
HETATM   29  C8  UNL     1       3.233   2.266  -0.907  1.00  0.00     0.116 A 
ATOM     30  H2  UNL     1       4.831   3.494  -0.958  1.00  0.00     0.165 HD
BRANCH  29  31
HETATM   31  C9  UNL     1       4.000   1.076  -1.458  1.00  0.00     0.291 C 
HETATM   32  F1  UNL     1       3.306   0.588  -2.579  1.00  0.00    -0.199 F 
HETATM   33  F2  UNL     1       5.239   1.436  -1.919  1.00  0.00    -0.199 F 
BRANCH  31  34
HETATM   34  C10 UNL     1       4.080  -0.064  -0.488  1.00  0.00     0.065 C 
HETATM   35  C11 UNL     1       4.867  -1.215  -1.128  1.00  0.00     0.011 C 
HETATM   36  C12 UNL     1       4.948  -2.344  -0.155  1.00  0.00     0.001 C 
HETATM   37  C13 UNL     1       5.797  -1.890   1.011  1.00  0.00     0.000 C 
HETATM   38  C14 UNL     1       5.304  -0.632   1.646  1.00  0.00     0.001 C 
HETATM   39  C15 UNL     1       4.906   0.448   0.698  1.00  0.00     0.011 C 
ENDBRANCH  31  34
ENDBRANCH  29  31
ENDBRANCH  23  25
ENDBRANCH   1  21
TORSDOF 7
