REMARK  7 active torsions:
REMARK  status: ('A' for Active; 'I' for Inactive)
REMARK    1  A    between atoms: C1_2  and  C2_4 
REMARK    2  A    between atoms: C4_11  and  N4_12 
REMARK    3  A    between atoms: N5_14  and  C5_16 
REMARK    4  A    between atoms: C9_20  and  N6_21 
REMARK    5  A    between atoms: N6_21  and  C10_23 
REMARK    6  A    between atoms: C10_23  and  N7_25 
REMARK    7  A    between atoms: N7_25  and  C11_27 
ROOT
HETATM    1  C5  UNL     1      -2.161  -1.198  -0.612  1.00  0.00     0.050 A 
HETATM    2  C6  UNL     1      -2.813  -1.464   0.559  1.00  0.00     0.031 A 
HETATM    3  C7  UNL     1      -2.078  -1.519   1.709  1.00  0.00     0.005 A 
HETATM    4  C8  UNL     1      -0.704  -1.310   1.695  1.00  0.00     0.029 A 
HETATM    5  C9  UNL     1      -0.050  -1.047   0.536  1.00  0.00     0.036 A 
HETATM    6  C17 UNL     1      -0.806  -0.990  -0.648  1.00  0.00     0.060 A 
ENDROOT
BRANCH   1   7
HETATM    7  N5  UNL     1      -2.933  -1.142  -1.804  1.00  0.00    -0.299 N 
HETATM    8  N4  UNL     1      -3.885  -0.347  -2.003  1.00  0.00    -0.283 N 
ATOM      9  H4  UNL     1      -4.377  -0.389  -2.896  1.00  0.00     0.188 HD
ATOM     10  H5  UNL     1      -2.697  -1.794  -2.552  1.00  0.00     0.187 HD
BRANCH   8  11
HETATM   11  C4  UNL     1      -4.307   0.608  -1.040  1.00  0.00     0.154 A 
HETATM   12  C2  UNL     1      -5.572   0.766  -0.538  1.00  0.00     0.146 A 
HETATM   13  N2  UNL     1      -5.542   1.791   0.357  1.00  0.00    -0.326 N 
HETATM   14  C3  UNL     1      -4.294   2.232   0.389  1.00  0.00     0.178 A 
ATOM     15  H2  UNL     1      -6.329   2.150   0.898  1.00  0.00     0.168 HD
HETATM   16  S1  UNL     1      -3.738   3.451   1.305  1.00  0.00    -0.040 SA
HETATM   17  N3  UNL     1      -3.524   1.522  -0.458  1.00  0.00    -0.316 N 
ATOM     18  H3  UNL     1      -2.527   1.657  -0.625  1.00  0.00     0.170 HD
BRANCH  12  19
HETATM   19  C1  UNL     1      -6.734  -0.010  -0.889  1.00  0.00     0.285 C 
HETATM   20  N1  UNL     1      -8.011   0.233  -0.308  1.00  0.00    -0.056 NA
HETATM   21  O1  UNL     1      -6.659  -0.937  -1.728  1.00  0.00    -0.269 OA
ENDBRANCH  12  19
ENDBRANCH   8  11
ENDBRANCH   1   7
BRANCH   5  22
HETATM   22  N6  UNL     1       1.353  -0.861   0.450  1.00  0.00    -0.333 N 
ATOM     23  H6  UNL     1       1.717  -0.085  -0.103  1.00  0.00     0.168 HD
BRANCH  22  24
HETATM   24  C10 UNL     1       2.252  -1.713   1.103  1.00  0.00     0.172 C 
HETATM   25  S2  UNL     1       1.611  -3.014   1.914  1.00  0.00    -0.041 SA
BRANCH  24  26
HETATM   26  N7  UNL     1       3.663  -1.627   1.121  1.00  0.00    -0.362 N 
ATOM     27  H7  UNL     1       4.145  -2.348   1.657  1.00  0.00     0.162 HD
BRANCH  26  28
HETATM   28  C11 UNL     1       4.499  -0.661   0.485  1.00  0.00     0.089 C 
HETATM   29  C12 UNL     1       4.195   0.710   0.979  1.00  0.00     0.025 C 
HETATM   30  C13 UNL     1       4.237   1.790  -0.071  1.00  0.00     0.008 C 
HETATM   31  C14 UNL     1       5.311   1.607  -1.088  1.00  0.00     0.079 C 
HETATM   32  C15 UNL     1       5.511   0.205  -1.549  1.00  0.00     0.245 C 
HETATM   33  F1  UNL     1       5.596   0.081  -2.923  1.00  0.00    -0.206 F 
HETATM   34  F2  UNL     1       6.750  -0.220  -1.053  1.00  0.00    -0.206 F 
HETATM   35  C16 UNL     1       4.492  -0.774  -1.002  1.00  0.00     0.104 C 
ENDBRANCH  26  28
ENDBRANCH  24  26
ENDBRANCH  22  24
ENDBRANCH   5  22
TORSDOF 7
