REMARK  3 active torsions:
REMARK  status: ('A' for Active; 'I' for Inactive)
REMARK    1  A    between atoms: C4_4  and  C5_5 
REMARK       I    between atoms: C5_5  and  N1_7 
REMARK    2  A    between atoms: C8_11  and  N2_12 
REMARK       I    between atoms: N2_12  and  C9_14 
REMARK       I    between atoms: C9_14  and  N3_16 
REMARK    3  A    between atoms: C13_21  and  C14_22 
REMARK       I    between atoms: C14_22  and  N4_24 
ROOT
HETATM    1  N2  UNL     1       0.209  -0.603   0.374  1.00  0.00    -0.334 N 
ATOM      2  H2  UNL     1       0.063  -1.565   0.069  1.00  0.00     0.164 HD
HETATM    3  C9  UNL     1       1.530  -0.085   0.427  1.00  0.00     0.319 C 
HETATM    4  O2  UNL     1       1.637   1.101   0.806  1.00  0.00    -0.247 OA
HETATM    5  N3  UNL     1       2.633  -0.842   0.080  1.00  0.00    -0.318 N 
HETATM    6  C10 UNL     1       2.467  -2.286  -0.307  1.00  0.00     0.166 C 
HETATM    7  C11 UNL     1       3.565  -2.950   0.514  1.00  0.00     0.190 C 
HETATM    8  F2  UNL     1       3.095  -3.586   1.621  1.00  0.00    -0.248 F 
HETATM    9  C12 UNL     1       4.516  -1.789   0.883  1.00  0.00     0.074 C 
HETATM   10  C13 UNL     1       4.055  -0.726  -0.046  1.00  0.00     0.184 C 
ENDROOT
BRANCH   1  11
HETATM   11  C8  UNL     1      -0.960   0.220   0.751  1.00  0.00     0.139 C 
HETATM   12  C7  UNL     1      -1.663  -0.478   1.852  1.00  0.00     0.212 C 
HETATM   13  C6  UNL     1      -3.074  -0.640   1.418  1.00  0.00     0.165 C 
HETATM   14  F1  UNL     1      -1.633   0.364   2.965  1.00  0.00    -0.245 F 
HETATM   15  N1  UNL     1      -3.218   0.027   0.140  1.00  0.00    -0.347 N 
HETATM   16  C5  UNL     1      -4.458   0.328  -0.455  1.00  0.00     0.225 C 
HETATM   17  C20 UNL     1      -1.896   0.315  -0.396  1.00  0.00     0.154 C 
HETATM   18  O1  UNL     1      -4.481   0.911  -1.562  1.00  0.00    -0.273 OA
BRANCH  16  19
HETATM   19  C4  UNL     1      -5.737  -0.026   0.190  1.00  0.00     0.095 A 
HETATM   20  C2  UNL     1      -6.888  -0.479  -0.671  1.00  0.00    -0.027 A 
HETATM   21  C1  UNL     1      -7.833  -1.528  -0.086  1.00  0.00     0.016 C 
HETATM   22  C3  UNL     1      -6.579  -0.703  -2.104  1.00  0.00     0.016 C 
HETATM   23  C21 UNL     1      -6.941   0.827  -0.012  1.00  0.00    -0.027 A 
HETATM   24  C22 UNL     1      -7.779   1.011   1.254  1.00  0.00     0.016 C 
HETATM   25  C23 UNL     1      -6.877   2.063  -0.849  1.00  0.00     0.016 C 
ENDBRANCH  16  19
ENDBRANCH   1  11
BRANCH  10  26
HETATM   26  C14 UNL     1       4.694   0.546  -0.101  1.00  0.00     0.243 C 
HETATM   27  O3  UNL     1       3.939   1.564  -0.377  1.00  0.00    -0.271 OA
HETATM   28  N4  UNL     1       6.043   0.909   0.095  1.00  0.00    -0.345 N 
HETATM   29  C15 UNL     1       7.026  -0.092   0.410  1.00  0.00     0.126 C 
HETATM   30  C19 UNL     1       6.385   2.315  -0.039  1.00  0.00     0.204 C 
HETATM   31  C16 UNL     1       8.435   0.539   0.415  1.00  0.00     0.026 C 
HETATM   32  C17 UNL     1       8.523   1.303  -0.881  1.00  0.00     0.082 C 
HETATM   33  C18 UNL     1       7.686   2.549  -0.736  1.00  0.00     0.259 C 
HETATM   34  F3  UNL     1       8.451   3.497  -0.084  1.00  0.00    -0.205 F 
HETATM   35  F4  UNL     1       7.455   3.027  -2.015  1.00  0.00    -0.205 F 
ENDBRANCH  10  26
TORSDOF 3
