REMARK  4 active torsions:
REMARK  status: ('A' for Active; 'I' for Inactive)
REMARK    1  A    between atoms: C1_2  and  C2_3 
REMARK       I    between atoms: C1_2  and  N3_22 
REMARK    2  A    between atoms: C5_6  and  N1_7 
REMARK       I    between atoms: N1_7  and  C6_9 
REMARK       I    between atoms: C6_9  and  N2_11 
REMARK    3  A    between atoms: C11_16  and  C12_17 
REMARK    4  A    between atoms: C16_25  and  C17_26 
REMARK       I    between atoms: C17_26  and  N4_28 
ROOT
HETATM    1  C2  UNL     1       0.506  -0.282  -1.621  1.00  0.00     0.080 C 
HETATM    2  C3  UNL     1       0.314  -1.536  -2.459  1.00  0.00     0.016 C 
HETATM    3  C4  UNL     1      -1.031  -2.095  -1.963  1.00  0.00     0.026 C 
HETATM    4  C5  UNL     1      -1.804  -0.829  -1.818  1.00  0.00     0.087 C 
HETATM    5  C13 UNL     1      -0.864   0.123  -1.137  1.00  0.00     0.039 C 
ENDROOT
BRANCH   1   6
HETATM    6  C1  UNL     1       1.404  -0.559  -0.461  1.00  0.00     0.224 C 
HETATM    7  O1  UNL     1       1.693  -1.787  -0.260  1.00  0.00    -0.273 OA
HETATM    8  N3  UNL     1       1.937   0.396   0.404  1.00  0.00    -0.352 N 
HETATM    9  C14 UNL     1       1.688   1.800   0.240  1.00  0.00     0.126 C 
HETATM   10  C23 UNL     1       2.768   0.005   1.518  1.00  0.00     0.126 C 
HETATM   11  C15 UNL     1       3.003   2.495  -0.012  1.00  0.00     0.034 C 
HETATM   12  C16 UNL     1       4.016   2.111   1.012  1.00  0.00     0.081 C 
HETATM   13  C22 UNL     1       3.413   1.265   2.122  1.00  0.00     0.034 C 
BRANCH  12  14
HETATM   14  C17 UNL     1       5.130   1.395   0.350  1.00  0.00     0.224 C 
HETATM   15  O3  UNL     1       4.920   0.890  -0.789  1.00  0.00    -0.273 OA
HETATM   16  N4  UNL     1       6.393   1.253   0.932  1.00  0.00    -0.349 N 
HETATM   17  C18 UNL     1       6.837   1.789   2.199  1.00  0.00     0.129 C 
HETATM   18  C21 UNL     1       7.561   0.532   0.432  1.00  0.00     0.162 C 
HETATM   19  C19 UNL     1       7.542   0.589   2.821  1.00  0.00     0.058 C 
HETATM   20  C20 UNL     1       8.004  -0.252   1.644  1.00  0.00     0.189 C 
HETATM   21  F4  UNL     1       9.372  -0.443   1.680  1.00  0.00    -0.248 F 
ENDBRANCH  12  14
ENDBRANCH   1   6
BRANCH   4  22
HETATM   22  N1  UNL     1      -3.021  -1.019  -1.030  1.00  0.00    -0.338 N 
HETATM   23  C6  UNL     1      -4.300  -0.759  -1.531  1.00  0.00     0.319 C 
HETATM   24  O2  UNL     1      -4.391  -0.339  -2.734  1.00  0.00    -0.247 OA
HETATM   25  N2  UNL     1      -5.515  -0.925  -0.813  1.00  0.00    -0.321 N 
HETATM   26  C7  UNL     1      -5.474  -1.378   0.546  1.00  0.00     0.128 C 
HETATM   27  C11 UNL     1      -6.785  -0.646  -1.461  1.00  0.00     0.196 C 
HETATM   28  C8  UNL     1      -6.630  -0.890   1.368  1.00  0.00     0.020 C 
HETATM   29  C9  UNL     1      -7.355   0.288   0.801  1.00  0.00     0.004 C 
HETATM   30  C10 UNL     1      -7.751   0.120  -0.635  1.00  0.00     0.034 C 
ATOM     31  H1  UNL     1      -2.933  -1.356  -0.071  1.00  0.00     0.164 HD
BRANCH  27  32
HETATM   32  C12 UNL     1      -7.395  -1.947  -2.000  1.00  0.00     0.407 C 
HETATM   33  F1  UNL     1      -6.546  -2.532  -2.921  1.00  0.00    -0.169 F 
HETATM   34  F2  UNL     1      -7.649  -2.859  -1.021  1.00  0.00    -0.169 F 
HETATM   35  F3  UNL     1      -8.574  -1.676  -2.661  1.00  0.00    -0.169 F 
ENDBRANCH  27  32
ENDBRANCH   4  22
TORSDOF 4
