REMARK  3 active torsions:
REMARK  status: ('A' for Active; 'I' for Inactive)
REMARK    1  A    between atoms: C2_2  and  C3_3 
REMARK    2  A    between atoms: C8_11  and  C9_12 
REMARK       I    between atoms: C9_12  and  N1_14 
REMARK    3  A    between atoms: C10_16  and  N2_18 
ROOT
HETATM    1  C9  UNL     1      -0.078   0.348   0.301  1.00  0.00     0.229 C 
HETATM    2  O3  UNL     1      -0.533   1.008  -0.644  1.00  0.00    -0.273 OA
HETATM    3  N1  UNL     1      -0.803   0.312   1.516  1.00  0.00    -0.307 N 
ATOM      4  H1  UNL     1      -0.262   0.306   2.381  1.00  0.00     0.171 HD
HETATM    5  C10 UNL     1      -2.068   0.286   1.624  1.00  0.00     0.154 C 
HETATM    6 BR2  UNL     1      -2.796   0.239   3.402  1.00  0.00    -0.011 Br
ENDROOT
BRANCH   1   7
HETATM    7  C8  UNL     1       1.167  -0.384   0.197  1.00  0.00     0.104 C 
HETATM    8  C4  UNL     1       2.000  -0.247  -1.052  1.00  0.00     0.020 C 
HETATM    9  C2  UNL     1       3.162  -0.619  -0.147  1.00  0.00     0.067 C 
HETATM   10  C5  UNL     1       2.227   1.223  -1.206  1.00  0.00     0.008 C 
HETATM   11  C1  UNL     1       4.508  -0.098  -0.506  1.00  0.00     0.029 C 
HETATM   12  C7  UNL     1       2.400   0.234   0.878  1.00  0.00     0.048 C 
HETATM   13  C6  UNL     1       2.431   1.599   0.261  1.00  0.00     0.024 C 
HETATM   14 BR1  UNL     1       2.675  -0.037   2.674  1.00  0.00    -0.083 Br
BRANCH   9  15
HETATM   15  C3  UNL     1       3.209  -2.058   0.129  1.00  0.00     0.183 C 
HETATM   16  O1  UNL     1       2.632  -2.945  -0.551  1.00  0.00    -0.647 OA
HETATM   17  O2  UNL     1       3.947  -2.496   1.224  1.00  0.00    -0.647 OA
ENDBRANCH   9  15
ENDBRANCH   1   7
BRANCH   5  18
HETATM   18  N2  UNL     1      -2.983   0.289   0.537  1.00  0.00    -0.355 N 
HETATM   19  C11 UNL     1      -3.791   1.365   0.010  1.00  0.00     0.131 C 
HETATM   20  C12 UNL     1      -4.944   0.716  -0.708  1.00  0.00     0.100 C 
HETATM   21  C13 UNL     1      -4.803  -0.757  -0.393  1.00  0.00     0.261 C 
HETATM   22  F1  UNL     1      -5.397  -0.961   0.847  1.00  0.00    -0.204 F 
HETATM   23  F2  UNL     1      -5.317  -1.565  -1.367  1.00  0.00    -0.204 F 
HETATM   24  C14 UNL     1      -3.277  -0.886  -0.287  1.00  0.00     0.204 C 
ENDBRANCH   5  18
TORSDOF 3
