REMARK  3 active torsions:
REMARK  status: ('A' for Active; 'I' for Inactive)
REMARK    1  A    between atoms: C2_2  and  C3_3 
REMARK    2  A    between atoms: N1_8  and  C7_10 
REMARK    3  A    between atoms: C7_10  and  C8_11 
ROOT
HETATM    1  C8  UNL     1      -1.199  -1.166   0.307  1.00  0.00     0.013 C 
HETATM    2  C9  UNL     1      -2.198  -0.601   1.317  1.00  0.00     0.015 C 
HETATM    3  C10 UNL     1      -2.820   0.454   0.598  1.00  0.00     0.044 C 
HETATM    4  C11 UNL     1      -2.985  -0.122  -0.823  1.00  0.00     0.027 C 
HETATM    5  C12 UNL     1      -3.832  -1.317  -0.893  1.00  0.00     0.024 C 
HETATM    6  C13 UNL     1      -1.527  -0.459  -1.015  1.00  0.00     0.023 C 
HETATM    7  C14 UNL     1      -3.486   1.081  -1.465  1.00  0.00     0.173 C 
HETATM    8  O3  UNL     1      -3.189   1.473  -2.577  1.00  0.00    -0.294 OA
HETATM    9  C15 UNL     1      -4.424   1.707  -0.472  1.00  0.00     0.190 C 
HETATM   10 CL1  UNL     1      -6.112   1.531  -0.957  1.00  0.00    -0.095 Cl
HETATM   11 BR1  UNL     1      -3.949   3.575  -0.308  1.00  0.00    -0.056 Br
HETATM   12  C16 UNL     1      -4.138   1.004   0.850  1.00  0.00     0.156 C 
HETATM   13 CL2  UNL     1      -5.387  -0.105   1.332  1.00  0.00    -0.098 Cl
HETATM   14 CL3  UNL     1      -4.002   2.272   2.122  1.00  0.00    -0.098 Cl
ENDROOT
BRANCH   1  15
HETATM   15  C7  UNL     1       0.157  -0.719   0.747  1.00  0.00     0.241 C 
BRANCH  15  16
HETATM   16  N1  UNL     1       1.277  -1.159  -0.011  1.00  0.00    -0.070 N 
HETATM   17  C5  UNL     1       1.636  -0.427  -1.182  1.00  0.00     0.238 C 
HETATM   18  C4  UNL     1       2.096   0.981  -0.870  1.00  0.00     0.048 C 
HETATM   19  C2  UNL     1       3.277   0.989   0.042  1.00  0.00     0.048 C 
HETATM   20  C1  UNL     1       2.969   1.857   1.242  1.00  0.00     0.027 C 
HETATM   21  C18 UNL     1       3.595  -0.431   0.452  1.00  0.00     0.048 C 
HETATM   22  C17 UNL     1       2.419  -1.213   0.924  1.00  0.00     0.238 C 
HETATM   23  C6  UNL     1       1.050  -2.554  -0.463  1.00  0.00     0.272 C 
BRANCH  19  24
HETATM   24  C3  UNL     1       4.476   1.605  -0.609  1.00  0.00     0.181 C 
HETATM   25  O1  UNL     1       4.384   2.002  -1.790  1.00  0.00    -0.647 OA
HETATM   26  O2  UNL     1       5.678   1.750   0.051  1.00  0.00    -0.647 OA
ENDBRANCH  19  24
ENDBRANCH  15  16
ENDBRANCH   1  15
TORSDOF 3
