REMARK  2 active torsions:
REMARK  status: ('A' for Active; 'I' for Inactive)
REMARK    1  A    between atoms: C2_2  and  N1_4 
REMARK    2  A    between atoms: N1_4  and  C4_6 
ROOT
HETATM    1  C4  UNL     1       0.275  -0.048   0.413  1.00  0.00     0.026 C 
HETATM    2  C5  UNL     1      -0.181   0.674   1.637  1.00  0.00     0.031 C 
HETATM    3  C6  UNL     1      -1.583   1.016   1.789  1.00  0.00     0.007 C 
HETATM    4  C7  UNL     1      -2.521   0.772   0.652  1.00  0.00    -0.014 C 
HETATM    5  C8  UNL     1      -2.180   1.531  -0.592  1.00  0.00     0.009 C 
HETATM    6  C9  UNL     1      -1.242   0.753  -1.431  1.00  0.00    -0.012 C 
HETATM    7  C10 UNL     1      -1.689  -0.650  -1.735  1.00  0.00     0.009 C 
HETATM    8  C11 UNL     1      -1.737  -1.359  -0.397  1.00  0.00    -0.012 C 
HETATM    9  C12 UNL     1      -2.780  -0.689   0.438  1.00  0.00     0.009 C 
HETATM   10  C13 UNL     1      -0.433  -1.420   0.282  1.00  0.00     0.035 C 
HETATM   11  C14 UNL     1       0.155   0.727  -0.846  1.00  0.00     0.035 C 
ENDROOT
BRANCH   1  12
HETATM   12  N1  UNL     1       1.622  -0.460   0.709  1.00  0.00    -0.409 N 
ATOM     13  H1  UNL     1       1.878  -0.704   1.666  1.00  0.00     0.154 HD
BRANCH  12  14
HETATM   14  C2  UNL     1       2.589  -0.529  -0.311  1.00  0.00     0.069 C 
HETATM   15  C1  UNL     1       3.251   0.727  -0.745  1.00  0.00     0.031 C 
HETATM   16  C3  UNL     1       3.691  -1.431   0.215  1.00  0.00     0.031 C 
ENDBRANCH  12  14
ENDBRANCH   1  12
TORSDOF 2
