REMARK  2 active torsions:
REMARK  status: ('A' for Active; 'I' for Inactive)
REMARK    1  A    between atoms: C2_2  and  C3_3 
REMARK    2  A    between atoms: C6_11  and  C7_12 
ROOT
HETATM    1  C3  UNL     1      -1.479  -0.055  -0.693  1.00  0.00     0.089 C 
HETATM    2  N1  UNL     1      -1.087   0.698  -1.837  1.00  0.00    -0.375 N 
ATOM      3  H1  UNL     1      -1.591   0.593  -2.717  1.00  0.00     0.161 HD
HETATM    4  C4  UNL     1      -0.004   1.585  -1.747  1.00  0.00     0.071 C 
HETATM    5  N2  UNL     1       0.271   2.385  -2.707  1.00  0.00    -0.389 N 
ATOM      6  H21 UNL     1       1.058   3.030  -2.642  1.00  0.00     0.157 HD
ATOM      7  H22 UNL     1      -0.278   2.410  -3.566  1.00  0.00     0.157 HD
HETATM    8  C5  UNL     1       0.796   1.548  -0.494  1.00  0.00     0.085 C 
HETATM    9  C6  UNL     1       0.946   0.112  -0.027  1.00  0.00    -0.025 C 
HETATM   10  C9  UNL     1       1.925  -0.506  -1.038  1.00  0.00     0.036 C 
HETATM   11  C10 UNL     1       2.000  -1.967  -0.760  1.00  0.00     0.168 C 
HETATM   12  O1  UNL     1       0.750  -2.476  -1.079  1.00  0.00    -0.391 OA
HETATM   13  C11 UNL     1      -0.229  -2.116  -0.178  1.00  0.00     0.174 C 
HETATM   14  C12 UNL     1      -0.322  -0.637   0.085  1.00  0.00     0.041 C 
ENDROOT
BRANCH   1  15
HETATM   15  C2  UNL     1      -2.451   0.717   0.204  1.00  0.00     0.021 C 
HETATM   16  C1  UNL     1      -2.804  -0.175   1.389  1.00  0.00     0.007 C 
ENDBRANCH   1  15
BRANCH   9  17
HETATM   17  C7  UNL     1       1.727   0.173   1.280  1.00  0.00     0.006 C 
HETATM   18  C8  UNL     1       1.069   0.964   2.350  1.00  0.00     0.006 C 
ENDBRANCH   9  17
TORSDOF 2
