REMARK  4 active torsions:
REMARK  status: ('A' for Active; 'I' for Inactive)
REMARK    1  A    between atoms: O1_1  and  N1_3 
REMARK    2  A    between atoms: C1_5  and  N2_6 
REMARK    3  A    between atoms: C1_5  and  C8_14 
REMARK    4  A    between atoms: N2_6  and  C2_8 
ROOT
HETATM    1  N1  UNL     1      -1.270  -1.571  -1.053  1.00  0.00    -0.257 N 
ATOM      2  H1  UNL     1      -2.103  -1.470  -1.634  1.00  0.00     0.195 HD
HETATM    3  C1  UNL     1      -1.020  -0.696  -0.145  1.00  0.00     0.101 C 
ENDROOT
BRANCH   3   4
HETATM    4  N2  UNL     1       0.148  -0.861   0.647  1.00  0.00    -0.373 N 
ATOM      5  H2  UNL     1       0.063  -1.125   1.628  1.00  0.00     0.161 HD
BRANCH   4   6
HETATM    6  C2  UNL     1       1.428  -0.660   0.080  1.00  0.00     0.082 C 
HETATM    7  C3  UNL     1       2.570  -0.873   1.048  1.00  0.00     0.025 C 
HETATM    8  C4  UNL     1       3.824  -0.956   0.190  1.00  0.00     0.002 C 
HETATM    9  C5  UNL     1       4.065   0.377  -0.438  1.00  0.00     0.000 C 
HETATM   10  C6  UNL     1       2.892   0.995  -1.097  1.00  0.00     0.002 C 
HETATM   11  C7  UNL     1       1.576   0.761  -0.441  1.00  0.00     0.025 C 
ENDBRANCH   4   6
ENDBRANCH   3   4
BRANCH   3  12
HETATM   12  C8  UNL     1      -1.945   0.457   0.055  1.00  0.00     0.055 C 
HETATM   13  C9  UNL     1      -3.070   0.323  -0.945  1.00  0.00     0.012 C 
HETATM   14  C10 UNL     1      -4.291   0.873  -0.242  1.00  0.00     0.001 C 
HETATM   15  C11 UNL     1      -3.925   1.108   1.185  1.00  0.00     0.001 C 
HETATM   16  C12 UNL     1      -2.578   0.457   1.415  1.00  0.00     0.012 C 
ENDBRANCH   3  12
BRANCH   1  17
HETATM   17  O1  UNL     1      -0.444  -2.622  -1.248  1.00  0.00    -0.288 OA
ATOM     18  H1  UNL     1      -0.629  -3.269  -1.919  1.00  0.00     0.244 HD
ENDBRANCH   1  17
TORSDOF 4
