REMARK  3 active torsions:
REMARK  status: ('A' for Active; 'I' for Inactive)
REMARK    1  A    between atoms: C3_3  and  C4_4 
REMARK    2  A    between atoms: C4_4  and  N1_5 
REMARK    3  A    between atoms: N1_5  and  C5_7 
ROOT
HETATM    1  C5  UNL     1       0.628  -0.614   0.432  1.00  0.00     0.084 C 
HETATM    2  C6  UNL     1       1.533  -0.085   1.467  1.00  0.00     0.009 C 
HETATM    3  C7  UNL     1       1.922   1.349   1.115  1.00  0.00     0.011 C 
HETATM    4  C8  UNL     1       2.485   1.422  -0.263  1.00  0.00    -0.013 C 
HETATM    5  C9  UNL     1       3.804   0.631  -0.256  1.00  0.00     0.009 C 
HETATM    6  C10 UNL     1       3.522  -0.785   0.121  1.00  0.00    -0.013 C 
HETATM    7  C11 UNL     1       2.844  -0.853   1.471  1.00  0.00     0.011 C 
HETATM    8  C12 UNL     1       2.563  -1.452  -0.855  1.00  0.00     0.011 C 
HETATM    9  C13 UNL     1       1.349  -0.622  -0.944  1.00  0.00     0.009 C 
HETATM   10  C14 UNL     1       1.653   0.781  -1.341  1.00  0.00     0.011 C 
ENDROOT
BRANCH   1  11
HETATM   11  N1  UNL     1      -0.597  -0.001   0.167  1.00  0.00    -0.416 N 
ATOM     12  H1  UNL     1      -0.645   0.966  -0.154  1.00  0.00     0.153 HD
BRANCH  11  13
HETATM   13  C4  UNL     1      -1.764  -0.765   0.359  1.00  0.00     0.120 C 
BRANCH  13  14
HETATM   14  C3  UNL     1      -2.908  -0.215  -0.505  1.00  0.00     0.030 C 
HETATM   15  C2  UNL     1      -3.285   1.184  -0.188  1.00  0.00     0.035 C 
HETATM   16  C1  UNL     1      -4.799   1.062  -0.101  1.00  0.00     0.232 C 
HETATM   17  N2  UNL     1      -4.874  -0.189   0.674  1.00  0.00    -0.075 N 
HETATM   18  C15 UNL     1      -4.116  -1.078  -0.222  1.00  0.00     0.238 C 
ATOM     19  H22 UNL     1      -4.544  -0.139   1.638  1.00  0.00     0.277 HD
ATOM     20  H21 UNL     1      -5.811  -0.503   0.928  1.00  0.00     0.277 HD
ENDBRANCH  13  14
ENDBRANCH  11  13
ENDBRANCH   1  11
TORSDOF 3
