REMARK  4 active torsions:
REMARK  status: ('A' for Active; 'I' for Inactive)
REMARK    1  A    between atoms: C2_2  and  C4_4 
REMARK    2  A    between atoms: C4_4  and  N1_5 
REMARK    3  A    between atoms: C10_11  and  C11_12 
REMARK    4  A    between atoms: C11_12  and  N2_15 
ROOT
HETATM    1  N1  UNL     1       1.846  -0.084  -0.372  1.00  0.00     0.093 N 
HETATM    2  C5  UNL     1       1.508  -0.867   0.751  1.00  0.00     0.277 C 
HETATM    3  C6  UNL     1      -0.022  -0.826   0.893  1.00  0.00     0.020 C 
HETATM    4  C7  UNL     1      -0.419  -0.213   2.169  1.00  0.00     0.007 C 
HETATM    5  C8  UNL     1      -1.223   1.017   2.150  1.00  0.00     0.001 C 
HETATM    6  C9  UNL     1      -1.485   1.642   0.822  1.00  0.00     0.007 C 
HETATM    7  C10 UNL     1      -1.619   0.738  -0.336  1.00  0.00     0.027 C 
HETATM    8  C14 UNL     1      -0.535  -0.270  -0.361  1.00  0.00     0.026 C 
HETATM    9  C15 UNL     1       0.688   0.332  -1.069  1.00  0.00     0.278 C 
ENDROOT
BRANCH   7  10
HETATM   10  C11 UNL     1      -3.003   0.244  -0.646  1.00  0.00     0.120 C 
HETATM   11  C12 UNL     1      -3.692  -0.536   0.420  1.00  0.00     0.046 C 
HETATM   12  C13 UNL     1      -3.000  -0.679  -1.877  1.00  0.00     0.046 C 
BRANCH  10  13
HETATM   13  N2  UNL     1      -3.881   1.343  -1.019  1.00  0.00    -0.071 N 
ATOM     14  H23 UNL     1      -3.894   2.072  -0.306  1.00  0.00     0.275 HD
ATOM     15  H22 UNL     1      -3.495   1.887  -1.791  1.00  0.00     0.275 HD
ATOM     16  H21 UNL     1      -4.821   1.007  -1.230  1.00  0.00     0.275 HD
ENDBRANCH  10  13
ENDBRANCH   7  10
BRANCH   1  17
HETATM   17  C4  UNL     1       2.906  -0.621  -1.147  1.00  0.00     0.305 C 
BRANCH  17  18
HETATM   18  C2  UNL     1       4.180  -0.540  -0.398  1.00  0.00    -0.065 C 
HETATM   19  C1  UNL     1       4.897  -1.618  -0.086  1.00  0.00     0.015 C 
HETATM   20  C3  UNL     1       4.705   0.786   0.021  1.00  0.00     0.044 C 
ENDBRANCH  17  18
ENDBRANCH   1  17
TORSDOF 4
