REMARK  3 active torsions:
REMARK  status: ('A' for Active; 'I' for Inactive)
REMARK    1  A    between atoms: C2_3  and  C3_4 
REMARK    2  A    between atoms: C3_4  and  O1_5 
REMARK    3  A    between atoms: C3_4  and  C4_7 
ROOT
HETATM    1  N1  UNL     1       4.104   1.755  -0.269  1.00  0.00    -0.197 NA
HETATM    2  C1  UNL     1       3.619   0.791   0.184  1.00  0.00     0.061 C 
HETATM    3  C2  UNL     1       3.018  -0.405   0.773  1.00  0.00     0.155 C 
ENDROOT
BRANCH   3   4
HETATM    4  C3  UNL     1       1.874  -0.919  -0.090  1.00  0.00     0.136 C 
BRANCH   4   5
HETATM    5  O1  UNL     1       2.425  -1.220  -1.348  1.00  0.00    -0.394 OA
ATOM      6  H1  UNL     1       1.711  -1.541  -1.887  1.00  0.00     0.210 HD
ENDBRANCH   4   5
BRANCH   4   7
HETATM    7  C4  UNL     1       0.816   0.117  -0.308  1.00  0.00     0.023 C 
HETATM    8  C5  UNL     1       0.174   0.614   0.947  1.00  0.00    -0.007 C 
HETATM    9  C6  UNL     1      -0.663  -0.436   1.639  1.00  0.00     0.010 C 
HETATM   10  C10 UNL     1      -0.758   1.743   0.544  1.00  0.00     0.010 C 
HETATM   11  C7  UNL     1      -1.739  -0.936   0.720  1.00  0.00    -0.013 C 
HETATM   12  C8  UNL     1      -2.655   0.145   0.245  1.00  0.00     0.009 C 
HETATM   13  C13 UNL     1      -1.052  -1.527  -0.505  1.00  0.00     0.010 C 
HETATM   14  C9  UNL     1      -1.816   1.222  -0.411  1.00  0.00    -0.013 C 
HETATM   15  C11 UNL     1      -1.157   0.652  -1.644  1.00  0.00     0.010 C 
HETATM   16  C12 UNL     1      -0.249  -0.470  -1.189  1.00  0.00    -0.007 C 
ENDBRANCH   4   7
ENDBRANCH   3   4
TORSDOF 3
