REMARK  2 active torsions:
REMARK  status: ('A' for Active; 'I' for Inactive)
REMARK    1  A    between atoms: N1_2  and  C3_4 
REMARK    2  A    between atoms: C3_4  and  C4_5 
ROOT
HETATM    1  C4  UNL     1       0.683  -0.290   0.334  1.00  0.00     0.018 C 
HETATM    2  C5  UNL     1       0.050  -0.592  -0.977  1.00  0.00     0.036 C 
HETATM    3  C6  UNL     1      -1.409  -0.455  -1.073  1.00  0.00     0.019 C 
HETATM    4  C7  UNL     1      -1.797   0.621  -2.107  1.00  0.00     0.037 C 
HETATM    5  C8  UNL     1      -2.021  -1.748  -1.659  1.00  0.00     0.037 C 
HETATM    6  N2  UNL     1      -2.160  -0.178   0.062  1.00  0.00    -0.405 N 
ATOM      7  H2  UNL     1      -3.176  -0.207  -0.019  1.00  0.00     0.154 HD
HETATM    8  C9  UNL     1      -1.617   0.136   1.299  1.00  0.00     0.019 C 
HETATM    9  C10 UNL     1      -2.245   1.480   1.724  1.00  0.00     0.037 C 
HETATM   10  C11 UNL     1      -2.183  -0.884   2.305  1.00  0.00     0.037 C 
HETATM   11  C12 UNL     1      -0.146   0.200   1.437  1.00  0.00     0.036 C 
ENDROOT
BRANCH   1  12
HETATM   12  C3  UNL     1       1.835   0.669   0.099  1.00  0.00     0.276 C 
BRANCH  12  13
HETATM   13  N1  UNL     1       2.867   0.114  -0.768  1.00  0.00     0.080 N 
HETATM   14  C1  UNL     1       3.785   1.222  -1.133  1.00  0.00     0.309 C 
HETATM   15  C2  UNL     1       3.709  -0.734   0.123  1.00  0.00     0.309 C 
ENDBRANCH  12  13
ENDBRANCH   1  12
TORSDOF 2
