REMARK  2 active torsions:
REMARK  status: ('A' for Active; 'I' for Inactive)
REMARK    1  A    between atoms: N1_2  and  C2_4 
REMARK    2  A    between atoms: C2_4  and  C3_5 
ROOT
HETATM    1  C3  UNL     1       1.616   0.457   0.085  1.00  0.00     0.140 C 
HETATM    2  C4  UNL     1       1.492  -0.871  -0.655  1.00  0.00     0.036 C 
HETATM    3  C5  UNL     1       0.327  -1.498   0.091  1.00  0.00     0.040 C 
HETATM    4  C6  UNL     1      -0.513  -0.230   0.348  1.00  0.00     0.061 C 
HETATM    5  C7  UNL     1      -1.532  -0.624   1.368  1.00  0.00     0.038 C 
HETATM    6  C8  UNL     1      -2.650  -1.349   0.689  1.00  0.00     0.003 C 
HETATM    7  C9  UNL     1      -3.736  -0.397   0.275  1.00  0.00     0.000 C 
HETATM    8  C10 UNL     1      -3.241   0.985   0.008  1.00  0.00     0.000 C 
HETATM    9  C11 UNL     1      -2.191   1.102  -1.018  1.00  0.00     0.003 C 
HETATM   10  C12 UNL     1      -1.040   0.204  -0.960  1.00  0.00     0.038 C 
HETATM   11  O1  UNL     1       0.465   0.607   0.827  1.00  0.00    -0.373 OA
ENDROOT
BRANCH   1  12
HETATM   12  C2  UNL     1       2.835   0.336   0.979  1.00  0.00     0.145 C 
BRANCH  12  13
HETATM   13  N1  UNL     1       4.065   0.186   0.279  1.00  0.00    -0.423 N 
HETATM   14  C1  UNL     1       4.500   1.325  -0.463  1.00  0.00     0.139 C 
ATOM     15  H1  UNL     1       4.602  -0.681   0.306  1.00  0.00     0.152 HD
ENDBRANCH  12  13
ENDBRANCH   1  12
TORSDOF 2
