REMARK  6 active torsions:
REMARK  status: ('A' for Active; 'I' for Inactive)
REMARK    1  A    between atoms: C4_6  and  N2_7 
REMARK    2  A    between atoms: N2_7  and  S1_9 
REMARK    3  A    between atoms: S1_9  and  C5_12 
REMARK    4  A    between atoms: C5_12  and  C6_13 
REMARK    5  A    between atoms: C12_23  and  N3_24 
REMARK       I    between atoms: N3_24  and  C13_26 
REMARK    6  A    between atoms: C13_26  and  C14_28 
ROOT
HETATM    1  C1  UNL     1      -2.294   3.893  -2.388  1.00  0.00     0.069 C 
HETATM    2  C2  UNL     1      -1.738   2.859  -1.456  1.00  0.00     0.022 A 
HETATM    3  C3  UNL     1      -0.533   3.123  -0.860  1.00  0.00     0.114 A 
HETATM    4  N1  UNL     1       0.022   2.119  -0.125  1.00  0.00    -0.347 N 
ATOM      5  H1  UNL     1       0.921   2.285   0.328  1.00  0.00     0.167 HD
HETATM    6  C4  UNL     1      -0.548   0.952   0.024  1.00  0.00     0.159 A 
HETATM    7  C12 UNL     1      -1.824   0.662  -0.582  1.00  0.00     0.153 A 
HETATM    8  N4  UNL     1      -2.347   1.653  -1.302  1.00  0.00    -0.342 N 
ATOM      9  H4  UNL     1      -3.246   1.500  -1.759  1.00  0.00     0.167 HD
ENDROOT
BRANCH   6  10
HETATM   10  N2  UNL     1       0.025  -0.085   0.397  1.00  0.00    -0.266 N 
ATOM     11  H2  UNL     1      -0.679  -0.822   0.433  1.00  0.00     0.180 HD
BRANCH  10  12
HETATM   12  S1  UNL     1       1.430  -0.744   0.849  1.00  0.00     0.236 S 
HETATM   13  O1  UNL     1       1.252  -1.220   2.345  1.00  0.00    -0.205 OA
HETATM   14  O2  UNL     1       1.814  -1.966   0.073  1.00  0.00    -0.205 OA
BRANCH  12  15
HETATM   15  C5  UNL     1       2.805   0.444   0.918  1.00  0.00     0.208 C 
BRANCH  15  16
HETATM   16  C6  UNL     1       4.042  -0.399   0.756  1.00  0.00     0.041 A 
HETATM   17  C7  UNL     1       4.854  -0.718   1.775  1.00  0.00     0.165 A 
HETATM   18  F1  UNL     1       4.492  -0.490   3.071  1.00  0.00    -0.202 F 
HETATM   19  C8  UNL     1       6.095  -1.353   1.501  1.00  0.00     0.158 A 
HETATM   20  F2  UNL     1       6.887  -1.692   2.508  1.00  0.00    -0.203 F 
HETATM   21  C9  UNL     1       6.440  -1.641   0.158  1.00  0.00     0.090 A 
HETATM   22  C10 UNL     1       5.545  -1.284  -0.839  1.00  0.00     0.158 A 
HETATM   23  F3  UNL     1       5.867  -1.527  -2.128  1.00  0.00    -0.203 F 
HETATM   24  C11 UNL     1       4.359  -0.673  -0.589  1.00  0.00     0.165 A 
HETATM   25  F4  UNL     1       3.469  -0.280  -1.578  1.00  0.00    -0.202 F 
ENDBRANCH  15  16
ENDBRANCH  12  15
ENDBRANCH  10  12
ENDBRANCH   6  10
BRANCH   7  26
HETATM   26  N3  UNL     1      -2.275  -0.495  -0.382  1.00  0.00    -0.310 N 
HETATM   27  C13 UNL     1      -3.389  -1.207  -0.735  1.00  0.00     0.226 C 
HETATM   28  O3  UNL     1      -3.525  -1.595  -1.926  1.00  0.00    -0.273 OA
ATOM     29  H3  UNL     1      -1.643  -1.049   0.196  1.00  0.00     0.170 HD
BRANCH  27  30
HETATM   30  C14 UNL     1      -4.495  -1.585   0.220  1.00  0.00     0.070 C 
HETATM   31  C15 UNL     1      -4.394  -3.044   0.561  1.00  0.00     0.019 C 
HETATM   32  C16 UNL     1      -4.234  -0.781   1.483  1.00  0.00     0.019 C 
ENDBRANCH  27  30
ENDBRANCH   7  26
TORSDOF 6
