REMARK  7 active torsions:
REMARK  status: ('A' for Active; 'I' for Inactive)
REMARK    1  A    between atoms: C5_7  and  C6_8 
REMARK    2  A    between atoms: C6_8  and  C7_9 
REMARK    3  A    between atoms: C7_9  and  N2_10 
REMARK    4  A    between atoms: C7_9  and  C8_14 
REMARK    5  A    between atoms: C8_14  and  C9_15 
REMARK    6  A    between atoms: C10_16  and  S1_17 
REMARK    7  A    between atoms: N3_28  and  O3_29 
ROOT
HETATM    1  C7  UNL     1      -1.687   1.867   0.162  1.00  0.00     0.195 C 
ENDROOT
BRANCH   1   2
HETATM    2  C6  UNL     1      -0.766   1.397   1.168  1.00  0.00     0.112 C 
BRANCH   2   3
HETATM    3  C5  UNL     1       0.529   0.850   0.677  1.00  0.00     0.112 A 
HETATM    4  N1  UNL     1       1.018   0.704  -0.549  1.00  0.00    -0.342 N 
HETATM    5  C4  UNL     1       2.248   0.161  -0.498  1.00  0.00     0.063 A 
ATOM      6  H1  UNL     1       0.531   0.966  -1.406  1.00  0.00     0.167 HD
HETATM    7  C3  UNL     1       3.135  -0.171  -1.511  1.00  0.00     0.039 A 
HETATM    8  C15 UNL     1       2.538  -0.042   0.833  1.00  0.00     0.091 A 
HETATM    9  C2  UNL     1       4.345  -0.724  -1.122  1.00  0.00    -0.054 A 
HETATM   10  C1  UNL     1       5.314  -1.087  -2.188  1.00  0.00     0.049 C 
HETATM   11  C17 UNL     1       4.652  -0.933   0.203  1.00  0.00    -0.054 A 
HETATM   12  C16 UNL     1       3.749  -0.594   1.203  1.00  0.00     0.041 A 
HETATM   13  C18 UNL     1       5.971  -1.528   0.529  1.00  0.00     0.049 C 
HETATM   14  N3  UNL     1       1.471   0.389   1.519  1.00  0.00    -0.210 N 
BRANCH  14  15
HETATM   15  O3  UNL     1       1.391   0.346   2.909  1.00  0.00    -0.281 OA
ATOM     16  H3  UNL     1       2.056   0.020   3.504  1.00  0.00     0.245 HD
ENDBRANCH  14  15
ENDBRANCH   2   3
ENDBRANCH   1   2
BRANCH   1  17
HETATM   17  N2  UNL     1      -1.039   2.898  -0.676  1.00  0.00    -0.074 N 
ATOM     18  H23 UNL     1      -0.661   3.663  -0.117  1.00  0.00     0.274 HD
ATOM     19  H22 UNL     1      -0.165   2.565  -1.084  1.00  0.00     0.274 HD
ATOM     20  H21 UNL     1      -1.690   3.230  -1.387  1.00  0.00     0.274 HD
ENDBRANCH   1  17
BRANCH   1  21
HETATM   21  C8  UNL     1      -2.630   1.080  -0.620  1.00  0.00     0.076 C 
BRANCH  21  22
HETATM   22  C9  UNL     1      -3.713   0.358   0.034  1.00  0.00     0.010 A 
HETATM   23  C10 UNL     1      -3.721  -0.975   0.281  1.00  0.00     0.103 A 
HETATM   24  C11 UNL     1      -4.833  -1.468   1.008  1.00  0.00     0.072 A 
HETATM   25  C12 UNL     1      -5.851  -0.670   1.443  1.00  0.00     0.159 A 
HETATM   26  F2  UNL     1      -6.916  -1.147   2.139  1.00  0.00    -0.203 F 
HETATM   27  C13 UNL     1      -5.804   0.672   1.167  1.00  0.00     0.193 A 
HETATM   28  F3  UNL     1      -6.821   1.489   1.594  1.00  0.00    -0.200 F 
HETATM   29  C14 UNL     1      -4.763   1.210   0.474  1.00  0.00     0.166 A 
HETATM   30  F4  UNL     1      -4.766   2.533   0.219  1.00  0.00    -0.202 F 
BRANCH  23  31
HETATM   31  S1  UNL     1      -2.547  -2.143  -0.280  1.00  0.00     0.333 S 
HETATM   32  O1  UNL     1      -3.163  -3.535  -0.139  1.00  0.00    -0.189 OA
HETATM   33  O2  UNL     1      -2.413  -2.004  -1.812  1.00  0.00    -0.189 OA
HETATM   34  F1  UNL     1      -1.077  -2.106   0.399  1.00  0.00    -0.100 F 
ENDBRANCH  23  31
ENDBRANCH  21  22
ENDBRANCH   1  21
TORSDOF 7
