REMARK  5 active torsions:
REMARK  status: ('A' for Active; 'I' for Inactive)
REMARK    1  A    between atoms: C3_3  and  N1_4 
REMARK    2  A    between atoms: C3_3  and  C15_23 
REMARK       I    between atoms: N1_4  and  C4_6 
REMARK       I    between atoms: C4_6  and  N2_8 
REMARK    3  A    between atoms: C8_13  and  C9_14 
REMARK    4  A    between atoms: C9_14  and  N3_15 
REMARK    5  A    between atoms: C15_23  and  O2_24 
ROOT
HETATM    1  C1  UNL     1       2.769   0.602   3.648  1.00  0.00     0.014 C 
HETATM    2  C2  UNL     1       2.758   0.415   2.443  1.00  0.00    -0.089 C 
HETATM    3  C3  UNL     1       2.753   0.213   0.989  1.00  0.00     0.201 C 
ENDROOT
BRANCH   3   4
HETATM    4  N1  UNL     1       1.424  -0.119   0.530  1.00  0.00    -0.325 N 
HETATM    5  C4  UNL     1       1.214  -1.341  -0.169  1.00  0.00     0.319 C 
HETATM    6  O1  UNL     1       2.152  -2.148  -0.403  1.00  0.00    -0.247 OA
HETATM    7  N2  UNL     1      -0.078  -1.663  -0.617  1.00  0.00    -0.325 N 
HETATM    8  C5  UNL     1      -0.457  -2.851  -1.332  1.00  0.00     0.165 C 
HETATM    9  C8  UNL     1      -1.315  -0.904  -0.474  1.00  0.00     0.120 C 
HETATM   10  C6  UNL     1      -1.321  -2.332  -2.445  1.00  0.00     0.190 C 
HETATM   11  F1  UNL     1      -0.637  -2.162  -3.634  1.00  0.00    -0.248 F 
HETATM   12  C7  UNL     1      -1.888  -1.045  -1.899  1.00  0.00     0.066 C 
ATOM     13  H1  UNL     1       0.645   0.515   0.705  1.00  0.00     0.165 HD
BRANCH   9  14
HETATM   14  C9  UNL     1      -2.242  -1.531   0.521  1.00  0.00     0.305 C 
BRANCH  14  15
HETATM   15  N3  UNL     1      -3.440  -0.783   0.648  1.00  0.00     0.162 N 
HETATM   16  C10 UNL     1      -4.463  -1.574   1.382  1.00  0.00     0.280 C 
HETATM   17  C11 UNL     1      -5.777  -0.945   1.059  1.00  0.00     0.031 C 
HETATM   18  C12 UNL     1      -5.861   0.528   1.285  1.00  0.00     0.009 C 
HETATM   19  C13 UNL     1      -4.578   1.259   0.987  1.00  0.00     0.114 C 
HETATM   20  C14 UNL     1      -3.367   0.427   1.444  1.00  0.00     0.437 C 
HETATM   21  F2  UNL     1      -2.259   1.158   1.320  1.00  0.00    -0.172 F 
HETATM   22  F3  UNL     1      -3.583   0.182   2.798  1.00  0.00    -0.172 F 
ENDBRANCH  14  15
ENDBRANCH   9  14
ENDBRANCH   3   4
BRANCH   3  23
HETATM   23  C15 UNL     1       3.275   1.489   0.366  1.00  0.00     0.117 C 
HETATM   24  C16 UNL     1       4.660   1.719   0.921  1.00  0.00     0.073 C 
HETATM   25  C17 UNL     1       5.510   0.863   0.012  1.00  0.00     0.275 C 
HETATM   26  N4  UNL     1       4.952   1.176  -1.290  1.00  0.00     0.087 N 
HETATM   27  C18 UNL     1       5.499   2.448  -1.734  1.00  0.00     0.310 C 
HETATM   28  C19 UNL     1       3.529   1.348  -1.105  1.00  0.00     0.312 C 
BRANCH  23  29
HETATM   29  O2  UNL     1       2.473   2.584   0.660  1.00  0.00    -0.385 OA
ATOM     30  H2  UNL     1       2.801   3.385   0.269  1.00  0.00     0.210 HD
ENDBRANCH  23  29
ENDBRANCH   3  23
TORSDOF 5
