REMARK  3 active torsions:
REMARK  status: ('A' for Active; 'I' for Inactive)
REMARK    1  A    between atoms: C7_7  and  C9_9 
REMARK    2  A    between atoms: C9_9  and  N1_10 
REMARK    3  A    between atoms: N2_15  and  O1_16 
ROOT
HETATM    1  N1  UNL     1       1.321  -0.239  -0.236  1.00  0.00    -0.373 N 
HETATM    2  C10 UNL     1       1.925  -1.067   0.736  1.00  0.00     0.129 C 
HETATM    3  C11 UNL     1       3.430  -0.899   0.492  1.00  0.00     0.022 C 
HETATM    4  C12 UNL     1       3.382  -0.706  -1.034  1.00  0.00     0.051 C 
HETATM    5  C13 UNL     1       2.361   0.451  -0.932  1.00  0.00     0.184 C 
HETATM    6  N2  UNL     1       3.130   1.329  -0.068  1.00  0.00    -0.176 NA
HETATM    7  C14 UNL     1       3.784   0.481   0.905  1.00  0.00     0.129 C 
ENDROOT
BRANCH   1   8
HETATM    8  C9  UNL     1       0.127   0.421  -0.015  1.00  0.00     0.070 C 
BRANCH   8   9
HETATM    9  C7  UNL     1      -1.076  -0.451   0.033  1.00  0.00    -0.005 C 
HETATM   10  C2  UNL     1      -2.347   0.320   0.266  1.00  0.00    -0.036 C 
HETATM   11  C1  UNL     1      -3.472  -0.463   0.883  1.00  0.00     0.016 C 
HETATM   12  C3  UNL     1      -2.130   1.543   1.130  1.00  0.00     0.016 C 
HETATM   13  C4  UNL     1      -2.791   0.829  -1.103  1.00  0.00     0.010 C 
HETATM   14  C5  UNL     1      -1.911   0.154  -2.103  1.00  0.00     0.002 C 
HETATM   15  C6  UNL     1      -1.325  -1.007  -1.382  1.00  0.00     0.015 C 
HETATM   16  C8  UNL     1      -0.978  -1.664   0.915  1.00  0.00     0.021 C 
ENDBRANCH   8   9
ENDBRANCH   1   8
BRANCH   6  17
HETATM   17  O1  UNL     1       2.407   2.253   0.554  1.00  0.00    -0.311 OA
ATOM     18  H1  UNL     1       2.910   2.827   1.119  1.00  0.00     0.237 HD
ENDBRANCH   6  17
TORSDOF 3
