REMARK  3 active torsions:
REMARK  status: ('A' for Active; 'I' for Inactive)
REMARK    1  A    between atoms: C2_2  and  N1_3 
REMARK    2  A    between atoms: C14_15  and  C15_16 
REMARK    3  A    between atoms: C15_16  and  O1_17 
ROOT
HETATM    1  N1  UNL     1       1.359  -0.496  -0.286  1.00  0.00     0.098 N 
HETATM    2  C3  UNL     1       1.213  -0.987   1.099  1.00  0.00     0.274 C 
HETATM    3  C4  UNL     1      -0.083  -1.558   1.478  1.00  0.00     0.039 C 
HETATM    4  C5  UNL     1      -1.279  -1.287   0.624  1.00  0.00     0.018 C 
HETATM    5  C6  UNL     1      -2.379  -0.484   1.148  1.00  0.00    -0.025 C 
HETATM    6  C7  UNL     1      -2.471   0.962   1.081  1.00  0.00    -0.029 C 
HETATM    7  C8  UNL     1      -2.179   1.736  -0.154  1.00  0.00     0.036 C 
HETATM    8  C9  UNL     1      -0.754   1.991  -0.440  1.00  0.00    -0.028 A 
HETATM    9  C10 UNL     1       0.183   2.761   0.309  1.00  0.00     0.018 A 
HETATM   10  C11 UNL     1       0.035   1.240   0.518  1.00  0.00     0.034 A 
HETATM   11  C12 UNL     1       0.179   0.236  -0.536  1.00  0.00     0.171 C 
HETATM   12  C13 UNL     1      -0.098   1.203  -1.570  1.00  0.00     0.053 C 
HETATM   13  C14 UNL     1      -0.850  -0.841  -0.720  1.00  0.00     0.056 C 
ENDROOT
BRANCH  13  14
HETATM   14  C15 UNL     1      -0.232  -2.019  -1.482  1.00  0.00     0.172 C 
BRANCH  14  15
HETATM   15  O1  UNL     1       0.159  -1.551  -2.742  1.00  0.00    -0.400 OA
ATOM     16  H1  UNL     1       0.542  -2.281  -3.214  1.00  0.00     0.209 HD
ENDBRANCH  14  15
ENDBRANCH  13  14
BRANCH   1  17
HETATM   17  C2  UNL     1       2.574   0.270  -0.356  1.00  0.00     0.269 C 
HETATM   18  C1  UNL     1       3.810  -0.558  -0.195  1.00  0.00     0.037 C 
ENDBRANCH   1  17
TORSDOF 3
