REMARK  3 active torsions:
REMARK  status: ('A' for Active; 'I' for Inactive)
REMARK    1  A    between atoms: C2_2  and  C3_3 
REMARK    2  A    between atoms: C3_3  and  N1_5 
REMARK    3  A    between atoms: N1_5  and  C4_7 
ROOT
HETATM    1  C4  UNL     1       0.360  -0.047   0.135  1.00  0.00     0.097 C 
HETATM    2  C5  UNL     1       0.100   0.222  -1.293  1.00  0.00     0.038 C 
HETATM    3  C6  UNL     1      -0.862  -0.763  -1.929  1.00  0.00     0.014 C 
HETATM    4  C7  UNL     1      -2.159  -0.708  -1.197  1.00  0.00     0.015 C 
HETATM    5  C8  UNL     1      -2.742   0.681  -1.186  1.00  0.00     0.277 C 
HETATM    6  N2  UNL     1      -1.808   1.621  -0.606  1.00  0.00     0.090 N 
HETATM    7  C9  UNL     1      -0.604   1.588  -1.372  1.00  0.00     0.279 C 
HETATM    8  C10 UNL     1      -1.610   1.266   0.781  1.00  0.00     0.283 C 
HETATM    9  C11 UNL     1      -0.988  -0.103   0.852  1.00  0.00     0.004 C 
HETATM   10  C12 UNL     1      -0.716  -0.510   2.282  1.00  0.00     0.019 C 
HETATM   11  C13 UNL     1      -1.911  -1.109   0.237  1.00  0.00     0.019 C 
ENDROOT
BRANCH   1  12
HETATM   12  N1  UNL     1       1.198  -1.150   0.464  1.00  0.00    -0.379 N 
ATOM     13  H1  UNL     1       0.732  -1.901   0.972  1.00  0.00     0.160 HD
BRANCH  12  14
HETATM   14  C3  UNL     1       2.542  -1.372   0.208  1.00  0.00     0.073 C 
HETATM   15  S1  UNL     1       3.227  -2.765   0.723  1.00  0.00    -0.066 SA
BRANCH  14  16
HETATM   16  C2  UNL     1       3.410  -0.420  -0.511  1.00  0.00     0.065 C 
HETATM   17  C1  UNL     1       3.460   0.954   0.120  1.00  0.00     0.012 C 
ENDBRANCH  14  16
ENDBRANCH  12  14
ENDBRANCH   1  12
TORSDOF 3
