REMARK  1 active torsions:
REMARK  status: ('A' for Active; 'I' for Inactive)
REMARK    1  A    between atoms: C10_13  and  N2_14 
ROOT
HETATM    1  C1  UNL     1       0.372   2.425  -1.067  1.00  0.00     0.013 C 
HETATM    2  C2  UNL     1       0.500   1.557   0.095  1.00  0.00     0.026 C 
HETATM    3  C3  UNL     1      -0.778   1.293   0.905  1.00  0.00     0.004 C 
HETATM    4  C4  UNL     1      -1.975   1.341   0.094  1.00  0.00     0.039 C 
HETATM    5  C5  UNL     1      -2.286   0.218  -0.819  1.00  0.00     0.191 C 
HETATM    6  N1  UNL     1      -2.892  -0.927  -0.113  1.00  0.00    -0.066 N 
ATOM      7  H11 UNL     1      -3.644  -1.410  -0.605  1.00  0.00     0.278 HD
ATOM      8  H12 UNL     1      -3.465  -0.700   0.700  1.00  0.00     0.278 HD
HETATM    9  C6  UNL     1      -1.691  -1.711   0.149  1.00  0.00     0.192 C 
HETATM   10  C7  UNL     1      -1.068  -1.161   1.384  1.00  0.00     0.045 C 
HETATM   11  C8  UNL     1      -0.177  -0.021   1.229  1.00  0.00    -0.001 C 
HETATM   12  C9  UNL     1       0.760   0.111   2.440  1.00  0.00     0.018 C 
HETATM   13  C10 UNL     1       0.625   0.079  -0.024  1.00  0.00     0.174 C 
HETATM   14  C13 UNL     1       0.086  -0.552  -1.220  1.00  0.00     0.038 A 
HETATM   15  C14 UNL     1      -1.245  -0.301  -1.688  1.00  0.00     0.030 A 
HETATM   16  C15 UNL     1      -0.876  -1.648  -1.075  1.00  0.00     0.030 A 
ENDROOT
BRANCH  13  17
HETATM   17  N2  UNL     1       2.044  -0.267   0.174  1.00  0.00     0.091 N 
HETATM   18  C11 UNL     1       2.255  -1.671   0.331  1.00  0.00     0.310 C 
HETATM   19  C12 UNL     1       2.854   0.222  -0.916  1.00  0.00     0.310 C 
ENDBRANCH  13  17
TORSDOF 1
