REMARK  4 active torsions:
REMARK  status: ('A' for Active; 'I' for Inactive)
REMARK    1  A    between atoms: C2_2  and  C3_3 
REMARK    2  A    between atoms: C2_2  and  N2_6 
REMARK    3  A    between atoms: N2_6  and  C5_8 
REMARK    4  A    between atoms: C5_8  and  N3_10 
ROOT
HETATM    1  C3  UNL     1       3.502  -0.049  -0.602  1.00  0.00     0.148 C 
HETATM    2  C4  UNL     1       3.183   1.140  -1.342  1.00  0.00     0.061 C 
HETATM    3  N1  UNL     1       2.946   2.101  -1.971  1.00  0.00    -0.197 NA
ENDROOT
BRANCH   1   4
HETATM    4  C2  UNL     1       2.761  -0.154   0.738  1.00  0.00     0.092 C 
HETATM    5  C1  UNL     1       3.301  -1.508   1.301  1.00  0.00     0.033 C 
BRANCH   4   6
HETATM    6  N2  UNL     1       1.351  -0.387   0.551  1.00  0.00    -0.362 N 
ATOM      7  H2  UNL     1       1.053  -1.338   0.335  1.00  0.00     0.162 HD
BRANCH   6   8
HETATM    8  C5  UNL     1       0.363   0.596   0.644  1.00  0.00     0.170 C 
HETATM    9  S1  UNL     1       0.798   2.116   1.071  1.00  0.00    -0.041 SA
BRANCH   8  10
HETATM   10  N3  UNL     1      -1.032   0.281   0.416  1.00  0.00    -0.350 N 
HETATM   11  C6  UNL     1      -2.145   1.172   0.478  1.00  0.00     0.083 C 
HETATM   12  C7  UNL     1      -1.834   2.561  -0.024  1.00  0.00     0.032 C 
HETATM   13  C8  UNL     1      -3.252   0.520  -0.264  1.00  0.00     0.027 C 
HETATM   14  C9  UNL     1      -2.998  -0.955   0.089  1.00  0.00     0.027 C 
HETATM   15  C10 UNL     1      -1.482  -1.038   0.088  1.00  0.00     0.083 C 
HETATM   16  C11 UNL     1      -1.058  -1.480  -1.292  1.00  0.00     0.032 C 
ENDBRANCH   8  10
ENDBRANCH   6   8
ENDBRANCH   4   6
ENDBRANCH   1   4
TORSDOF 4
