REMARK  2 active torsions:
REMARK  status: ('A' for Active; 'I' for Inactive)
REMARK    1  A    between atoms: C2_3  and  N2_4 
REMARK       I    between atoms: N2_4  and  C3_6 
REMARK    2  A    between atoms: C3_6  and  C4_8 
ROOT
HETATM    1  N1  UNL     1       4.135   1.589   1.461  1.00  0.00    -0.195 NA
HETATM    2  C1  UNL     1       3.706   0.773   0.749  1.00  0.00     0.091 C 
HETATM    3  C2  UNL     1       3.181  -0.249  -0.168  1.00  0.00     0.122 C 
HETATM    4  C14 UNL     1       4.075  -1.448  -0.228  1.00  0.00     0.047 C 
HETATM    5  C15 UNL     1       4.915  -0.670  -1.247  1.00  0.00     0.007 C 
HETATM    6  C16 UNL     1       3.612   0.057  -1.608  1.00  0.00     0.047 C 
ENDROOT
BRANCH   3   7
HETATM    7  N2  UNL     1       1.788  -0.475  -0.015  1.00  0.00    -0.338 N 
HETATM    8  C3  UNL     1       0.869   0.582  -0.215  1.00  0.00     0.227 C 
HETATM    9  O1  UNL     1       1.289   1.747  -0.536  1.00  0.00    -0.273 OA
ATOM     10  H2  UNL     1       1.448  -1.402   0.240  1.00  0.00     0.164 HD
BRANCH   8  11
HETATM   11  C4  UNL     1      -0.608   0.360  -0.057  1.00  0.00     0.042 C 
HETATM   12  C5  UNL     1      -1.108  -0.686  -1.014  1.00  0.00     0.024 C 
HETATM   13  C6  UNL     1      -2.595  -0.812  -0.831  1.00  0.00    -0.013 C 
HETATM   14  C7  UNL     1      -3.337   0.469  -1.065  1.00  0.00     0.009 C 
HETATM   15  C11 UNL     1      -2.940  -1.280   0.579  1.00  0.00     0.009 C 
HETATM   16  C8  UNL     1      -2.802   1.513  -0.080  1.00  0.00    -0.013 C 
HETATM   17  C9  UNL     1      -2.997   1.039   1.343  1.00  0.00     0.009 C 
HETATM   18  C13 UNL     1      -1.335   1.640  -0.332  1.00  0.00     0.024 C 
HETATM   19  C10 UNL     1      -2.354  -0.312   1.556  1.00  0.00    -0.013 C 
HETATM   20  C12 UNL     1      -0.866  -0.153   1.348  1.00  0.00     0.024 C 
ENDBRANCH   8  11
ENDBRANCH   3   7
TORSDOF 2
