REMARK  3 active torsions:
REMARK  status: ('A' for Active; 'I' for Inactive)
REMARK    1  A    between atoms: O1_1  and  C1_3 
REMARK    2  A    between atoms: N1_6  and  C4_7 
REMARK    3  A    between atoms: C4_7  and  C5_8 
ROOT
HETATM    1  C5  UNL     1      -0.787  -0.059   0.277  1.00  0.00    -0.007 C 
HETATM    2  C6  UNL     1      -1.279  -1.173  -0.618  1.00  0.00     0.019 C 
HETATM    3  C7  UNL     1      -2.742  -1.056  -0.864  1.00  0.00    -0.013 C 
HETATM    4  C8  UNL     1      -3.573  -1.082   0.391  1.00  0.00     0.009 C 
HETATM    5  C9  UNL     1      -3.107   0.045   1.268  1.00  0.00    -0.013 C 
HETATM    6  C10 UNL     1      -3.303   1.411   0.615  1.00  0.00     0.009 C 
HETATM    7  C11 UNL     1      -2.553   1.368  -0.688  1.00  0.00    -0.013 C 
HETATM    8  C12 UNL     1      -3.055   0.240  -1.564  1.00  0.00     0.009 C 
HETATM    9  C13 UNL     1      -1.071   1.236  -0.404  1.00  0.00     0.019 C 
HETATM   10  C14 UNL     1      -1.652  -0.134   1.547  1.00  0.00     0.019 C 
ENDROOT
BRANCH   1  11
HETATM   11  C4  UNL     1       0.604  -0.250   0.765  1.00  0.00     0.072 C 
BRANCH  11  12
HETATM   12  N1  UNL     1       1.651  -0.345  -0.158  1.00  0.00    -0.373 N 
HETATM   13  C3  UNL     1       2.059   0.761  -0.907  1.00  0.00     0.065 C 
HETATM   14  C2  UNL     1       3.534   1.085  -0.862  1.00  0.00     0.076 C 
HETATM   15  C1  UNL     1       4.442  -0.092  -0.844  1.00  0.00     0.124 C 
HETATM   16  C16 UNL     1       3.970  -1.073   0.176  1.00  0.00     0.052 C 
HETATM   17  C15 UNL     1       2.523  -1.441   0.014  1.00  0.00     0.129 C 
BRANCH  15  18
HETATM   18  O1  UNL     1       5.703   0.377  -0.395  1.00  0.00    -0.395 OA
ATOM     19  H1  UNL     1       6.283  -0.375  -0.383  1.00  0.00     0.210 HD
ENDBRANCH  15  18
ENDBRANCH  11  12
ENDBRANCH   1  11
TORSDOF 3
