REMARK  4 active torsions:
REMARK  status: ('A' for Active; 'I' for Inactive)
REMARK    1  A    between atoms: C8_8  and  N1_9 
REMARK    2  A    between atoms: N2_12  and  C11_13 
REMARK    3  A    between atoms: C11_13  and  C12_14 
REMARK    4  A    between atoms: C12_14  and  O1_15 
ROOT
HETATM    1  N1  UNL     1       0.176   0.413   0.492  1.00  0.00    -0.404 N 
HETATM    2  C9  UNL     1       0.830   1.500  -0.127  1.00  0.00     0.147 C 
HETATM    3  C10 UNL     1       1.932   0.977  -1.026  1.00  0.00     0.291 C 
HETATM    4  N2  UNL     1       2.948   0.451  -0.138  1.00  0.00     0.093 N 
HETATM    5  C13 UNL     1       2.417  -0.502   0.799  1.00  0.00     0.291 C 
HETATM    6  C14 UNL     1       0.933  -0.791   0.531  1.00  0.00     0.147 C 
ENDROOT
BRANCH   1   7
HETATM    7  C8  UNL     1      -1.198   0.361   0.570  1.00  0.00     0.088 C 
HETATM    8  C6  UNL     1      -2.071   0.213  -0.612  1.00  0.00    -0.020 C 
HETATM    9  C2  UNL     1      -3.453   0.261   0.101  1.00  0.00    -0.004 C 
HETATM   10  C5  UNL     1      -2.163  -1.218  -1.121  1.00  0.00     0.012 C 
HETATM   11  C7  UNL     1      -2.004   1.211  -1.695  1.00  0.00     0.018 C 
HETATM   12  C1  UNL     1      -3.679   1.516   0.846  1.00  0.00     0.011 C 
HETATM   13  C3  UNL     1      -3.142  -0.928   1.012  1.00  0.00    -0.008 C 
HETATM   14  C4  UNL     1      -2.923  -1.993  -0.066  1.00  0.00     0.006 C 
HETATM   15  C15 UNL     1      -1.801  -0.588   1.571  1.00  0.00     0.030 C 
ENDBRANCH   1   7
BRANCH   4  16
HETATM   16  C11 UNL     1       4.145   0.080  -0.804  1.00  0.00     0.298 C 
BRANCH  16  17
HETATM   17  C12 UNL     1       5.223  -0.431   0.118  1.00  0.00     0.194 C 
BRANCH  17  18
HETATM   18  O1  UNL     1       6.364  -0.765  -0.639  1.00  0.00    -0.399 OA
ATOM     19  H1  UNL     1       7.043  -1.087  -0.058  1.00  0.00     0.209 HD
ENDBRANCH  17  18
ENDBRANCH  16  17
ENDBRANCH   4  16
TORSDOF 4
