REMARK  5 active torsions:
REMARK  status: ('A' for Active; 'I' for Inactive)
REMARK    1  A    between atoms: N2_8  and  C7_9 
REMARK    2  A    between atoms: C7_9  and  C8_10 
REMARK    3  A    between atoms: C8_10  and  C9_11 
REMARK    4  A    between atoms: C9_11  and  O1_13 
REMARK    5  A    between atoms: C9_11  and  C11_15 
ROOT
HETATM    1  C7  UNL     1       0.235   0.817  -0.200  1.00  0.00     0.122 C 
ENDROOT
BRANCH   1   2
HETATM    2  N2  UNL     1       1.451   0.454   0.422  1.00  0.00    -0.392 N 
HETATM    3  C6  UNL     1       2.612   1.167  -0.026  1.00  0.00     0.176 C 
HETATM    4  N1  UNL     1       3.378   0.505  -1.030  1.00  0.00    -0.396 N 
HETATM    5  C5  UNL     1       3.531   1.236   1.207  1.00  0.00     0.047 C 
HETATM    6  C1  UNL     1       3.135   0.899  -2.364  1.00  0.00     0.145 C 
HETATM    7  C2  UNL     1       3.592  -0.885  -0.815  1.00  0.00     0.124 C 
HETATM    8  C3  UNL     1       3.173  -1.178   0.615  1.00  0.00     0.021 C 
HETATM    9  C4  UNL     1       3.858  -0.203   1.549  1.00  0.00     0.011 C 
HETATM   10  C15 UNL     1       1.660  -0.931   0.661  1.00  0.00     0.125 C 
ENDBRANCH   1   2
BRANCH   1  11
HETATM   11  C8  UNL     1      -0.905   0.015   0.345  1.00  0.00     0.057 C 
BRANCH  11  12
HETATM   12  C9  UNL     1      -2.218   0.400  -0.320  1.00  0.00     0.062 C 
HETATM   13  C10 UNL     1      -2.088   0.141  -1.785  1.00  0.00     0.046 C 
BRANCH  12  14
HETATM   14  O1  UNL     1      -2.416   1.755  -0.065  1.00  0.00    -0.389 OA
ATOM     15  H1  UNL     1      -3.236   1.995  -0.480  1.00  0.00     0.210 HD
ENDBRANCH  12  14
BRANCH  12  16
HETATM   16  C11 UNL     1      -3.373  -0.356   0.303  1.00  0.00    -0.021 C 
HETATM   17  C12 UNL     1      -4.677   0.014  -0.344  1.00  0.00     0.017 C 
HETATM   18  C13 UNL     1      -3.194  -1.856   0.153  1.00  0.00     0.017 C 
HETATM   19  C14 UNL     1      -3.467  -0.067   1.782  1.00  0.00     0.017 C 
ENDBRANCH  12  16
ENDBRANCH  11  12
ENDBRANCH   1  11
TORSDOF 5
