REMARK  3 active torsions:
REMARK  status: ('A' for Active; 'I' for Inactive)
REMARK    1  A    between atoms: C2_2  and  C4_4 
REMARK    2  A    between atoms: C4_4  and  N1_7 
REMARK    3  A    between atoms: N1_7  and  C7_8 
REMARK       I    between atoms: N1_7  and  C9_10 
REMARK       I    between atoms: C9_10  and  N3_14 
ROOT
HETATM    1  N1  UNL     1      -0.441   0.541   0.699  1.00  0.00    -0.206 N 
HETATM    2  C9  UNL     1       0.892   0.070   0.882  1.00  0.00     0.672 C 
HETATM    3  N2  UNL     1       1.265  -0.239   2.075  1.00  0.00    -0.235 N 
ATOM      4  H21 UNL     1       2.219  -0.576   2.206  1.00  0.00     0.174 HD
ATOM      5  H22 UNL     1       0.557  -0.158   2.804  1.00  0.00     0.174 HD
HETATM    6  N3  UNL     1       1.866  -0.042  -0.121  1.00  0.00    -0.214 N 
HETATM    7  C10 UNL     1       2.029  -1.227  -0.937  1.00  0.00     0.167 C 
HETATM    8  C11 UNL     1       3.379  -1.807  -0.467  1.00  0.00     0.188 C 
HETATM    9  O1  UNL     1       4.358  -0.871  -0.432  1.00  0.00    -0.388 OA
HETATM   10  C12 UNL     1       4.095   0.384  -0.895  1.00  0.00     0.188 C 
HETATM   11  C13 UNL     1       2.823   1.016  -0.383  1.00  0.00     0.167 C 
ENDROOT
BRANCH   1  12
HETATM   12  C4  UNL     1      -1.563  -0.310   0.878  1.00  0.00     0.065 C 
HETATM   13  C5  UNL     1      -2.340   0.183   2.128  1.00  0.00     0.044 C 
HETATM   14  C6  UNL     1      -1.256  -1.757   1.152  1.00  0.00     0.044 C 
BRANCH  12  15
HETATM   15  C2  UNL     1      -2.603  -0.278  -0.244  1.00  0.00    -0.065 C 
HETATM   16  C1  UNL     1      -3.643   0.396  -0.073  1.00  0.00     0.016 C 
HETATM   17  C3  UNL     1      -2.247  -1.071  -1.465  1.00  0.00     0.045 C 
ENDBRANCH  12  15
ENDBRANCH   1  12
BRANCH   1  18
HETATM   18  C7  UNL     1      -0.581   1.943   0.379  1.00  0.00     0.138 C 
HETATM   19  C8  UNL     1      -1.001   2.297  -0.998  1.00  0.00     0.027 C 
ENDBRANCH   1  18
TORSDOF 3
