REMARK  4 active torsions:
REMARK  status: ('A' for Active; 'I' for Inactive)
REMARK    1  A    between atoms: O1_1  and  C1_3 
REMARK    2  A    between atoms: C1_3  and  C2_4 
REMARK    3  A    between atoms: N1_9  and  C7_10 
REMARK    4  A    between atoms: C7_10  and  C8_12 
ROOT
HETATM    1  C2  UNL     1      -1.947   0.306   0.905  1.00  0.00     0.108 C 
HETATM    2  C3  UNL     1      -2.984  -0.627   0.376  1.00  0.00     0.027 C 
HETATM    3  C4  UNL     1      -3.000  -0.608  -1.136  1.00  0.00     0.004 C 
HETATM    4  C5  UNL     1      -1.650  -1.033  -1.621  1.00  0.00     0.020 C 
HETATM    5  C6  UNL     1      -0.646   0.043  -1.160  1.00  0.00     0.124 C 
HETATM    6  N1  UNL     1      -0.632   0.127   0.261  1.00  0.00    -0.368 N 
ENDROOT
BRANCH   6   7
HETATM    7  C7  UNL     1       0.502   0.059   1.054  1.00  0.00     0.080 C 
HETATM    8  S1  UNL     1       0.183   0.194   2.716  1.00  0.00    -0.065 SA
BRANCH   7   9
HETATM    9  C8  UNL     1       1.905  -0.106   0.750  1.00  0.00     0.047 C 
HETATM   10  C9  UNL     1       2.542   0.890  -0.183  1.00  0.00     0.011 C 
HETATM   11  C10 UNL     1       3.991   0.350  -0.148  1.00  0.00     0.001 C 
HETATM   12  C11 UNL     1       3.857  -1.151   0.057  1.00  0.00     0.001 C 
HETATM   13  C12 UNL     1       2.341  -1.414   0.152  1.00  0.00     0.011 C 
ENDBRANCH   7   9
ENDBRANCH   6   7
BRANCH   1  14
HETATM   14  C1  UNL     1      -2.417   1.744   0.664  1.00  0.00     0.189 C 
BRANCH  14  15
HETATM   15  O1  UNL     1      -3.648   1.959   1.251  1.00  0.00    -0.399 OA
ATOM     16  H1  UNL     1      -3.939   2.851   1.102  1.00  0.00     0.209 HD
ENDBRANCH  14  15
ENDBRANCH   1  14
TORSDOF 4
