REMARK  3 active torsions:
REMARK  status: ('A' for Active; 'I' for Inactive)
REMARK    1  A    between atoms: O1_1  and  C1_3 
REMARK    2  A    between atoms: C1_3  and  C2_4 
REMARK    3  A    between atoms: C2_4  and  N1_5 
ROOT
HETATM    1  N1  UNL     1       1.086  -0.155  -0.128  1.00  0.00    -0.377 N 
HETATM    2  C3  UNL     1       0.477  -1.358   0.294  1.00  0.00     0.089 C 
HETATM    3  C4  UNL     1      -0.129  -1.958  -0.973  1.00  0.00     0.030 C 
HETATM    4  C5  UNL     1      -1.345  -1.066  -1.238  1.00  0.00    -0.010 C 
HETATM    5  C6  UNL     1      -2.420  -1.597  -0.316  1.00  0.00     0.005 C 
HETATM    6  C7  UNL     1      -1.795  -2.034   1.015  1.00  0.00     0.007 C 
HETATM    7  C8  UNL     1      -0.588  -1.191   1.340  1.00  0.00     0.009 C 
HETATM    8  C9  UNL     1      -1.053   0.178   1.628  1.00  0.00     0.013 C 
HETATM    9  C10 UNL     1      -0.298   1.302   1.030  1.00  0.00     0.014 C 
HETATM   10  C11 UNL     1      -1.053   2.554   0.753  1.00  0.00     0.007 C 
HETATM   11  C12 UNL     1      -0.292   3.185  -0.392  1.00  0.00     0.003 C 
HETATM   12  C13 UNL     1       0.587   2.113  -0.985  1.00  0.00     0.031 C 
HETATM   13  C14 UNL     1       0.125   0.834  -0.372  1.00  0.00     0.036 C 
HETATM   14  C15 UNL     1      -1.080   0.367  -1.117  1.00  0.00     0.036 C 
ENDROOT
BRANCH   1  15
HETATM   15  C2  UNL     1       2.373   0.153   0.266  1.00  0.00     0.085 C 
BRANCH  15  16
HETATM   16  C1  UNL     1       3.477  -0.639  -0.397  1.00  0.00     0.208 C 
BRANCH  16  17
HETATM   17  O1  UNL     1       3.430  -1.992  -0.230  1.00  0.00    -0.396 OA
ATOM     18  H1  UNL     1       4.124  -2.490  -0.647  1.00  0.00     0.209 HD
ENDBRANCH  16  17
ENDBRANCH  15  16
ENDBRANCH   1  15
TORSDOF 3
