REMARK  2 active torsions:
REMARK  status: ('A' for Active; 'I' for Inactive)
REMARK    1  A    between atoms: N1_2  and  C2_3 
REMARK    2  A    between atoms: N1_2  and  C6_10 
ROOT
HETATM    1  C6  UNL     1      -0.341  -0.027   0.052  1.00  0.00     0.032 C 
HETATM    2  C7  UNL     1      -0.613  -1.106   1.051  1.00  0.00     0.035 C 
HETATM    3  C8  UNL     1      -2.031  -1.527   0.625  1.00  0.00    -0.011 C 
HETATM    4  C9  UNL     1      -1.710  -1.835  -0.847  1.00  0.00     0.012 C 
HETATM    5  C10 UNL     1      -1.006  -0.517  -1.209  1.00  0.00     0.015 C 
HETATM    6  C11 UNL     1      -2.165   0.453  -1.470  1.00  0.00     0.016 C 
HETATM    7  C12 UNL     1      -2.520   0.821  -0.029  1.00  0.00    -0.041 C 
HETATM    8  C13 UNL     1      -3.456   1.972   0.045  1.00  0.00     0.015 C 
HETATM    9  C14 UNL     1      -3.006  -0.409   0.692  1.00  0.00     0.014 C 
HETATM   10  C15 UNL     1      -1.163   1.192   0.505  1.00  0.00     0.040 C 
ENDROOT
BRANCH   1  11
HETATM   11  N1  UNL     1       0.993   0.314  -0.148  1.00  0.00    -0.402 N 
HETATM   12  C1  UNL     1       1.299   1.402  -0.976  1.00  0.00     0.144 C 
BRANCH  11  13
HETATM   13  C2  UNL     1       2.035  -0.424   0.430  1.00  0.00     0.106 C 
HETATM   14  C3  UNL     1       2.834  -1.111  -0.657  1.00  0.00     0.054 C 
HETATM   15  C4  UNL     1       4.223  -0.562  -0.640  1.00  0.00     0.234 C 
HETATM   16  N2  UNL     1       4.383  -0.128   0.720  1.00  0.00    -0.073 N 
HETATM   17  C5  UNL     1       3.111   0.475   1.070  1.00  0.00     0.257 C 
ATOM     18  H22 UNL     1       4.681  -0.866   1.358  1.00  0.00     0.277 HD
ATOM     19  H21 UNL     1       5.186   0.484   0.868  1.00  0.00     0.277 HD
ENDBRANCH  11  13
ENDBRANCH   1  11
TORSDOF 2
