REMARK  2 active torsions:
REMARK  status: ('A' for Active; 'I' for Inactive)
REMARK    1  A    between atoms: N1_2  and  C2_4 
REMARK    2  A    between atoms: C10_12  and  N2_13 
ROOT
HETATM    1  C2  UNL     1      -0.962   1.126   0.752  1.00  0.00     0.082 C 
HETATM    2  C3  UNL     1       0.357   1.628   1.188  1.00  0.00     0.032 C 
HETATM    3  C4  UNL     1       1.523   0.748   1.098  1.00  0.00     0.023 C 
HETATM    4  C5  UNL     1       2.394   1.102  -0.109  1.00  0.00     0.042 C 
HETATM    5  C6  UNL     1       2.230  -0.031  -1.065  1.00  0.00     0.223 C 
HETATM    6  C7  UNL     1       1.103   0.073  -2.020  1.00  0.00     0.036 C 
HETATM    7  C8  UNL     1      -0.065   0.877  -1.599  1.00  0.00     0.011 C 
HETATM    8  C9  UNL     1      -0.949   0.349  -0.545  1.00  0.00     0.030 C 
HETATM    9  C10 UNL     1      -0.796  -1.102  -0.195  1.00  0.00     0.086 C 
HETATM   10  C13 UNL     1       0.092  -1.370   0.975  1.00  0.00     0.061 C 
HETATM   11  C14 UNL     1       1.405  -0.690   1.005  1.00  0.00     0.229 C 
HETATM   12  N3  UNL     1       2.147  -1.166  -0.167  1.00  0.00     0.093 N 
HETATM   13  C15 UNL     1       3.516  -1.530   0.196  1.00  0.00     0.310 C 
ENDROOT
BRANCH   1  14
HETATM   14  N1  UNL     1      -1.937   2.183   0.751  1.00  0.00    -0.421 N 
HETATM   15  C1  UNL     1      -1.833   3.122  -0.308  1.00  0.00     0.140 C 
ATOM     16  H1  UNL     1      -2.659   2.254   1.468  1.00  0.00     0.153 HD
ENDBRANCH   1  14
BRANCH   9  17
HETATM   17  N2  UNL     1      -2.120  -1.568   0.165  1.00  0.00    -0.416 N 
HETATM   18  C11 UNL     1      -2.248  -2.490   1.193  1.00  0.00     0.143 C 
HETATM   19  C12 UNL     1      -3.033  -1.632  -0.926  1.00  0.00     0.143 C 
ENDBRANCH   9  17
TORSDOF 2
