REMARK  4 active torsions:
REMARK  status: ('A' for Active; 'I' for Inactive)
REMARK    1  A    between atoms: C3_3  and  C6_6 
REMARK    2  A    between atoms: C11_11  and  C12_12 
REMARK    3  A    between atoms: C12_12  and  C13_14 
REMARK    4  A    between atoms: C13_14  and  O2_15 
ROOT
HETATM    1  C1  UNL     1       3.468   1.972   0.898  1.00  0.00     0.013 C 
HETATM    2  C2  UNL     1       3.114   1.033   0.242  1.00  0.00    -0.106 C 
HETATM    3  C3  UNL     1       2.695  -0.110  -0.545  1.00  0.00     0.035 C 
HETATM    4  C4  UNL     1       2.825   0.155  -2.031  1.00  0.00     0.031 C 
HETATM    5  C5  UNL     1       3.725  -1.222  -0.251  1.00  0.00     0.031 C 
ENDROOT
BRANCH   3   6
HETATM    6  C6  UNL     1       1.387  -0.662  -0.232  1.00  0.00     0.099 C 
HETATM    7  C7  UNL     1       1.394  -1.121   1.243  1.00  0.00     0.029 C 
HETATM    8  C8  UNL     1      -0.087  -1.178   1.615  1.00  0.00     0.033 C 
HETATM    9  C9  UNL     1      -0.787  -0.766   0.332  1.00  0.00     0.035 C 
HETATM   10  C10 UNL     1      -1.028  -2.024  -0.462  1.00  0.00     0.039 C 
HETATM   11  C11 UNL     1      -2.064  -0.050   0.681  1.00  0.00     0.085 C 
HETATM   12  N1  UNL     1       0.202   0.020  -0.288  1.00  0.00    -0.397 N 
HETATM   13  C14 UNL     1      -1.825   1.283   1.271  1.00  0.00     0.016 C 
HETATM   14  C15 UNL     1      -0.519   1.927   0.886  1.00  0.00     0.020 C 
HETATM   15  C16 UNL     1      -0.003   1.356  -0.447  1.00  0.00     0.118 C 
BRANCH  11  16
HETATM   16  C12 UNL     1      -3.049  -0.016  -0.398  1.00  0.00     0.156 C 
HETATM   17  O1  UNL     1      -2.877  -0.479  -1.517  1.00  0.00    -0.295 OA
BRANCH  16  18
HETATM   18  C13 UNL     1      -4.370   0.617  -0.159  1.00  0.00     0.242 C 
BRANCH  18  19
HETATM   19  O2  UNL     1      -5.215   0.508  -1.285  1.00  0.00    -0.394 OA
ATOM     20  H2  UNL     1      -6.061   0.913  -1.132  1.00  0.00     0.209 HD
ENDBRANCH  18  19
ENDBRANCH  16  18
ENDBRANCH  11  16
ENDBRANCH   3   6
TORSDOF 4
