REMARK  5 active torsions:
REMARK  status: ('A' for Active; 'I' for Inactive)
REMARK    1  A    between atoms: C2_2  and  N1_4 
REMARK    2  A    between atoms: N1_4  and  C4_6 
REMARK    3  A    between atoms: C4_6  and  N2_8 
REMARK    4  A    between atoms: C7_12  and  C8_13 
REMARK    5  A    between atoms: C8_13  and  C9_15 
ROOT
HETATM    1  N2  UNL     1       0.237   1.104  -0.939  1.00  0.00    -0.337 N 
HETATM    2  C5  UNL     1       0.242   2.484  -1.289  1.00  0.00     0.137 C 
HETATM    3  C6  UNL     1      -1.052   3.157  -1.014  1.00  0.00     0.096 C 
HETATM    4  S2  UNL     1      -2.175   1.766  -1.479  1.00  0.00    -0.134 SA
HETATM    5  C7  UNL     1      -1.046   0.450  -0.865  1.00  0.00     0.218 C 
ENDROOT
BRANCH   1   6
HETATM    6  C4  UNL     1       1.453   0.409  -0.678  1.00  0.00     0.171 C 
HETATM    7  S1  UNL     1       2.914   1.154  -0.759  1.00  0.00    -0.041 SA
BRANCH   6   8
HETATM    8  N1  UNL     1       1.450  -0.946  -0.340  1.00  0.00    -0.363 N 
ATOM      9  H1  UNL     1       0.552  -1.428  -0.287  1.00  0.00     0.162 HD
BRANCH   8  10
HETATM   10  C2  UNL     1       2.657  -1.708  -0.060  1.00  0.00     0.075 C 
HETATM   11  C1  UNL     1       3.404  -1.114   1.119  1.00  0.00     0.032 C 
HETATM   12  C3  UNL     1       3.528  -1.672  -1.277  1.00  0.00     0.032 C 
ENDBRANCH   8  10
ENDBRANCH   6   8
ENDBRANCH   1   6
BRANCH   5  13
HETATM   13  C8  UNL     1      -1.419   0.101   0.521  1.00  0.00     0.163 C 
HETATM   14  O1  UNL     1      -0.732   0.490   1.441  1.00  0.00    -0.294 OA
BRANCH  13  15
HETATM   15  C9  UNL     1      -2.610  -0.711   0.806  1.00  0.00     0.050 C 
HETATM   16  C10 UNL     1      -2.766  -0.972   2.303  1.00  0.00     0.017 C 
HETATM   17  C11 UNL     1      -3.845   0.010   0.314  1.00  0.00     0.017 C 
ENDBRANCH  13  15
ENDBRANCH   5  13
TORSDOF 5
