REMARK  3 active torsions:
REMARK  status: ('A' for Active; 'I' for Inactive)
REMARK    1  A    between atoms: C2_2  and  C3_3 
REMARK    2  A    between atoms: C3_3  and  C4_4 
REMARK    3  A    between atoms: C4_4  and  N1_5 
REMARK       I    between atoms: N1_5  and  C5_7 
REMARK       I    between atoms: C5_7  and  N2_9 
ROOT
HETATM    1  N1  UNL     1      -1.715  -0.349   0.209  1.00  0.00    -0.343 N 
ATOM      2  H1  UNL     1      -1.581   0.624   0.484  1.00  0.00     0.164 HD
HETATM    3  C5  UNL     1      -0.612  -1.217   0.145  1.00  0.00     0.318 C 
HETATM    4  O1  UNL     1      -0.798  -2.427  -0.201  1.00  0.00    -0.247 OA
HETATM    5  N2  UNL     1       0.690  -0.821   0.443  1.00  0.00    -0.334 N 
HETATM    6  C6  UNL     1       0.990   0.527   0.852  1.00  0.00     0.131 C 
HETATM    7  C7  UNL     1       1.854   1.099  -0.278  1.00  0.00     0.069 C 
HETATM    8  C8  UNL     1       3.160   0.333  -0.235  1.00  0.00     0.111 C 
HETATM    9  C9  UNL     1       2.972  -1.125  -0.409  1.00  0.00     0.069 C 
HETATM   10  C10 UNL     1       1.830  -1.729   0.359  1.00  0.00     0.131 C 
HETATM   11  O2  UNL     1       3.928   0.716   0.836  1.00  0.00    -0.368 OA
HETATM   12  C11 UNL     1       5.245   0.451   0.597  1.00  0.00     0.180 C 
HETATM   13  C12 UNL     1       5.678   1.294  -0.615  1.00  0.00     0.103 C 
HETATM   14  S1  UNL     1       4.167   0.995  -1.628  1.00  0.00    -0.129 SA
ENDROOT
BRANCH   1  15
HETATM   15  C4  UNL     1      -3.071  -0.842  -0.122  1.00  0.00     0.124 C 
BRANCH  15  16
HETATM   16  C3  UNL     1      -4.078   0.278   0.023  1.00  0.00     0.019 C 
BRANCH  16  17
HETATM   17  C2  UNL     1      -5.470  -0.189  -0.307  1.00  0.00    -0.003 C 
HETATM   18  C1  UNL     1      -6.463   0.935  -0.159  1.00  0.00     0.005 C 
ENDBRANCH  16  17
ENDBRANCH  15  16
ENDBRANCH   1  15
TORSDOF 3
