REMARK  4 active torsions:
REMARK  status: ('A' for Active; 'I' for Inactive)
REMARK    1  A    between atoms: C2_2  and  C3_3 
REMARK       I    between atoms: C3_3  and  N1_5 
REMARK    2  A    between atoms: N1_5  and  C4_7 
REMARK       I    between atoms: N2_13  and  C10_14 
REMARK    3  A    between atoms: C10_14  and  O3_16 
REMARK    4  A    between atoms: O3_16  and  C11_17 
ROOT
HETATM    1  C4  UNL     1       1.766   0.155   1.070  1.00  0.00     0.102 C 
HETATM    2  C5  UNL     1       1.612  -1.314   0.831  1.00  0.00     0.027 C 
HETATM    3  C6  UNL     1       1.570  -1.745  -0.591  1.00  0.00     0.008 C 
HETATM    4  C7  UNL     1       0.089  -1.751  -0.993  1.00  0.00    -0.000 C 
HETATM    5  C8  UNL     1      -0.181  -2.684  -2.122  1.00  0.00     0.011 C 
HETATM    6  C9  UNL     1      -0.229  -0.309  -1.314  1.00  0.00     0.132 C 
HETATM    7  N2  UNL     1      -0.414   0.378  -0.065  1.00  0.00    -0.326 N 
HETATM    8  C10 UNL     1      -1.762   0.493   0.342  1.00  0.00     0.363 C 
HETATM    9  O2  UNL     1      -2.115   1.063   1.409  1.00  0.00    -0.238 OA
HETATM   10  C15 UNL     1       0.532   0.959   0.823  1.00  0.00     0.153 C 
ENDROOT
BRANCH   8  11
HETATM   11  O3  UNL     1      -2.766  -0.035  -0.444  1.00  0.00    -0.294 OA
BRANCH  11  12
HETATM   12  C11 UNL     1      -4.111   0.063  -0.068  1.00  0.00     0.061 C 
HETATM   13  C12 UNL     1      -4.569   1.497   0.075  1.00  0.00     0.046 C 
HETATM   14  C13 UNL     1      -4.432  -0.735   1.176  1.00  0.00     0.046 C 
HETATM   15  C14 UNL     1      -4.963  -0.543  -1.190  1.00  0.00     0.046 C 
ENDBRANCH  11  12
ENDBRANCH   8  11
BRANCH   1  16
HETATM   16  N1  UNL     1       2.832   0.726   0.277  1.00  0.00    -0.355 N 
HETATM   17  C3  UNL     1       3.997   1.233   0.915  1.00  0.00     0.217 C 
HETATM   18  O1  UNL     1       4.134   1.201   2.177  1.00  0.00    -0.274 OA
ATOM     19  H1  UNL     1       2.748   0.765  -0.739  1.00  0.00     0.162 HD
BRANCH  17  20
HETATM   20  C2  UNL     1       5.090   1.817   0.125  1.00  0.00     0.098 C 
HETATM   21  C1  UNL     1       6.211   2.284   1.001  1.00  0.00     0.014 C 
ENDBRANCH  17  20
ENDBRANCH   1  16
TORSDOF 4
