REMARK  2 active torsions:
REMARK  status: ('A' for Active; 'I' for Inactive)
REMARK       I    between atoms: N1_2  and  C2_4 
REMARK    1  A    between atoms: C2_4  and  C3_6 
REMARK    2  A    between atoms: C6_9  and  C8_11 
ROOT
HETATM    1  C3  UNL     1      -1.683   0.414   0.597  1.00  0.00     0.118 C 
HETATM    2  C4  UNL     1      -0.451   0.941  -0.158  1.00  0.00     0.032 C 
HETATM    3  C5  UNL     1       0.286   1.802   0.792  1.00  0.00     0.014 C 
HETATM    4  C6  UNL     1       0.139  -0.251  -0.718  1.00  0.00     0.068 C 
HETATM    5  C7  UNL     1      -0.056  -0.200  -2.249  1.00  0.00     0.047 C 
HETATM    6  O3  UNL     1      -0.549  -1.394  -0.321  1.00  0.00    -0.369 OA
HETATM    7  C14 UNL     1      -1.774  -1.015   0.177  1.00  0.00     0.067 C 
HETATM    8  C15 UNL     1      -2.904  -1.265  -0.808  1.00  0.00     0.046 C 
HETATM    9  C16 UNL     1      -2.106  -1.938   1.338  1.00  0.00     0.046 C 
ENDROOT
BRANCH   4  10
HETATM   10  C8  UNL     1       1.607  -0.554  -0.534  1.00  0.00     0.044 C 
HETATM   11  C9  UNL     1       2.529   0.468  -1.089  1.00  0.00     0.012 C 
HETATM   12  C10 UNL     1       3.860   0.574  -0.407  1.00  0.00     0.032 C 
HETATM   13  C11 UNL     1       4.147  -0.682   0.362  1.00  0.00     0.117 C 
HETATM   14  C12 UNL     1       5.491  -0.615   1.025  1.00  0.00     0.039 C 
HETATM   15  O2  UNL     1       3.140  -0.719   1.344  1.00  0.00    -0.386 OA
HETATM   16  C13 UNL     1       1.939  -1.108   0.811  1.00  0.00     0.175 C 
ENDBRANCH   4  10
BRANCH   1  17
HETATM   17  C2  UNL     1      -2.876   1.227   0.315  1.00  0.00     0.224 C 
HETATM   18  N1  UNL     1      -4.135   0.947   0.913  1.00  0.00    -0.365 N 
HETATM   19  C1  UNL     1      -5.320   1.734   0.648  1.00  0.00     0.149 C 
ATOM     20  H1  UNL     1      -4.206   0.158   1.556  1.00  0.00     0.161 HD
HETATM   21  O1  UNL     1      -2.838   2.210  -0.471  1.00  0.00    -0.273 OA
ENDBRANCH   1  17
TORSDOF 2
