REMARK  3 active torsions:
REMARK  status: ('A' for Active; 'I' for Inactive)
REMARK    1  A    between atoms: C2_2  and  C4_4 
REMARK    2  A    between atoms: C6_6  and  C7_7 
REMARK    3  A    between atoms: N1_9  and  O1_11 
ROOT
HETATM    1  C4  UNL     1       0.326   1.393  -0.523  1.00  0.00     0.065 C 
HETATM    2  C5  UNL     1       0.361   1.350  -2.023  1.00  0.00     0.044 C 
HETATM    3  C6  UNL     1       1.155   0.478   0.282  1.00  0.00     0.088 C 
HETATM    4  C10 UNL     1      -0.103   0.092   0.924  1.00  0.00     0.105 C 
HETATM    5  C11 UNL     1      -0.638  -1.279   0.971  1.00  0.00     0.010 C 
HETATM    6  C12 UNL     1      -1.159  -1.879  -0.286  1.00  0.00     0.008 C 
HETATM    7  C13 UNL     1      -2.680  -1.810  -0.271  1.00  0.00     0.019 C 
HETATM    8  C14 UNL     1      -2.861  -0.628   0.681  1.00  0.00     0.038 C 
HETATM    9  C15 UNL     1      -4.266  -0.434   1.119  1.00  0.00     0.025 C 
HETATM   10  C16 UNL     1      -1.943  -1.128   1.801  1.00  0.00     0.025 C 
HETATM   11  C17 UNL     1      -2.301   0.536  -0.039  1.00  0.00     0.229 C 
HETATM   12  O2  UNL     1      -3.090   1.301  -0.634  1.00  0.00    -0.272 OA
HETATM   13  N2  UNL     1      -0.926   0.801  -0.072  1.00  0.00    -0.332 N 
ENDROOT
BRANCH   3  14
HETATM   14  C7  UNL     1       2.052  -0.475  -0.310  1.00  0.00     0.015 C 
HETATM   15  C8  UNL     1       3.147  -0.165  -1.272  1.00  0.00     0.066 C 
HETATM   16  N1  UNL     1       1.953  -1.713   0.009  1.00  0.00    -0.275 N 
ATOM     17  H1  UNL     1       1.226  -1.958   0.681  1.00  0.00     0.193 HD
BRANCH  16  18
HETATM   18  O1  UNL     1       2.717  -2.725  -0.457  1.00  0.00    -0.286 OA
HETATM   19  C9  UNL     1       3.835  -3.281   0.164  1.00  0.00     0.237 C 
ENDBRANCH  16  18
ENDBRANCH   3  14
BRANCH   1  20
HETATM   20  C2  UNL     1       0.384   2.822  -0.083  1.00  0.00    -0.065 C 
HETATM   21  C1  UNL     1      -0.525   3.384   0.707  1.00  0.00     0.016 C 
HETATM   22  C3  UNL     1       1.514   3.713  -0.515  1.00  0.00     0.045 C 
ENDBRANCH   1  20
TORSDOF 3
