REMARK  4 active torsions:
REMARK  status: ('A' for Active; 'I' for Inactive)
REMARK    1  A    between atoms: C1_2  and  O2_3 
REMARK       I    between atoms: C1_2  and  N2_13 
REMARK    2  A    between atoms: O2_3  and  C2_4 
REMARK    3  A    between atoms: C10_16  and  C11_17 
REMARK    4  A    between atoms: C11_17  and  C12_18 
ROOT
HETATM    1  O1  UNL     1      -1.380  -2.073  -0.170  1.00  0.00    -0.238 OA
HETATM    2  C1  UNL     1      -1.153  -0.929   0.253  1.00  0.00     0.363 C 
HETATM    3  N2  UNL     1       0.138  -0.567   0.705  1.00  0.00    -0.323 N 
HETATM    4  C8  UNL     1       1.179  -1.543   0.670  1.00  0.00     0.129 C 
HETATM    5  C9  UNL     1       2.548  -0.993   0.378  1.00  0.00     0.025 C 
HETATM    6  C10 UNL     1       2.856   0.273   1.084  1.00  0.00    -0.001 C 
HETATM    7  C15 UNL     1       1.756   1.258   1.154  1.00  0.00     0.013 C 
HETATM    8  C16 UNL     1       1.473   2.042  -0.107  1.00  0.00     0.009 C 
HETATM    9  C17 UNL     1      -0.022   1.806   0.144  1.00  0.00     0.026 C 
HETATM   10  C18 UNL     1       0.370   0.749   1.183  1.00  0.00     0.093 C 
ENDROOT
BRANCH   2  11
HETATM   11  O2  UNL     1      -2.201   0.011   0.277  1.00  0.00    -0.296 OA
BRANCH  11  12
HETATM   12  C2  UNL     1      -3.454  -0.385  -0.176  1.00  0.00     0.166 C 
HETATM   13  C3  UNL     1      -3.967   0.494  -1.317  1.00  0.00     0.067 C 
HETATM   14  C4  UNL     1      -5.307   0.919  -0.803  1.00  0.00     0.189 C 
HETATM   15  C5  UNL     1      -6.266  -0.259  -0.737  1.00  0.00     0.035 C 
HETATM   16  N1  UNL     1      -5.016   1.091   0.632  1.00  0.00    -0.064 N 
HETATM   17  C6  UNL     1      -5.701  -1.091   0.423  1.00  0.00     0.038 C 
HETATM   18  C7  UNL     1      -4.531  -0.278   0.877  1.00  0.00     0.215 C 
ATOM     19  H12 UNL     1      -4.396   1.858   0.892  1.00  0.00     0.278 HD
ATOM     20  H11 UNL     1      -5.775   1.428   1.224  1.00  0.00     0.278 HD
ENDBRANCH  11  12
ENDBRANCH   2  11
BRANCH   6  21
HETATM   21  C11 UNL     1       4.043   0.938   0.383  1.00  0.00     0.063 C 
BRANCH  21  22
HETATM   22  C12 UNL     1       5.245   0.031   0.419  1.00  0.00     0.025 A 
HETATM   23  C13 UNL     1       5.571  -0.911  -0.529  1.00  0.00     0.114 A 
HETATM   24  N3  UNL     1       6.709  -1.512  -0.141  1.00  0.00    -0.360 N 
HETATM   25  C14 UNL     1       7.091  -0.967   1.020  1.00  0.00     0.180 A 
ATOM     26  H3  UNL     1       7.196  -2.254  -0.644  1.00  0.00     0.166 HD
HETATM   27  N4  UNL     1       6.194  -0.026   1.356  1.00  0.00    -0.355 N 
ATOM     28  H4  UNL     1       6.232   0.554   2.195  1.00  0.00     0.166 HD
ENDBRANCH  21  22
ENDBRANCH   6  21
TORSDOF 4
