REMARK  3 active torsions:
REMARK  status: ('A' for Active; 'I' for Inactive)
REMARK       I    between atoms: N1_2  and  C3_4 
REMARK    1  A    between atoms: C3_4  and  C4_6 
REMARK    2  A    between atoms: C4_6  and  S1_7 
REMARK    3  A    between atoms: S1_7  and  C5_8 
REMARK       I    between atoms: N2_11  and  C8_12 
ROOT
HETATM    1  C5  UNL     1       0.424  -0.895   1.409  1.00  0.00     0.057 C 
HETATM    2  C6  UNL     1       0.797   0.386   2.070  1.00  0.00     0.035 C 
HETATM    3  C7  UNL     1      -0.557   0.945   2.603  1.00  0.00     0.127 C 
HETATM    4  N2  UNL     1      -1.468   1.066   1.498  1.00  0.00    -0.351 N 
HETATM    5  C8  UNL     1      -2.736   1.628   1.748  1.00  0.00     0.184 C 
HETATM    6  N3  UNL     1      -3.642   1.053   2.465  1.00  0.00    -0.374 N 
ATOM      7  H31 UNL     1      -4.560   1.460   2.646  1.00  0.00     0.158 HD
ATOM      8  H32 UNL     1      -3.471   0.143   2.892  1.00  0.00     0.158 HD
HETATM    9  N4  UNL     1      -2.975   2.904   1.149  1.00  0.00    -0.064 NA
HETATM   10  C9  UNL     1      -1.164   0.652   0.157  1.00  0.00     0.094 C 
HETATM   11  C10 UNL     1      -2.253   0.369  -0.693  1.00  0.00     0.026 C 
HETATM   12  C11 UNL     1      -3.444   0.570  -1.406  1.00  0.00     0.004 C 
HETATM   13  C12 UNL     1      -3.780  -0.854  -1.960  1.00  0.00     0.026 C 
HETATM   14  C13 UNL     1      -2.602  -1.765  -2.081  1.00  0.00     0.167 C 
HETATM   15  O2  UNL     1      -1.807  -2.226  -1.197  1.00  0.00    -0.391 OA
HETATM   16  C14 UNL     1      -1.141  -1.896  -0.163  1.00  0.00     0.175 C 
HETATM   17  C15 UNL     1      -0.340  -0.663   0.128  1.00  0.00     0.046 C 
ENDROOT
BRANCH   1  18
HETATM   18  S1  UNL     1       1.739  -2.055   1.089  1.00  0.00    -0.154 SA
BRANCH  18  19
HETATM   19  C4  UNL     1       2.913  -1.540  -0.139  1.00  0.00     0.177 C 
BRANCH  19  20
HETATM   20  C3  UNL     1       3.802  -0.468   0.337  1.00  0.00     0.228 C 
HETATM   21  N1  UNL     1       4.696   0.149  -0.603  1.00  0.00    -0.360 N 
HETATM   22  C1  UNL     1       4.677  -0.317  -1.967  1.00  0.00     0.152 C 
HETATM   23  C2  UNL     1       5.580   1.208  -0.164  1.00  0.00     0.152 C 
HETATM   24  O1  UNL     1       3.811  -0.070   1.535  1.00  0.00    -0.273 OA
ENDBRANCH  19  20
ENDBRANCH  18  19
ENDBRANCH   1  18
TORSDOF 3
