REMARK  4 active torsions:
REMARK  status: ('A' for Active; 'I' for Inactive)
REMARK       I    between atoms: C1_2  and  N1_3 
REMARK    1  A    between atoms: C1_2  and  C8_13 
REMARK    2  A    between atoms: N1_3  and  C2_5 
REMARK    3  A    between atoms: C5_8  and  O2_9 
REMARK    4  A    between atoms: N2_20  and  C15_21 
ROOT
HETATM    1  C8  UNL     1      -0.802  -1.081  -0.130  1.00  0.00     0.113 C 
HETATM    2  C9  UNL     1      -1.021  -0.913  -1.620  1.00  0.00     0.041 C 
HETATM    3  C10 UNL     1      -2.139  -1.818  -2.042  1.00  0.00     0.009 C 
HETATM    4  C11 UNL     1      -2.549  -2.761  -0.926  1.00  0.00     0.004 C 
HETATM    5  C12 UNL     1      -1.233  -3.536  -0.704  1.00  0.00     0.009 C 
HETATM    6  C13 UNL     1      -0.348  -2.580  -0.011  1.00  0.00     0.041 C 
HETATM    7  C14 UNL     1      -2.817  -2.117   0.392  1.00  0.00     0.128 C 
HETATM    8  N2  UNL     1      -1.951  -0.980   0.630  1.00  0.00    -0.369 N 
ENDROOT
BRANCH   1   9
HETATM    9  C1  UNL     1       0.444  -0.438   0.359  1.00  0.00     0.246 C 
HETATM   10  O1  UNL     1       0.550  -0.207   1.576  1.00  0.00    -0.271 OA
HETATM   11  N1  UNL     1       1.515  -0.073  -0.484  1.00  0.00    -0.354 N 
ATOM     12  H1  UNL     1       1.448  -0.253  -1.486  1.00  0.00     0.162 HD
BRANCH  11  13
HETATM   13  C2  UNL     1       2.732   0.565   0.060  1.00  0.00     0.084 C 
HETATM   14  C3  UNL     1       2.872   1.983  -0.459  1.00  0.00     0.028 C 
HETATM   15  C4  UNL     1       4.243   2.462   0.005  1.00  0.00     0.034 C 
HETATM   16  C5  UNL     1       5.290   1.772  -0.818  1.00  0.00     0.118 C 
HETATM   17  C6  UNL     1       4.916   0.367  -1.157  1.00  0.00     0.034 C 
HETATM   18  C7  UNL     1       3.947  -0.258  -0.177  1.00  0.00     0.028 C 
BRANCH  16  19
HETATM   19  O2  UNL     1       6.514   1.857  -0.124  1.00  0.00    -0.396 OA
ATOM     20  H2  UNL     1       7.177   1.420  -0.645  1.00  0.00     0.210 HD
ENDBRANCH  16  19
ENDBRANCH  11  13
ENDBRANCH   1   9
BRANCH   8  21
HETATM   21  C15 UNL     1      -2.702   0.169   0.886  1.00  0.00    -0.011 C 
HETATM   22  C16 UNL     1      -2.078   1.301   1.629  1.00  0.00     0.078 C 
HETATM   23  C17 UNL     1      -3.165   2.326   2.013  1.00  0.00     0.173 C 
HETATM   24  O3  UNL     1      -3.832   2.780   0.884  1.00  0.00    -0.390 OA
HETATM   25  C18 UNL     1      -4.573   1.691   0.428  1.00  0.00     0.173 C 
HETATM   26  C19 UNL     1      -3.536   0.750  -0.211  1.00  0.00     0.078 C 
ENDBRANCH   8  21
TORSDOF 4
