REMARK  5 active torsions:
REMARK  status: ('A' for Active; 'I' for Inactive)
REMARK    1  A    between atoms: C2_2  and  O1_5 
REMARK    2  A    between atoms: O1_5  and  C5_6 
REMARK       I    between atoms: C5_6  and  N1_8 
REMARK    3  A    between atoms: C8_11  and  N2_12 
REMARK       I    between atoms: N2_12  and  C9_14 
REMARK       I    between atoms: C9_14  and  N3_16 
REMARK    4  A    between atoms: N3_16  and  C10_18 
REMARK    5  A    between atoms: C10_18  and  C11_19 
ROOT
HETATM    1  N2  UNL     1       0.094   0.871   1.215  1.00  0.00    -0.337 N 
ATOM      2  H2  UNL     1      -0.219   0.569   0.293  1.00  0.00     0.164 HD
HETATM    3  C9  UNL     1       1.378   0.542   1.673  1.00  0.00     0.316 C 
HETATM    4  O3  UNL     1       1.763   0.908   2.797  1.00  0.00    -0.247 OA
HETATM    5  N3  UNL     1       2.249  -0.212   0.856  1.00  0.00    -0.341 N 
ATOM      6  H3  UNL     1       1.924  -0.507  -0.065  1.00  0.00     0.164 HD
ENDROOT
BRANCH   1   7
HETATM    7  C8  UNL     1      -0.780   1.645   2.069  1.00  0.00     0.105 C 
HETATM    8  C7  UNL     1      -1.208   2.885   1.293  1.00  0.00     0.047 C 
HETATM    9  C6  UNL     1      -2.117   2.281   0.260  1.00  0.00     0.130 C 
HETATM   10  N1  UNL     1      -2.649   1.059   0.875  1.00  0.00    -0.326 N 
HETATM   11  C5  UNL     1      -3.544   0.163   0.257  1.00  0.00     0.363 C 
HETATM   12  C16 UNL     1      -2.107   0.930   2.212  1.00  0.00     0.153 C 
HETATM   13  O2  UNL     1      -3.928  -0.851   0.891  1.00  0.00    -0.238 OA
BRANCH  11  14
HETATM   14  O1  UNL     1      -4.023   0.356  -1.041  1.00  0.00    -0.294 OA
BRANCH  14  15
HETATM   15  C2  UNL     1      -4.915  -0.602  -1.563  1.00  0.00     0.061 C 
HETATM   16  C1  UNL     1      -5.348  -0.268  -2.964  1.00  0.00     0.046 C 
HETATM   17  C3  UNL     1      -6.169  -0.644  -0.707  1.00  0.00     0.046 C 
HETATM   18  C4  UNL     1      -4.220  -1.944  -1.573  1.00  0.00     0.046 C 
ENDBRANCH  14  15
ENDBRANCH  11  14
ENDBRANCH   1   7
BRANCH   5  19
HETATM   19  C10 UNL     1       3.590  -0.584   1.275  1.00  0.00     0.156 C 
BRANCH  19  20
HETATM   20  C11 UNL     1       4.228  -1.371   0.176  1.00  0.00     0.139 C 
HETATM   21  C12 UNL     1       4.189  -0.516  -1.079  1.00  0.00     0.034 C 
HETATM   22  C13 UNL     1       5.406  -0.883  -1.925  1.00  0.00     0.005 C 
HETATM   23  C14 UNL     1       6.615  -0.368  -1.134  1.00  0.00     0.026 C 
HETATM   24  C15 UNL     1       6.456  -0.765   0.324  1.00  0.00     0.168 C 
HETATM   25  O4  UNL     1       5.522  -1.778   0.477  1.00  0.00    -0.384 OA
ENDBRANCH  19  20
ENDBRANCH   5  19
TORSDOF 5
