REMARK  6 active torsions:
REMARK  status: ('A' for Active; 'I' for Inactive)
REMARK    1  A    between atoms: O1_2  and  C2_3 
REMARK    2  A    between atoms: C4_5  and  C5_6 
REMARK    3  A    between atoms: C5_6  and  C6_7 
REMARK    4  A    between atoms: C11_13  and  N1_14 
REMARK    5  A    between atoms: C14_20  and  O2_21 
REMARK    6  A    between atoms: C16_23  and  O3_24 
ROOT
HETATM    1  C5  UNL     1      -0.692   1.350   0.509  1.00  0.00    -0.035 C 
HETATM    2  C7  UNL     1      -1.799   0.857   0.003  1.00  0.00    -0.070 C 
HETATM    3  C8  UNL     1      -3.101   1.550   0.225  1.00  0.00     0.035 C 
HETATM    4  C9  UNL     1      -4.206   0.738  -0.470  1.00  0.00     0.006 C 
HETATM    5  C10 UNL     1      -4.181  -0.706  -0.136  1.00  0.00     0.033 C 
HETATM    6  C11 UNL     1      -2.818  -1.296  -0.069  1.00  0.00     0.187 C 
HETATM    7  C12 UNL     1      -1.853  -0.353  -0.811  1.00  0.00     0.067 C 
ENDROOT
BRANCH   1   8
HETATM    8  C4  UNL     1       0.606   0.731   0.338  1.00  0.00    -0.023 A 
HETATM    9  C3  UNL     1       0.794  -0.570   0.818  1.00  0.00     0.051 A 
HETATM   10  C2  UNL     1       2.008  -1.194   0.643  1.00  0.00     0.105 A 
HETATM   11  C16 UNL     1       3.062  -0.582   0.007  1.00  0.00     0.135 A 
HETATM   12  C14 UNL     1       2.897   0.695  -0.472  1.00  0.00     0.105 A 
HETATM   13  C13 UNL     1       1.654   1.328  -0.291  1.00  0.00     0.051 A 
BRANCH  10  14
HETATM   14  O1  UNL     1       2.136  -2.496   1.145  1.00  0.00    -0.353 OA
HETATM   15  C1  UNL     1       1.087  -3.154   1.800  1.00  0.00     0.210 C 
ENDBRANCH  10  14
BRANCH  11  16
HETATM   16  O3  UNL     1       4.249  -1.268  -0.132  1.00  0.00    -0.351 OA
HETATM   17  C17 UNL     1       4.552  -2.090  -1.239  1.00  0.00     0.210 C 
ENDBRANCH  11  16
BRANCH  12  18
HETATM   18  O2  UNL     1       3.932   1.374  -1.130  1.00  0.00    -0.353 OA
HETATM   19  C15 UNL     1       3.714   2.689  -1.605  1.00  0.00     0.210 C 
ENDBRANCH  12  18
ENDBRANCH   1   8
BRANCH   1  20
HETATM   20  C6  UNL     1      -0.762   2.576   1.379  1.00  0.00     0.125 C 
HETATM   21  S1  UNL     1       0.154   3.940   0.674  1.00  0.00    -0.093 SA
ENDBRANCH   1  20
BRANCH   6  22
HETATM   22  N1  UNL     1      -2.734  -2.623  -0.592  1.00  0.00    -0.075 N 
ATOM     23  H13 UNL     1      -3.411  -3.232  -0.133  1.00  0.00     0.274 HD
ATOM     24  H12 UNL     1      -3.092  -2.655  -1.547  1.00  0.00     0.274 HD
ATOM     25  H11 UNL     1      -1.799  -3.028  -0.546  1.00  0.00     0.274 HD
ENDBRANCH   6  22
TORSDOF 6
