REMARK  6 active torsions:
REMARK  status: ('A' for Active; 'I' for Inactive)
REMARK    1  A    between atoms: O1_1  and  N1_3 
REMARK    2  A    between atoms: C1_5  and  C2_6 
REMARK    3  A    between atoms: C1_5  and  C14_21 
REMARK    4  A    between atoms: C2_6  and  N2_7 
REMARK    5  A    between atoms: N2_7  and  C3_9 
REMARK    6  A    between atoms: N3_12  and  C6_13 
ROOT
HETATM    1  N2  UNL     1       2.358   0.107  -0.512  1.00  0.00    -0.392 N 
ATOM      2  H2  UNL     1       2.954  -0.059  -1.323  1.00  0.00     0.159 HD
ENDROOT
BRANCH   1   3
HETATM    3  C2  UNL     1       2.908   0.611   0.676  1.00  0.00     0.116 C 
BRANCH   3   4
HETATM    4  C1  UNL     1       4.329   0.920   0.553  1.00  0.00     0.086 C 
HETATM    5  N1  UNL     1       4.781   2.101   0.858  1.00  0.00    -0.267 N 
ATOM      6  H1  UNL     1       5.773   2.321   0.773  1.00  0.00     0.194 HD
BRANCH   5   7
HETATM    7  O1  UNL     1       3.882   3.044   1.298  1.00  0.00    -0.289 OA
ATOM      8  H1  UNL     1       4.212   3.907   1.521  1.00  0.00     0.244 HD
ENDBRANCH   5   7
BRANCH   4   9
HETATM    9  C14 UNL     1       5.324  -0.074   0.086  1.00  0.00     0.034 A 
HETATM   10  C15 UNL     1       6.664   0.101  -0.080  1.00  0.00     0.022 A 
HETATM   11  C16 UNL     1       7.380  -0.941  -0.522  1.00  0.00     0.008 A 
HETATM   12  C17 UNL     1       6.697  -2.106  -0.774  1.00  0.00     0.050 A 
HETATM   13  S1  UNL     1       5.089  -1.701  -0.384  1.00  0.00    -0.100 SA
ENDBRANCH   4   9
ENDBRANCH   3   4
ENDBRANCH   1   3
BRANCH   1  14
HETATM   14  C3  UNL     1       0.989  -0.166  -0.579  1.00  0.00     0.084 C 
HETATM   15  C4  UNL     1       0.160   1.105  -0.428  1.00  0.00     0.055 C 
HETATM   16  C5  UNL     1      -1.298   0.741  -0.763  1.00  0.00     0.275 C 
HETATM   17  N3  UNL     1      -1.737  -0.098   0.335  1.00  0.00     0.093 N 
HETATM   18  C12 UNL     1      -1.008  -1.344   0.186  1.00  0.00     0.275 C 
HETATM   19  C13 UNL     1       0.457  -1.108   0.487  1.00  0.00     0.055 C 
BRANCH  17  20
HETATM   20  C6  UNL     1      -3.158  -0.296   0.369  1.00  0.00     0.223 C 
HETATM   21  C7  UNL     1      -3.625  -1.020  -0.868  1.00  0.00     0.036 C 
HETATM   22  C8  UNL     1      -5.128  -1.168  -0.906  1.00  0.00     0.002 C 
HETATM   23  C9  UNL     1      -5.870   0.110  -0.701  1.00  0.00     0.000 C 
HETATM   24  C10 UNL     1      -5.399   0.811   0.531  1.00  0.00     0.002 C 
HETATM   25  C11 UNL     1      -3.899   0.974   0.621  1.00  0.00     0.036 C 
ENDBRANCH  17  20
ENDBRANCH   1  14
TORSDOF 6
