REMARK  10 active torsions:
REMARK  status: ('A' for Active; 'I' for Inactive)
REMARK    1  A    between atoms: N1_1  and  C1_4 
REMARK    2  A    between atoms: N4_12  and  C4_13 
REMARK    3  A    between atoms: C6_15  and  O2_16 
REMARK    4  A    between atoms: C7_18  and  C8_19 
REMARK    5  A    between atoms: C8_19  and  O3_20 
REMARK    6  A    between atoms: C8_19  and  C9_22 
REMARK    7  A    between atoms: C9_22  and  O4_23 
REMARK    8  A    between atoms: C9_22  and  C10_25 
REMARK    9  A    between atoms: C10_25  and  O5_26 
REMARK   10  A    between atoms: C10_25  and  O6_28 
ROOT
HETATM    1  C4  UNL     1       0.456  -0.889  -0.613  1.00  0.00     0.265 C 
HETATM    2  C5  UNL     1       0.277  -2.089   0.294  1.00  0.00     0.091 C 
HETATM    3  C6  UNL     1      -1.224  -2.275   0.234  1.00  0.00     0.154 C 
HETATM    4  C7  UNL     1      -1.682  -0.934  -0.282  1.00  0.00     0.184 C 
HETATM    5  O7  UNL     1      -0.597  -0.077  -0.201  1.00  0.00    -0.353 OA
ENDROOT
BRANCH   1   6
HETATM    6  N4  UNL     1       1.743  -0.303  -0.354  1.00  0.00    -0.202 N 
HETATM    7  N3  UNL     1       2.824  -0.993  -0.022  1.00  0.00    -0.273 N 
HETATM    8  C3  UNL     1       3.876  -0.193   0.158  1.00  0.00     0.164 A 
ATOM      9  H3  UNL     1       2.849  -2.007   0.083  1.00  0.00     0.189 HD
HETATM   10  C2  UNL     1       5.210  -0.384   0.504  1.00  0.00     0.291 A 
HETATM   11  C11 UNL     1       3.419   1.092  -0.079  1.00  0.00     0.171 A 
HETATM   12  N2  UNL     1       6.018   0.674   0.600  1.00  0.00    -0.154 N 
HETATM   13  O1  UNL     1       5.581  -1.566   0.710  1.00  0.00    -0.265 OA
HETATM   14  C1  UNL     1       5.557   1.914   0.366  1.00  0.00     0.680 A 
ATOM     15  H2  UNL     1       6.997   0.540   0.854  1.00  0.00     0.187 HD
HETATM   16  N6  UNL     1       4.273   2.142   0.029  1.00  0.00    -0.173 N 
ATOM     17  H6  UNL     1       3.946   3.093  -0.143  1.00  0.00     0.186 HD
HETATM   18  N5  UNL     1       2.115   0.972  -0.387  1.00  0.00    -0.264 N 
ATOM     19  H5  UNL     1       1.498   1.752  -0.614  1.00  0.00     0.190 HD
BRANCH  14  20
HETATM   20  N1  UNL     1       6.391   2.897   0.475  1.00  0.00    -0.234 N 
ATOM     21  H12 UNL     1       7.363   2.724   0.730  1.00  0.00     0.174 HD
ATOM     22  H11 UNL     1       6.041   3.838   0.297  1.00  0.00     0.174 HD
ENDBRANCH  14  20
ENDBRANCH   1   6
BRANCH   3  23
HETATM   23  O2  UNL     1      -1.470  -3.248  -0.749  1.00  0.00    -0.393 OA
ATOM     24  H2  UNL     1      -2.412  -3.365  -0.787  1.00  0.00     0.210 HD
ENDBRANCH   3  23
BRANCH   4  25
HETATM   25  C8  UNL     1      -2.853  -0.483   0.543  1.00  0.00     0.183 C 
BRANCH  25  26
HETATM   26  O3  UNL     1      -3.870  -1.434   0.370  1.00  0.00    -0.390 OA
ATOM     27  H3  UNL     1      -4.611  -1.149   0.892  1.00  0.00     0.210 HD
ENDBRANCH  25  26
BRANCH  25  28
HETATM   28  C9  UNL     1      -3.413   0.831   0.002  1.00  0.00     0.204 C 
BRANCH  28  29
HETATM   29  O4  UNL     1      -3.722   0.644  -1.327  1.00  0.00    -0.388 OA
ATOM     30  H4  UNL     1      -4.070   1.461  -1.663  1.00  0.00     0.210 HD
ENDBRANCH  28  29
BRANCH  28  31
HETATM   31  C10 UNL     1      -4.639   1.203   0.817  1.00  0.00     0.285 C 
BRANCH  31  32
HETATM   32  O5  UNL     1      -5.579   0.184   0.724  1.00  0.00    -0.369 OA
ATOM     33  H5  UNL     1      -6.346   0.417   1.234  1.00  0.00     0.212 HD
ENDBRANCH  31  32
BRANCH  31  34
HETATM   34  O6  UNL     1      -5.218   2.341   0.250  1.00  0.00    -0.369 OA
ATOM     35  H6  UNL     1      -5.985   2.574   0.760  1.00  0.00     0.212 HD
ENDBRANCH  31  34
ENDBRANCH  28  31
ENDBRANCH  25  28
ENDBRANCH   4  25
TORSDOF 10
