REMARK  7 active torsions:
REMARK  status: ('A' for Active; 'I' for Inactive)
REMARK       I    between atoms: N1_1  and  C1_4 
REMARK       I    between atoms: C1_4  and  N3_6 
REMARK    1  A    between atoms: N3_6  and  C2_8 
REMARK    2  A    between atoms: C3_11  and  C4_12 
REMARK    3  A    between atoms: C4_12  and  O1_13 
REMARK    4  A    between atoms: C4_12  and  C5_15 
REMARK    5  A    between atoms: C5_15  and  N5_16 
REMARK    6  A    between atoms: N9_28  and  C9_29 
REMARK    7  A    between atoms: C10_33  and  O4_34 
ROOT
HETATM    1  C2  UNL     1      -1.993  -0.013   0.219  1.00  0.00     0.707 A 
HETATM    2  N4  UNL     1      -0.729  -0.472   0.191  1.00  0.00    -0.175 N 
ATOM      3  H4  UNL     1      -0.440  -1.438   0.345  1.00  0.00     0.185 HD
HETATM    4  C3  UNL     1       0.087   0.561  -0.074  1.00  0.00     0.143 A 
HETATM    5  N8  UNL     1      -0.703   1.638  -0.203  1.00  0.00    -0.266 N 
ATOM      6  H8  UNL     1      -0.374   2.581  -0.408  1.00  0.00     0.189 HD
HETATM    7  N9  UNL     1      -1.968   1.302  -0.027  1.00  0.00    -0.065 N 
ENDROOT
BRANCH   4   8
HETATM    8  C4  UNL     1       1.586   0.506  -0.198  1.00  0.00     0.207 C 
BRANCH   8   9
HETATM    9  O1  UNL     1       2.116   1.575   0.506  1.00  0.00    -0.386 OA
ATOM     10  H1  UNL     1       3.062   1.540   0.428  1.00  0.00     0.210 HD
ENDBRANCH   8   9
BRANCH   8  11
HETATM   11  C5  UNL     1       2.102  -0.772   0.424  1.00  0.00     0.193 C 
BRANCH  11  12
HETATM   12  N5  UNL     1       3.541  -0.790   0.287  1.00  0.00    -0.240 N 
HETATM   13  N6  UNL     1       4.296  -0.265   1.235  1.00  0.00    -0.300 N 
HETATM   14  C6  UNL     1       5.643  -0.254   1.161  1.00  0.00     0.181 A 
ATOM     15  H6  UNL     1       3.845   0.147   2.052  1.00  0.00     0.186 HD
HETATM   16  C7  UNL     1       6.257  -0.803   0.070  1.00  0.00     0.266 A 
HETATM   17  O2  UNL     1       7.512  -0.786   0.013  1.00  0.00    -0.267 OA
HETATM   18  N7  UNL     1       5.502  -1.340  -0.901  1.00  0.00    -0.273 N 
HETATM   19  C8  UNL     1       4.155  -1.325  -0.777  1.00  0.00     0.344 A 
ATOM     20  H7  UNL     1       5.939  -1.755  -1.724  1.00  0.00     0.173 HD
HETATM   21  O3  UNL     1       3.484  -1.841  -1.714  1.00  0.00    -0.245 OA
ENDBRANCH  11  12
ENDBRANCH   8  11
ENDBRANCH   4   8
BRANCH   1  22
HETATM   22  N3  UNL     1      -3.063  -0.698   0.442  1.00  0.00    -0.162 N 
HETATM   23  C1  UNL     1      -3.008  -2.100   0.698  1.00  0.00     0.200 C 
HETATM   24  N1  UNL     1      -2.507  -2.855  -0.212  1.00  0.00    -0.373 N 
HETATM   25  N2  UNL     1      -3.485  -2.663   1.907  1.00  0.00    -0.063 NA
ATOM     26  H12 UNL     1      -2.468  -3.858  -0.029  1.00  0.00     0.158 HD
ATOM     27  H11 UNL     1      -2.163  -2.450  -1.083  1.00  0.00     0.158 HD
ATOM     28  H3  UNL     1      -3.968  -0.227   0.435  1.00  0.00     0.187 HD
ENDBRANCH   1  22
BRANCH   7  29
HETATM   29  C9  UNL     1      -3.116   2.222  -0.095  1.00  0.00     0.476 C 
HETATM   30  N10 UNL     1      -3.264   2.706  -1.467  1.00  0.00     0.022 N 
HETATM   31  C10 UNL     1      -4.686   2.583  -1.164  1.00  0.00     0.475 C 
ATOM     32 2H10 UNL     1      -2.837   3.569  -1.804  1.00  0.00     0.288 HD
ATOM     33 1H10 UNL     1      -2.823   2.255  -2.269  1.00  0.00     0.288 HD
HETATM   34  O5  UNL     1      -4.328   1.597  -0.231  1.00  0.00    -0.287 OA
BRANCH  31  35
HETATM   35  O4  UNL     1      -5.452   2.077  -2.224  1.00  0.00    -0.349 OA
ATOM     36  H4  UNL     1      -6.378   1.997  -2.027  1.00  0.00     0.214 HD
ENDBRANCH  31  35
ENDBRANCH   7  29
TORSDOF 7
