REMARK  8 active torsions:
REMARK  status: ('A' for Active; 'I' for Inactive)
REMARK    1  A    between atoms: N1_1  and  C1_4 
REMARK    2  A    between atoms: N5_15  and  C5_16 
REMARK    3  A    between atoms: C5_16  and  C6_17 
REMARK    4  A    between atoms: C6_17  and  O1_18 
REMARK    5  A    between atoms: C6_17  and  C7_20 
REMARK    6  A    between atoms: C10_27  and  C11_28 
REMARK    7  A    between atoms: C11_28  and  O4_29 
REMARK    8  A    between atoms: N7_31  and  O5_32 
ROOT
HETATM    1  C1  UNL     1       4.045  -0.533  -1.523  1.00  0.00     0.679 A 
HETATM    2  N2  UNL     1       4.424   0.742  -1.623  1.00  0.00    -0.175 N 
ATOM      3  H2  UNL     1       5.150   1.009  -2.287  1.00  0.00     0.186 HD
HETATM    4  C2  UNL     1       3.843   1.678  -0.842  1.00  0.00     0.145 A 
HETATM    5  N3  UNL     1       4.202   2.923  -0.930  1.00  0.00    -0.383 N 
ATOM      6  H31 UNL     1       3.763   3.630  -0.340  1.00  0.00     0.157 HD
ATOM      7  H32 UNL     1       4.930   3.170  -1.601  1.00  0.00     0.157 HD
HETATM    8  C3  UNL     1       2.857   1.344   0.067  1.00  0.00     0.123 A 
HETATM    9  N4  UNL     1       2.155   2.086   0.925  1.00  0.00    -0.346 N 
ATOM     10  H4  UNL     1       2.223   3.093   1.074  1.00  0.00     0.167 HD
HETATM   11  C4  UNL     1       1.324   1.206   1.562  1.00  0.00     0.185 A 
HETATM   12  N5  UNL     1       1.527  -0.040   1.089  1.00  0.00    -0.324 N 
HETATM   13  C12 UNL     1       2.485   0.028   0.151  1.00  0.00     0.155 A 
HETATM   14  N8  UNL     1       3.077  -0.877  -0.634  1.00  0.00    -0.174 N 
ATOM     15  H8  UNL     1       2.794  -1.854  -0.564  1.00  0.00     0.186 HD
ENDROOT
BRANCH  12  16
HETATM   16  C5  UNL     1       0.836  -1.237   1.525  1.00  0.00     0.165 C 
BRANCH  16  17
HETATM   17  C6  UNL     1      -0.392  -1.558   0.750  1.00  0.00     0.165 C 
BRANCH  17  18
HETATM   18  O1  UNL     1      -0.963  -2.724   1.253  1.00  0.00    -0.392 OA
ATOM     19  H1  UNL     1      -1.747  -2.929   0.758  1.00  0.00     0.210 HD
ENDBRANCH  17  18
BRANCH  17  20
HETATM   20  C7  UNL     1      -1.374  -0.458   0.577  1.00  0.00     0.209 C 
HETATM   21  C8  UNL     1      -2.022  -0.040   1.848  1.00  0.00     0.247 C 
HETATM   22  O2  UNL     1      -1.755  -0.493   2.978  1.00  0.00    -0.271 OA
HETATM   23  N6  UNL     1      -3.025   0.966   1.701  1.00  0.00    -0.295 N 
HETATM   24  C9  UNL     1      -3.510   1.175   0.379  1.00  0.00     0.246 C 
ATOM     25  H6  UNL     1      -3.373   1.503   2.496  1.00  0.00     0.171 HD
HETATM   26  O3  UNL     1      -3.961   2.306   0.065  1.00  0.00    -0.271 OA
HETATM   27  C10 UNL     1      -3.453   0.032  -0.561  1.00  0.00     0.202 C 
HETATM   28  N7  UNL     1      -2.391  -0.885  -0.356  1.00  0.00    -0.168 NA
BRANCH  27  29
HETATM   29  C11 UNL     1      -3.528   0.512  -2.000  1.00  0.00     0.195 C 
BRANCH  29  30
HETATM   30  O4  UNL     1      -2.352   1.154  -2.377  1.00  0.00    -0.399 OA
ATOM     31  H4  UNL     1      -2.399   1.454  -3.277  1.00  0.00     0.209 HD
ENDBRANCH  29  30
ENDBRANCH  27  29
BRANCH  28  32
HETATM   32  O5  UNL     1      -2.820  -2.146  -0.119  1.00  0.00    -0.311 OA
ATOM     33  H5  UNL     1      -3.489  -2.427  -0.733  1.00  0.00     0.237 HD
ENDBRANCH  28  32
ENDBRANCH  17  20
ENDBRANCH  16  17
ENDBRANCH  12  16
BRANCH   1  34
HETATM   34  N1  UNL     1       4.587  -1.455  -2.261  1.00  0.00    -0.234 N 
ATOM     35  H12 UNL     1       5.314  -1.197  -2.928  1.00  0.00     0.174 HD
ATOM     36  H11 UNL     1       4.297  -2.430  -2.185  1.00  0.00     0.174 HD
ENDBRANCH   1  34
TORSDOF 8
