REMARK  11 active torsions:
REMARK  status: ('A' for Active; 'I' for Inactive)
REMARK    1  A    between atoms: C2_2  and  N1_3 
REMARK    2  A    between atoms: C2_2  and  N2_7 
REMARK    3  A    between atoms: C7_19  and  O2_20 
REMARK    4  A    between atoms: C7_19  and  C8_22 
REMARK    5  A    between atoms: C8_22  and  O3_23 
REMARK    6  A    between atoms: C8_22  and  C9_25 
REMARK    7  A    between atoms: C8_22  and  C10_28 
REMARK    8  A    between atoms: C10_28  and  O5_29 
REMARK    9  A    between atoms: C10_28  and  C11_31 
REMARK   10  A    between atoms: C11_31  and  O6_32 
REMARK   11  A    between atoms: C11_31  and  O7_34 
ROOT
HETATM    1  N2  UNL     1       2.959   0.590   0.336  1.00  0.00    -0.210 N 
HETATM    2  N3  UNL     1       2.071   1.228   1.061  1.00  0.00    -0.235 N 
ATOM      3  H3  UNL     1       2.344   2.080   1.550  1.00  0.00     0.208 HD
HETATM    4  N4  UNL     1       0.839   0.791   1.169  1.00  0.00    -0.285 N 
ATOM      5  H4  UNL     1       0.192   1.328   1.747  1.00  0.00     0.188 HD
HETATM    6  C3  UNL     1       0.379  -0.304   0.576  1.00  0.00     0.099 A 
HETATM    7  C4  UNL     1       1.273  -1.015  -0.199  1.00  0.00     0.126 A 
HETATM    8  C5  UNL     1       2.580  -0.530  -0.299  1.00  0.00     0.293 A 
HETATM    9  O1  UNL     1       3.439  -1.143  -0.998  1.00  0.00    -0.264 OA
HETATM   10  N5  UNL     1       0.662  -2.160  -0.768  1.00  0.00    -0.380 N 
ATOM     11  H5  UNL     1       0.992  -2.695  -1.571  1.00  0.00     0.160 HD
HETATM   12  C6  UNL     1      -0.530  -2.418   0.023  1.00  0.00     0.168 C 
HETATM   13  C7  UNL     1      -0.899  -1.004   0.529  1.00  0.00     0.161 C 
ENDROOT
BRANCH  13  14
HETATM   14  O2  UNL     1      -1.325  -1.188   1.848  1.00  0.00    -0.378 OA
ATOM     15  H2  UNL     1      -2.158  -1.644   1.817  1.00  0.00     0.211 HD
ENDBRANCH  13  14
BRANCH  13  16
HETATM   16  C8  UNL     1      -1.942  -0.506  -0.373  1.00  0.00     0.205 C 
BRANCH  16  17
HETATM   17  O3  UNL     1      -1.369  -0.371  -1.682  1.00  0.00    -0.375 OA
ATOM     18  H3  UNL     1      -2.045  -0.048  -2.266  1.00  0.00     0.211 HD
ENDBRANCH  16  17
BRANCH  16  19
HETATM   19  C9  UNL     1      -2.985  -1.519  -0.535  1.00  0.00     0.272 C 
HETATM   20  N6  UNL     1      -3.370  -1.923  -1.872  1.00  0.00    -0.059 NA
HETATM   21  O4  UNL     1      -3.605  -2.096   0.376  1.00  0.00    -0.273 OA
ENDBRANCH  16  19
BRANCH  16  22
HETATM   22  C10 UNL     1      -2.536   0.839  -0.112  1.00  0.00     0.220 C 
BRANCH  22  23
HETATM   23  O5  UNL     1      -1.536   1.842  -0.243  1.00  0.00    -0.387 OA
ATOM     24  H5  UNL     1      -1.914   2.698  -0.077  1.00  0.00     0.210 HD
ENDBRANCH  22  23
BRANCH  22  25
HETATM   25  C11 UNL     1      -3.183   1.069   1.203  1.00  0.00     0.286 C 
BRANCH  25  26
HETATM   26  O6  UNL     1      -4.225   0.263   1.559  1.00  0.00    -0.369 OA
ATOM     27  H6  UNL     1      -4.639   0.410   2.401  1.00  0.00     0.212 HD
ENDBRANCH  25  26
BRANCH  25  28
HETATM   28  O7  UNL     1      -3.729   2.381   1.160  1.00  0.00    -0.369 OA
ATOM     29  H7  UNL     1      -4.143   2.528   2.002  1.00  0.00     0.212 HD
ENDBRANCH  25  28
ENDBRANCH  22  25
ENDBRANCH  16  22
ENDBRANCH  13  16
BRANCH   1  30
HETATM   30  C2  UNL     1       4.334   1.041   0.191  1.00  0.00     0.305 C 
HETATM   31  C1  UNL     1       4.598   1.624  -1.181  1.00  0.00     0.065 C 
BRANCH  30  32
HETATM   32  N1  UNL     1       4.748   1.931   1.233  1.00  0.00    -0.057 N 
ATOM     33  H13 UNL     1       5.726   2.201   1.125  1.00  0.00     0.276 HD
ATOM     34  H12 UNL     1       4.317   2.850   1.130  1.00  0.00     0.276 HD
ATOM     35  H11 UNL     1       4.570   1.538   2.157  1.00  0.00     0.276 HD
ENDBRANCH  30  32
ENDBRANCH   1  30
TORSDOF 11
