REMARK  1 active torsions:
REMARK  status: ('A' for Active; 'I' for Inactive)
REMARK    1  A    between atoms: C2_2  and  C4_4 
ROOT
HETATM    1  C4  UNL     1      -2.377   0.100   0.521  1.00  0.00     0.008 C 
HETATM    2  C5  UNL     1      -1.476   0.169  -0.667  1.00  0.00     0.045 C 
HETATM    3  C6  UNL     1       0.009   0.054  -0.274  1.00  0.00     0.084 C 
HETATM    4  C7  UNL     1       0.367   1.353   0.362  1.00  0.00     0.067 C 
HETATM    5  C8  UNL     1       1.681   1.928  -0.020  1.00  0.00     0.235 C 
HETATM    6  N1  UNL     1       2.699   1.336   0.862  1.00  0.00    -0.075 N 
ATOM      7  H11 UNL     1       2.414   0.420   1.210  1.00  0.00     0.277 HD
ATOM      8  H12 UNL     1       2.759   1.825   1.755  1.00  0.00     0.277 HD
HETATM    9  C9  UNL     1       3.964   1.283   0.199  1.00  0.00     0.233 C 
HETATM   10  C10 UNL     1       4.686  -0.010   0.348  1.00  0.00     0.055 C 
HETATM   11  C11 UNL     1       3.998  -1.212  -0.146  1.00  0.00     0.233 C 
HETATM   12  N2  UNL     1       2.560  -1.176  -0.107  1.00  0.00    -0.075 N 
ATOM     13  H21 UNL     1       2.210  -0.512   0.584  1.00  0.00     0.277 HD
ATOM     14  H22 UNL     1       2.164  -2.027   0.293  1.00  0.00     0.277 HD
HETATM   15  C12 UNL     1       2.056  -0.911  -1.408  1.00  0.00     0.235 C 
HETATM   16  C13 UNL     1       0.727  -0.293  -1.518  1.00  0.00     0.067 C 
HETATM   17  O1  UNL     1       0.177  -0.953   0.665  1.00  0.00    -0.264 OA
HETATM   18  S1  UNL     1      -0.978  -2.145   0.580  1.00  0.00     0.266 S 
HETATM   19  O2  UNL     1      -0.741  -3.097   1.718  1.00  0.00    -0.199 OA
HETATM   20  O3  UNL     1      -0.963  -2.897  -0.696  1.00  0.00    -0.199 OA
HETATM   21  C14 UNL     1      -2.566  -1.360   0.878  1.00  0.00     0.175 C 
ENDROOT
BRANCH   1  22
HETATM   22  C2  UNL     1      -3.704   0.737   0.167  1.00  0.00    -0.018 C 
HETATM   23  C1  UNL     1      -4.380   0.048  -0.978  1.00  0.00     0.010 C 
HETATM   24  C3  UNL     1      -4.617   0.565   1.387  1.00  0.00     0.010 C 
ENDBRANCH   1  22
TORSDOF 1
