REMARK  1 active torsions:
REMARK  status: ('A' for Active; 'I' for Inactive)
REMARK    1  A    between atoms: O1_2  and  C2_3 
ROOT
HETATM    1  C2  UNL     1       2.210  -0.292   0.289  1.00  0.00     0.087 C 
HETATM    2  C3  UNL     1       2.575   1.166   0.125  1.00  0.00     0.041 C 
HETATM    3  C4  UNL     1       1.725   1.975  -0.782  1.00  0.00     0.030 C 
HETATM    4  C5  UNL     1       0.656   2.797  -0.085  1.00  0.00     0.232 C 
HETATM    5  N1  UNL     1      -0.485   3.055  -0.936  1.00  0.00    -0.075 N 
ATOM      6  H11 UNL     1      -0.288   2.827  -1.910  1.00  0.00     0.277 HD
ATOM      7  H12 UNL     1      -0.657   4.055  -1.043  1.00  0.00     0.277 HD
HETATM    8  C6  UNL     1      -1.680   2.346  -0.441  1.00  0.00     0.237 C 
HETATM    9  C7  UNL     1      -1.774   0.945  -0.998  1.00  0.00     0.099 C 
HETATM   10  C8  UNL     1      -1.779  -0.139   0.026  1.00  0.00     0.264 C 
HETATM   11  N2  UNL     1      -1.924   0.267   1.360  1.00  0.00    -0.038 N 
ATOM     12  H21 UNL     1      -1.367   1.097   1.562  1.00  0.00     0.281 HD
ATOM     13  H22 UNL     1      -1.472  -0.384   2.002  1.00  0.00     0.281 HD
HETATM   14  C9  UNL     1      -3.289   0.462   1.690  1.00  0.00     0.262 C 
HETATM   15  C10 UNL     1      -3.943  -0.380   0.611  1.00  0.00     0.198 C 
HETATM   16  O2  UNL     1      -2.974  -0.861  -0.205  1.00  0.00    -0.351 OA
HETATM   17  C11 UNL     1      -0.620  -1.143  -0.114  1.00  0.00     0.217 C 
HETATM   18  C12 UNL     1      -1.129  -2.512  -0.531  1.00  0.00     0.049 C 
HETATM   19  C13 UNL     1      -0.375  -2.908  -1.774  1.00  0.00     0.033 C 
HETATM   20  C14 UNL     1      -0.063  -1.559  -2.354  1.00  0.00     0.274 C 
HETATM   21  N3  UNL     1       0.257  -0.788  -1.175  1.00  0.00     0.106 N 
HETATM   22  C15 UNL     1       1.640  -0.896  -0.967  1.00  0.00     0.311 C 
HETATM   23  C16 UNL     1       0.091  -1.350   1.199  1.00  0.00     0.050 C 
HETATM   24  C17 UNL     1       1.326  -0.553   1.448  1.00  0.00     0.042 C 
ENDROOT
BRANCH   1  25
HETATM   25  O1  UNL     1       3.420  -0.960   0.449  1.00  0.00    -0.383 OA
HETATM   26  C1  UNL     1       4.207  -0.568   1.487  1.00  0.00     0.202 C 
ENDBRANCH   1  25
TORSDOF 1
