REMARK  1 active torsions:
REMARK  status: ('A' for Active; 'I' for Inactive)
REMARK    1  A    between atoms: O1_3  and  C2_4 
ROOT
HETATM    1  N1  UNL     1       4.867  -1.696  -1.449  1.00  0.00    -0.164 NA
HETATM    2  C1  UNL     1       3.831  -1.209  -1.212  1.00  0.00     0.229 C 
HETATM    3  O1  UNL     1       2.615  -0.657  -0.927  1.00  0.00    -0.277 OA
ENDROOT
BRANCH   3   4
HETATM    4  C2  UNL     1       2.249  -0.254   0.365  1.00  0.00     0.159 C 
HETATM    5  C3  UNL     1       2.095   1.271   0.449  1.00  0.00     0.036 C 
HETATM    6  C4  UNL     1       1.125   1.784  -0.554  1.00  0.00     0.022 C 
HETATM    7  C5  UNL     1      -0.042   2.526   0.025  1.00  0.00     0.122 C 
HETATM    8  N2  UNL     1      -1.116   2.501  -0.950  1.00  0.00    -0.361 N 
HETATM    9  C6  UNL     1      -2.105   1.495  -1.009  1.00  0.00     0.217 C 
ATOM     10  H2  UNL     1      -1.159   3.256  -1.634  1.00  0.00     0.162 HD
HETATM   11  O2  UNL     1      -2.540   1.143  -2.136  1.00  0.00    -0.274 OA
HETATM   12  C7  UNL     1      -2.680   0.807   0.175  1.00  0.00     0.103 C 
HETATM   13  C8  UNL     1      -2.933  -0.658  -0.133  1.00  0.00     0.009 C 
HETATM   14  C9  UNL     1      -1.877  -1.550   0.515  1.00  0.00     0.001 C 
HETATM   15  C10 UNL     1      -0.846  -1.872  -0.490  1.00  0.00     0.001 C 
HETATM   16  C11 UNL     1       0.544  -2.073   0.043  1.00  0.00     0.022 C 
HETATM   17  C12 UNL     1       1.028  -0.936   0.889  1.00  0.00     0.123 C 
HETATM   18  C13 UNL     1       1.300  -1.466   2.236  1.00  0.00     0.066 C 
HETATM   19  N3  UNL     1       1.505  -1.892   3.303  1.00  0.00    -0.197 NA
ENDBRANCH   3   4
TORSDOF 1
