REMARK  3 active torsions:
REMARK  status: ('A' for Active; 'I' for Inactive)
REMARK    1  A    between atoms: C5_5  and  O1_6 
REMARK    2  A    between atoms: O1_6  and  C6_7 
REMARK    3  A    between atoms: C12_15  and  O4_16 
ROOT
HETATM    1  C1  UNL     1      -3.816   0.004  -1.567  1.00  0.00     0.015 C 
HETATM    2  C2  UNL     1      -2.898  -0.009  -0.424  1.00  0.00    -0.039 C 
HETATM    3  C3  UNL     1      -3.191   1.015   0.655  1.00  0.00     0.012 C 
HETATM    4  C4  UNL     1      -1.938   0.901   1.499  1.00  0.00     0.041 C 
HETATM    5  C5  UNL     1      -0.902   0.180   0.622  1.00  0.00     0.090 C 
HETATM    6  C11 UNL     1      -1.465   0.434  -0.774  1.00  0.00     0.050 C 
HETATM    7  C12 UNL     1      -1.202  -1.280   0.774  1.00  0.00     0.153 C 
HETATM    8  C13 UNL     1      -2.635  -1.337   0.210  1.00  0.00     0.044 C 
ENDROOT
BRANCH   5   9
HETATM    9  O1  UNL     1       0.295   0.655   0.886  1.00  0.00    -0.345 OA
BRANCH   9  10
HETATM   10  C6  UNL     1       1.414   0.238   0.264  1.00  0.00     0.288 C 
HETATM   11  C7  UNL     1       2.306  -0.413   1.337  1.00  0.00     0.232 C 
HETATM   12  O2  UNL     1       3.571   0.090   1.145  1.00  0.00    -0.351 OA
HETATM   13  C8  UNL     1       3.496   0.605  -0.160  1.00  0.00     0.160 C 
HETATM   14  C9  UNL     1       3.538  -0.558  -1.099  1.00  0.00     0.078 C 
HETATM   15  C10 UNL     1       4.638   1.592  -0.407  1.00  0.00     0.078 C 
HETATM   16  O3  UNL     1       2.267   1.264  -0.150  1.00  0.00    -0.324 OA
ENDBRANCH   9  10
ENDBRANCH   5   9
BRANCH   7  17
HETATM   17  O4  UNL     1      -0.464  -2.118  -0.043  1.00  0.00    -0.393 OA
ATOM     18  H4  UNL     1      -0.654  -3.044   0.053  1.00  0.00     0.210 HD
ENDBRANCH   7  17
TORSDOF 3
