REMARK  3 active torsions:
REMARK  status: ('A' for Active; 'I' for Inactive)
REMARK    1  A    between atoms: C2_2  and  O2_4 
REMARK    2  A    between atoms: O2_4  and  C3_5 
REMARK    3  A    between atoms: C11_14  and  O4_15 
ROOT
HETATM    1  C3  UNL     1       0.812   0.278  -0.245  1.00  0.00     0.182 C 
HETATM    2  C4  UNL     1       1.572  -0.679   0.644  1.00  0.00     0.071 C 
HETATM    3  C5  UNL     1       0.717  -1.892   0.839  1.00  0.00     0.015 C 
HETATM    4  C6  UNL     1      -0.650  -1.433   0.335  1.00  0.00    -0.029 C 
HETATM    5  C7  UNL     1      -1.545  -2.570  -0.010  1.00  0.00     0.016 C 
HETATM    6  C8  UNL     1      -1.212  -0.509   1.368  1.00  0.00     0.050 C 
HETATM    7  C9  UNL     1      -1.141   0.899   0.836  1.00  0.00     0.087 C 
HETATM    8  C10 UNL     1      -1.679   1.832   1.874  1.00  0.00     0.049 C 
HETATM    9  O3  UNL     1       0.151   1.229   0.519  1.00  0.00    -0.341 OA
HETATM   10  C11 UNL     1      -2.068   0.961  -0.371  1.00  0.00     0.153 C 
HETATM   11  C12 UNL     1      -1.378   0.158  -1.468  1.00  0.00     0.050 C 
HETATM   12  C13 UNL     1      -0.226  -0.615  -0.878  1.00  0.00     0.023 C 
HETATM   13  C14 UNL     1       0.345  -1.488  -1.959  1.00  0.00     0.022 C 
ENDROOT
BRANCH   1  14
HETATM   14  O2  UNL     1       1.689   0.839  -1.190  1.00  0.00    -0.283 OA
BRANCH  14  15
HETATM   15  C2  UNL     1       2.771   1.565  -0.719  1.00  0.00     0.257 C 
HETATM   16  C1  UNL     1       3.760   2.200  -1.662  1.00  0.00     0.126 C 
HETATM   17  O1  UNL     1       2.970   1.724   0.506  1.00  0.00    -0.266 OA
ENDBRANCH  14  15
ENDBRANCH   1  14
BRANCH  10  18
HETATM   18  O4  UNL     1      -2.338   2.249  -0.769  1.00  0.00    -0.393 OA
ATOM     19  H4  UNL     1      -2.916   2.288  -1.522  1.00  0.00     0.210 HD
ENDBRANCH  10  18
TORSDOF 3
