REMARK  10 active torsions:
REMARK  status: ('A' for Active; 'I' for Inactive)
REMARK    1  A    between atoms: C4_4  and  O1_5 
REMARK    2  A    between atoms: C12_14  and  O2_15 
REMARK    3  A    between atoms: C17_21  and  C18_22 
REMARK       I    between atoms: C18_22  and  N1_24 
REMARK    4  A    between atoms: C23_30  and  O5_31 
REMARK    5  A    between atoms: O5_31  and  C24_32 
REMARK    6  A    between atoms: C24_32  and  C25_33 
REMARK    7  A    between atoms: C26_34  and  C27_35 
REMARK    8  A    between atoms: C27_35  and  N2_36 
REMARK    9  A    between atoms: C31_41  and  O7_43 
REMARK   10  A    between atoms: C35_47  and  O8_48 
ROOT
HETATM    1  C1  UNL     1      -5.277   2.288   0.240  1.00  0.00     0.018 C 
HETATM    2  C2  UNL     1      -3.891   2.723   0.064  1.00  0.00    -0.017 C 
HETATM    3  C3  UNL     1      -3.760   3.993   0.942  1.00  0.00     0.018 C 
HETATM    4  C4  UNL     1      -3.647   3.201  -1.324  1.00  0.00     0.126 C 
HETATM    5  C5  UNL     1      -3.222   2.047  -2.089  1.00  0.00     0.033 C 
HETATM    6  C6  UNL     1      -3.314   0.689  -1.474  1.00  0.00     0.013 C 
HETATM    7  C7  UNL     1      -2.620   0.515  -0.110  1.00  0.00    -0.022 C 
HETATM    8  C8  UNL     1      -2.792   1.772   0.565  1.00  0.00     0.005 C 
HETATM    9  C9  UNL     1      -3.199   1.599   2.016  1.00  0.00     0.007 C 
HETATM   10  C10 UNL     1      -3.910   0.321   1.998  1.00  0.00     0.009 C 
HETATM   11  C11 UNL     1      -3.452  -0.451   0.798  1.00  0.00     0.030 C 
HETATM   12  C12 UNL     1      -2.365  -1.309   1.309  1.00  0.00     0.073 C 
HETATM   13  C13 UNL     1      -2.354  -2.402   2.214  1.00  0.00     0.040 C 
HETATM   14  C14 UNL     1      -0.860  -2.670   2.555  1.00  0.00     0.017 C 
HETATM   15  C15 UNL     1       0.008  -2.753   1.264  1.00  0.00    -0.004 C 
HETATM   16  C16 UNL     1       0.600  -4.186   1.389  1.00  0.00     0.021 C 
HETATM   17  C17 UNL     1       1.084  -1.763   1.208  1.00  0.00     0.051 C 
HETATM   18  C23 UNL     1       1.105  -0.633   0.248  1.00  0.00     0.094 C 
HETATM   19  C31 UNL     1      -0.030   0.246  -0.131  1.00  0.00     0.108 C 
HETATM   20  C32 UNL     1       0.433   0.881  -1.477  1.00  0.00     0.053 C 
HETATM   21  C33 UNL     1      -1.379  -0.260  -0.368  1.00  0.00     0.050 C 
HETATM   22  C34 UNL     1      -1.807  -1.629  -0.037  1.00  0.00     0.029 C 
HETATM   23  C35 UNL     1      -2.424  -2.576  -0.925  1.00  0.00     0.131 C 
HETATM   24  C36 UNL     1      -0.937  -2.980  -1.217  1.00  0.00     0.039 C 
HETATM   25  C37 UNL     1      -0.935  -2.787   0.210  1.00  0.00     0.015 C 
ENDROOT
BRANCH  18  26
HETATM   26  O5  UNL     1       2.181   0.044   0.495  1.00  0.00    -0.340 OA
BRANCH  26  27
HETATM   27  C24 UNL     1       3.212   0.670   0.694  1.00  0.00     0.269 C 
BRANCH  27  28
HETATM   28  C25 UNL     1       3.607   1.661  -0.365  1.00  0.00    -0.078 C 
HETATM   29  C26 UNL     1       3.937   2.482  -1.209  1.00  0.00    -0.082 C 
BRANCH  29  30
HETATM   30  C27 UNL     1       4.303   3.468  -2.222  1.00  0.00     0.249 C 
BRANCH  30  31
HETATM   31  N2  UNL     1       4.947   4.601  -1.586  1.00  0.00    -0.254 N 
HETATM   32  C28 UNL     1       4.329   5.697  -1.122  1.00  0.00     0.120 A 
HETATM   33  C29 UNL     1       5.298   6.547  -0.586  1.00  0.00     0.046 A 
HETATM   34  C30 UNL     1       6.485   5.870  -0.774  1.00  0.00     0.169 A 
HETATM   35  O6  UNL     1       6.221   4.736  -1.364  1.00  0.00    -0.248 OA
ENDBRANCH  30  31
ENDBRANCH  29  30
ENDBRANCH  27  28
ENDBRANCH  26  27
ENDBRANCH  18  26
BRANCH  17  36
HETATM   36  C18 UNL     1       2.477  -2.309   1.226  1.00  0.00     0.253 C 
HETATM   37  O3  UNL     1       3.103  -2.254   2.355  1.00  0.00    -0.268 OA
HETATM   38  N1  UNL     1       3.292  -2.887   0.280  1.00  0.00    -0.344 N 
HETATM   39  C19 UNL     1       4.622  -3.359   0.641  1.00  0.00     0.152 C 
HETATM   40  C22 UNL     1       3.067  -3.113  -1.123  1.00  0.00     0.152 C 
HETATM   41  C20 UNL     1       4.837  -4.802   0.320  1.00  0.00     0.187 C 
HETATM   42  O4  UNL     1       4.085  -5.180  -0.765  1.00  0.00    -0.388 OA
HETATM   43  C21 UNL     1       4.090  -4.099  -1.669  1.00  0.00     0.187 C 
ENDBRANCH  17  36
BRANCH  19  44
HETATM   44  O7  UNL     1       0.121   1.373   0.689  1.00  0.00    -0.383 OA
ATOM     45  H7  UNL     1      -0.605   1.935   0.447  1.00  0.00     0.211 HD
ENDBRANCH  19  44
BRANCH  12  46
HETATM   46  O2  UNL     1      -1.581  -0.372   2.014  1.00  0.00    -0.389 OA
ATOM     47  H2  UNL     1      -0.881  -0.924   2.343  1.00  0.00     0.210 HD
ENDBRANCH  12  46
BRANCH  23  48
HETATM   48  O8  UNL     1      -3.048  -2.567  -2.075  1.00  0.00    -0.395 OA
ATOM     49  H8  UNL     1      -3.456  -3.193  -2.662  1.00  0.00     0.210 HD
ENDBRANCH  23  48
BRANCH   4  50
HETATM   50  O1  UNL     1      -4.764   3.810  -1.852  1.00  0.00    -0.395 OA
ATOM     51  H1  UNL     1      -4.608   4.115  -2.738  1.00  0.00     0.210 HD
ENDBRANCH   4  50
TORSDOF 10
