REMARK  6 active torsions:
REMARK  status: ('A' for Active; 'I' for Inactive)
REMARK       I    between atoms: C1_2  and  N1_3 
REMARK       I    between atoms: C1_2  and  N2_10 
REMARK    1  A    between atoms: N1_3  and  C2_5 
REMARK    2  A    between atoms: N2_10  and  S1_12 
REMARK    3  A    between atoms: S1_12  and  N3_15 
REMARK    4  A    between atoms: C17_28  and  C18_29 
REMARK       I    between atoms: C18_29  and  N4_31 
REMARK    5  A    between atoms: N4_31  and  C19_33 
REMARK    6  A    between atoms: C27_43  and  O8_44 
ROOT
HETATM    1  N3  UNL     1      -3.140  -0.472   0.932  1.00  0.00    -0.210 N 
HETATM    2  C6  UNL     1      -3.137  -0.870  -0.432  1.00  0.00     0.148 C 
HETATM    3  C7  UNL     1      -3.862  -2.064  -0.871  1.00  0.00     0.021 C 
HETATM    4  C8  UNL     1      -3.645  -3.351  -0.166  1.00  0.00     0.002 C 
HETATM    5  C9  UNL     1      -2.777  -4.341  -0.945  1.00  0.00     0.000 C 
HETATM    6  C10 UNL     1      -2.255  -5.344   0.036  1.00  0.00     0.000 C 
HETATM    7  C11 UNL     1      -0.819  -5.747  -0.198  1.00  0.00     0.000 C 
HETATM    8  C12 UNL     1      -0.004  -5.503   1.054  1.00  0.00     0.000 C 
HETATM    9  C13 UNL     1       1.207  -4.646   0.776  1.00  0.00     0.000 C 
HETATM   10  C14 UNL     1       0.822  -3.306   0.188  1.00  0.00     0.004 C 
HETATM   11  C15 UNL     1       0.058  -2.459   1.187  1.00  0.00     0.054 C 
HETATM   12  C16 UNL     1       0.255  -1.029   0.766  1.00  0.00     0.228 C 
HETATM   13  O5  UNL     1       1.535  -0.732   1.140  1.00  0.00    -0.350 OA
HETATM   14  C17 UNL     1       1.538   0.411   1.833  1.00  0.00     0.233 C 
HETATM   15  C28 UNL     1       0.294   1.120   1.379  1.00  0.00     0.172 C 
HETATM   16  N6  UNL     1      -0.626  -0.071   1.313  1.00  0.00    -0.303 N 
HETATM   17  C29 UNL     1      -1.984  -0.168   1.701  1.00  0.00     0.337 C 
HETATM   18  O9  UNL     1      -2.222   0.052   2.939  1.00  0.00    -0.246 OA
ENDROOT
BRANCH  14  19
HETATM   19  C18 UNL     1       2.791   1.150   1.635  1.00  0.00     0.248 C 
HETATM   20  O6  UNL     1       2.982   2.273   2.209  1.00  0.00    -0.271 OA
HETATM   21  N4  UNL     1       3.785   0.585   0.794  1.00  0.00    -0.350 N 
ATOM     22  H4  UNL     1       3.628  -0.310   0.332  1.00  0.00     0.163 HD
BRANCH  21  23
HETATM   23  C19 UNL     1       5.025   1.304   0.606  1.00  0.00     0.131 C 
HETATM   24  C20 UNL     1       5.170   1.622  -0.854  1.00  0.00     0.153 C 
HETATM   25  N5  UNL     1       6.464   2.195  -1.184  1.00  0.00    -0.345 N 
HETATM   26  C21 UNL     1       6.727   2.965  -2.326  1.00  0.00     0.220 C 
HETATM   27  C25 UNL     1       7.537   1.917  -0.229  1.00  0.00     0.089 C 
HETATM   28  O7  UNL     1       5.927   2.869  -3.307  1.00  0.00    -0.273 OA
HETATM   29  C22 UNL     1       7.898   3.879  -2.421  1.00  0.00     0.103 C 
HETATM   30  C23 UNL     1       8.884   3.628  -1.301  1.00  0.00     0.011 C 
HETATM   31  C24 UNL     1       8.834   2.129  -0.982  1.00  0.00     0.026 C 
HETATM   32  C26 UNL     1       7.339   0.483   0.198  1.00  0.00     0.059 C 
HETATM   33  C27 UNL     1       6.173   0.468   1.154  1.00  0.00     0.144 C 
BRANCH  33  34
HETATM   34  O8  UNL     1       5.713  -0.840   1.381  1.00  0.00    -0.393 OA
ATOM     35  H8  UNL     1       6.429  -1.362   1.723  1.00  0.00     0.210 HD
ENDBRANCH  33  34
ENDBRANCH  21  23
ENDBRANCH  14  19
BRANCH   1  36
HETATM   36  S1  UNL     1      -4.722  -0.324   1.696  1.00  0.00     0.332 S 
HETATM   37  O3  UNL     1      -5.557  -1.494   1.291  1.00  0.00    -0.182 OA
HETATM   38  O4  UNL     1      -4.536  -0.482   3.209  1.00  0.00    -0.182 OA
BRANCH  36  39
HETATM   39  N2  UNL     1      -5.518   1.106   1.417  1.00  0.00    -0.218 N 
HETATM   40  C1  UNL     1      -6.327   1.409   0.285  1.00  0.00     0.331 C 
HETATM   41  O1  UNL     1      -6.451   0.492  -0.597  1.00  0.00    -0.246 OA
HETATM   42  N1  UNL     1      -6.967   2.664   0.135  1.00  0.00    -0.336 N 
ATOM     43  H1  UNL     1      -6.836   3.362   0.867  1.00  0.00     0.164 HD
ATOM     44  H2  UNL     1      -5.418   1.836   2.123  1.00  0.00     0.185 HD
BRANCH  42  45
HETATM   45  C2  UNL     1      -7.795   3.009  -0.998  1.00  0.00     0.112 C 
HETATM   46  C3  UNL     1      -7.339   4.309  -1.635  1.00  0.00     0.053 C 
HETATM   47  C4  UNL     1      -8.152   5.333  -0.919  1.00  0.00     0.169 C 
HETATM   48  O2  UNL     1      -8.953   4.665  -0.000  1.00  0.00    -0.389 OA
HETATM   49  C5  UNL     1      -9.189   3.400  -0.526  1.00  0.00     0.192 C 
ENDBRANCH  42  45
ENDBRANCH  36  39
ENDBRANCH   1  36
TORSDOF 6
