REMARK  8 active torsions:
REMARK  status: ('A' for Active; 'I' for Inactive)
REMARK    1  A    between atoms: C3_3  and  C4_4 
REMARK       I    between atoms: C4_4  and  N1_6 
REMARK    2  A    between atoms: C8_10  and  O2_11 
REMARK    3  A    between atoms: C11_15  and  C12_16 
REMARK       I    between atoms: N3_24  and  C19_25 
REMARK    4  A    between atoms: C19_25  and  C20_27 
REMARK    5  A    between atoms: C23_30  and  O4_31 
REMARK    6  A    between atoms: O4_31  and  C24_32 
REMARK       I    between atoms: N6_42  and  C30_43 
REMARK    7  A    between atoms: C30_43  and  O6_45 
REMARK    8  A    between atoms: O6_45  and  C31_46 
ROOT
HETATM    1  C1  UNL     1     -11.794  -2.638  -0.822  1.00  0.00     0.012 C 
HETATM    2  C2  UNL     1     -10.682  -2.797  -0.380  1.00  0.00    -0.108 C 
HETATM    3  C3  UNL     1      -9.339  -2.993   0.128  1.00  0.00     0.196 C 
ENDROOT
BRANCH   3   4
HETATM    4  C4  UNL     1      -8.328  -2.449  -0.819  1.00  0.00     0.231 C 
HETATM    5  O1  UNL     1      -8.733  -1.912  -1.881  1.00  0.00    -0.272 OA
HETATM    6  N1  UNL     1      -6.927  -2.526  -0.545  1.00  0.00    -0.348 N 
HETATM    7  C5  UNL     1      -6.515  -3.162   0.697  1.00  0.00     0.135 C 
HETATM    8  C9  UNL     1      -6.006  -1.975  -1.501  1.00  0.00     0.168 C 
HETATM    9  C6  UNL     1      -5.026  -3.241   0.690  1.00  0.00     0.039 C 
HETATM   10  C7  UNL     1      -4.552  -3.733  -0.644  1.00  0.00     0.055 C 
HETATM   11  C10 UNL     1      -4.392  -1.889   0.368  1.00  0.00    -0.036 C 
HETATM   12  C8  UNL     1      -4.580  -2.250  -1.040  1.00  0.00     0.098 C 
HETATM   13  C11 UNL     1      -3.998  -0.995   1.233  1.00  0.00     0.036 C 
BRANCH  12  14
HETATM   14  O2  UNL     1      -3.623  -1.929  -1.965  1.00  0.00    -0.384 OA
ATOM     15  H2  UNL     1      -3.640  -1.011  -2.210  1.00  0.00     0.211 HD
ENDBRANCH  12  14
BRANCH  13  16
HETATM   16  C12 UNL     1      -3.391   0.291   0.941  1.00  0.00     0.039 A 
HETATM   17  C13 UNL     1      -3.991   1.474   1.213  1.00  0.00     0.032 A 
HETATM   18  C14 UNL     1      -3.117   2.460   0.870  1.00  0.00     0.034 A 
HETATM   19  C15 UNL     1      -1.989   1.838   0.392  1.00  0.00     0.054 A 
HETATM   20  N2  UNL     1      -2.142   0.465   0.429  1.00  0.00    -0.322 N 
HETATM   21  C35 UNL     1      -0.780   2.358  -0.087  1.00  0.00     0.126 C 
HETATM   22  C16 UNL     1      -1.153  -0.488   0.022  1.00  0.00     0.104 C 
HETATM   23  C17 UNL     1       0.228  -0.333   0.409  1.00  0.00     0.179 C 
HETATM   24  C18 UNL     1       1.214  -1.434   0.272  1.00  0.00     0.163 C 
HETATM   25  O7  UNL     1       0.809   0.467  -0.607  1.00  0.00    -0.370 OA
HETATM   26  N3  UNL     1       2.562  -0.822   0.388  1.00  0.00    -0.347 N 
HETATM   27  C19 UNL     1       3.566  -1.562   1.048  1.00  0.00     0.224 C 
HETATM   28  C27 UNL     1       2.890   0.520  -0.145  1.00  0.00     0.159 C 
HETATM   29  O3  UNL     1       3.232  -2.701   1.523  1.00  0.00    -0.273 OA
HETATM   30  C28 UNL     1       1.659   1.345   0.046  1.00  0.00     0.158 C 
HETATM   31  C29 UNL     1       1.551   2.677  -0.644  1.00  0.00     0.167 C 
HETATM   32  N6  UNL     1       0.165   3.250  -0.361  1.00  0.00    -0.299 N 
HETATM   33  C30 UNL     1       0.055   4.652  -0.421  1.00  0.00     0.367 C 
HETATM   34  O5  UNL     1      -1.045   5.203  -0.201  1.00  0.00    -0.238 OA
BRANCH  27  35
HETATM   35  C20 UNL     1       4.943  -1.135   1.229  1.00  0.00     0.078 C 
HETATM   36  C21 UNL     1       5.789  -1.024   0.014  1.00  0.00     0.017 C 
HETATM   37  C22 UNL     1       5.917  -2.336  -0.674  1.00  0.00     0.033 C 
HETATM   38  C23 UNL     1       6.054  -3.546   0.172  1.00  0.00     0.131 C 
HETATM   39  C25 UNL     1       5.973  -3.386   1.652  1.00  0.00     0.033 C 
HETATM   40  C26 UNL     1       5.687  -2.038   2.186  1.00  0.00     0.017 C 
BRANCH  38  41
HETATM   41  O4  UNL     1       7.066  -4.443  -0.256  1.00  0.00    -0.319 OA
BRANCH  41  42
HETATM   42  C24 UNL     1       8.365  -4.012  -0.324  1.00  0.00     0.225 C 
HETATM   43  N4  UNL     1       8.659  -2.963   0.348  1.00  0.00    -0.368 N 
ATOM     44  H42 UNL     1       7.926  -2.508   0.892  1.00  0.00     0.159 HD
ATOM     45  H41 UNL     1       9.626  -2.642   0.297  1.00  0.00     0.159 HD
HETATM   46  N5  UNL     1       9.383  -4.644  -1.079  1.00  0.00    -0.057 NA
ENDBRANCH  41  42
ENDBRANCH  38  41
ENDBRANCH  27  35
BRANCH  33  47
HETATM   47  O6  UNL     1       1.148   5.432  -0.719  1.00  0.00    -0.294 OA
BRANCH  47  48
HETATM   48  C31 UNL     1       1.036   6.825  -0.776  1.00  0.00     0.061 C 
HETATM   49  C32 UNL     1       0.030   7.230  -1.827  1.00  0.00     0.046 C 
HETATM   50  C33 UNL     1       0.643   7.364   0.595  1.00  0.00     0.046 C 
HETATM   51  C34 UNL     1       2.378   7.447  -1.113  1.00  0.00     0.046 C 
ENDBRANCH  47  48
ENDBRANCH  33  47
ENDBRANCH  13  16
ENDBRANCH   3   4
TORSDOF 8
