REMARK  8 active torsions:
REMARK  status: ('A' for Active; 'I' for Inactive)
REMARK    1  A    between atoms: C2_2  and  C3_3 
REMARK    2  A    between atoms: C9_13  and  C10_14 
REMARK    3  A    between atoms: C10_14  and  O2_15 
REMARK    4  A    between atoms: C10_14  and  N3_17 
REMARK    5  A    between atoms: C17_24  and  C18_25 
REMARK       I    between atoms: C18_25  and  N4_27 
REMARK    6  A    between atoms: N4_27  and  C19_29 
REMARK    7  A    between atoms: C32_43  and  O5_44 
REMARK    8  A    between atoms: C36_49  and  O6_50 
ROOT
HETATM    1  C3  UNL     1       2.192   2.744  -2.076  1.00  0.00     0.008 C 
HETATM    2  C4  UNL     1       2.232   2.019  -3.382  1.00  0.00     0.022 C 
HETATM    3  C5  UNL     1       3.526   3.420  -1.842  1.00  0.00     0.118 C 
HETATM    4  C6  UNL     1       4.302   2.275  -1.300  1.00  0.00     0.227 C 
HETATM    5  O1  UNL     1       5.567   2.373  -1.147  1.00  0.00    -0.273 OA
HETATM    6  N1  UNL     1       3.414   1.153  -1.018  1.00  0.00    -0.286 N 
HETATM    7  C7  UNL     1       2.204   1.814  -0.888  1.00  0.00     0.041 C 
HETATM    8  C8  UNL     1       0.876   1.246  -0.591  1.00  0.00     0.110 C 
HETATM    9  N2  UNL     1       0.325   0.300  -1.397  1.00  0.00    -0.385 N 
ATOM     10  H2  UNL     1       0.550   0.403  -2.387  1.00  0.00     0.159 HD
HETATM   11  C9  UNL     1      -0.494  -0.785  -1.100  1.00  0.00     0.156 C 
HETATM   12  C23 UNL     1       0.074  -2.071  -0.724  1.00  0.00     0.044 C 
HETATM   13  C24 UNL     1       1.515  -2.391  -0.783  1.00  0.00    -0.022 A 
HETATM   14  C25 UNL     1       2.251  -1.882  -2.001  1.00  0.00     0.020 C 
HETATM   15  C26 UNL     1       3.237  -1.375  -1.065  1.00  0.00     0.048 C 
HETATM   16  C27 UNL     1       2.273  -1.574   0.050  1.00  0.00     0.016 A 
HETATM   17  C28 UNL     1       2.140  -3.114   0.295  1.00  0.00     0.070 A 
HETATM   18  C29 UNL     1       3.528  -3.325   0.703  1.00  0.00     0.136 C 
HETATM   19  O4  UNL     1       3.854  -4.458   0.288  1.00  0.00    -0.297 OA
HETATM   20  C30 UNL     1       4.685  -2.707   1.418  1.00  0.00     0.062 C 
HETATM   21  C31 UNL     1       4.441  -2.194   2.772  1.00  0.00     0.044 C 
HETATM   22  C32 UNL     1       5.770  -1.481   3.063  1.00  0.00     0.119 C 
HETATM   23  C33 UNL     1       6.417  -1.243   1.712  1.00  0.00     0.037 C 
HETATM   24  C34 UNL     1       5.304  -1.557   0.686  1.00  0.00     0.004 C 
HETATM   25  C35 UNL     1       4.563  -0.307   0.487  1.00  0.00     0.067 C 
HETATM   26  C36 UNL     1       3.928  -0.166  -0.938  1.00  0.00     0.144 C 
ENDROOT
BRANCH  11  27
HETATM   27  C10 UNL     1      -1.558  -0.381  -0.154  1.00  0.00     0.138 C 
BRANCH  27  28
HETATM   28  O2  UNL     1      -1.502   0.835   0.324  1.00  0.00    -0.348 OA
ATOM     29  H2  UNL     1      -2.185   1.094   0.931  1.00  0.00     0.219 HD
ENDBRANCH  27  28
BRANCH  27  30
HETATM   30  N3  UNL     1      -2.659  -1.089   0.342  1.00  0.00    -0.345 N 
HETATM   31  C11 UNL     1      -3.030  -2.393  -0.012  1.00  0.00     0.087 C 
HETATM   32  C12 UNL     1      -4.455  -2.572  -0.515  1.00  0.00     0.026 C 
HETATM   33  C15 UNL     1      -3.133  -3.219   1.289  1.00  0.00     0.030 C 
HETATM   34  C13 UNL     1      -5.345  -2.686   0.673  1.00  0.00     0.007 C 
HETATM   35  C14 UNL     1      -4.422  -2.672   1.855  1.00  0.00    -0.010 C 
HETATM   36  C16 UNL     1      -4.123  -1.279   2.338  1.00  0.00     0.040 C 
HETATM   37  C17 UNL     1      -3.501  -0.386   1.340  1.00  0.00     0.179 C 
BRANCH  37  38
HETATM   38  C18 UNL     1      -4.388   0.580   0.674  1.00  0.00     0.241 C 
HETATM   39  O3  UNL     1      -4.264   0.807  -0.545  1.00  0.00    -0.271 OA
HETATM   40  N4  UNL     1      -5.384   1.258   1.405  1.00  0.00    -0.351 N 
ATOM     41  H4  UNL     1      -5.487   1.068   2.402  1.00  0.00     0.163 HD
BRANCH  40  42
HETATM   42  C19 UNL     1      -6.276   2.230   0.766  1.00  0.00     0.022 C 
HETATM   43  C20 UNL     1      -7.270   2.808   1.746  1.00  0.00     0.037 C 
HETATM   44  C21 UNL     1      -5.440   3.429   0.290  1.00  0.00     0.037 C 
HETATM   45  C22 UNL     1      -6.998   1.691  -0.418  1.00  0.00     0.037 C 
ENDBRANCH  40  42
ENDBRANCH  37  38
ENDBRANCH  27  30
ENDBRANCH  11  27
BRANCH   1  46
HETATM   46  C2  UNL     1       1.181   3.818  -2.116  1.00  0.00     0.011 C 
HETATM   47  C1  UNL     1       1.047   4.659  -0.871  1.00  0.00     0.006 C 
ENDBRANCH   1  46
BRANCH  26  48
HETATM   48  O6  UNL     1       5.130  -0.321  -1.722  1.00  0.00    -0.370 OA
ATOM     49  H6  UNL     1       5.474  -1.205  -1.668  1.00  0.00     0.212 HD
ENDBRANCH  26  48
BRANCH  22  50
HETATM   50  O5  UNL     1       6.529  -2.387   3.829  1.00  0.00    -0.396 OA
ATOM     51  H5  UNL     1       7.351  -1.946   4.009  1.00  0.00     0.210 HD
ENDBRANCH  22  50
TORSDOF 8
