REMARK  3 active torsions:
REMARK  status: ('A' for Active; 'I' for Inactive)
REMARK    1  A    between atoms: C1_2  and  C2_4 
REMARK    2  A    between atoms: C10_16  and  N3_17 
REMARK       I    between atoms: N3_17  and  C11_19 
REMARK       I    between atoms: C11_19  and  N4_21 
REMARK       I    between atoms: N5_34  and  C21_35 
REMARK       I    between atoms: C21_35  and  N6_37 
REMARK    3  A    between atoms: N6_37  and  C22_38 
ROOT
HETATM    1  C2  UNL     1      -2.113  -1.052   1.039  1.00  0.00     0.180 C 
HETATM    2  C3  UNL     1      -3.047  -1.978   0.383  1.00  0.00     0.054 C 
HETATM    3  C4  UNL     1      -2.562  -3.358   0.042  1.00  0.00     0.125 C 
HETATM    4  N2  UNL     1      -1.536  -3.902   0.874  1.00  0.00    -0.359 N 
ATOM      5  H2  UNL     1      -1.621  -3.677   1.865  1.00  0.00     0.162 HD
HETATM    6  C5  UNL     1      -0.439  -4.691   0.543  1.00  0.00     0.241 C 
HETATM    7  O2  UNL     1      -0.358  -5.865   1.055  1.00  0.00    -0.271 OA
HETATM    8  C6  UNL     1       0.713  -4.336  -0.371  1.00  0.00     0.278 C 
HETATM    9  O3  UNL     1       1.694  -3.733   0.369  1.00  0.00    -0.342 OA
HETATM   10  C7  UNL     1       2.715  -2.864   0.254  1.00  0.00     0.075 A 
HETATM   11  C8  UNL     1       3.942  -3.241   0.842  1.00  0.00     0.039 A 
HETATM   12  C9  UNL     1       5.083  -2.475   0.825  1.00  0.00     0.032 A 
HETATM   13  C10 UNL     1       5.073  -1.251   0.204  1.00  0.00     0.037 A 
HETATM   14  C16 UNL     1       3.843  -0.882  -0.384  1.00  0.00     0.039 A 
HETATM   15  C17 UNL     1       2.712  -1.645  -0.364  1.00  0.00    -0.022 A 
HETATM   16  C18 UNL     1       1.541  -1.007  -1.067  1.00  0.00     0.043 C 
HETATM   17  C19 UNL     1       0.363  -0.980  -0.183  1.00  0.00     0.025 C 
HETATM   18  C20 UNL     1      -0.204   0.312   0.250  1.00  0.00     0.130 C 
HETATM   19  N5  UNL     1      -1.679   0.115   0.334  1.00  0.00    -0.309 N 
HETATM   20  C21 UNL     1      -2.433   1.128  -0.278  1.00  0.00     0.392 C 
HETATM   21  O7  UNL     1      -1.717   1.985  -0.879  1.00  0.00    -0.230 OA
HETATM   22  N6  UNL     1      -3.853   1.270  -0.282  1.00  0.00    -0.385 NA
ENDROOT
BRANCH   1  23
HETATM   23  C1  UNL     1      -2.685  -0.678   2.395  1.00  0.00     0.254 C 
HETATM   24  N1  UNL     1      -2.628   0.669   2.816  1.00  0.00    -0.060 NA
HETATM   25  O1  UNL     1      -3.201  -1.544   3.134  1.00  0.00    -0.275 OA
ENDBRANCH   1  23
BRANCH  22  26
HETATM   26  C22 UNL     1      -5.168   1.402  -0.288  1.00  0.00     0.099 C 
HETATM   27  C23 UNL     1      -5.542   2.789   0.293  1.00  0.00     0.050 C 
HETATM   28  C24 UNL     1      -6.961   3.153   0.171  1.00  0.00    -0.010 C 
HETATM   29  C25 UNL     1      -7.803   2.177   0.963  1.00  0.00     0.009 C 
HETATM   30  C29 UNL     1      -7.406   3.142  -1.259  1.00  0.00     0.009 C 
HETATM   31  C26 UNL     1      -7.452   0.813   0.413  1.00  0.00    -0.010 C 
HETATM   32  C27 UNL     1      -7.961   0.754  -1.008  1.00  0.00     0.009 C 
HETATM   33  C31 UNL     1      -6.006   0.464   0.570  1.00  0.00     0.050 C 
HETATM   34  C28 UNL     1      -7.156   1.751  -1.805  1.00  0.00    -0.010 C 
HETATM   35  C30 UNL     1      -5.729   1.360  -1.702  1.00  0.00     0.050 C 
ENDBRANCH  22  26
BRANCH  13  36
HETATM   36  N3  UNL     1       6.134  -0.336   0.143  1.00  0.00    -0.309 N 
HETATM   37  C11 UNL     1       7.281  -0.353   0.915  1.00  0.00     0.322 C 
HETATM   38  O4  UNL     1       7.575  -1.213   1.799  1.00  0.00    -0.247 OA
HETATM   39  N4  UNL     1       8.251   0.730   0.700  1.00  0.00    -0.332 N 
HETATM   40  C12 UNL     1       7.880   1.712  -0.297  1.00  0.00     0.142 C 
HETATM   41  C15 UNL     1       9.447   0.747   1.494  1.00  0.00     0.142 C 
HETATM   42  C13 UNL     1       8.823   2.887  -0.279  1.00  0.00     0.160 C 
HETATM   43  S1  UNL     1      10.520   2.305  -0.386  1.00  0.00     0.147 S 
HETATM   44  O5  UNL     1      11.421   3.411   0.071  1.00  0.00    -0.228 OA
HETATM   45  O6  UNL     1      10.749   1.982  -1.850  1.00  0.00    -0.228 OA
HETATM   46  C14 UNL     1      10.673   0.862   0.641  1.00  0.00     0.160 C 
ATOM     47  H3  UNL     1       6.051   0.418  -0.539  1.00  0.00     0.170 HD
ENDBRANCH  13  36
TORSDOF 3
