REMARK  2 active torsions:
REMARK  status: ('A' for Active; 'I' for Inactive)
REMARK       I    between atoms: C2_2  and  N1_4 
REMARK    1  A    between atoms: C3_5  and  C4_6 
REMARK    2  A    between atoms: C4_6  and  C5_8 
REMARK       I    between atoms: N3_31  and  C23_33 
REMARK       I    between atoms: C23_33  and  N4_35 
ROOT
HETATM    1  C1  UNL     1       1.472   3.823  -1.689  1.00  0.00     0.117 C 
HETATM    2  C2  UNL     1       1.509   2.414  -1.316  1.00  0.00     0.217 C 
HETATM    3  O1  UNL     1       2.688   1.887  -1.287  1.00  0.00    -0.274 OA
HETATM    4  N1  UNL     1       0.399   1.573  -0.989  1.00  0.00    -0.322 N 
HETATM    5  C3  UNL     1      -0.940   2.134  -0.965  1.00  0.00     0.170 C 
HETATM    6  C6  UNL     1      -1.137   3.286  -0.058  1.00  0.00     0.034 C 
HETATM    7  C7  UNL     1      -2.219   3.234   0.950  1.00  0.00     0.012 C 
HETATM    8  C8  UNL     1      -3.084   2.040   1.037  1.00  0.00     0.103 C 
HETATM    9  C9  UNL     1      -4.328   2.392   1.774  1.00  0.00     0.217 C 
HETATM   10  O5  UNL     1      -4.546   3.592   2.065  1.00  0.00    -0.274 OA
HETATM   11  N2  UNL     1      -5.296   1.428   2.173  1.00  0.00    -0.361 N 
ATOM     12  H2  UNL     1      -6.276   1.698   2.254  1.00  0.00     0.162 HD
HETATM   13  C10 UNL     1      -4.899   0.064   2.465  1.00  0.00     0.122 C 
HETATM   14  C11 UNL     1      -5.153  -0.867   1.299  1.00  0.00     0.020 C 
HETATM   15  C12 UNL     1      -4.812  -2.274   1.777  1.00  0.00     0.002 C 
HETATM   16  C13 UNL     1      -4.369  -3.167   0.660  1.00  0.00     0.000 C 
HETATM   17  C14 UNL     1      -2.868  -3.218   0.500  1.00  0.00     0.000 C 
HETATM   18  C15 UNL     1      -2.544  -3.427  -0.975  1.00  0.00     0.000 C 
HETATM   19  C16 UNL     1      -1.275  -2.706  -1.359  1.00  0.00     0.000 C 
HETATM   20  C17 UNL     1      -1.388  -1.190  -1.196  1.00  0.00     0.003 C 
HETATM   21  C18 UNL     1      -0.441  -0.630  -0.203  1.00  0.00     0.041 C 
HETATM   22  C19 UNL     1       0.725   0.171  -0.715  1.00  0.00     0.117 C 
HETATM   23  C20 UNL     1       1.305  -0.524  -1.879  1.00  0.00     0.049 C 
HETATM   24  C21 UNL     1       2.307  -1.573  -1.743  1.00  0.00     0.080 C 
HETATM   25  C22 UNL     1       3.085  -1.665  -0.514  1.00  0.00     0.087 C 
HETATM   26  N3  UNL     1       4.120  -2.423  -0.495  1.00  0.00    -0.298 N 
ATOM     27  H3  UNL     1       4.393  -2.950  -1.324  1.00  0.00     0.172 HD
HETATM   28  C23 UNL     1       4.878  -2.514   0.703  1.00  0.00     0.323 C 
HETATM   29  O6  UNL     1       4.774  -3.504   1.465  1.00  0.00    -0.247 OA
HETATM   30  N4  UNL     1       5.764  -1.471   1.043  1.00  0.00    -0.334 N 
HETATM   31  C24 UNL     1       6.043  -0.250   0.318  1.00  0.00     0.127 C 
HETATM   32  C25 UNL     1       7.504   0.031   0.620  1.00  0.00     0.022 C 
HETATM   33  C26 UNL     1       7.941  -1.028   1.621  1.00  0.00     0.022 C 
HETATM   34  C27 UNL     1       6.594  -1.415   2.228  1.00  0.00     0.127 C 
HETATM   35  N5  UNL     1       2.649  -0.904   0.601  1.00  0.00    -0.314 N 
ATOM     36  H5  UNL     1       3.012  -1.112   1.531  1.00  0.00     0.170 HD
HETATM   37  C28 UNL     1       1.716   0.138   0.429  1.00  0.00     0.251 C 
HETATM   38  O7  UNL     1       1.744   1.072   1.300  1.00  0.00    -0.270 OA
ENDROOT
BRANCH   5  39
HETATM   39  C4  UNL     1      -1.408   2.453  -2.329  1.00  0.00     0.247 C 
HETATM   40  O2  UNL     1      -0.762   1.915  -3.303  1.00  0.00    -0.283 OA
BRANCH  39  41
HETATM   41  C5  UNL     1      -2.501   3.296  -2.725  1.00  0.00     0.249 C 
HETATM   42  O3  UNL     1      -3.268   3.950  -1.971  1.00  0.00    -0.642 OA
HETATM   43  O4  UNL     1      -2.828   3.471  -4.096  1.00  0.00    -0.642 OA
ENDBRANCH  39  41
ENDBRANCH   5  39
TORSDOF 2
