REMARK  5 active torsions:
REMARK  status: ('A' for Active; 'I' for Inactive)
REMARK    1  A    between atoms: N1_1  and  C1_5 
REMARK    2  A    between atoms: C1_5  and  N2_6 
REMARK    3  A    between atoms: C1_5  and  C24_34 
REMARK    4  A    between atoms: N2_6  and  C2_8 
REMARK    5  A    between atoms: C12_21  and  C13_22 
ROOT
HETATM    1  C2  UNL     1      -1.618   0.482   0.315  1.00  0.00     0.147 A 
HETATM    2  N3  UNL     1      -0.450   1.005  -0.058  1.00  0.00    -0.339 N 
ATOM      3  H3  UNL     1      -0.381   1.987  -0.325  1.00  0.00     0.168 HD
HETATM    4  C3  UNL     1       0.612   0.230  -0.075  1.00  0.00     0.030 A 
HETATM    5  C4  UNL     1       0.444  -1.081   0.296  1.00  0.00     0.038 A 
HETATM    6  S1  UNL     1      -1.216  -1.148   0.651  1.00  0.00    -0.052 SA
HETATM    7  C5  UNL     1       1.706  -1.795   0.212  1.00  0.00    -0.019 C 
HETATM    8  C6  UNL     1       2.339  -2.908   0.060  1.00  0.00    -0.017 A 
HETATM    9  C7  UNL     1       1.808  -4.178  -0.123  1.00  0.00     0.013 A 
HETATM   10  C8  UNL     1       2.665  -5.220  -0.381  1.00  0.00     0.001 A 
HETATM   11  C9  UNL     1       4.019  -4.989  -0.453  1.00  0.00     0.001 A 
HETATM   12  C10 UNL     1       4.551  -3.729  -0.272  1.00  0.00     0.012 A 
HETATM   13  C11 UNL     1       3.723  -2.655  -0.011  1.00  0.00    -0.021 A 
HETATM   14  C12 UNL     1       3.936  -1.342   0.205  1.00  0.00    -0.042 C 
HETATM   15  C22 UNL     1       2.705  -0.663   0.495  1.00  0.00     0.058 C 
HETATM   16  C23 UNL     1       2.097   0.335  -0.407  1.00  0.00     0.072 C 
ENDROOT
BRANCH   1  17
HETATM   17  N2  UNL     1      -2.784   1.088   0.397  1.00  0.00    -0.341 N 
ATOM     18  H2  UNL     1      -2.904   2.075   0.168  1.00  0.00     0.163 HD
BRANCH  17  19
HETATM   19  C1  UNL     1      -3.885   0.255   0.835  1.00  0.00     0.320 C 
BRANCH  19  20
HETATM   20  N1  UNL     1      -4.616  -0.280  -0.269  1.00  0.00    -0.055 N 
ATOM     21  H13 UNL     1      -4.935   0.458  -0.896  1.00  0.00     0.276 HD
ATOM     22  H12 UNL     1      -4.003  -0.782  -0.912  1.00  0.00     0.276 HD
ATOM     23  H11 UNL     1      -5.391  -0.867   0.039  1.00  0.00     0.276 HD
ENDBRANCH  19  20
BRANCH  19  24
HETATM   24  C24 UNL     1      -4.848   1.081   1.685  1.00  0.00     0.240 C 
HETATM   25  O1  UNL     1      -5.880   0.243   2.135  1.00  0.00    -0.333 OA
HETATM   26  C25 UNL     1      -7.070   0.091   1.473  1.00  0.00     0.096 A 
HETATM   27  C26 UNL     1      -7.918  -0.997   1.727  1.00  0.00     0.039 A 
HETATM   28  C30 UNL     1      -7.456   1.014   0.538  1.00  0.00     0.066 A 
HETATM   29  C27 UNL     1      -9.097  -1.117   1.047  1.00  0.00     0.003 A 
HETATM   30  C28 UNL     1      -9.499  -0.197   0.104  1.00  0.00     0.002 A 
HETATM   31  C29 UNL     1      -8.645   0.866  -0.127  1.00  0.00     0.032 A 
HETATM   32  N4  UNL     1      -6.607   2.120   0.271  1.00  0.00    -0.346 N 
HETATM   33  C31 UNL     1      -5.355   2.266   0.977  1.00  0.00     0.111 C 
ATOM     34  H4  UNL     1      -6.882   2.815  -0.423  1.00  0.00     0.167 HD
HETATM   35  S3  UNL     1      -4.623   3.714   0.926  1.00  0.00    -0.062 SA
ENDBRANCH  19  24
ENDBRANCH  17  19
ENDBRANCH   1  17
BRANCH  14  36
HETATM   36  C13 UNL     1       5.339  -0.786   0.179  1.00  0.00     0.105 A 
HETATM   37  C14 UNL     1       5.399   0.280  -0.824  1.00  0.00     0.005 A 
HETATM   38  C15 UNL     1       5.714   1.529  -0.715  1.00  0.00    -0.028 A 
HETATM   39  C16 UNL     1       5.677   2.317  -1.886  1.00  0.00     0.012 A 
HETATM   40  C20 UNL     1       6.079   2.155   0.436  1.00  0.00    -0.020 A 
HETATM   41  C17 UNL     1       5.988   3.654  -1.904  1.00  0.00     0.001 A 
HETATM   42  C18 UNL     1       6.352   4.269  -0.745  1.00  0.00     0.001 A 
HETATM   43  C19 UNL     1       6.394   3.523   0.405  1.00  0.00     0.012 A 
HETATM   44  C21 UNL     1       6.167   1.580   1.614  1.00  0.00     0.058 A 
HETATM   45  S2  UNL     1       5.797  -0.136   1.793  1.00  0.00    -0.127 SA
ENDBRANCH  14  36
TORSDOF 5
