REMARK  4 active torsions:
REMARK  status: ('A' for Active; 'I' for Inactive)
REMARK    1  A    between atoms: C1_2  and  C2_3 
REMARK    2  A    between atoms: C7_8  and  C12_13 
REMARK    3  A    between atoms: C12_13  and  N1_14 
REMARK    4  A    between atoms: N1_14  and  C13_17 
ROOT
HETATM    1  C2  UNL     1      -2.093   0.268  -1.102  1.00  0.00     0.059 C 
HETATM    2  C3  UNL     1      -2.695   0.121   0.251  1.00  0.00     0.005 C 
HETATM    3  C4  UNL     1      -3.007   1.417   0.944  1.00  0.00     0.032 C 
HETATM    4  C5  UNL     1      -1.745   2.206   0.969  1.00  0.00    -0.030 C 
HETATM    5  C6  UNL     1      -0.578   1.587   0.996  1.00  0.00    -0.023 C 
HETATM    6  C7  UNL     1      -0.369   0.120   1.002  1.00  0.00     0.049 C 
HETATM    7  C8  UNL     1      -1.688  -0.618   1.138  1.00  0.00     0.001 C 
HETATM    8  C9  UNL     1      -1.617  -2.019   0.561  1.00  0.00     0.011 C 
HETATM    9  C10 UNL     1      -0.885  -1.916  -0.757  1.00  0.00    -0.005 C 
HETATM   10  C11 UNL     1       0.571  -1.720  -0.386  1.00  0.00     0.045 C 
HETATM   11  C12 UNL     1       0.242  -0.203  -0.336  1.00  0.00     0.138 C 
HETATM   12  C17 UNL     1      -0.829  -0.503  -1.310  1.00  0.00     0.037 C 
ENDROOT
BRANCH  11  13
HETATM   13  N1  UNL     1       1.401   0.517  -0.719  1.00  0.00    -0.061 N 
ATOM     14  H12 UNL     1       1.612   0.387  -1.709  1.00  0.00     0.278 HD
ATOM     15  H11 UNL     1       1.232   1.523  -0.725  1.00  0.00     0.278 HD
BRANCH  13  16
HETATM   16  C13 UNL     1       2.509   0.182   0.096  1.00  0.00     0.187 C 
HETATM   17  C14 UNL     1       3.826  -0.016  -0.699  1.00  0.00     0.033 C 
HETATM   18  C15 UNL     1       4.527   0.443   0.558  1.00  0.00     0.004 C 
HETATM   19  C16 UNL     1       3.242   1.248   0.853  1.00  0.00     0.033 C 
ENDBRANCH  13  16
ENDBRANCH  11  13
BRANCH   1  20
HETATM   20  C1  UNL     1      -3.087  -0.183  -2.137  1.00  0.00     0.236 C 
HETATM   21  O1  UNL     1      -3.999  -0.941  -1.833  1.00  0.00    -0.306 OA
ENDBRANCH   1  20
TORSDOF 4
