REMARK  3 active torsions:
REMARK  status: ('A' for Active; 'I' for Inactive)
REMARK    1  A    between atoms: C8_8  and  N1_9 
REMARK    2  A    between atoms: N1_9  and  S1_11 
REMARK    3  A    between atoms: S1_11  and  C9_14 
ROOT
HETATM    1  C1  UNL     1      -4.113   0.473  -0.518  1.00  0.00     0.015 C 
HETATM    2  C2  UNL     1      -2.773  -0.061  -0.058  1.00  0.00    -0.042 C 
HETATM    3  C3  UNL     1      -2.157  -1.007  -1.063  1.00  0.00     0.010 C 
HETATM    4  C4  UNL     1      -1.155  -1.863  -0.315  1.00  0.00     0.007 C 
HETATM    5  C5  UNL     1      -0.575  -1.003   0.789  1.00  0.00     0.009 C 
HETATM    6  C6  UNL     1      -1.580  -0.941   1.915  1.00  0.00     0.007 C 
HETATM    7  C7  UNL     1      -2.956  -0.768   1.291  1.00  0.00     0.010 C 
HETATM    8  C8  UNL     1      -0.388   0.408   0.203  1.00  0.00     0.097 C 
HETATM    9  C13 UNL     1      -1.780   1.050   0.189  1.00  0.00     0.035 C 
ENDROOT
BRANCH   8  10
HETATM   10  N1  UNL     1       0.506   1.096   1.043  1.00  0.00    -0.314 N 
ATOM     11  H1  UNL     1       0.319   1.200   2.040  1.00  0.00     0.172 HD
BRANCH  10  12
HETATM   12  S1  UNL     1       1.887   1.738   0.348  1.00  0.00     0.234 S 
HETATM   13  O1  UNL     1       2.666   2.615   1.319  1.00  0.00    -0.205 OA
HETATM   14  O2  UNL     1       1.533   2.662  -0.803  1.00  0.00    -0.205 OA
BRANCH  12  15
HETATM   15  C9  UNL     1       2.940   0.498  -0.342  1.00  0.00     0.072 C 
HETATM   16  C10 UNL     1       3.322  -0.467   0.776  1.00  0.00     0.033 C 
HETATM   17  C11 UNL     1       4.263   1.146  -0.807  1.00  0.00     0.033 C 
HETATM   18  C12 UNL     1       2.380  -0.196  -1.542  1.00  0.00     0.033 C 
ENDBRANCH  12  15
ENDBRANCH  10  12
ENDBRANCH   8  10
TORSDOF 3
