REMARK  9 active torsions:
REMARK  status: ('A' for Active; 'I' for Inactive)
REMARK    1  A    between atoms: C2_2  and  C3_3 
REMARK    2  A    between atoms: C3_3  and  O1_4 
REMARK    3  A    between atoms: N1_9  and  C7_10 
REMARK    4  A    between atoms: C10_13  and  C11_14 
REMARK    5  A    between atoms: C11_14  and  O2_15 
REMARK    6  A    between atoms: C11_14  and  C27_36 
REMARK    7  A    between atoms: O2_15  and  C12_16 
REMARK    8  A    between atoms: C15_21  and  C16_22 
REMARK    9  A    between atoms: C22_30  and  C23_31 
ROOT
HETATM    1  C23 UNL     1      -3.815  -0.331   1.431  1.00  0.00     0.072 C 
HETATM    2  C24 UNL     1      -4.371  -1.499   0.593  1.00  0.00     0.036 C 
HETATM    3  C25 UNL     1      -2.525  -1.012   2.058  1.00  0.00     0.036 C 
HETATM    4  C26 UNL     1      -4.688  -0.072   2.515  1.00  0.00     0.073 C 
HETATM    5  N3  UNL     1      -5.374   0.079   3.429  1.00  0.00    -0.196 NA
ENDROOT
BRANCH   1   6
HETATM    6  C22 UNL     1      -3.282   0.753   0.642  1.00  0.00     0.011 A 
HETATM    7  C12 UNL     1      -2.159   0.465  -0.201  1.00  0.00     0.093 A 
HETATM    8  C13 UNL     1      -1.579   1.423  -0.995  1.00  0.00     0.124 A 
HETATM    9  N2  UNL     1      -2.056   2.676  -1.002  1.00  0.00    -0.372 N 
HETATM   10  C14 UNL     1      -3.091   2.962  -0.235  1.00  0.00     0.100 A 
ATOM     11  H2  UNL     1      -1.628   3.393  -1.588  1.00  0.00     0.164 HD
HETATM   12  C15 UNL     1      -3.741   2.021   0.608  1.00  0.00     0.000 A 
BRANCH   7  13
HETATM   13  O2  UNL     1      -1.630  -0.778  -0.247  1.00  0.00    -0.341 OA
BRANCH  13  14
HETATM   14  C11 UNL     1      -0.586  -1.255  -1.086  1.00  0.00     0.165 C 
BRANCH  14  15
HETATM   15  C10 UNL     1       0.539  -1.700  -0.236  1.00  0.00     0.042 C 
HETATM   16  C9  UNL     1       1.755  -2.262  -0.848  1.00  0.00     0.017 C 
HETATM   17  C8  UNL     1       2.643  -1.236  -1.513  1.00  0.00     0.085 C 
HETATM   18  C7  UNL     1       2.904  -0.002  -0.736  1.00  0.00     0.119 C 
HETATM   19  O4  UNL     1       1.768   0.390  -0.059  1.00  0.00    -0.338 OA
HETATM   20  C31 UNL     1       1.071  -0.541   0.636  1.00  0.00     0.184 C 
BRANCH  18  21
HETATM   21  N1  UNL     1       4.125   0.105  -0.060  1.00  0.00    -0.344 N 
HETATM   22  C6  UNL     1       4.511  -0.754   0.949  1.00  0.00     0.066 C 
HETATM   23  C5  UNL     1       5.941  -0.610   1.424  1.00  0.00     0.046 C 
HETATM   24  C4  UNL     1       6.736   0.214   0.461  1.00  0.00     0.018 C 
HETATM   25  C2  UNL     1       6.032   1.580   0.446  1.00  0.00    -0.006 C 
HETATM   26  C1  UNL     1       5.976   2.043   1.886  1.00  0.00     0.019 C 
HETATM   27  C32 UNL     1       4.653   1.418  -0.112  1.00  0.00     0.141 C 
BRANCH  25  28
HETATM   28  C3  UNL     1       6.889   2.523  -0.325  1.00  0.00     0.175 C 
BRANCH  28  29
HETATM   29  O1  UNL     1       6.400   3.826  -0.302  1.00  0.00    -0.400 OA
ATOM     30  H1  UNL     1       6.947   4.428  -0.794  1.00  0.00     0.209 HD
ENDBRANCH  28  29
ENDBRANCH  25  28
ENDBRANCH  18  21
ENDBRANCH  14  15
BRANCH  14  31
HETATM   31  C27 UNL     1      -1.250  -2.440  -1.802  1.00  0.00     0.177 C 
HETATM   32  C28 UNL     1      -0.482  -2.921  -3.000  1.00  0.00     0.266 C 
HETATM   33  N4  UNL     1      -1.329  -3.054  -4.199  1.00  0.00    -0.071 N 
HETATM   34  C29 UNL     1      -2.453  -3.894  -3.753  1.00  0.00     0.258 C 
ATOM     35  H42 UNL     1      -1.609  -2.166  -4.614  1.00  0.00     0.277 HD
ATOM     36  H41 UNL     1      -0.840  -3.411  -5.020  1.00  0.00     0.277 HD
HETATM   37  C30 UNL     1      -3.194  -3.091  -2.722  1.00  0.00     0.196 C 
HETATM   38  O3  UNL     1      -2.460  -1.925  -2.409  1.00  0.00    -0.380 OA
ENDBRANCH  14  31
ENDBRANCH  13  14
ENDBRANCH   7  13
BRANCH  12  39
HETATM   39  C16 UNL     1      -4.925   2.550   1.247  1.00  0.00    -0.021 A 
HETATM   40  C17 UNL     1      -6.185   2.234   0.822  1.00  0.00     0.036 A 
HETATM   41  C18 UNL     1      -7.309   2.816   1.432  1.00  0.00     0.036 A 
HETATM   42 CL1  UNL     1      -8.943   2.447   0.929  1.00  0.00    -0.084 Cl
HETATM   43  C19 UNL     1      -7.121   3.705   2.458  1.00  0.00     0.047 A 
HETATM   44  C20 UNL     1      -5.859   4.029   2.891  1.00  0.00     0.036 A 
HETATM   45 CL2  UNL     1      -5.578   5.160   4.198  1.00  0.00    -0.084 Cl
HETATM   46  C21 UNL     1      -4.780   3.439   2.270  1.00  0.00     0.036 A 
ENDBRANCH  12  39
ENDBRANCH   1   6
TORSDOF 9
