REMARK  11 active torsions:
REMARK  status: ('A' for Active; 'I' for Inactive)
REMARK    1  A    between atoms: C2_2  and  C3_3 
REMARK    2  A    between atoms: C4_4  and  C5_5 
REMARK    3  A    between atoms: C8_8  and  O1_9 
REMARK    4  A    between atoms: C11_13  and  O2_14 
REMARK    5  A    between atoms: C11_13  and  C12_16 
REMARK    6  A    between atoms: C20_25  and  C21_26 
REMARK    7  A    between atoms: C21_26  and  C22_27 
REMARK    8  A    between atoms: C22_27  and  C24_29 
REMARK    9  A    between atoms: C24_29  and  C25_30 
REMARK   10  A    between atoms: C25_30  and  O4_31 
REMARK   11  A    between atoms: C25_30  and  C26_33 
ROOT
HETATM    1  C5  UNL     1      -2.393   2.287   0.283  1.00  0.00     0.046 C 
HETATM    2  C6  UNL     1      -3.427   2.210   1.328  1.00  0.00     0.023 C 
HETATM    3  C7  UNL     1      -4.261   3.508   1.403  1.00  0.00     0.014 C 
HETATM    4  C8  UNL     1      -4.374   1.071   1.287  1.00  0.00     0.130 C 
HETATM    5  C9  UNL     1      -4.474   0.395  -0.032  1.00  0.00     0.052 C 
HETATM    6  C10 UNL     1      -5.421   1.080  -0.969  1.00  0.00     0.016 C 
HETATM    7  C11 UNL     1      -3.124   0.073  -0.674  1.00  0.00     0.117 C 
HETATM    8  C19 UNL     1      -2.032   0.979  -0.439  1.00  0.00    -0.035 C 
HETATM    9  C20 UNL     1      -0.653   0.630  -0.201  1.00  0.00     0.007 C 
ENDROOT
BRANCH   1  10
HETATM   10  C4  UNL     1      -2.541   3.423  -0.649  1.00  0.00    -0.017 C 
HETATM   11  C3  UNL     1      -1.852   4.511  -0.648  1.00  0.00    -0.004 C 
BRANCH  11  12
HETATM   12  C2  UNL     1      -0.788   4.825   0.283  1.00  0.00    -0.011 C 
HETATM   13  C1  UNL     1      -0.140   6.009   0.164  1.00  0.00     0.011 C 
ENDBRANCH  11  12
ENDBRANCH   1  10
BRANCH   7  14
HETATM   14  O2  UNL     1      -3.448   0.152  -2.089  1.00  0.00    -0.382 OA
ATOM     15  H2  UNL     1      -2.609  -0.048  -2.488  1.00  0.00     0.211 HD
ENDBRANCH   7  14
BRANCH   7  16
HETATM   16  C12 UNL     1      -2.895  -1.422  -0.465  1.00  0.00     0.184 C 
HETATM   17  C13 UNL     1      -2.698  -1.810   0.942  1.00  0.00     0.004 C 
HETATM   18  C14 UNL     1      -2.978  -3.052   1.360  1.00  0.00    -0.025 C 
HETATM   19  C15 UNL     1      -3.487  -4.015   0.361  1.00  0.00     0.064 C 
HETATM   20  C16 UNL     1      -4.224  -3.338  -0.722  1.00  0.00     0.058 C 
HETATM   21  C17 UNL     1      -3.981  -4.126  -2.026  1.00  0.00     0.046 C 
HETATM   22  C18 UNL     1      -5.723  -3.603  -0.434  1.00  0.00     0.046 C 
HETATM   23  O3  UNL     1      -4.114  -2.011  -0.909  1.00  0.00    -0.368 OA
ENDBRANCH   7  16
BRANCH   9  24
HETATM   24  C21 UNL     1       0.116  -0.377  -0.155  1.00  0.00     0.007 C 
BRANCH  24  25
HETATM   25  C22 UNL     1       1.582  -0.225   0.159  1.00  0.00    -0.063 C 
HETATM   26  C23 UNL     1       2.115   1.122   0.413  1.00  0.00     0.048 C 
BRANCH  25  27
HETATM   27  C24 UNL     1       2.288  -1.324   0.185  1.00  0.00     0.014 C 
BRANCH  27  28
HETATM   28  C25 UNL     1       3.741  -1.416   0.473  1.00  0.00     0.174 C 
BRANCH  28  29
HETATM   29  O4  UNL     1       3.862  -2.441   1.451  1.00  0.00    -0.389 OA
ATOM     30  H4  UNL     1       4.792  -2.500   1.635  1.00  0.00     0.210 HD
ENDBRANCH  28  29
BRANCH  28  31
HETATM   31  C26 UNL     1       4.440  -1.921  -0.751  1.00  0.00     0.205 C 
HETATM   32  O5  UNL     1       4.398  -0.932  -1.871  1.00  0.00    -0.325 OA
HETATM   33  C27 UNL     1       5.432  -0.252  -1.150  1.00  0.00     0.157 C 
HETATM   34  N1  UNL     1       6.093   0.713  -0.733  1.00  0.00    -0.336 N 
HETATM   35  C34 UNL     1       5.907  -1.674  -0.785  1.00  0.00     0.158 C 
HETATM   36  C28 UNL     1       7.200   0.688   0.151  1.00  0.00     0.069 A 
ATOM     37  H1  UNL     1       5.805   1.633  -1.066  1.00  0.00     0.168 HD
HETATM   38  C29 UNL     1       7.885   1.840   0.499  1.00  0.00     0.035 A 
HETATM   39  C33 UNL     1       7.545  -0.575   0.623  1.00  0.00     0.122 A 
HETATM   40  C30 UNL     1       8.954   1.712   1.353  1.00  0.00     0.046 A 
HETATM   41  C31 UNL     1       9.325   0.457   1.843  1.00  0.00     0.141 A 
HETATM   42  F1  UNL     1      10.381   0.374   2.682  1.00  0.00    -0.204 F 
HETATM   43  C32 UNL     1       8.620  -0.676   1.476  1.00  0.00     0.108 A 
HETATM   44 CL1  UNL     1       9.076  -2.248   2.086  1.00  0.00    -0.078 Cl
HETATM   45  O6  UNL     1       6.782  -1.644   0.209  1.00  0.00    -0.325 OA
HETATM   46  C35 UNL     1       6.543  -2.297  -2.075  1.00  0.00     0.059 C 
ENDBRANCH  28  31
ENDBRANCH  27  28
ENDBRANCH  25  27
ENDBRANCH  24  25
ENDBRANCH   9  24
BRANCH   4  47
HETATM   47  O1  UNL     1      -5.672   1.530   1.605  1.00  0.00    -0.395 OA
ATOM     48  H1  UNL     1      -6.279   0.800   1.579  1.00  0.00     0.210 HD
ENDBRANCH   4  47
TORSDOF 11
