REMARK  10 active torsions:
REMARK  status: ('A' for Active; 'I' for Inactive)
REMARK       I    between atoms: N1_2  and  C3_4 
REMARK    1  A    between atoms: C3_4  and  O2_6 
REMARK    2  A    between atoms: O2_6  and  C4_7 
REMARK    3  A    between atoms: C8_12  and  N2_13 
REMARK    4  A    between atoms: N3_15  and  C9_17 
REMARK    5  A    between atoms: N4_19  and  C10_20 
REMARK    6  A    between atoms: C10_20  and  C11_21 
REMARK    7  A    between atoms: C11_21  and  C12_22 
REMARK    8  A    between atoms: C12_22  and  N5_23 
REMARK    9  A    between atoms: N5_23  and  C13_25 
REMARK   10  A    between atoms: C20_36  and  O3_37 
ROOT
HETATM    1  C9  UNL     1      -0.918  -1.477   0.062  1.00  0.00     0.157 A 
HETATM    2  S1  UNL     1       0.065  -2.542   0.928  1.00  0.00     0.014 SA
HETATM    3  N4  UNL     1       1.171  -1.407   0.400  1.00  0.00    -0.294 N 
HETATM    4  C20 UNL     1       0.203  -0.727  -0.216  1.00  0.00     0.186 A 
ENDROOT
BRANCH   1   5
HETATM    5  N3  UNL     1      -2.303  -1.486  -0.186  1.00  0.00    -0.289 N 
HETATM    6  N2  UNL     1      -2.828  -1.062  -1.262  1.00  0.00    -0.297 N 
ATOM      7  H2  UNL     1      -2.221  -0.692  -1.994  1.00  0.00     0.187 HD
ATOM      8  H3  UNL     1      -2.920  -1.853   0.539  1.00  0.00     0.188 HD
BRANCH   6   9
HETATM    9  C8  UNL     1      -4.232  -1.085  -1.482  1.00  0.00     0.085 A 
HETATM   10  C7  UNL     1      -4.647  -1.392  -2.770  1.00  0.00     0.040 A 
HETATM   11  C6  UNL     1      -6.005  -1.419  -3.008  1.00  0.00     0.024 A 
HETATM   12 BR1  UNL     1      -3.406  -1.766  -4.176  1.00  0.00    -0.049 Br
HETATM   13  C5  UNL     1      -6.914  -1.151  -2.004  1.00  0.00     0.040 A 
HETATM   14  C4  UNL     1      -6.509  -0.845  -0.721  1.00  0.00     0.100 A 
HETATM   15  C21 UNL     1      -5.151  -0.818  -0.483  1.00  0.00     0.074 A 
HETATM   16 BR2  UNL     1      -4.544  -0.401   1.275  1.00  0.00    -0.046 Br
BRANCH  14  17
HETATM   17  O2  UNL     1      -7.438  -0.576   0.286  1.00  0.00    -0.260 OA
BRANCH  17  18
HETATM   18  C3  UNL     1      -7.897   0.709   0.539  1.00  0.00     0.367 C 
HETATM   19  N1  UNL     1      -8.837   1.011   1.551  1.00  0.00    -0.336 N 
HETATM   20  C1  UNL     1      -9.413   0.007   2.423  1.00  0.00     0.154 C 
HETATM   21  C2  UNL     1      -9.252   2.384   1.736  1.00  0.00     0.154 C 
HETATM   22  O1  UNL     1      -7.442   1.631  -0.177  1.00  0.00    -0.238 OA
ENDBRANCH  17  18
ENDBRANCH  14  17
ENDBRANCH   6   9
ENDBRANCH   1   5
BRANCH   4  23
HETATM   23  O3  UNL     1       0.263   0.469  -0.976  1.00  0.00    -0.344 OA
ATOM     24  H3  UNL     1       1.036   0.986  -1.168  1.00  0.00     0.219 HD
ENDBRANCH   4  23
BRANCH   3  25
HETATM   25  C10 UNL     1       2.607  -1.199   0.529  1.00  0.00     0.141 C 
BRANCH  25  26
HETATM   26  C11 UNL     1       3.351  -1.874  -0.589  1.00  0.00     0.041 C 
BRANCH  26  27
HETATM   27  C12 UNL     1       4.836  -1.599  -0.366  1.00  0.00     0.139 C 
BRANCH  27  28
HETATM   28  N5  UNL     1       5.060  -0.183  -0.385  1.00  0.00    -0.226 N 
ATOM     29  H5  UNL     1       4.273   0.426  -0.610  1.00  0.00     0.177 HD
BRANCH  28  30
HETATM   30  C13 UNL     1       6.200   0.362  -0.134  1.00  0.00     0.679 A 
HETATM   31  N6  UNL     1       6.499   1.671  -0.129  1.00  0.00    -0.190 N 
HETATM   32  C14 UNL     1       7.801   1.806   0.184  1.00  0.00     0.076 A 
ATOM     33  H6  UNL     1       5.850   2.433  -0.328  1.00  0.00     0.184 HD
HETATM   34  C15 UNL     1       8.609   2.919   0.324  1.00  0.00     0.032 A 
HETATM   35  C19 UNL     1       8.348   0.557   0.385  1.00  0.00     0.076 A 
HETATM   36  C16 UNL     1       9.931   2.782   0.657  1.00  0.00     0.002 A 
HETATM   37  C17 UNL     1      10.471   1.529   0.856  1.00  0.00     0.002 A 
HETATM   38  C18 UNL     1       9.675   0.419   0.718  1.00  0.00     0.032 A 
HETATM   39  N7  UNL     1       7.324  -0.304   0.178  1.00  0.00    -0.190 N 
ATOM     40  H7  UNL     1       7.396  -1.319   0.249  1.00  0.00     0.184 HD
ENDBRANCH  28  30
ENDBRANCH  27  28
ENDBRANCH  26  27
ENDBRANCH  25  26
ENDBRANCH   3  25
TORSDOF 10
