REMARK  7 active torsions:
REMARK  status: ('A' for Active; 'I' for Inactive)
REMARK    1  A    between atoms: O1_2  and  C2_3 
REMARK    2  A    between atoms: C4_5  and  C5_6 
REMARK    3  A    between atoms: C17_23  and  O4_24 
REMARK    4  A    between atoms: C18_26  and  C19_27 
REMARK    5  A    between atoms: C19_27  and  C21_29 
REMARK    6  A    between atoms: C21_29  and  C22_30 
REMARK    7  A    between atoms: C22_30  and  C23_31 
ROOT
HETATM    1  C5  UNL     1       4.029  -0.200   0.276  1.00  0.00     0.213 C 
HETATM    2  O2  UNL     1       3.532  -1.344   0.870  1.00  0.00    -0.369 OA
HETATM    3  C6  UNL     1       2.397  -1.773   0.114  1.00  0.00     0.156 C 
HETATM    4  C7  UNL     1       2.971  -2.370  -1.139  1.00  0.00     0.267 C 
HETATM    5  N1  UNL     1       4.275  -1.799  -1.420  1.00  0.00    -0.043 N 
ATOM      6  H11 UNL     1       4.657  -2.021  -2.339  1.00  0.00     0.280 HD
ATOM      7  H12 UNL     1       5.049  -2.207  -0.896  1.00  0.00     0.280 HD
HETATM    8  C8  UNL     1       4.030  -0.342  -1.166  1.00  0.00     0.355 C 
HETATM    9  O3  UNL     1       2.927  -0.098  -1.884  1.00  0.00    -0.345 OA
HETATM   10  C9  UNL     1       1.700   0.114  -1.344  1.00  0.00     0.067 C 
HETATM   11  C10 UNL     1       1.655   1.632  -1.078  1.00  0.00     0.046 C 
HETATM   12  C11 UNL     1       0.767  -0.135  -2.508  1.00  0.00     0.038 C 
HETATM   13  C12 UNL     1      -0.418  -0.989  -2.172  1.00  0.00     0.009 C 
HETATM   14  C13 UNL     1      -0.898  -0.496  -0.867  1.00  0.00     0.004 C 
HETATM   15  C14 UNL     1      -2.366  -0.680  -0.769  1.00  0.00    -0.026 C 
HETATM   16  C15 UNL     1      -2.904  -1.993  -1.132  1.00  0.00     0.016 C 
HETATM   17  C16 UNL     1      -3.133   0.344  -1.617  1.00  0.00     0.042 C 
HETATM   18  C17 UNL     1      -4.505   0.290  -0.907  1.00  0.00     0.128 C 
HETATM   19  C18 UNL     1      -4.240  -0.166   0.511  1.00  0.00     0.054 C 
HETATM   20  C24 UNL     1      -2.772  -0.079   0.559  1.00  0.00     0.074 C 
HETATM   21  C25 UNL     1      -1.985  -0.629   1.631  1.00  0.00     0.133 C 
HETATM   22  O7  UNL     1      -2.400  -1.313   2.569  1.00  0.00    -0.297 OA
HETATM   23  C26 UNL     1      -0.516  -0.293   1.525  1.00  0.00     0.088 C 
HETATM   24  C27 UNL     1      -0.030  -0.981   0.211  1.00  0.00    -0.024 C 
HETATM   25  C28 UNL     1      -0.170  -2.437   0.602  1.00  0.00     0.016 C 
HETATM   26  C29 UNL     1       1.407  -0.661  -0.088  1.00  0.00     0.059 C 
ENDROOT
BRANCH   1  27
HETATM   27  C4  UNL     1       5.381   0.072   0.849  1.00  0.00    -0.001 A 
HETATM   28  C3  UNL     1       6.364   0.720   0.154  1.00  0.00     0.050 A 
HETATM   29  C2  UNL     1       7.580   1.026   0.783  1.00  0.00     0.090 A 
HETATM   30  C32 UNL     1       7.818   0.688   2.094  1.00  0.00     0.069 A 
HETATM   31  C31 UNL     1       6.808   0.029   2.787  1.00  0.00     0.051 A 
HETATM   32 CL2  UNL     1       9.328   1.062   2.893  1.00  0.00    -0.081 Cl
HETATM   33  C30 UNL     1       5.624  -0.269   2.183  1.00  0.00     0.044 A 
HETATM   34 CL1  UNL     1       4.316  -1.110   3.029  1.00  0.00    -0.084 Cl
BRANCH  29  35
HETATM   35  O1  UNL     1       8.574   1.683   0.083  1.00  0.00    -0.354 OA
HETATM   36  C1  UNL     1       8.431   2.083  -1.266  1.00  0.00     0.210 C 
ENDBRANCH  29  35
ENDBRANCH   1  27
BRANCH  18  37
HETATM   37  O4  UNL     1      -5.379  -0.493  -1.613  1.00  0.00    -0.395 OA
ATOM     38  H4  UNL     1      -6.222  -0.526  -1.177  1.00  0.00     0.210 HD
ENDBRANCH  18  37
BRANCH  19  39
HETATM   39  C19 UNL     1      -4.873   0.670   1.577  1.00  0.00    -0.080 C 
HETATM   40  C20 UNL     1      -4.460   2.128   1.558  1.00  0.00     0.043 C 
BRANCH  39  41
HETATM   41  C21 UNL     1      -6.274   0.442   1.941  1.00  0.00    -0.013 C 
BRANCH  41  42
HETATM   42  C22 UNL     1      -7.384   0.591   0.997  1.00  0.00     0.140 C 
BRANCH  42  43
HETATM   43  C23 UNL     1      -7.601   1.900   0.380  1.00  0.00     0.176 C 
HETATM   44  O5  UNL     1      -7.642   2.007  -0.871  1.00  0.00    -0.648 OA
HETATM   45  O6  UNL     1      -7.770   3.072   1.110  1.00  0.00    -0.648 OA
ENDBRANCH  42  43
ENDBRANCH  41  42
ENDBRANCH  39  41
ENDBRANCH  19  39
TORSDOF 7
