REMARK  5 active torsions:
REMARK  status: ('A' for Active; 'I' for Inactive)
REMARK    1  A    between atoms: C2_2  and  C3_3 
REMARK    2  A    between atoms: C3_3  and  O2_5 
REMARK    3  A    between atoms: O2_5  and  C4_6 
REMARK    4  A    between atoms: C4_6  and  C5_7 
REMARK       I    between atoms: C5_7  and  N1_9 
REMARK    5  A    between atoms: N1_9  and  C6_11 
ROOT
HETATM    1  C4  UNL     1       1.670   0.462  -0.041  1.00  0.00     0.281 C 
ENDROOT
BRANCH   1   2
HETATM    2  O2  UNL     1       0.306   0.733   0.138  1.00  0.00    -0.311 OA
BRANCH   2   3
HETATM    3  C3  UNL     1      -0.751   0.095  -0.440  1.00  0.00     0.267 C 
HETATM    4  O1  UNL     1      -0.519  -0.850  -1.234  1.00  0.00    -0.264 OA
BRANCH   3   5
HETATM    5  C2  UNL     1      -2.179   0.443  -0.192  1.00  0.00     0.047 C 
HETATM    6  C1  UNL     1      -2.367   1.880  -0.622  1.00  0.00     0.026 C 
HETATM    7  C8  UNL     1      -3.109  -0.506  -0.893  1.00  0.00     0.022 C 
HETATM    8  C9  UNL     1      -3.674  -1.410   0.204  1.00  0.00     0.043 C 
HETATM    9  C10 UNL     1      -3.810  -0.414   1.348  1.00  0.00     0.114 C 
HETATM   10 CL1  UNL     1      -5.150   0.695   1.043  1.00  0.00    -0.102 Cl
HETATM   11 CL2  UNL     1      -4.074  -1.238   2.901  1.00  0.00    -0.102 Cl
HETATM   12  C11 UNL     1      -2.483   0.293   1.292  1.00  0.00     0.061 C 
ENDBRANCH   3   5
ENDBRANCH   2   3
ENDBRANCH   1   2
BRANCH   1  13
HETATM   13  C5  UNL     1       2.103  -0.873   0.374  1.00  0.00     0.247 C 
HETATM   14  O3  UNL     1       1.206  -1.631   0.892  1.00  0.00    -0.271 OA
HETATM   15  N1  UNL     1       3.387  -1.406   0.265  1.00  0.00    -0.305 N 
ATOM     16  H1  UNL     1       3.492  -2.402   0.460  1.00  0.00     0.171 HD
BRANCH  15  17
HETATM   17  C6  UNL     1       4.452  -0.761  -0.058  1.00  0.00     0.161 A 
HETATM   18  N2  UNL     1       5.641  -1.355  -0.138  1.00  0.00    -0.303 N 
HETATM   19  S1  UNL     1       6.899  -0.371  -0.566  1.00  0.00     0.038 SA
ATOM     20  H2  UNL     1       5.767  -2.349   0.052  1.00  0.00     0.176 HD
HETATM   21  C7  UNL     1       6.281   1.195  -0.793  1.00  0.00     0.274 A 
HETATM   22  O4  UNL     1       6.886   2.230  -1.119  1.00  0.00    -0.271 OA
HETATM   23  S2  UNL     1       4.656   0.867  -0.441  1.00  0.00    -0.002 SA
ENDBRANCH  15  17
ENDBRANCH   1  13
TORSDOF 5
