REMARK  5 active torsions:
REMARK  status: ('A' for Active; 'I' for Inactive)
REMARK    1  A    between atoms: C2_2  and  N1_4 
REMARK    2  A    between atoms: N2_7  and  C6_8 
REMARK    3  A    between atoms: C7_11  and  N4_12 
REMARK    4  A    between atoms: N4_12  and  C8_14 
REMARK    5  A    between atoms: C16_22  and  C17_23 
ROOT
HETATM    1  C6  UNL     1       0.923  -1.103  -0.291  1.00  0.00     0.682 A 
HETATM    2  N3  UNL     1      -0.037  -0.142  -0.267  1.00  0.00    -0.177 N 
ATOM      3  H3  UNL     1       0.236   0.815  -0.489  1.00  0.00     0.185 HD
HETATM    4  C7  UNL     1      -1.320  -0.377   0.031  1.00  0.00     0.119 A 
HETATM    5  C15 UNL     1      -1.689  -1.663   0.330  1.00  0.00     0.083 A 
HETATM    6  C16 UNL     1      -0.754  -2.664   0.318  1.00  0.00     0.136 A 
HETATM    7  N5  UNL     1       0.521  -2.349   0.008  1.00  0.00    -0.186 N 
ATOM      8  H5  UNL     1       1.215  -3.096   0.000  1.00  0.00     0.184 HD
ENDROOT
BRANCH   1   9
HETATM    9  N2  UNL     1       2.255  -0.781  -0.629  1.00  0.00    -0.211 N 
HETATM   10  C5  UNL     1       3.371  -1.667  -0.609  1.00  0.00     0.185 C 
HETATM   11  C4  UNL     1       4.449  -1.108   0.298  1.00  0.00     0.079 C 
HETATM   12  N1  UNL     1       4.668   0.252   0.035  1.00  0.00    -0.386 N 
HETATM   13  C19 UNL     1       4.012   0.839  -1.077  1.00  0.00     0.143 C 
HETATM   14  C18 UNL     1       2.513   0.604  -1.063  1.00  0.00     0.161 C 
BRANCH  12  15
HETATM   15  C2  UNL     1       5.806   0.891   0.564  1.00  0.00     0.075 C 
HETATM   16  C1  UNL     1       7.086   0.314   0.054  1.00  0.00     0.032 C 
HETATM   17  C3  UNL     1       5.812   2.397   0.352  1.00  0.00     0.032 C 
ENDBRANCH  12  15
ENDBRANCH   1   9
BRANCH   4  18
HETATM   18  N4  UNL     1      -2.094   0.627   0.018  1.00  0.00    -0.371 N 
ATOM     19  H4  UNL     1      -1.631   1.503  -0.223  1.00  0.00     0.161 HD
BRANCH  18  20
HETATM   20  C8  UNL     1      -3.474   0.761   0.274  1.00  0.00     0.083 C 
HETATM   21  C9  UNL     1      -4.411   0.068  -0.653  1.00  0.00     0.025 C 
HETATM   22  C10 UNL     1      -5.556  -0.507   0.193  1.00  0.00     0.002 C 
HETATM   23  C11 UNL     1      -6.676   0.512   0.146  1.00  0.00     0.000 C 
HETATM   24  C12 UNL     1      -6.257   1.809   0.788  1.00  0.00     0.000 C 
HETATM   25  C13 UNL     1      -5.233   2.568   0.015  1.00  0.00     0.002 C 
HETATM   26  C14 UNL     1      -3.818   2.235   0.307  1.00  0.00     0.025 C 
ENDBRANCH  18  20
ENDBRANCH   4  18
BRANCH   6  27
HETATM   27  C17 UNL     1      -1.093  -4.094   0.629  1.00  0.00     0.433 C 
HETATM   28  F1  UNL     1      -2.017  -4.466  -0.358  1.00  0.00    -0.165 F 
HETATM   29  F2  UNL     1      -1.674  -4.236   1.852  1.00  0.00    -0.165 F 
HETATM   30  F3  UNL     1       0.009  -4.882   0.441  1.00  0.00    -0.165 F 
ENDBRANCH   6  27
TORSDOF 5
