REMARK  1 active torsions:
REMARK  status: ('A' for Active; 'I' for Inactive)
REMARK    1  A    between atoms: N5_9  and  C2_10 
ROOT
HETATM    1  C1  UNL     1      -1.381  -0.716   0.217  1.00  0.00     0.204 C 
HETATM    2  N1  UNL     1      -0.540   0.459   0.325  1.00  0.00    -0.198 N 
HETATM    3  N2  UNL     1      -0.925   1.718   0.267  1.00  0.00    -0.209 N 
ATOM      4  H2  UNL     1      -1.883   2.044   0.136  1.00  0.00     0.211 HD
HETATM    5  N3  UNL     1       0.135   2.483   0.406  1.00  0.00    -0.210 N 
ATOM      6  H3  UNL     1       0.143   3.503   0.402  1.00  0.00     0.211 HD
HETATM    7  N4  UNL     1       1.170   1.711   0.550  1.00  0.00    -0.202 N 
ATOM      8  H4  UNL     1       2.134   2.018   0.679  1.00  0.00     0.212 HD
HETATM    9  N5  UNL     1       0.754   0.461   0.500  1.00  0.00    -0.136 N 
ENDROOT
BRANCH   9  10
HETATM   10  C2  UNL     1       1.599  -0.674   0.620  1.00  0.00     0.397 C 
HETATM   11  O1  UNL     1       2.841  -0.573   0.787  1.00  0.00    -0.280 OA
ENDBRANCH   9  10
TORSDOF 1
