REMARK  3 active torsions:
REMARK  status: ('A' for Active; 'I' for Inactive)
REMARK    1  A    between atoms: N3_6  and  C3_7 
REMARK    2  A    between atoms: C3_7  and  O1_8 
REMARK    3  A    between atoms: O1_8  and  O2_9 
ROOT
HETATM    1  C1  UNL     1      -1.397   0.648   0.790  1.00  0.00     0.140 C 
HETATM    2  N1  UNL     1      -0.555  -0.430   0.387  1.00  0.00    -0.198 NA
HETATM    3  C2  UNL     1      -1.052  -1.344  -0.586  1.00  0.00     0.255 A 
HETATM    4  N2  UNL     1       0.107  -0.926  -1.345  1.00  0.00    -0.307 N 
ATOM      5  H2  UNL     1       0.473  -1.177  -2.263  1.00  0.00     0.183 HD
HETATM    6  N3  UNL     1       0.490  -0.140  -0.450  1.00  0.00    -0.229 N 
ENDROOT
BRANCH   6   7
HETATM    7  C3  UNL     1       1.610   0.757  -0.311  1.00  0.00     0.372 C 
BRANCH   7   8
HETATM    8  O1  UNL     1       2.377   0.414   0.786  1.00  0.00    -0.221 OA
BRANCH   8   9
HETATM    9  O2  UNL     1       2.838  -0.818   0.646  1.00  0.00    -0.249 OA
ATOM     10  H2  UNL     1       3.365  -1.054   1.400  1.00  0.00     0.253 HD
ENDBRANCH   8   9
ENDBRANCH   7   8
ENDBRANCH   6   7
TORSDOF 3
