REMARK  9 active torsions:
REMARK  status: ('A' for Active; 'I' for Inactive)
REMARK    1  A    between atoms: C2_2  and  C4_4 
REMARK    2  A    between atoms: C4_4  and  C5_5 
REMARK    3  A    between atoms: C5_5  and  O1_6 
REMARK    4  A    between atoms: O1_6  and  C6_7 
REMARK    5  A    between atoms: C8_9  and  O2_10 
REMARK    6  A    between atoms: O2_10  and  C9_11 
REMARK    7  A    between atoms: C11_17  and  N3_18 
REMARK       I    between atoms: N3_18  and  C12_20 
REMARK    8  A    between atoms: C13_25  and  O3_26 
REMARK    9  A    between atoms: O3_26  and  C14_27 
ROOT
HETATM    1  C6  UNL     1       0.800   0.535  -0.212  1.00  0.00     0.107 A 
HETATM    2  C7  UNL     1       1.360   1.701  -0.687  1.00  0.00     0.077 A 
HETATM    3  C8  UNL     1       0.756   2.947  -0.541  1.00  0.00     0.084 A 
HETATM    4  C10 UNL     1      -0.444   2.945   0.113  1.00  0.00     0.070 A 
HETATM    5  C11 UNL     1      -1.039   1.771   0.610  1.00  0.00     0.073 A 
HETATM    6  C13 UNL     1      -0.429   0.557   0.454  1.00  0.00     0.129 A 
ENDROOT
BRANCH   6   7
HETATM    7  O3  UNL     1      -1.010  -0.599   0.937  1.00  0.00    -0.341 OA
BRANCH   7   8
HETATM    8  C14 UNL     1      -1.833  -1.485   0.254  1.00  0.00     0.132 C 
HETATM    9  C15 UNL     1      -1.203  -2.881   0.331  1.00  0.00     0.060 C 
HETATM   10  C16 UNL     1      -1.831  -3.797  -0.701  1.00  0.00     0.235 C 
HETATM   11  N6  UNL     1      -3.259  -3.539  -0.771  1.00  0.00    -0.075 N 
HETATM   12  C17 UNL     1      -3.782  -3.038   0.484  1.00  0.00     0.235 C 
ATOM     13  H62 UNL     1      -3.484  -2.911  -1.543  1.00  0.00     0.277 HD
ATOM     14  H61 UNL     1      -3.770  -4.366  -1.081  1.00  0.00     0.277 HD
HETATM   15  C18 UNL     1      -3.228  -1.666   0.826  1.00  0.00     0.060 C 
ENDBRANCH   7   8
ENDBRANCH   6   7
BRANCH   1  16
HETATM   16  O1  UNL     1       1.481  -0.652  -0.408  1.00  0.00    -0.348 OA
BRANCH  16  17
HETATM   17  C5  UNL     1       2.710  -0.698  -1.069  1.00  0.00     0.176 C 
BRANCH  17  18
HETATM   18  C4  UNL     1       3.217  -2.121  -1.135  1.00  0.00     0.030 C 
BRANCH  18  19
HETATM   19  C2  UNL     1       3.401  -2.692   0.266  1.00  0.00    -0.021 C 
HETATM   20  C1  UNL     1       3.911  -4.122   0.064  1.00  0.00     0.009 C 
HETATM   21  C3  UNL     1       4.401  -1.910   1.054  1.00  0.00     0.009 C 
ENDBRANCH  18  19
ENDBRANCH  17  18
ENDBRANCH  16  17
ENDBRANCH   1  16
BRANCH   5  22
HETATM   22  N3  UNL     1      -2.251   1.902   1.320  1.00  0.00    -0.328 N 
HETATM   23  C12 UNL     1      -2.890   3.172   1.378  1.00  0.00     0.186 C 
HETATM   24  N4  UNL     1      -2.688   3.917   2.412  1.00  0.00    -0.373 N 
HETATM   25  N5  UNL     1      -3.742   3.672   0.361  1.00  0.00    -0.064 NA
ATOM     26  H42 UNL     1      -2.075   3.557   3.144  1.00  0.00     0.158 HD
ATOM     27  H41 UNL     1      -3.146   4.827   2.454  1.00  0.00     0.158 HD
ATOM     28  H3  UNL     1      -2.665   1.095   1.787  1.00  0.00     0.168 HD
ENDBRANCH   5  22
BRANCH   3  29
HETATM   29  O2  UNL     1       1.367   4.070  -1.041  1.00  0.00    -0.282 OA
BRANCH  29  30
HETATM   30  C9  UNL     1       0.865   5.341  -0.939  1.00  0.00     0.230 C 
HETATM   31  N1  UNL     1       0.647   5.724   0.301  1.00  0.00    -0.368 N 
ATOM     32  H12 UNL     1       0.848   5.095   1.078  1.00  0.00     0.159 HD
ATOM     33  H11 UNL     1       0.273   6.670   0.377  1.00  0.00     0.159 HD
HETATM   34  N2  UNL     1       0.585   6.218  -2.022  1.00  0.00    -0.056 NA
ENDBRANCH  29  30
ENDBRANCH   3  29
TORSDOF 9
