REMARK  4 active torsions:
REMARK  status: ('A' for Active; 'I' for Inactive)
REMARK    1  A    between atoms: C5_5  and  C6_6 
REMARK    2  A    between atoms: C5_5  and  N5_17 
REMARK    3  A    between atoms: C6_6  and  N1_7 
REMARK    4  A    between atoms: C8_11  and  N3_12 
ROOT
HETATM    1  C1  UNL     1      -2.248   3.404  -0.495  1.00  0.00     0.010 C 
HETATM    2  C2  UNL     1      -1.217   2.470   0.063  1.00  0.00    -0.019 C 
HETATM    3  C3  UNL     1      -0.284   1.983  -1.047  1.00  0.00     0.007 C 
HETATM    4  C4  UNL     1      -0.712   0.544  -1.375  1.00  0.00     0.044 C 
HETATM    5  C5  UNL     1      -0.130  -0.300  -0.225  1.00  0.00     0.179 C 
HETATM    6  C15 UNL     1      -0.684   0.307   1.044  1.00  0.00     0.044 C 
HETATM    7  C16 UNL     1      -1.807   1.294   0.793  1.00  0.00     0.007 C 
ENDROOT
BRANCH   5   8
HETATM    8  C6  UNL     1      -0.576  -1.726  -0.335  1.00  0.00     0.211 C 
BRANCH   8   9
HETATM    9  N1  UNL     1      -2.012  -1.913  -0.293  1.00  0.00    -0.230 N 
HETATM   10  N2  UNL     1      -2.834  -1.907  -1.346  1.00  0.00    -0.292 N 
HETATM   11  C7  UNL     1      -4.100  -2.118  -0.980  1.00  0.00     0.158 A 
ATOM     12  H2  UNL     1      -2.532  -1.760  -2.309  1.00  0.00     0.188 HD
HETATM   13  C8  UNL     1      -4.089  -2.266   0.373  1.00  0.00     0.132 A 
HETATM   14  N4  UNL     1      -2.795  -2.133   0.747  1.00  0.00    -0.268 N 
ATOM     15  H4  UNL     1      -2.466  -2.195   1.711  1.00  0.00     0.190 HD
BRANCH  13  16
HETATM   16  N3  UNL     1      -5.121  -2.489   1.131  1.00  0.00    -0.383 N 
ATOM     17  H32 UNL     1      -6.096  -2.589   0.849  1.00  0.00     0.157 HD
ATOM     18  H31 UNL     1      -5.113  -2.600   2.145  1.00  0.00     0.157 HD
ENDBRANCH  13  16
ENDBRANCH   8   9
ENDBRANCH   5   8
BRANCH   5  19
HETATM   19  N5  UNL     1       1.287  -0.174  -0.176  1.00  0.00     0.105 N 
HETATM   20  C9  UNL     1       2.014  -0.628  -1.323  1.00  0.00     0.280 C 
HETATM   21  C10 UNL     1       3.426  -0.154  -1.230  1.00  0.00     0.089 C 
HETATM   22  C11 UNL     1       3.997  -0.097   0.116  1.00  0.00     0.036 A 
HETATM   23  N6  UNL     1       5.243   0.242   0.552  1.00  0.00    -0.354 N 
HETATM   24  C13 UNL     1       3.245  -0.416   1.207  1.00  0.00     0.061 A 
HETATM   25  C12 UNL     1       5.215   0.120   1.887  1.00  0.00     0.180 A 
ATOM     26  H6  UNL     1       6.036   0.530  -0.021  1.00  0.00     0.166 HD
HETATM   27  N7  UNL     1       3.993  -0.281   2.285  1.00  0.00    -0.353 N 
ATOM     28  H7  UNL     1       3.699  -0.450   3.247  1.00  0.00     0.166 HD
HETATM   29  C14 UNL     1       1.819  -0.828   0.979  1.00  0.00     0.332 C 
ENDBRANCH   5  19
TORSDOF 4
