REMARK  0 active torsions:
REMARK  status: ('A' for Active; 'I' for Inactive)
ROOT
HETATM    1  C1  UNL     1       2.771  -0.416  -0.134  1.00  0.00     0.089 C 
HETATM    2  C2  UNL     1       1.296  -0.168  -0.062  1.00  0.00     0.078 A 
HETATM    3  N1  UNL     1       0.324  -1.087  -0.169  1.00  0.00    -0.347 N 
ATOM      4  H1  UNL     1       0.479  -2.085  -0.315  1.00  0.00     0.167 HD
HETATM    5  C3  UNL     1      -0.885  -0.505  -0.056  1.00  0.00     0.044 A 
HETATM    6  C4  UNL     1      -2.239  -1.116  -0.109  1.00  0.00     0.071 C 
HETATM    7  C5  UNL     1      -0.666   0.843   0.131  1.00  0.00     0.137 A 
HETATM    8  C6  UNL     1      -1.666   1.881   0.304  1.00  0.00     0.119 C 
HETATM    9  N2  UNL     1      -2.463   2.711   0.447  1.00  0.00    -0.190 NA
HETATM   10  N3  UNL     1       0.687   1.010   0.121  1.00  0.00    -0.336 N 
ATOM     11  H3  UNL     1       1.166   1.903   0.236  1.00  0.00     0.168 HD
ENDROOT
TORSDOF 0
