REMARK  2 active torsions:
REMARK  status: ('A' for Active; 'I' for Inactive)
REMARK       I    between atoms: N1_2  and  C2_4 
REMARK    1  A    between atoms: C2_4  and  O2_6 
REMARK    2  A    between atoms: O2_6  and  C3_7 
ROOT
HETATM    1  C1  UNL     1       3.605   0.861  -0.195  1.00  0.00     0.151 C 
HETATM    2  N1  UNL     1       2.544  -0.084   0.047  1.00  0.00    -0.341 N 
ATOM      3  H1  UNL     1       2.762  -1.044   0.313  1.00  0.00     0.164 HD
HETATM    4  C2  UNL     1       1.207   0.327  -0.086  1.00  0.00     0.360 C 
HETATM    5  O1  UNL     1       0.850   1.489  -0.410  1.00  0.00    -0.239 OA
ENDROOT
BRANCH   4   6
HETATM    6  O2  UNL     1       0.210  -0.602   0.153  1.00  0.00    -0.294 OA
BRANCH   6   7
HETATM    7  C3  UNL     1      -1.160  -0.353   0.063  1.00  0.00     0.061 C 
HETATM    8  C4  UNL     1      -1.874  -1.666   0.411  1.00  0.00     0.046 C 
HETATM    9  C5  UNL     1      -1.645   0.655   1.103  1.00  0.00     0.046 C 
HETATM   10  C6  UNL     1      -1.617   0.029  -1.310  1.00  0.00     0.046 C 
ENDBRANCH   6   7
ENDBRANCH   4   6
TORSDOF 2
