REMARK  0 active torsions:
REMARK  status: ('A' for Active; 'I' for Inactive)
ROOT
HETATM    1  C1  UNL     1       2.312   0.554  -0.181  1.00  0.00     0.007 C 
HETATM    2  C2  UNL     1       2.247  -0.930   0.139  1.00  0.00     0.045 C 
HETATM    3  C3  UNL     1       1.020  -1.121   0.967  1.00  0.00     0.065 C 
HETATM    4  N1  UNL     1      -0.154  -0.739   0.329  1.00  0.00    -0.352 N 
HETATM    5  C4  UNL     1      -1.387  -1.103   0.891  1.00  0.00     0.178 C 
HETATM    6  N2  UNL     1      -2.494  -0.660   0.078  1.00  0.00    -0.386 N 
ATOM      7  H2  UNL     1      -3.205  -1.295  -0.285  1.00  0.00     0.160 HD
HETATM    8  C5  UNL     1      -2.505   0.743  -0.172  1.00  0.00     0.122 C 
HETATM    9  C6  UNL     1      -1.136   1.373  -0.147  1.00  0.00     0.045 C 
HETATM   10  C7  UNL     1      -0.154   0.289  -0.625  1.00  0.00     0.091 C 
HETATM   11  C8  UNL     1       1.123   0.893  -1.007  1.00  0.00     0.026 C 
ENDROOT
TORSDOF 0
