REMARK  15 active torsions:
REMARK  status: ('A' for Active; 'I' for Inactive)
REMARK    1  A    between atoms: C2_2  and  C3_3 
REMARK    2  A    between atoms: C3_3  and  C4_4 
REMARK    3  A    between atoms: C4_4  and  C5_5 
REMARK    4  A    between atoms: C19_24  and  C20_25 
REMARK    5  A    between atoms: C20_25  and  N2_26 
REMARK    6  A    between atoms: C20_25  and  C21_30 
REMARK    7  A    between atoms: C21_30  and  N3_31 
REMARK    8  A    between atoms: N3_31  and  C22_33 
REMARK    9  A    between atoms: C22_33  and  C23_34 
REMARK   10  A    between atoms: C23_34  and  C24_35 
REMARK   11  A    between atoms: C24_35  and  C25_36 
REMARK   12  A    between atoms: C25_36  and  N4_37 
REMARK   13  A    between atoms: N4_37  and  C26_40 
REMARK   14  A    between atoms: C26_40  and  C27_41 
REMARK   15  A    between atoms: C27_41  and  N5_42 
ROOT
HETATM    1  C5  UNL     1      -6.531   1.921  -0.297  1.00  0.00    -0.031 A 
HETATM    2  C6  UNL     1      -6.916   3.095  -0.960  1.00  0.00     0.099 A 
HETATM    3  N1  UNL     1      -6.012   3.782  -1.672  1.00  0.00    -0.332 N 
ATOM      4  H1  UNL     1      -6.312   4.632  -2.149  1.00  0.00     0.168 HD
HETATM    5  C7  UNL     1      -4.728   3.401  -1.786  1.00  0.00     0.256 A 
HETATM    6  O1  UNL     1      -3.887   4.052  -2.458  1.00  0.00    -0.267 OA
HETATM    7  C8  UNL     1      -4.301   2.268  -1.160  1.00  0.00     0.044 A 
HETATM    8  C9  UNL     1      -2.985   1.858  -1.242  1.00  0.00     0.030 A 
HETATM    9  C10 UNL     1      -2.546   0.727  -0.593  1.00  0.00    -0.024 A 
HETATM   10  C11 UNL     1      -1.222   0.326  -0.668  1.00  0.00     0.023 A 
HETATM   11  C12 UNL     1      -0.821  -0.816   0.019  1.00  0.00    -0.009 A 
HETATM   12  C13 UNL     1      -1.743  -1.511   0.748  1.00  0.00     0.049 A 
HETATM   13  C14 UNL     1      -3.086  -1.125   0.833  1.00  0.00     0.030 A 
HETATM   14  C15 UNL     1      -3.467   0.001   0.153  1.00  0.00    -0.024 A 
HETATM   15  C16 UNL     1      -4.783   0.403   0.237  1.00  0.00     0.025 A 
HETATM   16  C17 UNL     1      -5.221   1.533  -0.413  1.00  0.00    -0.012 A 
HETATM   17  C18 UNL     1      -1.083  -2.640   1.426  1.00  0.00     0.294 A 
HETATM   18  O2  UNL     1      -1.654  -3.485   2.183  1.00  0.00    -0.259 OA
HETATM   19  O3  UNL     1       0.230  -2.555   1.059  1.00  0.00    -0.305 OA
HETATM   20  C19 UNL     1       0.496  -1.527   0.137  1.00  0.00     0.201 A 
ENDROOT
BRANCH  20  21
HETATM   21  C20 UNL     1       1.539  -0.569   0.655  1.00  0.00     0.255 C 
BRANCH  21  22
HETATM   22  N2  UNL     1       1.866   0.410  -0.316  1.00  0.00    -0.068 N 
ATOM     23  H23 UNL     1       2.154  -0.017  -1.196  1.00  0.00     0.275 HD
ATOM     24  H22 UNL     1       1.036   0.903  -0.645  1.00  0.00     0.275 HD
ATOM     25  H21 UNL     1       2.571   1.058   0.034  1.00  0.00     0.275 HD
ENDBRANCH  21  22
BRANCH  21  26
HETATM   26  C21 UNL     1       2.739  -1.308   1.179  1.00  0.00     0.095 C 
BRANCH  26  27
HETATM   27  N3  UNL     1       3.439  -2.137   0.319  1.00  0.00    -0.380 N 
ATOM     28  H3  UNL     1       3.394  -3.141   0.491  1.00  0.00     0.164 HD
BRANCH  27  29
HETATM   29  C22 UNL     1       4.195  -1.704  -0.756  1.00  0.00     0.060 C 
BRANCH  29  30
HETATM   30  C23 UNL     1       5.462  -0.919  -0.477  1.00  0.00     0.046 C 
BRANCH  30  31
HETATM   31  C24 UNL     1       6.440  -1.664   0.373  1.00  0.00     0.032 C 
BRANCH  31  32
HETATM   32  C25 UNL     1       7.674  -0.832   0.591  1.00  0.00     0.232 C 
BRANCH  32  33
HETATM   33  N4  UNL     1       8.318  -0.564  -0.659  1.00  0.00    -0.074 N 
ATOM     34  H42 UNL     1       8.442  -1.411  -1.214  1.00  0.00     0.277 HD
ATOM     35  H41 UNL     1       7.711  -0.053  -1.300  1.00  0.00     0.277 HD
BRANCH  33  36
HETATM   36  C26 UNL     1       9.570   0.124  -0.434  1.00  0.00     0.259 C 
BRANCH  36  37
HETATM   37  C27 UNL     1       9.296   1.517   0.045  1.00  0.00     0.257 C 
BRANCH  37  38
HETATM   38  N5  UNL     1       8.522   2.197  -0.982  1.00  0.00    -0.078 N 
ATOM     39  H53 UNL     1       8.973   2.175  -1.897  1.00  0.00     0.274 HD
ATOM     40  H52 UNL     1       7.673   1.692  -1.237  1.00  0.00     0.274 HD
ATOM     41  H51 UNL     1       8.335   3.145  -0.656  1.00  0.00     0.274 HD
ENDBRANCH  37  38
ENDBRANCH  36  37
ENDBRANCH  33  36
ENDBRANCH  32  33
ENDBRANCH  31  32
ENDBRANCH  30  31
ENDBRANCH  29  30
ENDBRANCH  27  29
ENDBRANCH  26  27
ENDBRANCH  21  26
ENDBRANCH  20  21
BRANCH   1  42
HETATM   42  C4  UNL     1      -7.514   1.134   0.447  1.00  0.00     0.041 C 
BRANCH  42  43
HETATM   43  C3  UNL     1      -7.956  -0.000  -0.444  1.00  0.00     0.004 C 
BRANCH  43  44
HETATM   44  C2  UNL     1      -8.969  -0.894   0.202  1.00  0.00    -0.004 C 
HETATM   45  C1  UNL     1      -8.469  -1.544   1.460  1.00  0.00     0.005 C 
ENDBRANCH  43  44
ENDBRANCH  42  43
ENDBRANCH   1  42
TORSDOF 15
