REMARK  17 active torsions:
REMARK  status: ('A' for Active; 'I' for Inactive)
REMARK    1  A    between atoms: C2_2  and  C3_3 
REMARK    2  A    between atoms: C3_3  and  C4_4 
REMARK    3  A    between atoms: C4_4  and  C5_5 
REMARK    4  A    between atoms: C5_5  and  C6_6 
REMARK    5  A    between atoms: C6_6  and  C7_7 
REMARK    6  A    between atoms: C7_7  and  C8_8 
REMARK    7  A    between atoms: C8_8  and  C9_9 
REMARK    8  A    between atoms: C9_9  and  C10_10 
REMARK    9  A    between atoms: C10_10  and  N1_11 
REMARK   10  A    between atoms: N1_11  and  C11_13 
REMARK   11  A    between atoms: C12_16  and  N3_17 
REMARK   12  A    between atoms: N3_17  and  C13_19 
REMARK   13  A    between atoms: C13_19  and  C14_20 
REMARK   14  A    between atoms: N5_24  and  C16_25 
REMARK   15  A    between atoms: C16_25  and  C17_26 
REMARK   16  A    between atoms: C17_26  and  O1_27 
REMARK   17  A    between atoms: C20_33  and  N7_34 
ROOT
HETATM    1  C11 UNL     1      -0.214   0.817  -0.108  1.00  0.00     0.680 A 
HETATM    2  N2  UNL     1      -1.432   0.440   0.305  1.00  0.00    -0.175 N 
ATOM      3  H2  UNL     1      -1.495  -0.324   0.978  1.00  0.00     0.186 HD
HETATM    4  C12 UNL     1      -2.571   1.007  -0.114  1.00  0.00     0.147 A 
HETATM    5  C19 UNL     1      -2.517   2.046  -1.025  1.00  0.00     0.124 A 
HETATM    6  N6  UNL     1      -3.643   2.644  -1.473  1.00  0.00    -0.186 N 
ATOM      7  H6  UNL     1      -4.545   2.318  -1.126  1.00  0.00     0.184 HD
HETATM    8  C20 UNL     1      -3.615   3.648  -2.355  1.00  0.00     0.679 A 
HETATM    9  N8  UNL     1      -2.415   4.052  -2.789  1.00  0.00    -0.175 N 
ATOM     10  H8  UNL     1      -2.375   4.818  -3.462  1.00  0.00     0.186 HD
HETATM   11  C22 UNL     1      -1.235   3.487  -2.374  1.00  0.00     0.144 A 
HETATM   12  N9  UNL     1      -0.140   3.936  -2.844  1.00  0.00    -0.383 N 
ATOM     13  H91 UNL     1       0.737   3.516  -2.536  1.00  0.00     0.157 HD
ATOM     14  H92 UNL     1      -0.111   4.702  -3.517  1.00  0.00     0.157 HD
HETATM   15  C23 UNL     1      -1.274   2.452  -1.464  1.00  0.00     0.124 A 
HETATM   16  N10 UNL     1      -0.166   1.843  -1.008  1.00  0.00    -0.186 N 
ATOM     17  H10 UNL     1       0.743   2.158  -1.346  1.00  0.00     0.184 HD
ENDROOT
BRANCH   4  18
HETATM   18  N3  UNL     1      -3.741   0.654   0.269  1.00  0.00    -0.370 N 
ATOM     19  H3  UNL     1      -4.568   1.131  -0.091  1.00  0.00     0.161 HD
BRANCH  18  20
HETATM   20  C13 UNL     1      -3.876  -0.429   1.219  1.00  0.00     0.162 C 
BRANCH  20  21
HETATM   21  C14 UNL     1      -5.289  -0.875   1.340  1.00  0.00    -0.007 A 
HETATM   22  C15 UNL     1      -6.331  -0.323   0.631  1.00  0.00     0.117 A 
HETATM   23  N4  UNL     1      -7.428  -1.004   1.028  1.00  0.00    -0.309 N 
HETATM   24  N5  UNL     1      -7.091  -1.934   1.936  1.00  0.00    -0.301 N 
ATOM     25  H4  UNL     1      -8.375  -0.836   0.688  1.00  0.00     0.186 HD
HETATM   26  C18 UNL     1      -5.767  -1.876   2.150  1.00  0.00     0.120 A 
BRANCH  24  27
HETATM   27  C16 UNL     1      -8.041  -2.837   2.561  1.00  0.00     0.174 C 
BRANCH  27  28
HETATM   28  C17 UNL     1      -8.147  -4.106   1.709  1.00  0.00     0.185 C 
BRANCH  28  29
HETATM   29  O1  UNL     1      -8.585  -3.782   0.424  1.00  0.00    -0.399 OA
ATOM     30  H1  UNL     1      -8.651  -4.569  -0.104  1.00  0.00     0.209 HD
ENDBRANCH  28  29
ENDBRANCH  27  28
ENDBRANCH  24  27
ENDBRANCH  20  21
ENDBRANCH  18  20
ENDBRANCH   4  18
BRANCH   1  31
HETATM   31  N1  UNL     1       0.890   0.277   0.279  1.00  0.00    -0.226 N 
ATOM     32  H1  UNL     1       1.759   0.649  -0.104  1.00  0.00     0.177 HD
BRANCH  31  33
HETATM   33  C10 UNL     1       0.984  -0.815   1.215  1.00  0.00     0.138 C 
BRANCH  33  34
HETATM   34  C9  UNL     1       2.214  -1.627   1.137  1.00  0.00     0.020 C 
BRANCH  34  35
HETATM   35  C8  UNL     1       3.515  -0.981   1.378  1.00  0.00     0.002 C 
BRANCH  35  36
HETATM   36  C7  UNL     1       3.928   0.132   0.493  1.00  0.00     0.000 C 
BRANCH  36  37
HETATM   37  C6  UNL     1       5.303   0.604   0.939  1.00  0.00     0.000 C 
BRANCH  37  38
HETATM   38  C5  UNL     1       6.352  -0.474   0.868  1.00  0.00     0.000 C 
BRANCH  38  39
HETATM   39  C4  UNL     1       6.450  -0.943  -0.563  1.00  0.00     0.000 C 
BRANCH  39  40
HETATM   40  C3  UNL     1       7.477  -2.031  -0.741  1.00  0.00    -0.000 C 
BRANCH  40  41
HETATM   41  C2  UNL     1       8.861  -1.599  -0.350  1.00  0.00    -0.005 C 
HETATM   42  C1  UNL     1       9.356  -0.431  -1.155  1.00  0.00     0.005 C 
ENDBRANCH  40  41
ENDBRANCH  39  40
ENDBRANCH  38  39
ENDBRANCH  37  38
ENDBRANCH  36  37
ENDBRANCH  35  36
ENDBRANCH  34  35
ENDBRANCH  33  34
ENDBRANCH  31  33
ENDBRANCH   1  31
BRANCH   8  43
HETATM   43  N7  UNL     1      -4.708   4.197  -2.762  1.00  0.00    -0.230 N 
HETATM   44  C21 UNL     1      -4.720   5.283  -3.713  1.00  0.00     0.165 C 
ATOM     45  H7  UNL     1      -5.596   3.852  -2.399  1.00  0.00     0.177 HD
ENDBRANCH   8  43
TORSDOF 17
