REMARK  6 active torsions:
REMARK  status: ('A' for Active; 'I' for Inactive)
REMARK    1  A    between atoms: C2_2  and  C4_4 
REMARK    2  A    between atoms: C7_7  and  O1_8 
REMARK    3  A    between atoms: C7_7  and  C8_10 
REMARK    4  A    between atoms: C9_12  and  C10_13 
REMARK    5  A    between atoms: C10_13  and  C11_14 
REMARK    6  A    between atoms: C12_17  and  O5_18 
ROOT
HETATM    1  C8  UNL     1      -0.447   0.251  -0.717  1.00  0.00     0.169 C 
HETATM    2  O2  UNL     1      -1.346   0.978   0.011  1.00  0.00    -0.374 OA
HETATM    3  C9  UNL     1      -1.995   0.385   1.039  1.00  0.00     0.161 C 
HETATM    4  C12 UNL     1      -2.637  -0.923   0.729  1.00  0.00     0.155 C 
HETATM    5  C14 UNL     1      -2.233  -1.542  -0.558  1.00  0.00     0.033 A 
HETATM    6  C15 UNL     1      -1.003  -1.064  -1.189  1.00  0.00     0.034 A 
HETATM    7  C16 UNL     1      -2.364  -0.956  -1.886  1.00  0.00    -0.035 A 
HETATM    8  C17 UNL     1      -2.924   0.386  -2.193  1.00  0.00     0.016 C 
HETATM    9  C18 UNL     1      -2.460  -1.914  -3.088  1.00  0.00     0.016 C 
ENDROOT
BRANCH   1  10
HETATM   10  C7  UNL     1       0.856   0.013  -0.021  1.00  0.00     0.144 C 
HETATM   11  C6  UNL     1       1.890  -0.639  -0.881  1.00  0.00     0.049 C 
HETATM   12  C5  UNL     1       3.020   0.291  -1.297  1.00  0.00     0.013 C 
HETATM   13  C4  UNL     1       3.812   0.862  -0.184  1.00  0.00     0.020 C 
HETATM   14  C20 UNL     1       2.845   1.238   0.932  1.00  0.00     0.090 C 
HETATM   15  C19 UNL     1       1.470   1.337   0.399  1.00  0.00     0.164 C 
HETATM   16  O6  UNL     1       0.919   2.398   0.320  1.00  0.00    -0.295 OA
BRANCH  13  17
HETATM   17  C2  UNL     1       4.925   0.045   0.324  1.00  0.00    -0.089 C 
HETATM   18  C1  UNL     1       5.189  -1.159  -0.119  1.00  0.00     0.014 C 
HETATM   19  C3  UNL     1       5.790   0.617   1.403  1.00  0.00     0.043 C 
ENDBRANCH  13  17
BRANCH  10  20
HETATM   20  O1  UNL     1       0.714  -0.779   1.146  1.00  0.00    -0.379 OA
ATOM     21  H1  UNL     1       0.057  -0.365   1.693  1.00  0.00     0.211 HD
ENDBRANCH  10  20
ENDBRANCH   1  10
BRANCH   3  22
HETATM   22  C10 UNL     1      -3.037   1.405   1.544  1.00  0.00     0.147 C 
BRANCH  22  23
HETATM   23  C11 UNL     1      -2.357   2.641   1.995  1.00  0.00     0.175 C 
HETATM   24  O3  UNL     1      -1.686   2.624   3.059  1.00  0.00    -0.648 OA
HETATM   25  O4  UNL     1      -2.439   3.823   1.278  1.00  0.00    -0.648 OA
ENDBRANCH  22  23
ENDBRANCH   3  22
BRANCH   4  26
HETATM   26  O5  UNL     1      -3.998  -0.819   0.906  1.00  0.00    -0.388 OA
HETATM   27  C13 UNL     1      -4.505  -1.577   1.931  1.00  0.00     0.202 C 
ENDBRANCH   4  26
TORSDOF 6
