REMARK  9 active torsions:
REMARK  status: ('A' for Active; 'I' for Inactive)
REMARK    1  A    between atoms: C2_2  and  C3_3 
REMARK    2  A    between atoms: C3_3  and  C4_5 
REMARK    3  A    between atoms: C4_5  and  C5_6 
REMARK    4  A    between atoms: C5_6  and  S1_7 
REMARK    5  A    between atoms: S1_7  and  C6_8 
REMARK    6  A    between atoms: C6_8  and  N1_10 
REMARK    7  A    between atoms: N1_10  and  C7_12 
REMARK    8  A    between atoms: C7_12  and  N2_14 
REMARK    9  A    between atoms: C10_17  and  C11_18 
ROOT
HETATM    1  N1  UNL     1      -0.040  -0.028   1.331  1.00  0.00    -0.319 N 
ATOM      2  H1  UNL     1      -0.581   0.701   1.797  1.00  0.00     0.169 HD
ENDROOT
BRANCH   1   3
HETATM    3  C6  UNL     1       1.194  -0.384   1.911  1.00  0.00     0.140 C 
HETATM    4  S2  UNL     1       1.667   0.364   3.278  1.00  0.00    -0.052 SA
BRANCH   3   5
HETATM    5  S1  UNL     1       2.186  -1.641   1.158  1.00  0.00    -0.100 SA
BRANCH   5   6
HETATM    6  C5  UNL     1       3.739  -1.794   2.061  1.00  0.00     0.089 C 
BRANCH   6   7
HETATM    7  C4  UNL     1       4.561  -0.569   1.831  1.00  0.00     0.088 C 
BRANCH   7   8
HETATM    8  C3  UNL     1       4.834  -0.435   0.375  1.00  0.00     0.127 C 
HETATM    9  O1  UNL     1       4.388  -1.277  -0.378  1.00  0.00    -0.298 OA
BRANCH   8  10
HETATM   10  C2  UNL     1       5.636   0.698  -0.177  1.00  0.00     0.074 C 
HETATM   11  C1  UNL     1       5.737   0.558  -1.676  1.00  0.00     0.013 C 
ENDBRANCH   8  10
ENDBRANCH   7   8
ENDBRANCH   6   7
ENDBRANCH   5   6
ENDBRANCH   3   5
ENDBRANCH   1   3
BRANCH   1  12
HETATM   12  C7  UNL     1      -0.597  -0.598   0.151  1.00  0.00     0.175 C 
HETATM   13  S3  UNL     1       0.178  -1.761  -0.659  1.00  0.00    -0.041 SA
BRANCH  12  14
HETATM   14  N2  UNL     1      -1.861  -0.115  -0.297  1.00  0.00    -0.358 N 
HETATM   15  C8  UNL     1      -2.424  -0.701  -1.496  1.00  0.00     0.126 C 
HETATM   16  C9  UNL     1      -3.929  -0.753  -1.252  1.00  0.00     0.033 C 
HETATM   17  C10 UNL     1      -4.445   0.654  -1.334  1.00  0.00     0.078 C 
HETATM   18  C12 UNL     1      -3.609   1.581  -0.527  1.00  0.00     0.033 C 
HETATM   19  C13 UNL     1      -2.594   0.910   0.372  1.00  0.00     0.126 C 
BRANCH  17  20
HETATM   20  C11 UNL     1      -5.869   0.652  -0.910  1.00  0.00     0.235 C 
HETATM   21  N3  UNL     1      -6.181   0.203   0.393  1.00  0.00    -0.062 NA
HETATM   22  O2  UNL     1      -6.733   1.047  -1.722  1.00  0.00    -0.277 OA
ENDBRANCH  17  20
ENDBRANCH  12  14
ENDBRANCH   1  12
TORSDOF 9
