REMARK  6 active torsions:
REMARK  status: ('A' for Active; 'I' for Inactive)
REMARK    1  A    between atoms: O1_3  and  C3_4 
REMARK    2  A    between atoms: C3_4  and  C4_6 
REMARK    3  A    between atoms: C7_9  and  N1_10 
REMARK       I    between atoms: N1_10  and  C8_12 
REMARK    4  A    between atoms: C8_12  and  C9_14 
REMARK    5  A    between atoms: C9_14  and  C10_15 
REMARK       I    between atoms: C10_15  and  N2_17 
REMARK    6  A    between atoms: N2_17  and  C11_19 
ROOT
HETATM    1  C1  UNL     1       8.222  -2.132   2.005  1.00  0.00     0.132 C 
HETATM    2  C2  UNL     1       7.368  -1.865   1.174  1.00  0.00    -0.021 C 
HETATM    3  O1  UNL     1       6.409  -1.549   0.256  1.00  0.00    -0.239 OA
ENDROOT
BRANCH   3   4
HETATM    4  C3  UNL     1       5.517  -0.540   0.540  1.00  0.00     0.275 C 
HETATM    5  O2  UNL     1       5.627   0.056   1.652  1.00  0.00    -0.264 OA
BRANCH   4   6
HETATM    6  C4  UNL     1       4.456  -0.161  -0.431  1.00  0.00     0.086 C 
HETATM    7  C5  UNL     1       3.610  -1.378  -0.658  1.00  0.00     0.017 C 
HETATM    8  C6  UNL     1       2.210  -1.046  -1.118  1.00  0.00     0.026 C 
HETATM    9  C7  UNL     1       1.569  -0.005  -0.262  1.00  0.00     0.084 C 
HETATM   10  C17 UNL     1       2.379   1.276  -0.450  1.00  0.00     0.026 C 
HETATM   11  C18 UNL     1       3.740   1.026   0.108  1.00  0.00     0.017 C 
BRANCH   9  12
HETATM   12  N1  UNL     1       0.219   0.264  -0.730  1.00  0.00    -0.355 N 
HETATM   13  C8  UNL     1      -0.898   0.245   0.122  1.00  0.00     0.236 C 
HETATM   14  O3  UNL     1      -0.737  -0.016   1.342  1.00  0.00    -0.272 OA
ATOM     15  H1  UNL     1       0.077   0.475  -1.718  1.00  0.00     0.162 HD
BRANCH  13  16
HETATM   16  C9  UNL     1      -2.251   0.527  -0.385  1.00  0.00     0.122 A 
HETATM   17  C15 UNL     1      -2.500   1.681  -1.286  1.00  0.00     0.031 A 
HETATM   18  C16 UNL     1      -2.491   0.279  -1.845  1.00  0.00     0.031 A 
BRANCH  16  19
HETATM   19  C10 UNL     1      -3.392   0.166   0.538  1.00  0.00     0.240 C 
HETATM   20  O4  UNL     1      -3.104  -0.299   1.661  1.00  0.00    -0.272 OA
HETATM   21  N2  UNL     1      -4.689   0.370   0.092  1.00  0.00    -0.326 N 
ATOM     22  H2  UNL     1      -4.822   0.759  -0.841  1.00  0.00     0.169 HD
BRANCH  21  23
HETATM   23  C11 UNL     1      -5.871   0.059   0.884  1.00  0.00     0.041 A 
HETATM   24  C12 UNL     1      -7.045   0.667   0.640  1.00  0.00     0.037 A 
HETATM   25  C13 UNL     1      -8.111   0.314   1.409  1.00  0.00     0.052 A 
HETATM   26  S1  UNL     1      -7.466  -0.858   2.461  1.00  0.00    -0.111 SA
HETATM   27  C14 UNL     1      -5.845  -0.867   1.887  1.00  0.00     0.079 A 
ENDBRANCH  21  23
ENDBRANCH  16  19
ENDBRANCH  13  16
ENDBRANCH   9  12
ENDBRANCH   4   6
ENDBRANCH   3   4
TORSDOF 6
