REMARK  3 active torsions:
REMARK  status: ('A' for Active; 'I' for Inactive)
REMARK    1  A    between atoms: C1_2  and  C2_4 
REMARK    2  A    between atoms: C2_4  and  N1_5 
REMARK    3  A    between atoms: N2_11  and  C6_13 
ROOT
HETATM    1  N1  UNL     1       1.922  -0.419   0.460  1.00  0.00    -0.291 N 
HETATM    2  S1  UNL     1       3.202   0.782   0.448  1.00  0.00    -0.050 SA
HETATM    3  C3  UNL     1       2.447   2.410   0.321  1.00  0.00     0.108 C 
HETATM    4  C4  UNL     1       1.621   2.552  -0.938  1.00  0.00     0.094 C 
HETATM    5  S2  UNL     1       0.373   1.281  -1.106  1.00  0.00    -0.093 SA
HETATM    6  C5  UNL     1       0.605  -0.105  -0.052  1.00  0.00     0.149 C 
HETATM    7  N2  UNL     1      -0.348  -0.854   0.285  1.00  0.00    -0.366 N 
ATOM      8  H2  UNL     1      -0.069  -1.619   0.899  1.00  0.00     0.162 HD
ENDROOT
BRANCH   1   9
HETATM    9  C2  UNL     1       2.108  -1.752   0.969  1.00  0.00     0.252 C 
BRANCH   9  10
HETATM   10  C1  UNL     1       3.440  -2.058   1.485  1.00  0.00     0.192 C 
HETATM   11  O1  UNL     1       4.350  -1.211   1.480  1.00  0.00    -0.647 OA
HETATM   12  O2  UNL     1       3.694  -3.315   1.989  1.00  0.00    -0.647 OA
ENDBRANCH   9  10
ENDBRANCH   1   9
BRANCH   7  13
HETATM   13  C6  UNL     1      -1.724  -0.847  -0.017  1.00  0.00     0.083 C 
HETATM   14  C7  UNL     1      -2.107  -0.728  -1.455  1.00  0.00     0.025 C 
HETATM   15  C8  UNL     1      -3.186   0.354  -1.533  1.00  0.00     0.002 C 
HETATM   16  C9  UNL     1      -3.677   0.442  -0.123  1.00  0.00     0.002 C 
HETATM   17  C10 UNL     1      -2.399   0.338   0.674  1.00  0.00     0.025 C 
ENDBRANCH   7  13
TORSDOF 3
