REMARK  4 active torsions:
REMARK  status: ('A' for Active; 'I' for Inactive)
REMARK    1  A    between atoms: C6_6  and  O1_7 
REMARK    2  A    between atoms: N1_10  and  O2_12 
REMARK    3  A    between atoms: O2_12  and  C8_13 
REMARK    4  A    between atoms: C8_13  and  C9_14 
ROOT
HETATM    1  C1  UNL     1      -4.190   2.717   0.807  1.00  0.00     0.040 C 
HETATM    2  C2  UNL     1      -3.840   1.232   0.640  1.00  0.00     0.126 C 
HETATM    3  C3  UNL     1      -3.618   0.989  -0.811  1.00  0.00     0.039 C 
HETATM    4  C4  UNL     1      -2.945  -0.325  -1.120  1.00  0.00     0.021 C 
HETATM    5  C5  UNL     1      -3.922  -1.478  -1.036  1.00  0.00     0.013 C 
HETATM    6  C6  UNL     1      -1.699  -0.560  -0.333  1.00  0.00     0.198 C 
HETATM    7  C7  UNL     1      -1.620   0.221   0.909  1.00  0.00     0.168 C 
HETATM    8  N1  UNL     1      -0.548   0.164   1.623  1.00  0.00    -0.246 N 
ATOM      9  H1  UNL     1      -0.527   0.718   2.479  1.00  0.00     0.196 HD
HETATM   10  O3  UNL     1      -2.648   1.031   1.369  1.00  0.00    -0.331 OA
ENDROOT
BRANCH   6  11
HETATM   11  O1  UNL     1      -1.586  -1.942  -0.087  1.00  0.00    -0.387 OA
ATOM     12  H1  UNL     1      -0.793  -2.092   0.414  1.00  0.00     0.210 HD
ENDBRANCH   6  11
BRANCH   8  13
HETATM   13  O2  UNL     1       0.549  -0.567   1.333  1.00  0.00    -0.278 OA
BRANCH  13  14
HETATM   14  C8  UNL     1       1.874  -0.171   1.514  1.00  0.00     0.207 C 
BRANCH  14  15
HETATM   15  C9  UNL     1       2.862  -1.237   1.084  1.00  0.00     0.042 C 
HETATM   16  C10 UNL     1       2.673  -1.559  -0.406  1.00  0.00     0.038 C 
HETATM   17  C11 UNL     1       3.352  -0.361  -1.035  1.00  0.00     0.272 C 
HETATM   18  N2  UNL     1       4.535  -0.211  -0.245  1.00  0.00     0.084 N 
HETATM   19  C12 UNL     1       5.102   1.108  -0.268  1.00  0.00     0.309 C 
HETATM   20  C13 UNL     1       4.279  -0.706   1.072  1.00  0.00     0.278 C 
ENDBRANCH  14  15
ENDBRANCH  13  14
ENDBRANCH   8  13
TORSDOF 4
