REMARK  3 active torsions:
REMARK  status: ('A' for Active; 'I' for Inactive)
REMARK    1  A    between atoms: N1_4  and  C4_5 
REMARK    2  A    between atoms: C4_5  and  C5_6 
REMARK    3  A    between atoms: C6_11  and  C7_12 
ROOT
HETATM    1  C5  UNL     1       0.399  -0.430  -0.294  1.00  0.00     0.168 A 
HETATM    2  N2  UNL     1       0.125  -0.568   1.003  1.00  0.00    -0.280 N 
ATOM      3  H2  UNL     1       0.825  -0.710   1.732  1.00  0.00     0.189 HD
HETATM    4  N3  UNL     1      -1.183  -0.496   1.217  1.00  0.00    -0.281 N 
ATOM      5  H3  UNL     1      -1.678  -0.567   2.106  1.00  0.00     0.189 HD
HETATM    6  C6  UNL     1      -1.712  -0.306  -0.022  1.00  0.00     0.144 A 
HETATM    7  O1  UNL     1      -0.760  -0.271  -0.890  1.00  0.00    -0.280 OA
ENDROOT
BRANCH   6   8
HETATM    8  C7  UNL     1      -3.156  -0.162  -0.321  1.00  0.00     0.065 C 
HETATM    9  C8  UNL     1      -3.603   1.138   0.362  1.00  0.00     0.040 C 
HETATM   10  C9  UNL     1      -5.076   1.286   0.016  1.00  0.00     0.233 C 
HETATM   11  N4  UNL     1      -5.830   0.297   0.724  1.00  0.00    -0.075 N 
HETATM   12  C10 UNL     1      -5.012  -0.770   1.259  1.00  0.00     0.233 C 
ATOM     13  H42 UNL     1      -6.392   0.727   1.459  1.00  0.00     0.277 HD
ATOM     14  H41 UNL     1      -6.577  -0.077   0.139  1.00  0.00     0.277 HD
HETATM   15  C11 UNL     1      -3.984  -1.264   0.284  1.00  0.00     0.040 C 
ENDBRANCH   6   8
BRANCH   1  16
HETATM   16  C4  UNL     1       1.679  -0.435  -1.032  1.00  0.00     0.358 C 
BRANCH  16  17
HETATM   17  N1  UNL     1       2.823  -0.622  -0.203  1.00  0.00     0.096 N 
HETATM   18  C3  UNL     1       2.972   0.394   0.792  1.00  0.00     0.273 C 
HETATM   19  C2  UNL     1       4.232   1.187   0.693  1.00  0.00     0.030 C 
HETATM   20  C1  UNL     1       5.468   0.374   0.510  1.00  0.00     0.003 C 
HETATM   21  C13 UNL     1       5.258  -0.886  -0.290  1.00  0.00     0.030 C 
HETATM   22  C12 UNL     1       3.979  -0.732  -1.077  1.00  0.00     0.273 C 
ENDBRANCH  16  17
ENDBRANCH   1  16
TORSDOF 3
