REMARK  3 active torsions:
REMARK  status: ('A' for Active; 'I' for Inactive)
REMARK    1  A    between atoms: N1_10  and  C7_11 
REMARK    2  A    between atoms: C7_11  and  S2_12 
REMARK    3  A    between atoms: S2_12  and  C8_13 
ROOT
HETATM    1  O1  UNL     1       0.325   1.472   1.411  1.00  0.00    -0.211 OA
HETATM    2  S1  UNL     1       0.028   1.115  -0.048  1.00  0.00     0.212 S 
HETATM    3  O2  UNL     1       1.109   1.842  -0.829  1.00  0.00    -0.211 OA
HETATM    4  C1  UNL     1      -1.491   1.831  -0.565  1.00  0.00     0.157 C 
HETATM    5  C2  UNL     1      -2.708   1.360   0.119  1.00  0.00     0.016 C 
HETATM    6  C3  UNL     1      -2.594   0.125   0.930  1.00  0.00     0.001 C 
HETATM    7  C4  UNL     1      -2.555  -1.058  -0.013  1.00  0.00     0.001 C 
HETATM    8  C5  UNL     1      -1.511  -2.058   0.355  1.00  0.00     0.015 C 
HETATM    9  C6  UNL     1      -0.173  -1.443   0.665  1.00  0.00     0.108 C 
HETATM   10  N1  UNL     1       0.204  -0.530  -0.357  1.00  0.00    -0.201 NA
ENDROOT
BRANCH  10  11
HETATM   11  C7  UNL     1       1.521  -0.899  -0.815  1.00  0.00     0.190 C 
BRANCH  11  12
HETATM   12  S2  UNL     1       2.583  -0.935   0.683  1.00  0.00    -0.067 SA
BRANCH  12  13
HETATM   13  C8  UNL     1       4.023   0.058   0.421  1.00  0.00     0.227 A 
HETATM   14  N2  UNL     1       5.285  -0.110   0.001  1.00  0.00    -0.252 N 
HETATM   15  N3  UNL     1       5.514   1.170   0.165  1.00  0.00    -0.197 N 
ATOM     16  H2  UNL     1       5.839  -0.906  -0.316  1.00  0.00     0.191 HD
HETATM   17  O3  UNL     1       4.291   1.360   0.580  1.00  0.00    -0.195 OA
ATOM     18  H3  UNL     1       6.323   1.775   0.025  1.00  0.00     0.216 HD
ENDBRANCH  12  13
ENDBRANCH  11  12
ENDBRANCH  10  11
TORSDOF 3
