REMARK  3 active torsions:
REMARK  status: ('A' for Active; 'I' for Inactive)
REMARK    1  A    between atoms: O1_2  and  C2_3 
REMARK    2  A    between atoms: C3_5  and  O3_6 
REMARK    3  A    between atoms: C4_9  and  O5_10 
ROOT
HETATM    1  C2  UNL     1      -0.414  -0.662  -0.027  1.00  0.00     0.306 C 
HETATM    2  O2  UNL     1       0.434  -1.344   0.811  1.00  0.00    -0.305 OA
HETATM    3  C3  UNL     1       1.651  -0.641   0.892  1.00  0.00     0.415 C 
HETATM    4  O4  UNL     1       1.380   0.458   1.716  1.00  0.00    -0.305 OA
HETATM    5  C4  UNL     1       0.622   1.375   1.035  1.00  0.00     0.304 C 
HETATM    6  C5  UNL     1      -0.259   0.817  -0.017  1.00  0.00     0.181 A 
HETATM    7  C6  UNL     1      -0.385   1.542  -1.290  1.00  0.00     0.217 A 
HETATM    8  O6  UNL     1      -1.470   1.505  -0.306  1.00  0.00    -0.364 OA
ENDROOT
BRANCH   1   9
HETATM    9  O1  UNL     1      -1.718  -1.082   0.207  1.00  0.00    -0.362 OA
HETATM   10  C1  UNL     1      -2.276  -1.757  -0.865  1.00  0.00     0.204 C 
ENDBRANCH   1   9
BRANCH   3  11
HETATM   11  O3  UNL     1       2.626  -1.447   1.449  1.00  0.00    -0.349 OA
ATOM     12  H3  UNL     1       3.447  -0.973   1.504  1.00  0.00     0.215 HD
ENDBRANCH   3  11
BRANCH   5  13
HETATM   13  O5  UNL     1       1.499   2.372   0.555  1.00  0.00    -0.368 OA
ATOM     14  H5  UNL     1       0.974   3.007   0.083  1.00  0.00     0.212 HD
ENDBRANCH   5  13
TORSDOF 3
