REMARK  3 active torsions:
REMARK  status: ('A' for Active; 'I' for Inactive)
REMARK    1  A    between atoms: O1_2  and  C2_3 
REMARK    2  A    between atoms: C4_5  and  O2_6 
REMARK    3  A    between atoms: C5_8  and  O3_9 
ROOT
HETATM    1  C2  UNL     1       0.376   0.175   0.345  1.00  0.00     0.118 C 
HETATM    2  C3  UNL     1       0.308   1.664  -0.028  1.00  0.00     0.052 C 
HETATM    3  C4  UNL     1      -0.107  -0.667  -0.806  1.00  0.00     0.210 C 
HETATM    4  C5  UNL     1      -1.626  -0.727  -0.853  1.00  0.00     0.291 C 
HETATM    5  O4  UNL     1      -2.173  -1.163   0.326  1.00  0.00    -0.326 OA
HETATM    6  C6  UNL     1      -1.779  -0.496   1.449  1.00  0.00     0.295 A 
HETATM    7  O5  UNL     1      -0.701  -1.229   2.123  1.00  0.00    -0.345 OA
HETATM    8  C7  UNL     1      -0.517   0.019   1.560  1.00  0.00     0.216 A 
ENDROOT
BRANCH   1   9
HETATM    9  O1  UNL     1       1.652  -0.081   0.743  1.00  0.00    -0.380 OA
HETATM   10  C1  UNL     1       2.636   0.155  -0.190  1.00  0.00     0.202 C 
ENDBRANCH   1   9
BRANCH   3  11
HETATM   11  O2  UNL     1       0.341  -1.968  -0.730  1.00  0.00    -0.387 OA
ATOM     12  H2  UNL     1       0.036  -2.499  -1.456  1.00  0.00     0.210 HD
ENDBRANCH   3  11
BRANCH   4  13
HETATM   13  O3  UNL     1      -2.179   0.467  -1.304  1.00  0.00    -0.368 OA
ATOM     14  H3  UNL     1      -3.128   0.430  -1.333  1.00  0.00     0.212 HD
ENDBRANCH   4  13
TORSDOF 3
