REMARK  4 active torsions:
REMARK  status: ('A' for Active; 'I' for Inactive)
REMARK    1  A    between atoms: C2_2  and  C3_3 
REMARK    2  A    between atoms: C4_5  and  O2_6 
REMARK    3  A    between atoms: C5_9  and  O4_10 
REMARK    4  A    between atoms: C7_12  and  O5_13 
ROOT
HETATM    1  C3  UNL     1      -0.989  -0.397   0.067  1.00  0.00     0.160 C 
HETATM    2  O1  UNL     1      -0.968  -1.336   1.100  1.00  0.00    -0.331 OA
HETATM    3  C4  UNL     1       0.330  -1.827   1.226  1.00  0.00     0.413 C 
HETATM    4  O3  UNL     1       1.224  -0.829   1.633  1.00  0.00    -0.306 OA
HETATM    5  C5  UNL     1       1.291   0.091   0.594  1.00  0.00     0.295 C 
HETATM    6  C7  UNL     1      -0.097   0.717   0.494  1.00  0.00     0.202 C 
ENDROOT
BRANCH   1   7
HETATM    7  C2  UNL     1      -2.399  -0.007  -0.232  1.00  0.00     0.030 C 
HETATM    8  C1  UNL     1      -2.539   0.994  -1.324  1.00  0.00     0.007 C 
ENDBRANCH   1   7
BRANCH   6   9
HETATM    9  O5  UNL     1      -0.011   1.763  -0.394  1.00  0.00    -0.388 OA
ATOM     10  H5  UNL     1       0.558   2.473  -0.122  1.00  0.00     0.210 HD
ENDBRANCH   6   9
BRANCH   3  11
HETATM   11  O2  UNL     1       0.328  -2.904   2.113  1.00  0.00    -0.349 OA
ATOM     12  H2  UNL     1       1.213  -3.239   2.199  1.00  0.00     0.215 HD
ENDBRANCH   3  11
BRANCH   5  13
HETATM   13  O4  UNL     1       2.287   1.021   0.735  1.00  0.00    -0.363 OA
HETATM   14  C6  UNL     1       3.213   1.023  -0.294  1.00  0.00     0.204 C 
ENDBRANCH   5  13
TORSDOF 4
