REMARK  3 active torsions:
REMARK  status: ('A' for Active; 'I' for Inactive)
REMARK    1  A    between atoms: S1_2  and  C2_3 
REMARK    2  A    between atoms: C3_4  and  O1_5 
REMARK    3  A    between atoms: C4_7  and  O2_8 
ROOT
HETATM    1  C2  UNL     1       0.443  -0.685   0.754  1.00  0.00     0.184 C 
HETATM    2  C3  UNL     1      -0.970  -0.419   1.204  1.00  0.00     0.181 C 
HETATM    3  C4  UNL     1      -1.684   0.171   0.022  1.00  0.00     0.198 C 
HETATM    4  C5  UNL     1      -0.659   0.269  -1.068  1.00  0.00     0.297 C 
HETATM    5  O3  UNL     1      -0.733  -0.770  -2.010  1.00  0.00    -0.196 OA
HETATM    6  O4  UNL     1       0.272  -1.449  -1.474  1.00  0.00    -0.134 OA
HETATM    7  N1  UNL     1       0.525  -0.417  -0.648  1.00  0.00    -0.113 NA
ENDROOT
BRANCH   1   8
HETATM    8  S1  UNL     1       1.647   0.372   1.625  1.00  0.00    -0.148 SA
HETATM    9  C1  UNL     1       2.962   0.763   0.425  1.00  0.00     0.091 C 
ENDBRANCH   1   8
BRANCH   2  10
HETATM   10  O1  UNL     1      -1.647  -1.577   1.567  1.00  0.00    -0.390 OA
ATOM     11  H1  UNL     1      -2.538  -1.409   1.851  1.00  0.00     0.210 HD
ENDBRANCH   2  10
BRANCH   3  12
HETATM   12  O2  UNL     1      -2.257   1.382   0.363  1.00  0.00    -0.389 OA
ATOM     13  H2  UNL     1      -2.709   1.755  -0.385  1.00  0.00     0.210 HD
ENDBRANCH   3  12
TORSDOF 3
