REMARK  10 active torsions:
REMARK  status: ('A' for Active; 'I' for Inactive)
REMARK    1  A    between atoms: N1_2  and  C2_3 
REMARK    2  A    between atoms: N1_2  and  C4_7 
REMARK    3  A    between atoms: C2_3  and  C3_4 
REMARK    4  A    between atoms: C3_4  and  O1_5 
REMARK    5  A    between atoms: C4_7  and  O2_8 
REMARK    6  A    between atoms: C4_7  and  C5_10 
REMARK    7  A    between atoms: C7_13  and  O4_14 
REMARK    8  A    between atoms: O4_14  and  C8_15 
REMARK    9  A    between atoms: C8_15  and  C9_17 
REMARK   10  A    between atoms: C13_22  and  O7_23 
ROOT
HETATM    1  C5  UNL     1       1.673  -0.136  -0.409  1.00  0.00     0.203 C 
HETATM    2  O3  UNL     1       0.848   0.945  -0.298  1.00  0.00    -0.375 OA
HETATM    3  C6  UNL     1       0.131   1.013  -1.509  1.00  0.00     0.204 C 
HETATM    4  C7  UNL     1      -0.842  -0.112  -1.541  1.00  0.00     0.191 C 
HETATM    5  C13 UNL     1      -0.534  -1.266  -0.671  1.00  0.00     0.094 C 
HETATM    6  C14 UNL     1      -1.479  -1.231   0.538  1.00  0.00     0.046 C 
HETATM    7  C15 UNL     1      -0.675  -1.648   1.729  1.00  0.00     0.000 A 
HETATM    8  C16 UNL     1      -1.073  -3.037   2.134  1.00  0.00     0.032 A 
HETATM    9  C17 UNL     1       0.171  -3.814   2.068  1.00  0.00    -0.030 A 
HETATM   10  C18 UNL     1       1.169  -3.086   1.636  1.00  0.00    -0.025 A 
HETATM   11  C19 UNL     1       0.762  -1.687   1.336  1.00  0.00     0.022 A 
HETATM   12  C20 UNL     1       0.840  -1.387  -0.148  1.00  0.00     0.068 C 
ENDROOT
BRANCH   1  13
HETATM   13  C4  UNL     1       2.907  -0.109   0.325  1.00  0.00     0.143 C 
BRANCH  13  14
HETATM   14  N1  UNL     1       3.444   0.931   1.057  1.00  0.00    -0.366 N 
HETATM   15  C1  UNL     1       4.727   0.661   1.810  1.00  0.00     0.151 C 
BRANCH  14  16
HETATM   16  C2  UNL     1       2.925   2.265   1.128  1.00  0.00     0.150 C 
BRANCH  16  17
HETATM   17  C3  UNL     1       3.523   3.216   0.123  1.00  0.00     0.183 C 
BRANCH  17  18
HETATM   18  O1  UNL     1       3.344   2.850  -1.181  1.00  0.00    -0.399 OA
ATOM     19  H1  UNL     1       3.721   3.449  -1.814  1.00  0.00     0.209 HD
ENDBRANCH  17  18
ENDBRANCH  16  17
ENDBRANCH  14  16
ENDBRANCH  13  14
BRANCH  13  20
HETATM   20  O2  UNL     1       3.656  -1.197   0.331  1.00  0.00    -0.347 OA
ATOM     21  H2  UNL     1       3.286  -1.913  -0.173  1.00  0.00     0.219 HD
ENDBRANCH  13  20
ENDBRANCH   1  13
BRANCH   5  22
HETATM   22  O7  UNL     1      -0.849  -2.478  -1.331  1.00  0.00    -0.387 OA
ATOM     23  H7  UNL     1      -0.651  -3.220  -0.772  1.00  0.00     0.210 HD
ENDBRANCH   5  22
BRANCH   4  24
HETATM   24  O4  UNL     1      -2.139   0.441  -1.300  1.00  0.00    -0.305 OA
BRANCH  24  25
HETATM   25  C8  UNL     1      -3.133   0.452  -2.257  1.00  0.00     0.317 C 
HETATM   26  O5  UNL     1      -2.861  -0.050  -3.377  1.00  0.00    -0.257 OA
BRANCH  25  27
HETATM   27  C9  UNL     1      -4.468   1.029  -1.987  1.00  0.00     0.149 A 
HETATM   28  C10 UNL     1      -4.906   1.607  -0.820  1.00  0.00     0.045 A 
HETATM   29  C11 UNL     1      -6.209   2.011  -0.997  1.00  0.00     0.027 A 
HETATM   30  C12 UNL     1      -6.519   1.654  -2.293  1.00  0.00     0.143 A 
HETATM   31  O6  UNL     1      -5.449   1.078  -2.826  1.00  0.00    -0.317 OA
ENDBRANCH  25  27
ENDBRANCH  24  25
ENDBRANCH   4  24
TORSDOF 10
