REMARK  7 active torsions:
REMARK  status: ('A' for Active; 'I' for Inactive)
REMARK    1  A    between atoms: C2_3  and  O1_4 
REMARK    2  A    between atoms: C3_6  and  C4_7 
REMARK    3  A    between atoms: N2_8  and  N3_10 
REMARK    4  A    between atoms: N3_10  and  C5_12 
REMARK    5  A    between atoms: C5_12  and  C6_13 
REMARK    6  A    between atoms: C5_12  and  S1_20 
REMARK    7  A    between atoms: C7_17  and  O3_18 
ROOT
HETATM    1  C4  UNL     1       0.503  -0.507  -1.212  1.00  0.00     0.128 C 
HETATM    2  N2  UNL     1       0.036   0.619  -0.796  1.00  0.00    -0.314 N 
ATOM      3  H2  UNL     1       0.628   1.290  -0.305  1.00  0.00     0.185 HD
ENDROOT
BRANCH   2   4
HETATM    4  N3  UNL     1      -1.311   0.885  -1.043  1.00  0.00    -0.311 N 
ATOM      5  H3  UNL     1      -1.686   0.900  -1.992  1.00  0.00     0.182 HD
BRANCH   4   6
HETATM    6  C5  UNL     1      -2.162   1.141   0.119  1.00  0.00     0.284 C 
BRANCH   6   7
HETATM    7  C6  UNL     1      -2.193   0.013   1.045  1.00  0.00     0.167 A 
HETATM    8  O2  UNL     1      -2.104  -0.103   2.346  1.00  0.00    -0.233 OA
HETATM    9  N4  UNL     1      -2.221  -1.387   2.322  1.00  0.00    -0.237 N 
HETATM   10  C7  UNL     1      -2.319  -1.360   1.005  1.00  0.00     0.196 A 
ATOM     11  H4  UNL     1      -2.233  -2.122   3.029  1.00  0.00     0.197 HD
BRANCH  10  12
HETATM   12  O3  UNL     1      -2.478  -2.285   0.004  1.00  0.00    -0.343 OA
ATOM     13  H3  UNL     1      -2.565  -3.231  -0.024  1.00  0.00     0.219 HD
ENDBRANCH  10  12
ENDBRANCH   6   7
BRANCH   6  14
HETATM   14  S1  UNL     1      -3.758   1.578  -0.505  1.00  0.00     0.169 S 
HETATM   15  C8  UNL     1      -4.855   2.041   0.819  1.00  0.00     0.164 C 
HETATM   16  O4  UNL     1      -3.638   2.772  -1.410  1.00  0.00    -0.226 OA
HETATM   17  O5  UNL     1      -4.383   0.479  -1.299  1.00  0.00    -0.226 OA
ENDBRANCH   6  14
ENDBRANCH   4   6
ENDBRANCH   2   4
BRANCH   1  18
HETATM   18  C3  UNL     1       1.906  -0.800  -0.963  1.00  0.00     0.100 A 
HETATM   19  C2  UNL     1       2.686   0.107  -0.304  1.00  0.00     0.163 A 
HETATM   20  N1  UNL     1       3.972  -0.191  -0.090  1.00  0.00    -0.283 N 
HETATM   21  C1  UNL     1       4.808   0.762   0.606  1.00  0.00     0.163 C 
HETATM   22  C10 UNL     1       4.485  -1.355  -0.512  1.00  0.00     0.331 A 
HETATM   23  N5  UNL     1       3.710  -2.265  -1.170  1.00  0.00    -0.274 N 
HETATM   24  O7  UNL     1       5.691  -1.648  -0.317  1.00  0.00    -0.246 OA
HETATM   25  C9  UNL     1       2.415  -2.021  -1.413  1.00  0.00     0.265 A 
ATOM     26  H5  UNL     1       4.123  -3.144  -1.482  1.00  0.00     0.173 HD
HETATM   27  O6  UNL     1       1.667  -2.847  -2.023  1.00  0.00    -0.267 OA
BRANCH  19  28
HETATM   28  O1  UNL     1       2.167   1.336   0.147  1.00  0.00    -0.345 OA
ATOM     29  H1  UNL     1       1.253   1.548  -0.005  1.00  0.00     0.219 HD
ENDBRANCH  19  28
ENDBRANCH   1  18
TORSDOF 7
