REMARK  6 active torsions:
REMARK  status: ('A' for Active; 'I' for Inactive)
REMARK    1  A    between atoms: C2_2  and  N1_3 
REMARK    2  A    between atoms: C2_2  and  C12_26 
REMARK    3  A    between atoms: N1_3  and  C3_5 
REMARK    4  A    between atoms: N2_8  and  N3_10 
REMARK    5  A    between atoms: C7_17  and  N5_18 
REMARK    6  A    between atoms: C13_32  and  N9_33 
ROOT
HETATM    1  C3  UNL     1       0.588  -0.043  -0.276  1.00  0.00     0.123 C 
HETATM    2  C4  UNL     1       0.993   1.221  -0.584  1.00  0.00     0.085 C 
HETATM    3  C5  UNL     1       0.266   2.317  -1.085  1.00  0.00     0.119 C 
HETATM    4  N2  UNL     1       0.756   3.442  -1.186  1.00  0.00    -0.302 N 
ATOM      5  H2  UNL     1       0.071   4.090  -1.576  1.00  0.00     0.186 HD
HETATM    6  C6  UNL     1      -1.127   2.259  -1.465  1.00  0.00     0.287 C 
HETATM    7  O1  UNL     1      -1.430   3.180  -2.235  1.00  0.00    -0.265 OA
HETATM    8  N4  UNL     1      -1.956   1.336  -1.021  1.00  0.00    -0.154 N 
ATOM      9  H4  UNL     1      -2.911   1.452  -1.361  1.00  0.00     0.187 HD
HETATM   10  C7  UNL     1      -1.804   0.271  -0.211  1.00  0.00     0.684 C 
HETATM   11  N6  UNL     1      -0.664  -0.395   0.134  1.00  0.00    -0.176 N 
ATOM     12  H6  UNL     1      -0.754  -1.211   0.739  1.00  0.00     0.186 HD
ENDROOT
BRANCH   1  13
HETATM   13  N1  UNL     1       1.514  -1.133  -0.417  1.00  0.00    -0.344 N 
ATOM     14  H1  UNL     1       1.204  -2.076  -0.184  1.00  0.00     0.167 HD
BRANCH  13  15
HETATM   15  C2  UNL     1       2.843  -0.941  -0.869  1.00  0.00     0.039 C 
HETATM   16  C1  UNL     1       3.294  -1.726  -2.087  1.00  0.00     0.071 C 
BRANCH  15  17
HETATM   17  C12 UNL     1       3.915  -0.724   0.111  1.00  0.00     0.124 A 
HETATM   18  N7  UNL     1       5.079  -0.005  -0.147  1.00  0.00    -0.236 N 
HETATM   19  O3  UNL     1       5.687   0.153   0.964  1.00  0.00    -0.155 OA
ATOM     20  H7  UNL     1       5.389   0.334  -1.058  1.00  0.00     0.197 HD
HETATM   21  N8  UNL     1       5.127  -0.358   1.954  1.00  0.00    -0.224 N 
HETATM   22  C13 UNL     1       3.982  -0.940   1.473  1.00  0.00     0.152 A 
ATOM     23  H8  UNL     1       5.453  -0.346   2.921  1.00  0.00     0.198 HD
BRANCH  22  24
HETATM   24  N9  UNL     1       3.113  -1.699   2.099  1.00  0.00    -0.382 N 
ATOM     25  H92 UNL     1       2.261  -2.132   1.741  1.00  0.00     0.157 HD
ATOM     26  H91 UNL     1       3.162  -1.859   3.105  1.00  0.00     0.157 HD
ENDBRANCH  22  24
ENDBRANCH  15  17
ENDBRANCH  13  15
ENDBRANCH   1  13
BRANCH  10  27
HETATM   27  N5  UNL     1      -3.041  -0.166   0.354  1.00  0.00    -0.213 N 
HETATM   28  C8  UNL     1      -3.993   0.801   0.858  1.00  0.00     0.167 C 
HETATM   29  C9  UNL     1      -5.174   0.027   1.371  1.00  0.00     0.188 C 
HETATM   30  O2  UNL     1      -5.689  -0.748   0.364  1.00  0.00    -0.388 OA
HETATM   31  C10 UNL     1      -4.839  -1.777  -0.010  1.00  0.00     0.188 C 
HETATM   32  C11 UNL     1      -3.403  -1.566   0.438  1.00  0.00     0.167 C 
ENDBRANCH  10  27
BRANCH   4  33
HETATM   33  N3  UNL     1       1.895   4.072  -0.946  1.00  0.00    -0.345 N 
ATOM     34  H32 UNL     1       2.561   3.404  -0.558  1.00  0.00     0.176 HD
ATOM     35  H31 UNL     1       2.301   5.004  -1.030  1.00  0.00     0.176 HD
ENDBRANCH   4  33
TORSDOF 6
