REMARK  2 active torsions:
REMARK  status: ('A' for Active; 'I' for Inactive)
REMARK    1  A    between atoms: C2_3  and  C3_4 
REMARK    2  A    between atoms: C3_4  and  O1_5 
ROOT
HETATM    1  N1  UNL     1       4.522   1.336   1.337  1.00  0.00    -0.197 NA
HETATM    2  C1  UNL     1       3.794   0.484   1.013  1.00  0.00     0.062 C 
HETATM    3  C2  UNL     1       2.884  -0.575   0.583  1.00  0.00     0.163 C 
ENDROOT
BRANCH   3   4
HETATM    4  C3  UNL     1       1.787  -0.044  -0.310  1.00  0.00     0.098 C 
HETATM    5  C4  UNL     1       0.937   0.999   0.426  1.00  0.00     0.076 C 
HETATM    6  C5  UNL     1      -0.418   0.677  -0.171  1.00  0.00     0.226 C 
HETATM    7  C6  UNL     1      -1.551   1.212   0.638  1.00  0.00     0.036 C 
HETATM    8  N2  UNL     1      -0.420  -0.774  -0.004  1.00  0.00     0.096 N 
HETATM    9  C7  UNL     1      -2.854   0.591   0.365  1.00  0.00     0.004 C 
HETATM   10  C8  UNL     1      -2.865  -0.770  -0.203  1.00  0.00     0.030 C 
HETATM   11  C9  UNL     1      -1.565  -1.329  -0.635  1.00  0.00     0.273 C 
HETATM   12  C10 UNL     1       0.803  -1.147  -0.644  1.00  0.00     0.311 C 
BRANCH   4  13
HETATM   13  O1  UNL     1       2.346   0.531  -1.437  1.00  0.00    -0.387 OA
ATOM     14  H1  UNL     1       1.656   0.865  -1.998  1.00  0.00     0.210 HD
ENDBRANCH   4  13
ENDBRANCH   3   4
TORSDOF 2
