REMARK  3 active torsions:
REMARK  status: ('A' for Active; 'I' for Inactive)
REMARK    1  A    between atoms: C2_2  and  C5_5 
REMARK    2  A    between atoms: C5_5  and  C6_6 
REMARK    3  A    between atoms: C6_6  and  N1_7 
ROOT
HETATM    1  N1  UNL     1       1.702   0.401   0.046  1.00  0.00    -0.354 N 
HETATM    2  C7  UNL     1       2.232   1.140  -1.077  1.00  0.00     0.145 C 
HETATM    3  C8  UNL     1       3.549   1.597  -0.425  1.00  0.00     0.142 C 
HETATM    4  N2  UNL     1       3.906   0.408   0.323  1.00  0.00    -0.363 N 
ATOM      5  H2  UNL     1       4.852   0.145   0.598  1.00  0.00     0.162 HD
HETATM    6  C9  UNL     1       2.832  -0.269   0.587  1.00  0.00     0.186 C 
HETATM    7  N3  UNL     1       2.736  -1.495   1.304  1.00  0.00    -0.064 NA
ENDROOT
BRANCH   1   8
HETATM    8  C6  UNL     1       0.333   0.380   0.473  1.00  0.00     0.126 C 
BRANCH   8   9
HETATM    9  C5  UNL     1      -0.529  -0.338  -0.520  1.00  0.00     0.028 C 
BRANCH   9  10
HETATM   10  C2  UNL     1      -1.978  -0.381  -0.096  1.00  0.00    -0.050 C 
HETATM   11  C1  UNL     1      -2.758  -1.128  -1.150  1.00  0.00     0.014 C 
HETATM   12  C3  UNL     1      -2.536   1.034  -0.000  1.00  0.00     0.014 C 
HETATM   13  C4  UNL     1      -2.195  -1.039   1.234  1.00  0.00     0.014 C 
ENDBRANCH   9  10
ENDBRANCH   8   9
ENDBRANCH   1   8
TORSDOF 3
