REMARK  4 active torsions:
REMARK  status: ('A' for Active; 'I' for Inactive)
REMARK    1  A    between atoms: C2_2  and  N1_4 
REMARK    2  A    between atoms: C7_8  and  N2_9 
REMARK    3  A    between atoms: C7_8  and  C8_13 
REMARK    4  A    between atoms: C8_13  and  N3_14 
ROOT
HETATM    1  N1  UNL     1      -1.795  -0.276  -0.134  1.00  0.00    -0.409 N 
HETATM    2  C4  UNL     1      -1.247  -1.500   0.318  1.00  0.00     0.117 C 
HETATM    3  C5  UNL     1      -0.259  -1.252   1.408  1.00  0.00     0.022 C 
HETATM    4  C6  UNL     1       0.772  -0.267   0.985  1.00  0.00     0.042 C 
HETATM    5  C7  UNL     1       1.307  -0.402  -0.392  1.00  0.00     0.143 C 
HETATM    6  C11 UNL     1       0.264  -0.245  -1.478  1.00  0.00     0.059 C 
HETATM    7  C12 UNL     1      -0.970   0.471  -1.035  1.00  0.00     0.119 C 
ENDROOT
BRANCH   5   8
HETATM    8  N2  UNL     1       1.886  -1.741  -0.597  1.00  0.00    -0.069 N 
ATOM      9  H23 UNL     1       2.592  -1.959   0.106  1.00  0.00     0.275 HD
ATOM     10  H22 UNL     1       1.218  -2.479  -0.377  1.00  0.00     0.275 HD
ATOM     11  H21 UNL     1       2.254  -1.834  -1.544  1.00  0.00     0.275 HD
ENDBRANCH   5   8
BRANCH   5  12
HETATM   12  C8  UNL     1       2.355   0.660  -0.633  1.00  0.00     0.188 C 
BRANCH  12  13
HETATM   13  N3  UNL     1       3.486   0.614   0.245  1.00  0.00    -0.284 N 
HETATM   14  C9  UNL     1       3.676   1.235   1.411  1.00  0.00     0.201 A 
HETATM   15  N4  UNL     1       4.887   0.883   1.864  1.00  0.00    -0.346 N 
HETATM   16  C10 UNL     1       5.435   0.055   0.986  1.00  0.00     0.198 A 
ATOM     17  H4  UNL     1       5.314   1.198   2.735  1.00  0.00     0.167 HD
HETATM   18  N5  UNL     1       4.566  -0.099   0.003  1.00  0.00    -0.293 N 
ATOM     19  H5  UNL     1       4.710  -0.683  -0.821  1.00  0.00     0.188 HD
ENDBRANCH  12  13
ENDBRANCH   5  12
BRANCH   1  20
HETATM   20  C2  UNL     1      -3.176  -0.267  -0.478  1.00  0.00     0.070 C 
HETATM   21  C1  UNL     1      -4.130  -0.565   0.627  1.00  0.00     0.031 C 
HETATM   22  C3  UNL     1      -3.550   1.080  -1.062  1.00  0.00     0.031 C 
ENDBRANCH   1  20
TORSDOF 4
