REMARK  3 active torsions:
REMARK  status: ('A' for Active; 'I' for Inactive)
REMARK    1  A    between atoms: C2_7  and  S1_8 
REMARK    2  A    between atoms: S1_8  and  C3_9 
REMARK    3  A    between atoms: C3_9  and  C4_10 
REMARK       I    between atoms: C4_10  and  N4_12 
ROOT
HETATM    1  S1  UNL     1       1.469   2.406   0.959  1.00  0.00    -0.094 SA
ENDROOT
BRANCH   1   2
HETATM    2  C2  UNL     1       2.840   1.389   0.406  1.00  0.00     0.130 A 
HETATM    3  N3  UNL     1       3.185   1.042  -0.829  1.00  0.00    -0.286 N 
HETATM    4  N2  UNL     1       4.195   0.310  -1.022  1.00  0.00    -0.281 N 
ATOM      5  H3  UNL     1       2.633   1.368  -1.622  1.00  0.00     0.188 HD
HETATM    6  C1  UNL     1       4.913  -0.114   0.011  1.00  0.00     0.175 A 
ATOM      7  H2  UNL     1       4.459   0.044  -1.971  1.00  0.00     0.188 HD
HETATM    8  N1  UNL     1       6.086  -0.949  -0.036  1.00  0.00    -0.073 NA
HETATM    9  S2  UNL     1       4.067   0.594   1.316  1.00  0.00    -0.030 SA
ENDBRANCH   1   2
BRANCH   1  10
HETATM   10  C3  UNL     1       0.007   1.361   1.254  1.00  0.00     0.184 C 
BRANCH  10  11
HETATM   11  C4  UNL     1      -0.482   0.781  -0.024  1.00  0.00     0.229 C 
HETATM   12  O1  UNL     1       0.117   1.058  -1.093  1.00  0.00    -0.273 OA
HETATM   13  N4  UNL     1      -1.610  -0.079  -0.068  1.00  0.00    -0.351 N 
HETATM   14  C5  UNL     1      -2.230  -0.726  -1.185  1.00  0.00     0.126 C 
HETATM   15  C8  UNL     1      -2.378  -0.477   1.092  1.00  0.00     0.126 C 
HETATM   16  C6  UNL     1      -3.692  -0.654  -0.908  1.00  0.00     0.021 C 
HETATM   17  C7  UNL     1      -3.808  -0.537   0.587  1.00  0.00     0.021 C 
ENDBRANCH  10  11
ENDBRANCH   1  10
TORSDOF 3
