REMARK  1 active torsions:
REMARK  status: ('A' for Active; 'I' for Inactive)
REMARK    1  A    between atoms: C2_2  and  C3_3 
ROOT
HETATM    1  C1  UNL     1       0.277  -1.776  -0.472  1.00  0.00     0.047 C 
HETATM    2  C2  UNL     1       0.309  -0.264  -0.266  1.00  0.00     0.087 C 
HETATM    3  C6  UNL     1      -0.292   0.362  -1.479  1.00  0.00     0.039 C 
HETATM    4  C7  UNL     1      -1.407   1.327  -1.182  1.00  0.00     0.003 C 
HETATM    5  C8  UNL     1      -2.667   0.630  -0.715  1.00  0.00     0.000 C 
HETATM    6  C9  UNL     1      -2.791   0.660   0.797  1.00  0.00     0.002 C 
HETATM    7  C10 UNL     1      -2.507  -0.740   1.293  1.00  0.00     0.019 C 
HETATM    8  C11 UNL     1      -1.022  -0.890   1.644  1.00  0.00     0.115 C 
HETATM    9  N2  UNL     1      -0.307   0.131   0.967  1.00  0.00    -0.406 N 
ATOM     10  H2  UNL     1      -0.236   1.081   1.332  1.00  0.00     0.154 HD
ENDROOT
BRANCH   2  11
HETATM   11  C3  UNL     1       1.746   0.111  -0.190  1.00  0.00     0.142 C 
HETATM   12  N1  UNL     1       2.375   0.916  -0.966  1.00  0.00    -0.370 N 
HETATM   13  C4  UNL     1       3.778   1.015  -0.554  1.00  0.00     0.148 C 
ATOM     14  H1  UNL     1       1.960   1.414  -1.754  1.00  0.00     0.161 HD
HETATM   15  C5  UNL     1       3.939  -0.083   0.481  1.00  0.00     0.197 C 
HETATM   16  O1  UNL     1       2.602  -0.399   0.782  1.00  0.00    -0.336 OA
ENDBRANCH   2  11
TORSDOF 1
