REMARK  3 active torsions:
REMARK  status: ('A' for Active; 'I' for Inactive)
REMARK    1  A    between atoms: C2_2  and  C8_11 
REMARK       I    between atoms: N1_3  and  C3_5 
REMARK    2  A    between atoms: C3_5  and  C4_7 
REMARK    3  A    between atoms: C8_11  and  N2_12 
ROOT
HETATM    1  C8  UNL     1       2.873  -0.509  -0.278  1.00  0.00     0.334 C 
HETATM    2  C9  UNL     1       3.923   0.497  -0.184  1.00  0.00     0.098 C 
HETATM    3  N3  UNL     1       4.767   1.290  -0.097  1.00  0.00    -0.195 NA
ENDROOT
BRANCH   1   4
HETATM    4  C2  UNL     1       1.559   0.129  -0.022  1.00  0.00     0.029 C 
HETATM    5  C1  UNL     1       1.408   0.770   1.305  1.00  0.00     0.066 C 
HETATM    6  N1  UNL     1       0.599   0.153  -0.844  1.00  0.00    -0.331 N 
HETATM    7  C3  UNL     1      -0.640   0.764  -0.579  1.00  0.00     0.229 C 
ATOM      8  H1  UNL     1       0.730  -0.296  -1.750  1.00  0.00     0.168 HD
HETATM    9  O1  UNL     1      -0.690   2.014  -0.756  1.00  0.00    -0.272 OA
BRANCH   7  10
HETATM   10  C4  UNL     1      -1.848   0.080  -0.124  1.00  0.00     0.030 C 
HETATM   11  C5  UNL     1      -2.290  -0.967  -1.151  1.00  0.00     0.025 C 
HETATM   12  C6  UNL     1      -1.704  -0.655   1.188  1.00  0.00     0.025 C 
HETATM   13  C7  UNL     1      -2.961   1.086   0.064  1.00  0.00     0.025 C 
ENDBRANCH   7  10
ENDBRANCH   1   4
BRANCH   1  14
HETATM   14  N2  UNL     1       2.932  -1.234  -1.507  1.00  0.00    -0.057 N 
ATOM     15  H23 UNL     1       2.182  -1.924  -1.553  1.00  0.00     0.276 HD
ATOM     16  H22 UNL     1       2.664  -0.637  -2.289  1.00  0.00     0.276 HD
ATOM     17  H21 UNL     1       3.836  -1.673  -1.683  1.00  0.00     0.276 HD
ENDBRANCH   1  14
TORSDOF 3
