REMARK  11 active torsions:
REMARK  status: ('A' for Active; 'I' for Inactive)
REMARK    1  A    between atoms: O1_1  and  C1_3 
REMARK    2  A    between atoms: C1_3  and  C2_4 
REMARK    3  A    between atoms: C1_3  and  N1_16 
REMARK    4  A    between atoms: C2_4  and  O2_5 
REMARK    5  A    between atoms: O2_5  and  C3_6 
REMARK    6  A    between atoms: C7_10  and  O3_11 
REMARK    7  A    between atoms: O3_11  and  C8_12 
REMARK    8  A    between atoms: N2_19  and  C12_20 
REMARK    9  A    between atoms: C13_21  and  N3_22 
REMARK   10  A    between atoms: N3_22  and  C14_24 
REMARK   11  A    between atoms: C14_24  and  C15_26 
ROOT
HETATM    1  N1  UNL     1       0.361  -1.915   0.035  1.00  0.00    -0.361 N 
HETATM    2  C10 UNL     1      -0.646  -2.978  -0.115  1.00  0.00     0.144 C 
HETATM    3  C11 UNL     1      -1.865  -2.268  -0.639  1.00  0.00     0.143 C 
HETATM    4  N2  UNL     1      -2.345  -1.410   0.421  1.00  0.00    -0.372 N 
HETATM    5  C18 UNL     1      -1.399  -0.539   1.067  1.00  0.00     0.143 C 
HETATM    6  C19 UNL     1       0.018  -0.644   0.572  1.00  0.00     0.144 C 
ENDROOT
BRANCH   4   7
HETATM    7  C12 UNL     1      -3.719  -1.429   0.810  1.00  0.00     0.124 A 
HETATM    8  C13 UNL     1      -4.763  -0.662   0.313  1.00  0.00     0.155 A 
HETATM    9  N4  UNL     1      -5.846  -1.072   1.022  1.00  0.00    -0.241 N 
HETATM   10  O4  UNL     1      -5.554  -1.985   1.870  1.00  0.00    -0.221 OA
ATOM     11  H4  UNL     1      -6.785  -0.695   0.893  1.00  0.00     0.196 HD
HETATM   12  C17 UNL     1      -4.251  -2.242   1.779  1.00  0.00     0.198 A 
HETATM   13 CL2  UNL     1      -3.382  -3.418   2.738  1.00  0.00    -0.052 Cl
BRANCH   8  14
HETATM   14  N3  UNL     1      -4.672   0.303  -0.701  1.00  0.00    -0.337 N 
ATOM     15  H3  UNL     1      -3.750   0.447  -1.113  1.00  0.00     0.164 HD
BRANCH  14  16
HETATM   16  C14 UNL     1      -5.736   1.106  -1.218  1.00  0.00     0.338 C 
HETATM   17  F3  UNL     1      -6.752   0.238  -1.645  1.00  0.00    -0.219 F 
BRANCH  16  18
HETATM   18  C15 UNL     1      -6.332   2.067  -0.290  1.00  0.00     0.197 C 
HETATM   19  F4  UNL     1      -6.975   1.691   0.833  1.00  0.00    -0.202 F 
HETATM   20  C16 UNL     1      -6.230   3.379  -0.574  1.00  0.00     0.225 C 
HETATM   21  F5  UNL     1      -5.592   3.814  -1.690  1.00  0.00    -0.190 F 
HETATM   22 CL1  UNL     1      -6.913   4.607   0.478  1.00  0.00    -0.049 Cl
ENDBRANCH  16  18
ENDBRANCH  14  16
ENDBRANCH   8  14
ENDBRANCH   4   7
BRANCH   1  23
HETATM   23  C1  UNL     1       1.664  -2.220  -0.377  1.00  0.00     0.138 C 
BRANCH  23  24
HETATM   24  O1  UNL     1       1.861  -3.419  -0.845  1.00  0.00    -0.348 OA
ATOM     25  H1  UNL     1       1.116  -4.008  -0.878  1.00  0.00     0.219 HD
ENDBRANCH  23  24
BRANCH  23  26
HETATM   26  C2  UNL     1       2.809  -1.314  -0.327  1.00  0.00     0.259 C 
BRANCH  26  27
HETATM   27  O2  UNL     1       2.579  -0.046   0.157  1.00  0.00    -0.343 OA
BRANCH  27  28
HETATM   28  C3  UNL     1       3.542   0.928   0.270  1.00  0.00     0.071 A 
HETATM   29  C4  UNL     1       3.245   2.180   0.764  1.00  0.00     0.037 A 
HETATM   30  C5  UNL     1       4.195   3.169   0.885  1.00  0.00     0.005 A 
HETATM   31  C6  UNL     1       5.483   2.919   0.508  1.00  0.00     0.037 A 
HETATM   32  C7  UNL     1       5.838   1.673   0.003  1.00  0.00     0.077 A 
HETATM   33  C9  UNL     1       4.871   0.705  -0.107  1.00  0.00     0.073 A 
BRANCH  32  34
HETATM   34  O3  UNL     1       7.147   1.496  -0.354  1.00  0.00    -0.290 OA
BRANCH  34  35
HETATM   35  C8  UNL     1       7.747   0.355  -0.878  1.00  0.00     0.505 C 
HETATM   36  F1  UNL     1       8.354   0.610  -2.103  1.00  0.00    -0.184 F 
HETATM   37  F2  UNL     1       8.779  -0.019  -0.007  1.00  0.00    -0.184 F 
ENDBRANCH  34  35
ENDBRANCH  32  34
ENDBRANCH  27  28
ENDBRANCH  26  27
ENDBRANCH  23  26
ENDBRANCH   1  23
TORSDOF 11
