REMARK  4 active torsions:
REMARK  status: ('A' for Active; 'I' for Inactive)
REMARK    1  A    between atoms: N1_1  and  C1_4 
REMARK    2  A    between atoms: C2_9  and  S1_10 
REMARK    3  A    between atoms: S1_10  and  C3_11 
REMARK    4  A    between atoms: C3_11  and  C4_12 
REMARK       I    between atoms: C4_12  and  N4_14 
ROOT
HETATM    1  C1  UNL     1       3.382   4.257  -1.383  1.00  0.00     0.159 A 
HETATM    2  N2  UNL     1       4.064   3.192  -1.809  1.00  0.00    -0.279 N 
ATOM      3  H2  UNL     1       5.050   3.273  -2.058  1.00  0.00     0.189 HD
HETATM    4  N3  UNL     1       3.467   2.079  -1.899  1.00  0.00    -0.286 N 
ATOM      5  H3  UNL     1       3.975   1.256  -2.222  1.00  0.00     0.188 HD
HETATM    6  C2  UNL     1       2.186   1.978  -1.576  1.00  0.00     0.130 A 
HETATM    7  S2  UNL     1       1.826   3.584  -1.114  1.00  0.00    -0.027 SA
ENDROOT
BRANCH   6   8
HETATM    8  S1  UNL     1       1.136   0.505  -1.621  1.00  0.00    -0.094 SA
BRANCH   8   9
HETATM    9  C3  UNL     1      -0.509   1.039  -1.051  1.00  0.00     0.184 C 
BRANCH   9  10
HETATM   10  C4  UNL     1      -1.420  -0.151  -1.062  1.00  0.00     0.229 C 
HETATM   11  O1  UNL     1      -2.065  -0.338  -2.129  1.00  0.00    -0.273 OA
HETATM   12  N4  UNL     1      -1.532  -0.992   0.062  1.00  0.00    -0.351 N 
HETATM   13  C5  UNL     1      -0.778  -0.740   1.260  1.00  0.00     0.125 C 
HETATM   14  C9  UNL     1      -2.409  -2.129   0.025  1.00  0.00     0.125 C 
HETATM   15  C6  UNL     1      -1.133  -1.682   2.365  1.00  0.00     0.020 C 
HETATM   16  C7  UNL     1      -1.148  -3.126   1.945  1.00  0.00     0.003 C 
HETATM   17  C8  UNL     1      -1.609  -3.314   0.522  1.00  0.00     0.020 C 
ENDBRANCH   9  10
ENDBRANCH   8   9
ENDBRANCH   6   8
BRANCH   1  18
HETATM   18  N1  UNL     1       3.818   5.485  -1.222  1.00  0.00    -0.379 N 
ATOM     19  H12 UNL     1       4.743   5.885  -1.382  1.00  0.00     0.158 HD
ATOM     20  H11 UNL     1       3.297   6.299  -0.896  1.00  0.00     0.158 HD
ENDBRANCH   1  18
TORSDOF 4
