REMARK  3 active torsions:
REMARK  status: ('A' for Active; 'I' for Inactive)
REMARK    1  A    between atoms: O1_2  and  C2_3 
REMARK    2  A    between atoms: C2_3  and  C5_7 
REMARK       I    between atoms: C5_7  and  N2_9 
REMARK    3  A    between atoms: N2_9  and  C6_11 
ROOT
HETATM    1  C2  UNL     1       2.941   0.128  -0.048  1.00  0.00     0.225 C 
HETATM    2  C3  UNL     1       3.279  -0.399   1.329  1.00  0.00     0.073 C 
HETATM    3  C4  UNL     1       3.180  -0.976  -1.005  1.00  0.00     0.107 C 
HETATM    4  N1  UNL     1       3.351  -1.834  -1.766  1.00  0.00    -0.193 NA
ENDROOT
BRANCH   1   5
HETATM    5  O1  UNL     1       3.802   1.154  -0.365  1.00  0.00    -0.362 OA
HETATM    6  C1  UNL     1       5.125   0.793  -0.383  1.00  0.00     0.204 C 
ENDBRANCH   1   5
BRANCH   1   7
HETATM    7  C5  UNL     1       1.525   0.540  -0.157  1.00  0.00     0.267 C 
HETATM    8  O2  UNL     1       1.288   1.718  -0.508  1.00  0.00    -0.269 OA
HETATM    9  N2  UNL     1       0.477  -0.337   0.117  1.00  0.00    -0.353 N 
ATOM     10  H2  UNL     1       0.720  -1.287   0.399  1.00  0.00     0.163 HD
BRANCH   9  11
HETATM   11  C6  UNL     1      -0.931  -0.004   0.032  1.00  0.00     0.084 C 
HETATM   12  C7  UNL     1      -1.691  -0.868  -0.918  1.00  0.00     0.025 C 
HETATM   13  C8  UNL     1      -2.766  -0.132  -1.668  1.00  0.00     0.002 C 
HETATM   14  C9  UNL     1      -3.929   0.264  -0.833  1.00  0.00     0.000 C 
HETATM   15  C10 UNL     1      -3.554   0.905   0.481  1.00  0.00     0.000 C 
HETATM   16  C11 UNL     1      -2.991  -0.053   1.469  1.00  0.00     0.002 C 
HETATM   17  C12 UNL     1      -1.505  -0.208   1.416  1.00  0.00     0.025 C 
ENDBRANCH   9  11
ENDBRANCH   1   7
TORSDOF 3
