REMARK  6 active torsions:
REMARK  status: ('A' for Active; 'I' for Inactive)
REMARK    1  A    between atoms: C2_2  and  O1_3 
REMARK    2  A    between atoms: C2_2  and  C8_10 
REMARK    3  A    between atoms: O1_3  and  C3_4 
REMARK    4  A    between atoms: C3_4  and  C4_6 
REMARK    5  A    between atoms: C8_10  and  N1_11 
REMARK    6  A    between atoms: C8_10  and  C9_15 
ROOT
HETATM    1  C1  UNL     1      -0.395   2.842  -0.298  1.00  0.00     0.042 C 
HETATM    2  C2  UNL     1      -0.498   1.308  -0.268  1.00  0.00     0.159 C 
ENDROOT
BRANCH   2   3
HETATM    3  O1  UNL     1       0.647   0.726   0.267  1.00  0.00    -0.314 OA
BRANCH   3   4
HETATM    4  C3  UNL     1       1.560  -0.030  -0.413  1.00  0.00     0.267 C 
HETATM    5  O2  UNL     1       1.330  -0.216  -1.657  1.00  0.00    -0.264 OA
BRANCH   4   6
HETATM    6  C4  UNL     1       2.771  -0.646   0.138  1.00  0.00     0.037 C 
HETATM    7  C5  UNL     1       3.633   0.504   0.682  1.00  0.00     0.025 C 
HETATM    8  C6  UNL     1       2.558  -1.595   1.266  1.00  0.00     0.025 C 
HETATM    9  C7  UNL     1       3.617  -1.315  -0.926  1.00  0.00     0.025 C 
ENDBRANCH   4   6
ENDBRANCH   3   4
ENDBRANCH   2   3
BRANCH   2  10
HETATM   10  C8  UNL     1      -1.790   0.983   0.380  1.00  0.00     0.219 C 
BRANCH  10  11
HETATM   11  N1  UNL     1      -2.826   1.722  -0.366  1.00  0.00    -0.072 N 
ATOM     12  H13 UNL     1      -2.644   2.724  -0.426  1.00  0.00     0.274 HD
ATOM     13  H12 UNL     1      -2.817   1.532  -1.368  1.00  0.00     0.274 HD
ATOM     14  H11 UNL     1      -3.716   1.498   0.080  1.00  0.00     0.274 HD
ENDBRANCH  10  11
BRANCH  10  15
HETATM   15  C9  UNL     1      -2.217  -0.447   0.347  1.00  0.00    -0.021 C 
HETATM   16  C10 UNL     1      -3.572  -0.501   1.077  1.00  0.00     0.016 C 
HETATM   17  C11 UNL     1      -1.321  -1.392   1.081  1.00  0.00     0.016 C 
HETATM   18  C12 UNL     1      -2.516  -0.927  -1.068  1.00  0.00     0.016 C 
ENDBRANCH  10  15
ENDBRANCH   2  10
TORSDOF 6
