REMARK  3 active torsions:
REMARK  status: ('A' for Active; 'I' for Inactive)
REMARK    1  A    between atoms: O1_2  and  C2_3 
REMARK    2  A    between atoms: N1_7  and  C6_8 
REMARK    3  A    between atoms: C11_13  and  O2_14 
ROOT
HETATM    1  C2  UNL     1       2.790   0.082  -0.268  1.00  0.00     0.126 C 
HETATM    2  C3  UNL     1       2.360   0.276   1.176  1.00  0.00     0.037 C 
HETATM    3  C4  UNL     1       1.755  -1.036   1.618  1.00  0.00     0.047 C 
HETATM    4  C5  UNL     1       0.254  -0.960   1.552  1.00  0.00     0.063 C 
HETATM    5  N1  UNL     1      -0.270  -0.914   0.247  1.00  0.00    -0.367 N 
HETATM    6  C12 UNL     1       0.598  -1.038  -0.833  1.00  0.00     0.066 C 
HETATM    7  C13 UNL     1       1.548   0.072  -1.119  1.00  0.00     0.076 C 
ENDROOT
BRANCH   5   8
HETATM    8  C6  UNL     1      -1.547  -0.361   0.103  1.00  0.00     0.116 C 
HETATM    9  C7  UNL     1      -1.667   1.095   0.455  1.00  0.00     0.028 C 
HETATM   10  C8  UNL     1      -3.065   1.617   0.345  1.00  0.00     0.002 C 
HETATM   11  C9  UNL     1      -3.734   1.178  -0.930  1.00  0.00     0.003 C 
HETATM   12  C10 UNL     1      -3.745  -0.348  -0.901  1.00  0.00     0.034 C 
HETATM   13  C11 UNL     1      -2.275  -0.729  -1.163  1.00  0.00     0.141 C 
BRANCH  13  14
HETATM   14  O2  UNL     1      -2.249  -2.092  -1.340  1.00  0.00    -0.393 OA
ATOM     15  H2  UNL     1      -2.708  -2.324  -2.139  1.00  0.00     0.210 HD
ENDBRANCH  13  14
ENDBRANCH   5   8
BRANCH   1  16
HETATM   16  O1  UNL     1       3.561   1.181  -0.645  1.00  0.00    -0.390 OA
HETATM   17  C1  UNL     1       4.837   0.853  -1.048  1.00  0.00     0.202 C 
ENDBRANCH   1  16
TORSDOF 3
