REMARK  3 active torsions:
REMARK  status: ('A' for Active; 'I' for Inactive)
REMARK    1  A    between atoms: C4_5  and  N2_6 
REMARK       I    between atoms: N2_6  and  C5_8 
REMARK    2  A    between atoms: C5_8  and  O2_10 
REMARK    3  A    between atoms: O2_10  and  C6_11 
ROOT
HETATM    1  N2  UNL     1       0.174  -0.819  -0.279  1.00  0.00    -0.332 N 
ATOM      2  H2  UNL     1       0.256  -1.375  -1.130  1.00  0.00     0.165 HD
HETATM    3  C5  UNL     1      -1.094  -0.313   0.144  1.00  0.00     0.361 C 
HETATM    4  O1  UNL     1      -1.215   0.370   1.191  1.00  0.00    -0.238 OA
ENDROOT
BRANCH   1   5
HETATM    5  C4  UNL     1       1.325  -0.528   0.518  1.00  0.00     0.090 C 
HETATM    6  C3  UNL     1       2.464   0.054  -0.286  1.00  0.00     0.055 C 
HETATM    7  C2  UNL     1       3.554   0.417   0.701  1.00  0.00     0.274 C 
HETATM    8  N1  UNL     1       4.007  -0.744   1.425  1.00  0.00     0.084 N 
HETATM    9  C1  UNL     1       4.993  -0.351   2.381  1.00  0.00     0.309 C 
HETATM   10  C12 UNL     1       2.990  -1.541   2.016  1.00  0.00     0.274 C 
HETATM   11  C11 UNL     1       1.852  -1.861   1.070  1.00  0.00     0.055 C 
ENDBRANCH   1   5
BRANCH   3  12
HETATM   12  O2  UNL     1      -2.239  -0.553  -0.583  1.00  0.00    -0.299 OA
BRANCH  12  13
HETATM   13  C6  UNL     1      -3.486  -0.244  -0.481  1.00  0.00     0.133 C 
HETATM   14  C7  UNL     1      -3.228   1.466  -0.177  1.00  0.00     0.032 C 
HETATM   15  C8  UNL     1      -4.483   1.905  -0.817  1.00  0.00     0.002 C 
HETATM   16  C9  UNL     1      -4.606   1.185  -2.134  1.00  0.00     0.002 C 
HETATM   17  C10 UNL     1      -3.617   0.113  -2.184  1.00  0.00     0.032 C 
ENDBRANCH  12  13
ENDBRANCH   3  12
TORSDOF 3
