REMARK  2 active torsions:
REMARK  status: ('A' for Active; 'I' for Inactive)
REMARK    1  A    between atoms: C2_2  and  C3_3 
REMARK    2  A    between atoms: C3_3  and  N1_4 
ROOT
HETATM    1  N1  UNL     1      -0.783  -0.369  -0.514  1.00  0.00    -0.323 N 
HETATM    2  C4  UNL     1      -0.657  -1.696  -1.113  1.00  0.00     0.191 C 
HETATM    3  N2  UNL     1      -1.449  -2.260  -2.151  1.00  0.00    -0.063 NA
HETATM    4  N3  UNL     1       0.312  -2.324  -0.541  1.00  0.00    -0.353 N 
ATOM      5  H3  UNL     1       0.619  -3.271  -0.764  1.00  0.00     0.163 HD
HETATM    6  C5  UNL     1       0.878  -1.487   0.444  1.00  0.00     0.058 A 
HETATM    7  C6  UNL     1       1.814  -1.845   1.471  1.00  0.00     0.036 A 
HETATM    8  C7  UNL     1       0.361  -1.737   1.862  1.00  0.00     0.036 A 
HETATM    9  C8  UNL     1       0.564  -0.118  -0.087  1.00  0.00     0.064 C 
HETATM   10  C9  UNL     1       0.850   1.001   0.803  1.00  0.00     0.034 C 
HETATM   11  C10 UNL     1       1.541   2.115   0.006  1.00  0.00     0.002 C 
HETATM   12  C11 UNL     1       2.878   1.645  -0.520  1.00  0.00     0.000 C 
HETATM   13  C12 UNL     1       2.776   0.270  -1.144  1.00  0.00     0.002 C 
HETATM   14  C13 UNL     1       1.325   0.027  -1.438  1.00  0.00     0.034 C 
ENDROOT
BRANCH   1  15
HETATM   15  C3  UNL     1      -1.995   0.338  -0.416  1.00  0.00     0.067 C 
BRANCH  15  16
HETATM   16  C2  UNL     1      -2.664   0.410   0.915  1.00  0.00     0.040 C 
HETATM   17  C1  UNL     1      -3.941   1.224   0.835  1.00  0.00     0.010 C 
ENDBRANCH  15  16
ENDBRANCH   1  15
TORSDOF 2
