REMARK  5 active torsions:
REMARK  status: ('A' for Active; 'I' for Inactive)
REMARK    1  A    between atoms: O1_1  and  C1_3 
REMARK    2  A    between atoms: C5_7  and  C6_8 
REMARK    3  A    between atoms: C6_8  and  C7_9 
REMARK    4  A    between atoms: C7_9  and  N1_10 
REMARK    5  A    between atoms: N2_13  and  C10_14 
ROOT
HETATM    1  N1  UNL     1       0.580   0.412   0.617  1.00  0.00    -0.371 N 
HETATM    2  C8  UNL     1       1.059  -0.839   1.054  1.00  0.00     0.083 C 
HETATM    3  C9  UNL     1       2.545  -0.810   1.401  1.00  0.00     0.169 C 
HETATM    4  N2  UNL     1       3.262  -0.301   0.287  1.00  0.00    -0.355 N 
HETATM    5  C13 UNL     1       2.554   0.270  -0.838  1.00  0.00     0.145 C 
HETATM    6  C14 UNL     1       1.302   1.015  -0.454  1.00  0.00     0.147 C 
ENDROOT
BRANCH   1   7
HETATM    7  C7  UNL     1      -0.806   0.670   0.606  1.00  0.00     0.063 C 
BRANCH   7   8
HETATM    8  C6  UNL     1      -1.549  -0.135  -0.433  1.00  0.00     0.051 C 
BRANCH   8   9
HETATM    9  C5  UNL     1      -2.991   0.218  -0.425  1.00  0.00     0.019 C 
HETATM   10  C1  UNL     1      -3.729  -0.009   0.861  1.00  0.00     0.122 C 
HETATM   11  C2  UNL     1      -5.197  -0.177   0.463  1.00  0.00     0.032 C 
HETATM   12  C3  UNL     1      -5.207  -0.069  -1.041  1.00  0.00     0.003 C 
HETATM   13  C4  UNL     1      -3.823  -0.639  -1.394  1.00  0.00     0.007 C 
BRANCH  10  14
HETATM   14  O1  UNL     1      -3.580   1.098   1.697  1.00  0.00    -0.395 OA
ATOM     15  H1  UNL     1      -2.669   1.202   1.944  1.00  0.00     0.210 HD
ENDBRANCH  10  14
ENDBRANCH   8   9
ENDBRANCH   7   8
ENDBRANCH   1   7
BRANCH   4  16
HETATM   16  C10 UNL     1       4.703  -0.293   0.175  1.00  0.00     0.146 A 
HETATM   17  N3  UNL     1       5.505   0.768   0.239  1.00  0.00    -0.346 N 
HETATM   18  C11 UNL     1       6.782   0.613   0.117  1.00  0.00     0.097 A 
ATOM     19  H3  UNL     1       5.113   1.699   0.384  1.00  0.00     0.167 HD
HETATM   20  C12 UNL     1       7.259  -0.662  -0.074  1.00  0.00     0.070 A 
HETATM   21  S1  UNL     1       5.806  -1.573  -0.067  1.00  0.00    -0.065 SA
ENDBRANCH   4  16
TORSDOF 5
