REMARK  5 active torsions:
REMARK  status: ('A' for Active; 'I' for Inactive)
REMARK    1  A    between atoms: C4_6  and  C5_7 
REMARK    2  A    between atoms: C5_7  and  N2_8 
REMARK    3  A    between atoms: C5_7  and  C6_12 
REMARK    4  A    between atoms: C6_12  and  N3_13 
REMARK    5  A    between atoms: C9_16  and  N4_17 
ROOT
HETATM    1  C5  UNL     1       2.570  -1.728  -0.178  1.00  0.00     0.280 C 
ENDROOT
BRANCH   1   2
HETATM    2  C4  UNL     1       3.316  -0.502   0.062  1.00  0.00     0.105 A 
HETATM    3  C3  UNL     1       3.768   0.003   1.259  1.00  0.00     0.125 A 
HETATM    4  N1  UNL     1       4.405   1.150   0.991  1.00  0.00    -0.348 N 
HETATM    5  C2  UNL     1       4.333   1.323  -0.339  1.00  0.00     0.119 A 
ATOM      6  H1  UNL     1       4.856   1.770   1.664  1.00  0.00     0.167 HD
HETATM    7  C1  UNL     1       4.893   2.458  -1.147  1.00  0.00     0.098 C 
HETATM    8  O1  UNL     1       3.678   0.326  -0.888  1.00  0.00    -0.299 OA
ENDBRANCH   1   2
BRANCH   1   9
HETATM    9  N2  UNL     1       3.228  -2.831   0.514  1.00  0.00    -0.065 N 
ATOM     10  H23 UNL     1       4.211  -2.919   0.257  1.00  0.00     0.275 HD
ATOM     11  H22 UNL     1       3.356  -2.643   1.508  1.00  0.00     0.275 HD
ATOM     12  H21 UNL     1       2.705  -3.690   0.346  1.00  0.00     0.275 HD
ENDBRANCH   1   9
BRANCH   1  13
HETATM   13  C6  UNL     1       1.137  -1.759   0.220  1.00  0.00     0.102 C 
BRANCH  13  14
HETATM   14  N3  UNL     1       0.255  -0.848  -0.365  1.00  0.00    -0.371 N 
HETATM   15  C7  UNL     1       0.312   0.511  -0.053  1.00  0.00     0.065 C 
HETATM   16  C8  UNL     1      -1.048   1.167  -0.148  1.00  0.00     0.080 C 
HETATM   17  C9  UNL     1      -2.119   0.411   0.586  1.00  0.00     0.229 C 
HETATM   18  C13 UNL     1      -2.130  -1.008   0.159  1.00  0.00     0.056 C 
HETATM   19  C14 UNL     1      -0.999  -1.381  -0.785  1.00  0.00     0.129 C 
BRANCH  17  20
HETATM   20  N4  UNL     1      -3.361   1.109   0.332  1.00  0.00     0.093 N 
HETATM   21  C10 UNL     1      -3.753   1.143  -1.067  1.00  0.00     0.274 C 
HETATM   22  C11 UNL     1      -5.186   0.993  -0.605  1.00  0.00     0.060 C 
HETATM   23  C12 UNL     1      -4.580   0.473   0.695  1.00  0.00     0.274 C 
ENDBRANCH  17  20
ENDBRANCH  13  14
ENDBRANCH   1  13
TORSDOF 5
