REMARK  7 active torsions:
REMARK  status: ('A' for Active; 'I' for Inactive)
REMARK    1  A    between atoms: C2_2  and  C3_3 
REMARK    2  A    between atoms: C3_3  and  S1_4 
REMARK    3  A    between atoms: S1_4  and  C4_5 
REMARK    4  A    between atoms: N2_10  and  C7_11 
REMARK    5  A    between atoms: C7_11  and  C8_12 
REMARK    6  A    between atoms: C9_13  and  C10_14 
REMARK    7  A    between atoms: C10_14  and  N3_15 
ROOT
HETATM    1  C4  UNL     1       0.755  -0.649  -0.434  1.00  0.00     0.148 A 
HETATM    2  N1  UNL     1       1.019  -1.790   0.255  1.00  0.00    -0.337 N 
ATOM      3  H1  UNL     1       1.945  -2.104   0.545  1.00  0.00     0.168 HD
HETATM    4  C5  UNL     1      -0.122  -2.432   0.491  1.00  0.00     0.058 A 
HETATM    5  C6  UNL     1      -1.119  -1.639  -0.085  1.00  0.00     0.041 A 
HETATM    6  N2  UNL     1      -0.567  -0.552  -0.647  1.00  0.00    -0.318 N 
HETATM    7  C11 UNL     1      -2.500  -2.185   0.065  1.00  0.00     0.085 C 
HETATM    8  C12 UNL     1      -2.399  -3.653  -0.295  1.00  0.00     0.174 C 
HETATM    9  O1  UNL     1      -1.542  -4.372   0.491  1.00  0.00    -0.385 OA
HETATM   10  C13 UNL     1      -0.573  -3.668   1.152  1.00  0.00     0.226 C 
ENDROOT
BRANCH   6  11
HETATM   11  C7  UNL     1      -1.256   0.494  -1.332  1.00  0.00     0.225 C 
BRANCH  11  12
HETATM   12  C8  UNL     1      -1.621   1.525  -0.354  1.00  0.00    -0.085 C 
HETATM   13  C9  UNL     1      -1.925   2.384   0.437  1.00  0.00    -0.078 C 
BRANCH  13  14
HETATM   14  C10 UNL     1      -2.316   3.440   1.396  1.00  0.00     0.323 C 
BRANCH  14  15
HETATM   15  N3  UNL     1      -3.675   3.890   1.137  1.00  0.00    -0.069 N 
ATOM     16  H33 UNL     1      -3.796   4.193   0.171  1.00  0.00     0.275 HD
ATOM     17  H32 UNL     1      -4.337   3.114   1.138  1.00  0.00     0.275 HD
ATOM     18  H31 UNL     1      -3.945   4.618   1.798  1.00  0.00     0.275 HD
ENDBRANCH  14  15
ENDBRANCH  13  14
ENDBRANCH  11  12
ENDBRANCH   6  11
BRANCH   1  19
HETATM   19  S1  UNL     1       1.937   0.563  -0.994  1.00  0.00    -0.094 SA
BRANCH  19  20
HETATM   20  C3  UNL     1       3.595   0.031  -0.490  1.00  0.00     0.082 C 
BRANCH  20  21
HETATM   21  C2  UNL     1       4.637   1.041  -0.950  1.00  0.00     0.006 C 
HETATM   22  C1  UNL     1       4.353   2.375  -0.342  1.00  0.00     0.006 C 
ENDBRANCH  20  21
ENDBRANCH  19  20
ENDBRANCH   1  19
TORSDOF 7
