REMARK  4 active torsions:
REMARK  status: ('A' for Active; 'I' for Inactive)
REMARK    1  A    between atoms: C2_5  and  C3_6 
REMARK    2  A    between atoms: C3_6  and  C4_7 
REMARK    3  A    between atoms: C4_7  and  C5_8 
REMARK    4  A    between atoms: C10_15  and  C11_16 
ROOT
HETATM    1  C1  UNL     1       1.758  -1.985  -1.006  1.00  0.00     0.179 C 
HETATM    2  N1  UNL     1       1.117  -0.698  -0.873  1.00  0.00    -0.281 N 
HETATM    3  N2  UNL     1      -0.151  -0.466  -1.156  1.00  0.00    -0.286 N 
ATOM      4  H2  UNL     1      -0.817  -1.159  -1.497  1.00  0.00     0.188 HD
HETATM    5  C2  UNL     1      -0.421   0.807  -0.928  1.00  0.00     0.097 A 
HETATM    6  N3  UNL     1       0.734   1.361  -0.490  1.00  0.00    -0.331 N 
ATOM      7  H3  UNL     1       0.852   2.340  -0.228  1.00  0.00     0.168 HD
HETATM    8  C10 UNL     1       1.700   0.433  -0.451  1.00  0.00     0.130 A 
ENDROOT
BRANCH   8   9
HETATM    9  C11 UNL     1       3.094   0.633  -0.032  1.00  0.00     0.216 C 
HETATM   10  C12 UNL     1       3.344   0.173   1.386  1.00  0.00     0.272 C 
HETATM   11  N4  UNL     1       4.683  -0.382   1.448  1.00  0.00    -0.070 N 
HETATM   12  C13 UNL     1       5.637   0.458   0.757  1.00  0.00     0.258 C 
ATOM     13  H42 UNL     1       4.970  -0.559   2.411  1.00  0.00     0.277 HD
ATOM     14  H41 UNL     1       4.707  -1.340   1.098  1.00  0.00     0.277 HD
HETATM   15  C14 UNL     1       5.253   0.668  -0.700  1.00  0.00     0.196 C 
HETATM   16  O1  UNL     1       4.019   0.037  -0.888  1.00  0.00    -0.375 OA
ENDBRANCH   8   9
BRANCH   5  17
HETATM   17  C3  UNL     1      -1.663   1.595  -1.072  1.00  0.00     0.078 C 
BRANCH  17  18
HETATM   18  C4  UNL     1      -2.850   0.799  -1.498  1.00  0.00     0.012 C 
BRANCH  18  19
HETATM   19  C5  UNL     1      -3.212  -0.235  -0.496  1.00  0.00    -0.014 C 
HETATM   20  C6  UNL     1      -3.520   0.512   0.812  1.00  0.00     0.004 C 
HETATM   21  C7  UNL     1      -4.670  -0.212   1.443  1.00  0.00     0.000 C 
HETATM   22  C8  UNL     1      -4.908  -1.452   0.576  1.00  0.00     0.000 C 
HETATM   23  C9  UNL     1      -4.564  -0.882  -0.806  1.00  0.00     0.004 C 
ENDBRANCH  18  19
ENDBRANCH  17  18
ENDBRANCH   5  17
TORSDOF 4
