REMARK  2 active torsions:
REMARK  status: ('A' for Active; 'I' for Inactive)
REMARK    1  A    between atoms: C3_6  and  O3_7 
REMARK    2  A    between atoms: C4_9  and  O4_10 
ROOT
HETATM    1  O1  UNL     1      -1.842  -1.636   1.311  1.00  0.00    -0.228 OA
HETATM    2  S1  UNL     1      -1.447  -1.112  -0.055  1.00  0.00     0.147 S 
HETATM    3  O2  UNL     1      -2.261  -1.883  -1.054  1.00  0.00    -0.228 OA
HETATM    4  C1  UNL     1      -1.647   0.616  -0.190  1.00  0.00     0.143 C 
HETATM    5  C2  UNL     1      -0.422   1.411  -0.435  1.00  0.00     0.049 C 
HETATM    6  C3  UNL     1       0.878   0.922  -0.011  1.00  0.00     0.148 C 
HETATM    7  C4  UNL     1       1.021  -0.481   0.456  1.00  0.00     0.160 C 
HETATM    8  C5  UNL     1       0.253  -1.489  -0.353  1.00  0.00     0.174 C 
ENDROOT
BRANCH   7   9
HETATM    9  O4  UNL     1       2.365  -0.854   0.367  1.00  0.00    -0.392 OA
ATOM     10  H4  UNL     1       2.456  -1.751   0.666  1.00  0.00     0.210 HD
ENDBRANCH   7   9
BRANCH   6  11
HETATM   11  O3  UNL     1       1.397   1.706   1.055  1.00  0.00    -0.393 OA
ATOM     12  H3  UNL     1       2.247   1.386   1.332  1.00  0.00     0.210 HD
ENDBRANCH   6  11
TORSDOF 2
