REMARK  2 active torsions:
REMARK  status: ('A' for Active; 'I' for Inactive)
REMARK    1  A    between atoms: O1_1  and  C1_3 
REMARK    2  A    between atoms: C7_13  and  O3_14 
ROOT
HETATM    1  C1  UNL     1       1.955  -0.026  -0.484  1.00  0.00     0.285 C 
HETATM    2  O2  UNL     1       1.475  -1.248  -0.869  1.00  0.00    -0.358 OA
HETATM    3  C2  UNL     1       0.282  -1.620  -0.324  1.00  0.00     0.177 C 
HETATM    4  C3  UNL     1      -0.790  -0.674  -0.823  1.00  0.00     0.043 C 
HETATM    5  C4  UNL     1      -2.098  -0.941  -0.100  1.00  0.00     0.239 C 
HETATM    6  N1  UNL     1      -1.928  -0.398   1.209  1.00  0.00    -0.074 N 
ATOM      7  H11 UNL     1      -1.827  -1.120   1.922  1.00  0.00     0.277 HD
ATOM      8  H12 UNL     1      -2.780   0.034   1.567  1.00  0.00     0.277 HD
HETATM    9  C5  UNL     1      -0.815   0.514   1.186  1.00  0.00     0.240 C 
HETATM   10  C6  UNL     1      -0.441   0.697  -0.256  1.00  0.00     0.052 C 
HETATM   11  C7  UNL     1       0.965   1.084  -0.494  1.00  0.00     0.179 C 
ENDROOT
BRANCH   1  12
HETATM   12  O1  UNL     1       2.594  -0.066   0.763  1.00  0.00    -0.369 OA
ATOM     13  H1  UNL     1       2.927   0.783   1.030  1.00  0.00     0.212 HD
ENDBRANCH   1  12
BRANCH  11  14
HETATM   14  O3  UNL     1       1.354   2.064   0.443  1.00  0.00    -0.390 OA
ATOM     15  H3  UNL     1       0.722   2.773   0.437  1.00  0.00     0.210 HD
ENDBRANCH  11  14
TORSDOF 2
