REMARK  3 active torsions:
REMARK  status: ('A' for Active; 'I' for Inactive)
REMARK    1  A    between atoms: O1_1  and  C1_3 
REMARK    2  A    between atoms: C1_3  and  C2_4 
REMARK    3  A    between atoms: C4_6  and  O2_7 
ROOT
HETATM    1  C2  UNL     1       0.991  -0.275  -0.121  1.00  0.00     0.150 C 
HETATM    2  C3  UNL     1       0.042  -0.012  -1.260  1.00  0.00     0.102 C 
HETATM    3  C4  UNL     1      -1.369  -0.113  -0.688  1.00  0.00     0.166 C 
HETATM    4  C5  UNL     1      -1.433   1.033   0.333  1.00  0.00     0.102 C 
HETATM    5  C6  UNL     1      -0.596   0.372   1.433  1.00  0.00     0.151 C 
HETATM    6  C7  UNL     1      -1.092  -1.052   1.324  1.00  0.00     0.203 C 
HETATM    7  O3  UNL     1      -1.446  -1.278   0.021  1.00  0.00    -0.353 OA
HETATM    8  O4  UNL     1       0.711   0.415   1.021  1.00  0.00    -0.376 OA
ENDROOT
BRANCH   1   9
HETATM    9  C1  UNL     1       2.365   0.222  -0.595  1.00  0.00     0.196 C 
BRANCH   9  10
HETATM   10  O1  UNL     1       3.256  -0.072   0.450  1.00  0.00    -0.398 OA
ATOM     11  H1  UNL     1       4.106   0.235   0.157  1.00  0.00     0.209 HD
ENDBRANCH   9  10
ENDBRANCH   1   9
BRANCH   3  12
HETATM   12  O2  UNL     1      -2.340  -0.023  -1.640  1.00  0.00    -0.365 OA
ATOM     13  H2  UNL     1      -3.218  -0.086  -1.284  1.00  0.00     0.213 HD
ENDBRANCH   3  12
TORSDOF 3
