REMARK  8 active torsions:
REMARK  status: ('A' for Active; 'I' for Inactive)
REMARK    1  A    between atoms: C2_2  and  C4_5 
REMARK    2  A    between atoms: C5_6  and  O1_7 
REMARK    3  A    between atoms: C6_9  and  C7_10 
REMARK    4  A    between atoms: C7_10  and  O2_11 
REMARK    5  A    between atoms: C8_14  and  N2_15 
REMARK    6  A    between atoms: N2_15  and  N3_17 
REMARK    7  A    between atoms: N3_17  and  N4_18 
REMARK    8  A    between atoms: C9_21  and  O4_22 
ROOT
HETATM    1  C1  UNL     1      -2.645  -1.868   0.517  1.00  0.00     0.026 C 
HETATM    2  C2  UNL     1      -2.241  -0.503   0.093  1.00  0.00     0.098 C 
HETATM    3  C3  UNL     1      -2.415  -0.245  -1.325  1.00  0.00     0.064 C 
HETATM    4  N1  UNL     1      -2.573  -0.030  -2.455  1.00  0.00    -0.197 NA
ENDROOT
BRANCH   2   5
HETATM    5  C4  UNL     1      -0.844  -0.140   0.541  1.00  0.00     0.067 C 
HETATM    6  C5  UNL     1       0.178  -1.101  -0.031  1.00  0.00     0.157 C 
HETATM    7  C6  UNL     1       1.530  -0.384   0.093  1.00  0.00     0.177 C 
HETATM    8  O3  UNL     1       1.546   0.490   1.158  1.00  0.00    -0.352 OA
HETATM    9  C8  UNL     1       0.798   1.626   0.845  1.00  0.00     0.279 C 
HETATM   10  C9  UNL     1      -0.456   1.242   0.076  1.00  0.00     0.177 C 
BRANCH   6  11
HETATM   11  O1  UNL     1      -0.049  -1.279  -1.377  1.00  0.00    -0.392 OA
ATOM     12  H1  UNL     1       0.592  -1.882  -1.736  1.00  0.00     0.210 HD
ENDBRANCH   6  11
BRANCH   7  13
HETATM   13  C7  UNL     1       2.573  -1.459   0.189  1.00  0.00     0.198 C 
BRANCH  13  14
HETATM   14  O2  UNL     1       3.840  -0.891   0.235  1.00  0.00    -0.398 OA
ATOM     15  H2  UNL     1       4.500  -1.571   0.296  1.00  0.00     0.209 HD
ENDBRANCH  13  14
ENDBRANCH   7  13
BRANCH   9  16
HETATM   16  N2  UNL     1       1.589   2.587   0.079  1.00  0.00    -0.220 N 
ATOM     17  H2  UNL     1       2.481   2.339  -0.350  1.00  0.00     0.200 HD
BRANCH  16  18
HETATM   18  N3  UNL     1       1.103   3.723  -0.014  1.00  0.00    -0.246 NA
BRANCH  18  19
HETATM   19  N4  UNL     1       0.927   4.921  -0.250  1.00  0.00    -0.261 N 
ATOM     20  H42 UNL     1       1.851   5.050  -0.662  1.00  0.00     0.193 HD
ATOM     21  H41 UNL     1       0.527   5.856  -0.327  1.00  0.00     0.193 HD
ENDBRANCH  18  19
ENDBRANCH  16  18
ENDBRANCH   9  16
BRANCH  10  22
HETATM   22  O4  UNL     1      -1.463   2.169   0.221  1.00  0.00    -0.391 OA
ATOM     23  H4  UNL     1      -1.219   3.039  -0.072  1.00  0.00     0.210 HD
ENDBRANCH  10  22
ENDBRANCH   2   5
TORSDOF 8
