REMARK  8 active torsions:
REMARK  status: ('A' for Active; 'I' for Inactive)
REMARK    1  A    between atoms: N1_1  and  N2_4 
REMARK    2  A    between atoms: N3_6  and  C1_8 
REMARK    3  A    between atoms: C3_11  and  O2_12 
REMARK    4  A    between atoms: O2_12  and  C4_13 
REMARK    5  A    between atoms: C4_13  and  N4_15 
REMARK    6  A    between atoms: N4_15  and  O3_17 
REMARK    7  A    between atoms: C5_19  and  O4_20 
REMARK    8  A    between atoms: C6_22  and  O5_23 
ROOT
HETATM    1  C1  UNL     1      -1.901   0.191  -0.802  1.00  0.00     0.156 C 
HETATM    2  C2  UNL     1      -0.642   0.907  -1.088  1.00  0.00     0.200 C 
HETATM    3  O1  UNL     1       0.501   0.124  -1.057  1.00  0.00    -0.356 OA
HETATM    4  C3  UNL     1       0.590  -0.551   0.134  1.00  0.00     0.300 C 
HETATM    5  C5  UNL     1      -0.471  -1.632   0.121  1.00  0.00     0.204 C 
HETATM    6  C6  UNL     1      -1.802  -0.910   0.211  1.00  0.00     0.178 C 
ENDROOT
BRANCH   1   7
HETATM    7  N3  UNL     1      -2.922   1.132  -0.393  1.00  0.00    -0.313 N 
HETATM    8  N2  UNL     1      -2.793   1.721   0.679  1.00  0.00    -0.253 N 
ATOM      9  H2  UNL     1      -2.515   0.955   1.292  1.00  0.00     0.207 HD
ATOM     10  H3  UNL     1      -3.735   1.304  -0.984  1.00  0.00     0.182 HD
BRANCH   8  11
HETATM   11  N1  UNL     1      -2.793   2.674   1.473  1.00  0.00    -0.331 N 
ATOM     12  H12 UNL     1      -3.073   3.407   0.821  1.00  0.00     0.178 HD
ATOM     13  H11 UNL     1      -2.686   3.162   2.362  1.00  0.00     0.178 HD
ENDBRANCH   8  11
ENDBRANCH   1   7
BRANCH   6  14
HETATM   14  O5  UNL     1      -1.929  -0.454   1.523  1.00  0.00    -0.391 OA
ATOM     15  H5  UNL     1      -1.866  -1.152   2.165  1.00  0.00     0.210 HD
ENDBRANCH   6  14
BRANCH   5  16
HETATM   16  O4  UNL     1      -0.348  -2.286  -1.122  1.00  0.00    -0.388 OA
ATOM     17  H4  UNL     1      -1.013  -2.964  -1.130  1.00  0.00     0.210 HD
ENDBRANCH   5  16
BRANCH   4  18
HETATM   18  O2  UNL     1       1.865  -1.074   0.412  1.00  0.00    -0.291 OA
BRANCH  18  19
HETATM   19  C4  UNL     1       3.009  -0.347   0.536  1.00  0.00     0.236 C 
HETATM   20  S1  UNL     1       4.382  -1.110   1.016  1.00  0.00    -0.031 SA
BRANCH  19  21
HETATM   21  N4  UNL     1       3.112   1.041   0.279  1.00  0.00    -0.238 N 
ATOM     22  H4  UNL     1       2.272   1.537  -0.020  1.00  0.00     0.197 HD
BRANCH  21  23
HETATM   23  O3  UNL     1       4.252   1.746   0.406  1.00  0.00    -0.287 OA
ATOM     24  H3  UNL     1       4.321   2.678   0.233  1.00  0.00     0.244 HD
ENDBRANCH  21  23
ENDBRANCH  19  21
ENDBRANCH  18  19
ENDBRANCH   4  18
TORSDOF 8
