REMARK  8 active torsions:
REMARK  status: ('A' for Active; 'I' for Inactive)
REMARK    1  A    between atoms: C2_2  and  C12_22 
REMARK    2  A    between atoms: C3_3  and  C4_4 
REMARK       I    between atoms: C4_4  and  N1_6 
REMARK    3  A    between atoms: N1_6  and  C5_8 
REMARK    4  A    between atoms: C6_9  and  C7_10 
REMARK    5  A    between atoms: C7_10  and  O2_11 
REMARK    6  A    between atoms: C10_16  and  O4_17 
REMARK    7  A    between atoms: C11_19  and  O5_20 
REMARK    8  A    between atoms: C12_22  and  C13_23 
ROOT
HETATM    1  C5  UNL     1      -2.283  -0.331   0.491  1.00  0.00     0.147 C 
HETATM    2  C6  UNL     1      -3.145   0.679   1.162  1.00  0.00     0.170 C 
HETATM    3  O3  UNL     1      -4.494   0.508   1.013  1.00  0.00    -0.374 OA
HETATM    4  C8  UNL     1      -4.944   0.315  -0.262  1.00  0.00     0.149 C 
HETATM    5  C9  UNL     1      -6.440  -0.010  -0.165  1.00  0.00     0.042 C 
HETATM    6  C10 UNL     1      -4.301  -0.907  -0.902  1.00  0.00     0.177 C 
HETATM    7  C11 UNL     1      -2.821  -0.876  -0.798  1.00  0.00     0.174 C 
ENDROOT
BRANCH   1   8
HETATM    8  N1  UNL     1      -0.997   0.267   0.197  1.00  0.00    -0.348 N 
HETATM    9  C4  UNL     1       0.203  -0.290   0.803  1.00  0.00     0.241 C 
HETATM   10  O1  UNL     1       0.065  -1.271   1.557  1.00  0.00    -0.269 OA
ATOM     11  H1  UNL     1      -0.933   1.070  -0.428  1.00  0.00     0.163 HD
BRANCH   9  12
HETATM   12  C3  UNL     1       1.477   0.301   0.512  1.00  0.00     0.076 C 
HETATM   13  C2  UNL     1       2.613  -0.113   1.010  1.00  0.00    -0.078 C 
HETATM   14  C1  UNL     1       2.675  -1.243   1.934  1.00  0.00     0.043 C 
BRANCH  13  15
HETATM   15  C12 UNL     1       3.822   0.649   0.611  1.00  0.00     0.042 C 
BRANCH  15  16
HETATM   16  C13 UNL     1       4.837  -0.088  -0.169  1.00  0.00    -0.048 C 
HETATM   17  C14 UNL     1       5.419  -1.263   0.527  1.00  0.00     0.015 C 
HETATM   18  C15 UNL     1       4.278  -0.594  -1.498  1.00  0.00     0.015 C 
HETATM   19  C16 UNL     1       5.936   0.938  -0.526  1.00  0.00     0.015 C 
ENDBRANCH  15  16
ENDBRANCH  13  15
ENDBRANCH   9  12
ENDBRANCH   1   8
BRANCH   2  20
HETATM   20  C7  UNL     1      -2.713   2.113   0.830  1.00  0.00     0.198 C 
BRANCH  20  21
HETATM   21  O2  UNL     1      -3.374   3.015   1.692  1.00  0.00    -0.398 OA
ATOM     22  H2  UNL     1      -3.106   3.903   1.486  1.00  0.00     0.209 HD
ENDBRANCH  20  21
ENDBRANCH   2  20
BRANCH   7  23
HETATM   23  O5  UNL     1      -2.318  -0.110  -1.847  1.00  0.00    -0.391 OA
ATOM     24  H5  UNL     1      -2.659  -0.455  -2.664  1.00  0.00     0.210 HD
ENDBRANCH   7  23
BRANCH   6  25
HETATM   25  O4  UNL     1      -4.857  -2.049  -0.354  1.00  0.00    -0.390 OA
ATOM     26  H4  UNL     1      -4.456  -2.812  -0.753  1.00  0.00     0.210 HD
ENDBRANCH   6  25
TORSDOF 8
