REMARK  6 active torsions:
REMARK  status: ('A' for Active; 'I' for Inactive)
REMARK    1  A    between atoms: C2_2  and  C3_3 
REMARK    2  A    between atoms: C3_3  and  C4_4 
REMARK    3  A    between atoms: C7_7  and  O1_8 
REMARK    4  A    between atoms: N1_10  and  C8_11 
REMARK    5  A    between atoms: C10_13  and  O2_14 
REMARK    6  A    between atoms: C11_16  and  O3_17 
REMARK       I    between atoms: N2_19  and  C12_20 
ROOT
HETATM    1  C4  UNL     1      -1.220  -0.111  -0.701  1.00  0.00     0.129 C 
HETATM    2  C5  UNL     1       0.220  -0.014  -0.217  1.00  0.00     0.031 A 
HETATM    3  C6  UNL     1       0.840  -1.182  -0.657  1.00  0.00     0.054 A 
HETATM    4  C7  UNL     1       2.135  -1.076  -0.229  1.00  0.00     0.155 A 
HETATM    5  N1  UNL     1       2.310   0.092   0.440  1.00  0.00    -0.308 N 
HETATM    6  C10 UNL     1       1.121   0.764   0.455  1.00  0.00     0.153 A 
HETATM    7  C11 UNL     1      -0.216  -1.980  -1.370  1.00  0.00     0.264 C 
HETATM    8  N2  UNL     1      -1.368  -1.536  -0.508  1.00  0.00    -0.299 N 
HETATM    9  C12 UNL     1      -2.138  -2.419   0.194  1.00  0.00     0.319 C 
HETATM   10  O4  UNL     1      -3.026  -2.068   0.998  1.00  0.00    -0.254 OA
HETATM   11 CL1  UNL     1      -1.931  -4.146   0.012  1.00  0.00    -0.020 Cl
ENDROOT
BRANCH   1  12
HETATM   12  C3  UNL     1      -2.051   0.833   0.007  1.00  0.00     0.030 C 
BRANCH  12  13
HETATM   13  C2  UNL     1      -3.482   0.994  -0.314  1.00  0.00    -0.002 C 
HETATM   14  C1  UNL     1      -4.031   2.072   0.640  1.00  0.00     0.005 C 
ENDBRANCH  12  13
ENDBRANCH   1  12
BRANCH   6  15
HETATM   15  O2  UNL     1       0.902   2.020   1.058  1.00  0.00    -0.345 OA
ATOM     16  H2  UNL     1       1.528   2.561   1.525  1.00  0.00     0.219 HD
ENDBRANCH   6  15
BRANCH   7  17
HETATM   17  O3  UNL     1       0.003  -3.311  -1.324  1.00  0.00    -0.372 OA
ATOM     18  H3  UNL     1      -0.664  -3.815  -1.775  1.00  0.00     0.212 HD
ENDBRANCH   7  17
BRANCH   4  19
HETATM   19  O1  UNL     1       3.148  -2.030  -0.444  1.00  0.00    -0.345 OA
ATOM     20  H1  UNL     1       4.047  -1.956  -0.147  1.00  0.00     0.219 HD
ENDBRANCH   4  19
BRANCH   5  21
HETATM   21  C8  UNL     1       3.519   0.564   1.038  1.00  0.00     0.129 C 
HETATM   22  C9  UNL     1       4.348   1.391   0.075  1.00  0.00     0.027 C 
ENDBRANCH   5  21
TORSDOF 6
