REMARK  5 active torsions:
REMARK  status: ('A' for Active; 'I' for Inactive)
REMARK    1  A    between atoms: O1_1  and  C1_3 
REMARK    2  A    between atoms: C3_5  and  O2_6 
REMARK    3  A    between atoms: C4_8  and  C5_9 
REMARK    4  A    between atoms: N1_10  and  N2_12 
REMARK    5  A    between atoms: N2_12  and  C6_14 
ROOT
HETATM    1  C1  UNL     1       4.118  -0.193   0.650  1.00  0.00     0.085 A 
HETATM    2  C2  UNL     1       3.631   1.081   0.459  1.00  0.00     0.075 A 
HETATM    3  C3  UNL     1       2.318   1.282   0.146  1.00  0.00     0.080 A 
HETATM    4  C4  UNL     1       1.450   0.223   0.015  1.00  0.00     0.015 A 
HETATM    5  C9  UNL     1       1.971  -1.063   0.214  1.00  0.00     0.037 A 
HETATM    6  C10 UNL     1       3.286  -1.306   0.530  1.00  0.00     0.045 A 
HETATM    7 BR1  UNL     1       4.006  -3.046   0.803  1.00  0.00    -0.048 Br
ENDROOT
BRANCH   4   8
HETATM    8  C5  UNL     1       0.039   0.367  -0.316  1.00  0.00     0.121 C 
HETATM    9  N1  UNL     1      -0.667  -0.705  -0.410  1.00  0.00    -0.313 N 
ATOM     10  H1  UNL     1      -0.249  -1.623  -0.257  1.00  0.00     0.185 HD
BRANCH   9  11
HETATM   11  N2  UNL     1      -2.021  -0.578  -0.727  1.00  0.00    -0.308 N 
ATOM     12  H2  UNL     1      -2.451  -1.138  -1.463  1.00  0.00     0.183 HD
BRANCH  11  13
HETATM   13  C6  UNL     1      -2.789   0.386   0.037  1.00  0.00     0.237 C 
HETATM   14  C7  UNL     1      -4.241   0.448  -0.383  1.00  0.00     0.081 C 
HETATM   15  C8  UNL     1      -4.238  -0.809   0.494  1.00  0.00     0.175 C 
HETATM   16  O3  UNL     1      -3.209  -0.197   1.234  1.00  0.00    -0.365 OA
ENDBRANCH  11  13
ENDBRANCH   9  11
ENDBRANCH   4   8
BRANCH   3  17
HETATM   17  O2  UNL     1       1.864   2.560  -0.037  1.00  0.00    -0.360 OA
ATOM     18  H2  UNL     1       0.950   2.700  -0.255  1.00  0.00     0.217 HD
ENDBRANCH   3  17
BRANCH   1  19
HETATM   19  O1  UNL     1       5.450  -0.378   0.966  1.00  0.00    -0.359 OA
ATOM     20  H1  UNL     1       5.786  -1.257   1.098  1.00  0.00     0.217 HD
ENDBRANCH   1  19
TORSDOF 5
