REMARK  5 active torsions:
REMARK  status: ('A' for Active; 'I' for Inactive)
REMARK    1  A    between atoms: C2_2  and  N1_3 
REMARK       I    between atoms: N1_3  and  C3_5 
REMARK    2  A    between atoms: C3_5  and  C4_7 
REMARK    3  A    between atoms: C6_9  and  C7_10 
REMARK    4  A    between atoms: C7_10  and  O2_11 
REMARK    5  A    between atoms: C13_18  and  N2_19 
ROOT
HETATM    1  C7  UNL     1      -1.026  -0.215  -0.896  1.00  0.00     0.159 C 
HETATM    2  C8  UNL     1      -1.573   1.154  -1.433  1.00  0.00     0.084 C 
HETATM    3  C9  UNL     1      -2.479   1.872  -0.531  1.00  0.00    -0.023 C 
HETATM    4  C10 UNL     1      -3.910   1.625  -0.344  1.00  0.00    -0.008 C 
HETATM    5  C11 UNL     1      -4.547   0.328  -0.192  1.00  0.00    -0.024 C 
HETATM    6  C12 UNL     1      -4.240  -0.697   0.800  1.00  0.00     0.072 C 
HETATM    7  C13 UNL     1      -2.965  -1.563   0.570  1.00  0.00     0.256 C 
HETATM    8  C14 UNL     1      -2.085  -0.725  -0.134  1.00  0.00    -0.106 C 
ENDROOT
BRANCH   1   9
HETATM    9  C6  UNL     1       0.281   0.077  -0.272  1.00  0.00     0.081 A 
HETATM   10  C5  UNL     1       1.511  -0.383  -0.758  1.00  0.00     0.076 A 
HETATM   11  C4  UNL     1       2.525   0.060   0.078  1.00  0.00     0.168 A 
HETATM   12  O3  UNL     1       1.932   0.743   1.009  1.00  0.00    -0.232 OA
HETATM   13  N3  UNL     1       0.620   0.767   0.827  1.00  0.00    -0.261 N 
ATOM     14  H3  UNL     1      -0.042   1.245   1.439  1.00  0.00     0.194 HD
BRANCH  11  15
HETATM   15  C3  UNL     1       3.966  -0.226  -0.124  1.00  0.00     0.277 C 
HETATM   16  N1  UNL     1       4.955  -0.049   0.837  1.00  0.00    -0.356 N 
ATOM     17  H1  UNL     1       4.691   0.309   1.755  1.00  0.00     0.162 HD
HETATM   18  O1  UNL     1       4.338  -0.688  -1.277  1.00  0.00    -0.265 OA
BRANCH  16  19
HETATM   19  C2  UNL     1       6.336  -0.353   0.582  1.00  0.00     0.118 C 
HETATM   20  C1  UNL     1       6.984   0.478  -0.490  1.00  0.00     0.026 C 
ENDBRANCH  16  19
ENDBRANCH  11  15
ENDBRANCH   1   9
BRANCH   1  21
HETATM   21  O2  UNL     1      -0.810  -0.992  -2.058  1.00  0.00    -0.372 OA
ATOM     22  H2  UNL     1      -1.650  -1.180  -2.459  1.00  0.00     0.212 HD
ENDBRANCH   1  21
BRANCH   7  23
HETATM   23  N2  UNL     1      -2.592  -2.037   1.873  1.00  0.00    -0.065 N 
ATOM     24  H23 UNL     1      -2.467  -1.295   2.561  1.00  0.00     0.275 HD
ATOM     25  H22 UNL     1      -3.340  -2.528   2.363  1.00  0.00     0.275 HD
ATOM     26  H21 UNL     1      -1.757  -2.604   1.722  1.00  0.00     0.275 HD
ENDBRANCH   7  23
TORSDOF 5
