REMARK  5 active torsions:
REMARK  status: ('A' for Active; 'I' for Inactive)
REMARK    1  A    between atoms: C2_2  and  C3_3 
REMARK    2  A    between atoms: C3_3  and  C4_4 
REMARK    3  A    between atoms: C8_9  and  O1_10 
REMARK    4  A    between atoms: C10_14  and  O2_15 
REMARK    5  A    between atoms: C11_17  and  N2_18 
REMARK       I    between atoms: N2_18  and  C12_20 
ROOT
HETATM    1  C4  UNL     1      -1.061  -0.411   0.373  1.00  0.00     0.036 C 
HETATM    2  C5  UNL     1      -0.419  -1.419  -0.547  1.00  0.00     0.126 C 
HETATM    3 CL1  UNL     1      -0.837  -3.073  -0.047  1.00  0.00    -0.119 Cl
HETATM    4  C6  UNL     1       1.030  -1.212  -0.256  1.00  0.00     0.024 A 
HETATM    5  C7  UNL     1       1.226  -0.004   0.351  1.00  0.00     0.028 A 
HETATM    6  C8  UNL     1       2.580   0.121   0.589  1.00  0.00     0.153 A 
HETATM    7  N1  UNL     1       3.156  -0.988   0.131  1.00  0.00    -0.312 N 
HETATM    8  C9  UNL     1       4.602  -1.218   0.211  1.00  0.00     0.160 C 
HETATM    9  C10 UNL     1       2.256  -1.828  -0.391  1.00  0.00     0.152 A 
HETATM   10  C11 UNL     1      -0.083   0.719   0.527  1.00  0.00     0.128 C 
ENDROOT
BRANCH  10  11
HETATM   11  N2  UNL     1      -0.229   1.764  -0.423  1.00  0.00    -0.352 N 
HETATM   12  C12 UNL     1      -0.438   3.102   0.001  1.00  0.00     0.214 C 
HETATM   13  C13 UNL     1      -0.597   4.233  -0.960  1.00  0.00     0.117 C 
HETATM   14  O3  UNL     1      -0.502   3.414   1.229  1.00  0.00    -0.274 OA
ATOM     15  H2  UNL     1      -0.183   1.551  -1.419  1.00  0.00     0.163 HD
ENDBRANCH  10  11
BRANCH   1  16
HETATM   16  C3  UNL     1      -2.393   0.051  -0.159  1.00  0.00     0.008 C 
BRANCH  16  17
HETATM   17  C2  UNL     1      -3.381  -1.055  -0.318  1.00  0.00    -0.004 C 
HETATM   18  C1  UNL     1      -3.725  -1.781   0.942  1.00  0.00     0.005 C 
ENDBRANCH  16  17
ENDBRANCH   1  16
BRANCH   6  19
HETATM   19  O1  UNL     1       3.199   1.229   1.202  1.00  0.00    -0.345 OA
ATOM     20  H1  UNL     1       4.131   1.315   1.366  1.00  0.00     0.219 HD
ENDBRANCH   6  19
BRANCH   9  21
HETATM   21  O2  UNL     1       2.501  -3.095  -0.967  1.00  0.00    -0.345 OA
ATOM     22  H2  UNL     1       3.346  -3.519  -1.060  1.00  0.00     0.219 HD
ENDBRANCH   9  21
TORSDOF 5
