REMARK  8 active torsions:
REMARK  status: ('A' for Active; 'I' for Inactive)
REMARK    1  A    between atoms: C2_2  and  N1_3 
REMARK    2  A    between atoms: C5_6  and  C6_7 
REMARK    3  A    between atoms: C8_10  and  C9_11 
REMARK    4  A    between atoms: C9_11  and  C10_12 
REMARK    5  A    between atoms: C10_12  and  O2_13 
REMARK    6  A    between atoms: N2_15  and  N3_17 
REMARK    7  A    between atoms: N3_17  and  C11_19 
REMARK    8  A    between atoms: N4_21  and  N5_23 
ROOT
HETATM    1  C9  UNL     1       2.406   1.336  -0.150  1.00  0.00     0.119 C 
ENDROOT
BRANCH   1   2
HETATM    2  C8  UNL     1       1.028   0.715   0.092  1.00  0.00     0.152 C 
HETATM    3  O1  UNL     1       0.116   1.588  -0.438  1.00  0.00    -0.381 OA
HETATM    4  C7  UNL     1      -1.186   1.097  -0.496  1.00  0.00     0.200 C 
HETATM    5  C6  UNL     1      -1.187  -0.186  -1.272  1.00  0.00     0.149 C 
HETATM    6  O3  UNL     1      -0.282  -1.111  -0.839  1.00  0.00    -0.381 OA
HETATM    7  C13 UNL     1       0.941  -0.677  -0.432  1.00  0.00     0.200 C 
BRANCH   5   8
HETATM    8  C5  UNL     1      -2.578  -0.803  -1.380  1.00  0.00     0.020 C 
HETATM    9  C4  UNL     1      -3.503   0.148  -2.069  1.00  0.00     0.037 C 
HETATM   10  C3  UNL     1      -4.472   0.858  -1.197  1.00  0.00     0.273 C 
HETATM   11  N1  UNL     1      -5.158  -0.136  -0.393  1.00  0.00     0.088 N 
HETATM   12  C15 UNL     1      -4.255  -0.808   0.513  1.00  0.00     0.273 C 
HETATM   13  C14 UNL     1      -3.063  -1.408  -0.124  1.00  0.00     0.037 C 
BRANCH  11  14
HETATM   14  C2  UNL     1      -6.108   0.603   0.439  1.00  0.00     0.268 C 
HETATM   15  C1  UNL     1      -6.895  -0.319   1.332  1.00  0.00     0.037 C 
ENDBRANCH  11  14
ENDBRANCH   5   8
ENDBRANCH   1   2
BRANCH   1  16
HETATM   16  C10 UNL     1       3.508   0.520   0.361  1.00  0.00     0.132 C 
HETATM   17  N2  UNL     1       4.301   0.993   1.284  1.00  0.00    -0.282 N 
ATOM     18  H2  UNL     1       4.127   1.937   1.630  1.00  0.00     0.189 HD
BRANCH  16  19
HETATM   19  O2  UNL     1       3.776  -0.755  -0.076  1.00  0.00    -0.348 OA
ATOM     20  H2  UNL     1       4.491  -1.285   0.256  1.00  0.00     0.219 HD
ENDBRANCH  16  19
BRANCH  17  21
HETATM   21  N3  UNL     1       5.361   0.291   1.819  1.00  0.00    -0.287 N 
ATOM     22  H3  UNL     1       5.227  -0.151   2.728  1.00  0.00     0.188 HD
BRANCH  21  23
HETATM   23  C11 UNL     1       6.616   0.142   1.197  1.00  0.00     0.106 C 
HETATM   24  C12 UNL     1       7.825  -0.117   1.992  1.00  0.00     0.092 C 
HETATM   25  N4  UNL     1       6.679   0.238  -0.089  1.00  0.00    -0.295 N 
ATOM     26  H4  UNL     1       5.824   0.418  -0.615  1.00  0.00     0.187 HD
BRANCH  25  27
HETATM   27  N5  UNL     1       7.889   0.102  -0.783  1.00  0.00    -0.344 N 
ATOM     28  H52 UNL     1       8.735  -0.078  -0.242  1.00  0.00     0.176 HD
ATOM     29  H51 UNL     1       7.939   0.178  -1.799  1.00  0.00     0.176 HD
ENDBRANCH  25  27
ENDBRANCH  21  23
ENDBRANCH  17  21
ENDBRANCH   1  16
TORSDOF 8
