REMARK  7 active torsions:
REMARK  status: ('A' for Active; 'I' for Inactive)
REMARK    1  A    between atoms: C2_2  and  C3_3 
REMARK    2  A    between atoms: C3_3  and  N1_4 
REMARK    3  A    between atoms: C4_5  and  C5_6 
REMARK    4  A    between atoms: C5_6  and  O1_7 
REMARK    5  A    between atoms: C7_10  and  O2_11 
REMARK    6  A    between atoms: C9_15  and  C10_16 
REMARK    7  A    between atoms: C15_21  and  O4_22 
ROOT
HETATM    1  N1  UNL     1      -1.769   0.290  -0.110  1.00  0.00     0.108 N 
HETATM    2  C4  UNL     1      -2.680  -0.538   0.545  1.00  0.00     0.249 C 
HETATM    3  C6  UNL     1      -2.185  -1.827   1.094  1.00  0.00     0.072 C 
HETATM    4  C7  UNL     1      -0.785  -2.209   0.682  1.00  0.00     0.151 C 
HETATM    5  C8  UNL     1       0.066  -1.007   0.900  1.00  0.00     0.189 C 
HETATM    6  O3  UNL     1       1.410  -1.193   0.600  1.00  0.00    -0.347 OA
HETATM    7  C9  UNL     1       2.091  -0.091   1.170  1.00  0.00     0.297 C 
HETATM    8  O5  UNL     1       1.282   0.981   1.415  1.00  0.00    -0.355 OA
HETATM    9  C16 UNL     1       0.387   1.339   0.442  1.00  0.00     0.210 C 
HETATM   10  C17 UNL     1      -0.398   0.116   0.003  1.00  0.00     0.279 C 
ENDROOT
BRANCH   7  11
HETATM   11  C10 UNL     1       3.261   0.281   0.363  1.00  0.00     0.029 A 
HETATM   12  C11 UNL     1       3.518   1.614   0.131  1.00  0.00     0.015 A 
HETATM   13  C12 UNL     1       4.611   2.026  -0.616  1.00  0.00     0.001 A 
HETATM   14  C13 UNL     1       5.471   1.111  -1.145  1.00  0.00     0.003 A 
HETATM   15  C14 UNL     1       5.225  -0.244  -0.918  1.00  0.00     0.037 A 
HETATM   16  C15 UNL     1       4.135  -0.640  -0.174  1.00  0.00     0.076 A 
BRANCH  16  17
HETATM   17  O4  UNL     1       3.940  -1.996   0.019  1.00  0.00    -0.360 OA
ATOM     18  H4  UNL     1       4.542  -2.631  -0.351  1.00  0.00     0.217 HD
ENDBRANCH  16  17
ENDBRANCH   7  11
BRANCH   4  19
HETATM   19  O2  UNL     1      -0.737  -2.701  -0.607  1.00  0.00    -0.393 OA
ATOM     20  H2  UNL     1       0.145  -2.942  -0.866  1.00  0.00     0.210 HD
ENDBRANCH   4  19
BRANCH   1  21
HETATM   21  C3  UNL     1      -2.153   0.474  -1.498  1.00  0.00     0.300 C 
BRANCH  21  22
HETATM   22  C2  UNL     1      -3.374   1.264  -1.684  1.00  0.00    -0.007 C 
HETATM   23  C1  UNL     1      -4.434   0.749  -2.294  1.00  0.00     0.008 C 
ENDBRANCH  21  22
ENDBRANCH   1  21
BRANCH   2  24
HETATM   24  C5  UNL     1      -3.240   0.237   1.751  1.00  0.00     0.200 C 
BRANCH  24  25
HETATM   25  O1  UNL     1      -3.870   1.398   1.395  1.00  0.00    -0.399 OA
ATOM     26  H1  UNL     1      -4.216   1.876   2.139  1.00  0.00     0.209 HD
ENDBRANCH  24  25
ENDBRANCH   2  24
TORSDOF 7
