REMARK  8 active torsions:
REMARK  status: ('A' for Active; 'I' for Inactive)
REMARK    1  A    between atoms: C2_2  and  C3_3 
REMARK    2  A    between atoms: C3_3  and  C4_4 
REMARK    3  A    between atoms: C4_4  and  C5_5 
REMARK    4  A    between atoms: C5_5  and  O2_7 
REMARK    5  A    between atoms: C8_10  and  C9_11 
REMARK    6  A    between atoms: C9_11  and  N1_12 
REMARK    7  A    between atoms: C12_18  and  C13_19 
REMARK    8  A    between atoms: C13_19  and  O3_20 
ROOT
HETATM    1  C4  UNL     1      -0.691   0.194  -0.035  1.00  0.00     0.122 C 
HETATM    2  C7  UNL     1      -1.190  -1.067  -0.669  1.00  0.00     0.034 A 
HETATM    3  C8  UNL     1      -2.134  -2.048  -0.343  1.00  0.00     0.023 A 
HETATM    4  C10 UNL     1      -0.941  -2.133   0.424  1.00  0.00     0.001 A 
HETATM    5  C11 UNL     1       0.472  -2.443   0.131  1.00  0.00     0.038 C 
HETATM    6  C12 UNL     1       1.243  -1.176   0.551  1.00  0.00     0.050 C 
HETATM    7  C14 UNL     1       2.618  -1.437  -0.042  1.00  0.00     0.033 C 
HETATM    8  C15 UNL     1       3.519  -0.258  -0.031  1.00  0.00     0.008 C 
HETATM    9  C16 UNL     1       2.769   0.843  -0.803  1.00  0.00    -0.001 C 
HETATM   10  C17 UNL     1       3.615   2.054  -0.993  1.00  0.00     0.011 C 
HETATM   11  C18 UNL     1       1.562   1.134   0.096  1.00  0.00     0.123 C 
HETATM   12  N2  UNL     1       0.672   0.052   0.197  1.00  0.00    -0.384 N 
ENDROOT
BRANCH   1  13
HETATM   13  C3  UNL     1      -1.567   0.629   1.088  1.00  0.00     0.041 C 
BRANCH  13  14
HETATM   14  C2  UNL     1      -1.294   2.021   1.589  1.00  0.00    -0.002 C 
HETATM   15  C1  UNL     1      -2.236   2.365   2.728  1.00  0.00     0.005 C 
ENDBRANCH  13  14
ENDBRANCH   1  13
BRANCH   1  16
HETATM   16  C5  UNL     1      -0.962   1.191  -1.127  1.00  0.00     0.287 C 
HETATM   17  O1  UNL     1      -0.097   1.539  -1.922  1.00  0.00    -0.262 OA
BRANCH  16  18
HETATM   18  O2  UNL     1      -2.221   1.765  -1.279  1.00  0.00    -0.325 OA
HETATM   19  C6  UNL     1      -2.484   2.697  -2.294  1.00  0.00     0.213 C 
ENDBRANCH  16  18
ENDBRANCH   1  16
BRANCH   3  20
HETATM   20  C9  UNL     1      -2.404  -3.173  -1.344  1.00  0.00     0.235 C 
BRANCH  20  21
HETATM   21  N1  UNL     1      -2.881  -2.520  -2.574  1.00  0.00    -0.079 N 
ATOM     22  H13 UNL     1      -3.683  -1.908  -2.424  1.00  0.00     0.274 HD
ATOM     23  H12 UNL     1      -2.245  -1.806  -2.928  1.00  0.00     0.274 HD
ATOM     24  H11 UNL     1      -3.061  -3.270  -3.241  1.00  0.00     0.274 HD
ENDBRANCH  20  21
ENDBRANCH   3  20
BRANCH   6  25
HETATM   25  C13 UNL     1       1.393  -1.297   2.041  1.00  0.00     0.195 C 
BRANCH  25  26
HETATM   26  O3  UNL     1       2.206  -0.391   2.661  1.00  0.00    -0.398 OA
ATOM     27  H3  UNL     1       2.301  -0.468   3.603  1.00  0.00     0.209 HD
ENDBRANCH  25  26
ENDBRANCH   6  25
TORSDOF 8
