REMARK  6 active torsions:
REMARK  status: ('A' for Active; 'I' for Inactive)
REMARK    1  A    between atoms: C4_4  and  C5_5 
REMARK    2  A    between atoms: C5_5  and  O1_6 
REMARK    3  A    between atoms: O1_6  and  C6_7 
REMARK    4  A    between atoms: C8_9  and  C9_10 
REMARK    5  A    between atoms: C10_13  and  O4_14 
REMARK    6  A    between atoms: C16_23  and  O7_24 
ROOT
HETATM    1  C6  UNL     1       0.702  -1.294  -0.880  1.00  0.00     0.179 C 
HETATM    2  C7  UNL     1       0.268  -2.285   0.103  1.00  0.00     0.024 C 
HETATM    3  C8  UNL     1      -0.960  -2.392   0.531  1.00  0.00     0.051 C 
HETATM    4  C10 UNL     1      -2.024  -1.503   0.047  1.00  0.00     0.223 C 
HETATM    5  C11 UNL     1      -1.499  -0.158  -0.452  1.00  0.00     0.224 C 
HETATM    6  O5  UNL     1      -0.905   0.527   0.565  1.00  0.00    -0.350 OA
HETATM    7  C12 UNL     1      -0.906   1.887   0.379  1.00  0.00     0.174 C 
HETATM    8  C13 UNL     1      -2.335   2.348   0.364  1.00  0.00     0.058 C 
HETATM    9  C14 UNL     1      -3.150   1.502  -0.584  1.00  0.00     0.123 C 
HETATM   10  C15 UNL     1      -4.478   1.179   0.064  1.00  0.00     0.040 C 
HETATM   11  O6  UNL     1      -2.509   0.439  -1.128  1.00  0.00    -0.345 OA
HETATM   12  C16 UNL     1      -0.425  -0.519  -1.479  1.00  0.00     0.216 C 
ENDROOT
BRANCH   1  13
HETATM   13  O1  UNL     1       1.711  -0.456  -0.378  1.00  0.00    -0.376 OA
BRANCH  13  14
HETATM   14  C5  UNL     1       2.863  -0.696  -1.056  1.00  0.00     0.196 C 
BRANCH  14  15
HETATM   15  C4  UNL     1       4.043   0.085  -0.670  1.00  0.00     0.001 C 
HETATM   16  C2  UNL     1       4.154   0.999   0.251  1.00  0.00    -0.089 C 
HETATM   17  C1  UNL     1       5.442   1.679   0.491  1.00  0.00     0.042 C 
HETATM   18  C3  UNL     1       2.990   1.374   1.076  1.00  0.00     0.042 C 
ENDBRANCH  14  15
ENDBRANCH  13  14
ENDBRANCH   1  13
BRANCH  12  19
HETATM   19  O7  UNL     1      -1.054  -1.365  -2.419  1.00  0.00    -0.387 OA
ATOM     20  H7  UNL     1      -1.771  -0.872  -2.800  1.00  0.00     0.210 HD
ENDBRANCH  12  19
BRANCH   3  21
HETATM   21  C9  UNL     1      -1.332  -3.420   1.528  1.00  0.00     0.207 C 
HETATM   22  O2  UNL     1      -0.449  -4.208   1.975  1.00  0.00    -0.644 OA
HETATM   23  O3  UNL     1      -2.640  -3.487   1.942  1.00  0.00    -0.644 OA
ENDBRANCH   3  21
BRANCH   4  24
HETATM   24  O4  UNL     1      -2.941  -1.313   1.085  1.00  0.00    -0.385 OA
ATOM     25  H4  UNL     1      -3.629  -0.738   0.772  1.00  0.00     0.210 HD
ENDBRANCH   4  24
TORSDOF 6
