REMARK  11 active torsions:
REMARK  status: ('A' for Active; 'I' for Inactive)
REMARK    1  A    between atoms: C2_2  and  N1_3 
REMARK    2  A    between atoms: C5_6  and  N2_7 
REMARK    3  A    between atoms: N2_7  and  N3_8 
REMARK    4  A    between atoms: N3_8  and  C6_10 
REMARK    5  A    between atoms: C6_10  and  O1_11 
REMARK    6  A    between atoms: C6_10  and  N4_13 
REMARK    7  A    between atoms: N4_13  and  C7_15 
REMARK    8  A    between atoms: C7_15  and  N5_17 
REMARK    9  A    between atoms: N5_17  and  C8_19 
REMARK   10  A    between atoms: C8_19  and  C9_20 
REMARK   11  A    between atoms: C12_23  and  O2_24 
ROOT
HETATM    1  N3  UNL     1      -0.444  -1.712   0.126  1.00  0.00    -0.198 N 
ATOM      2  H3  UNL     1      -0.423  -2.635   0.560  1.00  0.00     0.205 HD
ENDROOT
BRANCH   1   3
HETATM    3  N2  UNL     1      -1.623  -1.204  -0.210  1.00  0.00    -0.329 NA
BRANCH   3   4
HETATM    4  C5  UNL     1      -2.663  -0.771  -0.496  1.00  0.00     0.122 C 
HETATM    5  C4  UNL     1      -2.790   0.509  -1.313  1.00  0.00     0.093 C 
HETATM    6  C3  UNL     1      -3.220   1.507  -0.232  1.00  0.00     0.129 C 
HETATM    7  N1  UNL     1      -4.408   1.113   0.428  1.00  0.00    -0.390 N 
HETATM    8  C14 UNL     1      -4.576  -0.226   0.797  1.00  0.00     0.097 C 
HETATM    9  C12 UNL     1      -4.002  -1.280  -0.134  1.00  0.00     0.221 C 
BRANCH   7  10
HETATM   10  C2  UNL     1      -5.577   1.830  -0.014  1.00  0.00     0.117 C 
HETATM   11  C1  UNL     1      -5.391   3.282   0.440  1.00  0.00     0.026 C 
ENDBRANCH   7  10
BRANCH   9  12
HETATM   12  O2  UNL     1      -3.984  -2.521   0.438  1.00  0.00    -0.379 OA
HETATM   13  C13 UNL     1      -4.781  -3.347  -0.349  1.00  0.00     0.203 C 
ENDBRANCH   9  12
ENDBRANCH   3   4
ENDBRANCH   1   3
BRANCH   1  14
HETATM   14  C6  UNL     1       0.789  -1.042  -0.086  1.00  0.00     0.249 C 
BRANCH  14  15
HETATM   15  O1  UNL     1       0.672   0.145  -0.635  1.00  0.00    -0.331 OA
ATOM     16  H1  UNL     1       1.497   0.593  -0.777  1.00  0.00     0.221 HD
ENDBRANCH  14  15
BRANCH  14  17
HETATM   17  N4  UNL     1       2.100  -1.436   0.197  1.00  0.00    -0.297 N 
ATOM     18  H4  UNL     1       2.263  -2.346   0.627  1.00  0.00     0.172 HD
BRANCH  17  19
HETATM   19  C7  UNL     1       3.204  -0.607  -0.097  1.00  0.00     0.174 C 
HETATM   20  S1  UNL     1       2.856   0.871  -0.790  1.00  0.00    -0.041 SA
BRANCH  19  21
HETATM   21  N5  UNL     1       4.586  -0.927   0.123  1.00  0.00    -0.367 N 
ATOM     22  H5  UNL     1       4.903  -1.809   0.526  1.00  0.00     0.161 HD
BRANCH  21  23
HETATM   23  C8  UNL     1       5.474   0.123  -0.284  1.00  0.00     0.126 C 
BRANCH  23  24
HETATM   24  C9  UNL     1       6.919  -0.044  -0.265  1.00  0.00    -0.005 C 
HETATM   25  C10 UNL     1       7.482   1.315  -0.817  1.00  0.00     0.011 C 
HETATM   26  C11 UNL     1       7.589  -0.237   1.054  1.00  0.00     0.011 C 
ENDBRANCH  23  24
ENDBRANCH  21  23
ENDBRANCH  19  21
ENDBRANCH  17  19
ENDBRANCH  14  17
ENDBRANCH   1  14
TORSDOF 11
