REMARK  6 active torsions:
REMARK  status: ('A' for Active; 'I' for Inactive)
REMARK       I    between atoms: C1_4  and  N3_6 
REMARK    1  A    between atoms: C5_10  and  C6_11 
REMARK       I    between atoms: C6_11  and  N4_13 
REMARK    2  A    between atoms: N4_13  and  C7_15 
REMARK    3  A    between atoms: C7_15  and  C8_16 
REMARK    4  A    between atoms: C7_15  and  C9_19 
REMARK    5  A    between atoms: C9_19  and  N6_21 
REMARK    6  A    between atoms: N6_21  and  C10_23 
ROOT
HETATM    1  C6  UNL     1      -1.555  -0.486   0.505  1.00  0.00     0.224 C 
HETATM    2  O1  UNL     1      -1.429  -0.878   1.693  1.00  0.00    -0.273 OA
HETATM    3  N4  UNL     1      -0.457  -0.580  -0.384  1.00  0.00    -0.342 N 
ATOM      4  H4  UNL     1      -0.557  -0.262  -1.348  1.00  0.00     0.163 HD
ENDROOT
BRANCH   3   5
HETATM    5  C7  UNL     1       0.810  -1.125   0.067  1.00  0.00     0.235 C 
BRANCH   5   6
HETATM    6  C8  UNL     1       1.079  -2.406  -0.654  1.00  0.00     0.260 C 
HETATM    7  N5  UNL     1       2.233  -3.179  -0.424  1.00  0.00    -0.060 NA
HETATM    8  O2  UNL     1       0.193  -2.769  -1.502  1.00  0.00    -0.274 OA
ENDBRANCH   5   6
BRANCH   5   9
HETATM    9  C9  UNL     1       1.920  -0.172  -0.148  1.00  0.00     0.105 C 
HETATM   10  S1  UNL     1       1.635   1.205  -0.967  1.00  0.00    -0.063 SA
BRANCH   9  11
HETATM   11  N6  UNL     1       3.199  -0.435   0.339  1.00  0.00    -0.378 N 
ATOM     12  H6  UNL     1       3.345  -1.304   0.852  1.00  0.00     0.160 HD
BRANCH  11  13
HETATM   13  C10 UNL     1       4.335   0.449   0.163  1.00  0.00     0.086 C 
HETATM   14  C11 UNL     1       4.686   0.704  -1.260  1.00  0.00     0.051 C 
HETATM   15  C12 UNL     1       6.196   0.928  -1.337  1.00  0.00     0.169 C 
HETATM   16  O3  UNL     1       6.596   1.754  -0.262  1.00  0.00    -0.391 OA
HETATM   17  C13 UNL     1       6.575   1.053   0.930  1.00  0.00     0.169 C 
HETATM   18  C14 UNL     1       5.551  -0.065   0.892  1.00  0.00     0.051 C 
ENDBRANCH  11  13
ENDBRANCH   9  11
ENDBRANCH   5   9
ENDBRANCH   3   5
BRANCH   1  19
HETATM   19  C5  UNL     1      -2.867   0.061   0.095  1.00  0.00     0.096 C 
HETATM   20  C4  UNL     1      -2.761   1.489  -0.376  1.00  0.00     0.017 C 
HETATM   21  C3  UNL     1      -4.065   2.219  -0.356  1.00  0.00     0.021 C 
HETATM   22  C2  UNL     1      -5.263   1.308  -0.328  1.00  0.00     0.125 C 
HETATM   23  N3  UNL     1      -5.183   0.266   0.641  1.00  0.00    -0.355 N 
HETATM   24  C1  UNL     1      -6.358  -0.394   1.077  1.00  0.00     0.183 C 
HETATM   25  C15 UNL     1      -3.898  -0.117   1.177  1.00  0.00     0.139 C 
HETATM   26  N1  UNL     1      -6.811  -0.182   2.264  1.00  0.00    -0.374 N 
HETATM   27  N2  UNL     1      -7.052  -1.291   0.228  1.00  0.00    -0.064 NA
ATOM     28  H12 UNL     1      -7.657  -0.657   2.578  1.00  0.00     0.158 HD
ATOM     29  H11 UNL     1      -6.311   0.464   2.875  1.00  0.00     0.158 HD
ENDBRANCH   1  19
TORSDOF 6
