REMARK  5 active torsions:
REMARK  status: ('A' for Active; 'I' for Inactive)
REMARK    1  A    between atoms: C1_2  and  C2_4 
REMARK       I    between atoms: N2_8  and  C6_9 
REMARK       I    between atoms: C6_9  and  N3_11 
REMARK    2  A    between atoms: N3_11  and  C7_13 
REMARK    3  A    between atoms: C7_13  and  C8_14 
REMARK    4  A    between atoms: C12_20  and  C13_21 
REMARK    5  A    between atoms: C12_20  and  C14_24 
ROOT
HETATM    1  C7  UNL     1      -0.762  -0.868   0.634  1.00  0.00     0.114 C 
HETATM    2  C9  UNL     1      -1.305  -1.804  -0.378  1.00  0.00     0.041 C 
HETATM    3  C10 UNL     1      -2.809  -1.770  -0.488  1.00  0.00     0.005 C 
HETATM    4  C11 UNL     1      -3.369  -0.399  -0.542  1.00  0.00     0.030 C 
HETATM    5  C12 UNL     1      -2.859   0.587   0.451  1.00  0.00     0.129 C 
HETATM    6  C15 UNL     1      -1.413   0.462   0.751  1.00  0.00     0.070 C 
ENDROOT
BRANCH   1   7
HETATM    7  N3  UNL     1       0.652  -0.606   0.323  1.00  0.00    -0.325 N 
HETATM    8  C6  UNL     1       1.116  -0.001  -0.865  1.00  0.00     0.320 C 
HETATM    9  N2  UNL     1       2.504   0.213  -1.073  1.00  0.00    -0.321 N 
HETATM   10  O2  UNL     1       0.353   0.378  -1.795  1.00  0.00    -0.247 OA
HETATM   11  C2  UNL     1       3.609  -0.133  -0.178  1.00  0.00     0.178 C 
HETATM   12  C5  UNL     1       3.094   0.820  -2.234  1.00  0.00     0.129 C 
HETATM   13  C3  UNL     1       4.809  -0.299  -1.067  1.00  0.00     0.036 C 
HETATM   14  C4  UNL     1       4.294  -0.069  -2.452  1.00  0.00     0.022 C 
ATOM     15  H3  UNL     1       1.348  -0.882   1.016  1.00  0.00     0.165 HD
BRANCH  11  16
HETATM   16  C1  UNL     1       3.881   0.989   0.758  1.00  0.00     0.254 C 
HETATM   17  N1  UNL     1       3.160   2.208   0.739  1.00  0.00    -0.060 NA
HETATM   18  O1  UNL     1       4.792   0.851   1.605  1.00  0.00    -0.275 OA
ENDBRANCH  11  16
ENDBRANCH   1   7
BRANCH   1  19
HETATM   19  C8  UNL     1      -0.725  -1.587   1.947  1.00  0.00     0.259 C 
HETATM   20  N4  UNL     1      -1.712  -2.529   2.268  1.00  0.00    -0.060 NA
HETATM   21  O3  UNL     1       0.194  -1.339   2.743  1.00  0.00    -0.274 OA
ENDBRANCH   1  19
BRANCH   5  22
HETATM   22  C13 UNL     1      -3.072   1.954  -0.168  1.00  0.00     0.250 C 
HETATM   23  N5  UNL     1      -2.520   2.316  -1.415  1.00  0.00    -0.061 NA
HETATM   24  O4  UNL     1      -3.756   2.806   0.427  1.00  0.00    -0.275 OA
ENDBRANCH   5  22
BRANCH   5  25
HETATM   25  C14 UNL     1      -3.708   0.600   1.676  1.00  0.00     0.191 C 
HETATM   26  O5  UNL     1      -3.233   0.505   2.806  1.00  0.00    -0.647 OA
HETATM   27  O6  UNL     1      -5.069   0.727   1.505  1.00  0.00    -0.647 OA
ENDBRANCH   5  25
TORSDOF 5
