REMARK  4 active torsions:
REMARK  status: ('A' for Active; 'I' for Inactive)
REMARK    1  A    between atoms: O1_2  and  C2_3 
REMARK    2  A    between atoms: C2_3  and  C3_5 
REMARK    3  A    between atoms: C17_22  and  O6_23 
REMARK    4  A    between atoms: O6_23  and  C18_24 
ROOT
HETATM    1  C3  UNL     1      -0.336   2.220  -0.979  1.00  0.00     0.018 C 
HETATM    2  C4  UNL     1      -1.794   2.473  -1.381  1.00  0.00     0.055 C 
HETATM    3  C5  UNL     1       0.114   0.998  -0.947  1.00  0.00    -0.037 C 
HETATM    4  C6  UNL     1       1.494   0.653  -0.570  1.00  0.00     0.038 C 
HETATM    5  C7  UNL     1       1.721   0.423   0.899  1.00  0.00     0.013 C 
HETATM    6  C8  UNL     1       2.516  -0.858   1.189  1.00  0.00    -0.047 C 
HETATM    7  C9  UNL     1       3.585  -1.081   0.180  1.00  0.00     0.015 C 
HETATM    8  C10 UNL     1       3.278  -0.541   2.505  1.00  0.00     0.015 C 
HETATM    9  C11 UNL     1       1.623  -2.035   1.462  1.00  0.00     0.018 C 
HETATM   10  C12 UNL     1       1.555  -3.067   0.394  1.00  0.00     0.112 C 
HETATM   11  C13 UNL     1       0.195  -3.724   0.346  1.00  0.00     0.261 C 
HETATM   12  O3  UNL     1       0.201  -4.974   0.435  1.00  0.00    -0.265 OA
HETATM   13  O4  UNL     1      -0.873  -2.895   0.214  1.00  0.00    -0.281 OA
HETATM   14  C14 UNL     1      -1.187  -1.997  -0.778  1.00  0.00     0.199 C 
HETATM   15  C15 UNL     1      -2.068  -2.499  -1.906  1.00  0.00     0.082 C 
HETATM   16  O5  UNL     1      -0.119  -1.286  -1.331  1.00  0.00    -0.340 OA
HETATM   17  C16 UNL     1      -0.873  -0.078  -1.359  1.00  0.00     0.190 C 
HETATM   18  C17 UNL     1      -1.674  -0.629  -0.242  1.00  0.00     0.227 C 
ENDROOT
BRANCH   1  19
HETATM   19  C2  UNL     1       0.468   3.373  -0.651  1.00  0.00     0.288 C 
HETATM   20  O2  UNL     1       1.654   3.331  -0.315  1.00  0.00    -0.260 OA
BRANCH  19  21
HETATM   21  O1  UNL     1      -0.105   4.666  -0.704  1.00  0.00    -0.323 OA
HETATM   22  C1  UNL     1       0.677   5.813  -0.383  1.00  0.00     0.213 C 
ENDBRANCH  19  21
ENDBRANCH   1  19
BRANCH  18  23
HETATM   23  O6  UNL     1      -3.077  -0.642  -0.345  1.00  0.00    -0.308 OA
BRANCH  23  24
HETATM   24  C18 UNL     1      -3.882  -0.438   0.759  1.00  0.00     0.255 C 
HETATM   25  C19 UNL     1      -5.350  -0.468   0.559  1.00  0.00     0.126 C 
HETATM   26  O7  UNL     1      -3.305  -0.243   1.854  1.00  0.00    -0.266 OA
ENDBRANCH  23  24
ENDBRANCH  18  23
TORSDOF 4
