REMARK  4 active torsions:
REMARK  status: ('A' for Active; 'I' for Inactive)
REMARK    1  A    between atoms: O1_2  and  C2_3 
REMARK    2  A    between atoms: C2_3  and  C3_5 
REMARK    3  A    between atoms: C19_24  and  O6_25 
REMARK    4  A    between atoms: C19_24  and  O7_27 
ROOT
HETATM    1  C3  UNL     1       2.843   0.732   1.063  1.00  0.00     0.206 C 
HETATM    2  C4  UNL     1       2.737   1.002   2.554  1.00  0.00     0.066 C 
HETATM    3  O3  UNL     1       3.873  -0.099   0.749  1.00  0.00    -0.213 OA
HETATM    4  O4  UNL     1       3.443  -1.294   0.466  1.00  0.00    -0.223 OA
HETATM    5  C5  UNL     1       2.207  -1.137  -0.167  1.00  0.00     0.122 C 
HETATM    6  C6  UNL     1       2.588  -0.797  -1.623  1.00  0.00     0.055 C 
HETATM    7  C7  UNL     1       1.664   0.004   0.539  1.00  0.00     0.002 C 
HETATM    8  C8  UNL     1       0.387   0.338   0.686  1.00  0.00     0.006 C 
HETATM    9  C9  UNL     1      -0.873  -0.258   0.244  1.00  0.00     0.082 C 
HETATM   10  C10 UNL     1      -0.837  -1.711  -0.036  1.00  0.00     0.028 C 
HETATM   11  C11 UNL     1       0.304  -2.383   0.718  1.00  0.00     0.009 C 
HETATM   12  C12 UNL     1       1.486  -2.409  -0.200  1.00  0.00     0.023 C 
HETATM   13  C13 UNL     1       1.130  -2.924  -1.578  1.00  0.00     0.013 C 
HETATM   14  C14 UNL     1      -1.719   0.519  -0.650  1.00  0.00     0.074 C 
HETATM   15  C15 UNL     1      -2.108   0.673  -1.895  1.00  0.00    -0.056 C 
HETATM   16  C16 UNL     1      -1.599  -0.189  -2.990  1.00  0.00     0.045 C 
HETATM   17  C17 UNL     1      -3.096   1.729  -2.316  1.00  0.00     0.045 C 
HETATM   18  O5  UNL     1      -2.105   1.252   0.496  1.00  0.00    -0.311 OA
HETATM   19  C18 UNL     1      -2.010   0.051   1.186  1.00  0.00     0.130 C 
HETATM   20  C19 UNL     1      -2.645  -0.485   2.176  1.00  0.00     0.210 C 
ENDROOT
BRANCH  20  21
HETATM   21  O6  UNL     1      -2.295  -1.736   2.642  1.00  0.00    -0.339 OA
ATOM     22  H6  UNL     1      -2.762  -2.130   3.370  1.00  0.00     0.220 HD
ENDBRANCH  20  21
BRANCH  20  23
HETATM   23  O7  UNL     1      -3.685   0.179   2.788  1.00  0.00    -0.334 OA
HETATM   24  C20 UNL     1      -5.043   0.047   2.416  1.00  0.00     0.212 C 
ENDBRANCH  20  23
BRANCH   1  25
HETATM   25  C2  UNL     1       3.032   2.059   0.446  1.00  0.00     0.301 C 
HETATM   26  O2  UNL     1       4.065   2.255  -0.238  1.00  0.00    -0.261 OA
BRANCH  25  27
HETATM   27  O1  UNL     1       2.138   3.104   0.576  1.00  0.00    -0.324 OA
HETATM   28  C1  UNL     1       2.400   4.347  -0.052  1.00  0.00     0.213 C 
ENDBRANCH  25  27
ENDBRANCH   1  25
TORSDOF 4
