REMARK  1 active torsions:
REMARK  status: ('A' for Active; 'I' for Inactive)
REMARK    1  A    between atoms: O1_2  and  C2_3 
ROOT
HETATM    1  C2  UNL     1       3.388   0.400   0.879  1.00  0.00     0.131 C 
HETATM    2  C3  UNL     1       2.875   0.911   2.190  1.00  0.00     0.035 C 
HETATM    3  C4  UNL     1       2.117   2.154   1.723  1.00  0.00     0.035 C 
HETATM    4  C5  UNL     1       1.572   1.758   0.339  1.00  0.00     0.135 C 
HETATM    5  O2  UNL     1       0.226   1.823   0.432  1.00  0.00    -0.349 OA
HETATM    6  C6  UNL     1      -0.543   1.697  -0.673  1.00  0.00     0.340 C 
HETATM    7  O3  UNL     1      -1.247   2.917  -0.820  1.00  0.00    -0.202 OA
HETATM    8  O4  UNL     1      -2.364   2.672  -1.403  1.00  0.00    -0.202 OA
HETATM    9  C7  UNL     1      -2.825   1.433  -1.071  1.00  0.00     0.343 C 
HETATM   10  O5  UNL     1      -3.895   1.431  -0.176  1.00  0.00    -0.317 OA
HETATM   11  C8  UNL     1      -3.889   0.134   0.390  1.00  0.00     0.196 C 
HETATM   12  C9  UNL     1      -5.192   0.048   1.201  1.00  0.00     0.082 C 
HETATM   13  C10 UNL     1      -3.994  -0.853  -0.713  1.00  0.00     0.071 C 
HETATM   14  C11 UNL     1      -2.757  -1.234  -1.406  1.00  0.00     0.014 C 
HETATM   15  C12 UNL     1      -1.481  -0.631  -0.899  1.00  0.00     0.038 C 
HETATM   16  C13 UNL     1      -0.823  -1.597   0.005  1.00  0.00    -0.011 C 
HETATM   17  C14 UNL     1      -0.360  -2.787  -0.850  1.00  0.00     0.010 C 
HETATM   18  C15 UNL     1       0.434  -1.092   0.702  1.00  0.00     0.005 C 
HETATM   19  C16 UNL     1       1.520  -0.730  -0.213  1.00  0.00     0.014 C 
HETATM   20  C17 UNL     1       2.229   0.548  -0.092  1.00  0.00     0.008 C 
HETATM   21  C18 UNL     1       2.927   0.786  -1.448  1.00  0.00     0.020 C 
HETATM   22  C19 UNL     1      -1.675   0.745  -0.351  1.00  0.00     0.204 C 
HETATM   23  O6  UNL     1      -1.917   0.799   1.001  1.00  0.00    -0.215 OA
HETATM   24  O7  UNL     1      -2.868  -0.061   1.274  1.00  0.00    -0.200 OA
ENDROOT
BRANCH   1  25
HETATM   25  O1  UNL     1       3.881  -0.882   0.939  1.00  0.00    -0.390 OA
HETATM   26  C1  UNL     1       5.250  -0.932   0.599  1.00  0.00     0.202 C 
ENDBRANCH   1  25
TORSDOF 1
