REMARK  7 active torsions:
REMARK  status: ('A' for Active; 'I' for Inactive)
REMARK    1  A    between atoms: O1_2  and  C2_3 
REMARK       I    between atoms: C2_3  and  N1_5 
REMARK    2  A    between atoms: N1_5  and  C3_6 
REMARK    3  A    between atoms: N1_5  and  C13_21 
REMARK    4  A    between atoms: C3_6  and  S2_8 
REMARK    5  A    between atoms: S2_8  and  C4_9 
REMARK    6  A    between atoms: C10_16  and  O3_17 
REMARK    7  A    between atoms: O3_17  and  C11_18 
ROOT
HETATM    1  C4  UNL     1       1.794  -0.063  -0.874  1.00  0.00     0.118 C 
HETATM    2  C5  UNL     1       2.217  -1.474  -0.595  1.00  0.00     0.007 C 
HETATM    3  C6  UNL     1       3.220  -1.878  -1.648  1.00  0.00     0.036 C 
HETATM    4  C7  UNL     1       4.116  -0.687  -1.912  1.00  0.00     0.276 C 
HETATM    5  N2  UNL     1       4.216   0.069  -0.658  1.00  0.00     0.118 N 
HETATM    6  C8  UNL     1       4.312  -0.860   0.477  1.00  0.00     0.276 C 
HETATM    7  C9  UNL     1       2.962  -1.493   0.737  1.00  0.00     0.036 C 
HETATM    8  C10 UNL     1       2.959   0.832  -0.564  1.00  0.00     0.381 C 
ENDROOT
BRANCH   1   9
HETATM    9  S2  UNL     1       0.287   0.447  -0.057  1.00  0.00    -0.090 SA
BRANCH   9  10
HETATM   10  C3  UNL     1      -1.158  -0.450  -0.701  1.00  0.00     0.146 C 
HETATM   11  S1  UNL     1      -0.811  -1.508  -1.888  1.00  0.00    -0.052 SA
BRANCH  10  12
HETATM   12  N1  UNL     1      -2.433  -0.220  -0.199  1.00  0.00    -0.270 N 
HETATM   13  C2  UNL     1      -2.515   0.777   0.878  1.00  0.00     0.368 C 
HETATM   14  O2  UNL     1      -1.534   1.380   1.328  1.00  0.00    -0.238 OA
BRANCH  13  15
HETATM   15  O1  UNL     1      -3.739   1.057   1.414  1.00  0.00    -0.309 OA
HETATM   16  C1  UNL     1      -3.951   1.991   2.448  1.00  0.00     0.215 C 
ENDBRANCH  13  15
BRANCH  12  17
HETATM   17  C13 UNL     1      -3.653  -0.844  -0.608  1.00  0.00     0.033 C 
HETATM   18  C14 UNL     1      -4.269  -1.619   0.582  1.00  0.00     0.038 C 
HETATM   19  C15 UNL     1      -4.719   0.225  -0.919  1.00  0.00     0.038 C 
HETATM   20  C16 UNL     1      -3.535  -1.818  -1.703  1.00  0.00     0.038 C 
ENDBRANCH  12  17
ENDBRANCH  10  12
ENDBRANCH   9  10
ENDBRANCH   1   9
BRANCH   8  21
HETATM   21  O3  UNL     1       2.916   1.374   0.736  1.00  0.00    -0.284 OA
BRANCH  21  22
HETATM   22  C11 UNL     1       3.019   2.758   0.884  1.00  0.00     0.256 C 
HETATM   23  C12 UNL     1       2.984   3.422   2.211  1.00  0.00     0.126 C 
HETATM   24  O4  UNL     1       3.146   3.463  -0.145  1.00  0.00    -0.266 OA
ENDBRANCH  21  22
ENDBRANCH   8  21
TORSDOF 7
