REMARK  4 active torsions:
REMARK  status: ('A' for Active; 'I' for Inactive)
REMARK    1  A    between atoms: C4_6  and  O1_7 
REMARK    2  A    between atoms: C5_9  and  N2_10 
REMARK    3  A    between atoms: N2_10  and  C6_12 
REMARK    4  A    between atoms: C6_12  and  C7_16 
ROOT
HETATM    1  N2  UNL     1       0.608  -0.707   0.508  1.00  0.00    -0.341 N 
ATOM      2  H2  UNL     1       0.355  -1.070   1.427  1.00  0.00     0.167 HD
ENDROOT
BRANCH   1   3
HETATM    3  C5  UNL     1       2.005  -0.596   0.155  1.00  0.00     0.107 A 
HETATM    4  C4  UNL     1       2.632  -1.654  -0.456  1.00  0.00     0.169 A 
HETATM    5  N1  UNL     1       3.929  -1.549  -0.782  1.00  0.00    -0.345 N 
HETATM    6  C3  UNL     1       4.684  -0.466  -0.555  1.00  0.00     0.098 A 
ATOM      7  H1  UNL     1       4.371  -2.349  -1.234  1.00  0.00     0.167 HD
HETATM    8  C2  UNL     1       4.043   0.590   0.059  1.00  0.00    -0.022 A 
HETATM    9  C1  UNL     1       4.800   1.835   0.352  1.00  0.00     0.051 C 
HETATM   10  C13 UNL     1       2.717   0.544   0.418  1.00  0.00     0.072 A 
HETATM   11 CL1  UNL     1       1.924   1.901   1.199  1.00  0.00    -0.081 Cl
BRANCH   4  12
HETATM   12  O1  UNL     1       1.921  -2.842  -0.739  1.00  0.00    -0.344 OA
ATOM     13  H1  UNL     1       1.002  -2.916  -0.508  1.00  0.00     0.219 HD
ENDBRANCH   4  12
ENDBRANCH   1   3
BRANCH   1  14
HETATM   14  C6  UNL     1      -0.422  -0.323  -0.392  1.00  0.00     0.079 C 
HETATM   15  N3  UNL     1      -0.165   0.435  -1.393  1.00  0.00    -0.389 N 
ATOM     16  H32 UNL     1       0.774   0.786  -1.580  1.00  0.00     0.157 HD
ATOM     17  H31 UNL     1      -0.905   0.711  -2.039  1.00  0.00     0.157 HD
BRANCH  14  18
HETATM   18  C7  UNL     1      -1.789  -0.834  -0.120  1.00  0.00     0.053 C 
HETATM   19  C8  UNL     1      -2.214  -0.348   1.228  1.00  0.00     0.012 C 
HETATM   20  C9  UNL     1      -3.728  -0.142   1.288  1.00  0.00     0.001 C 
HETATM   21  C10 UNL     1      -4.052   1.005   0.380  1.00  0.00     0.000 C 
HETATM   22  C11 UNL     1      -3.382   0.909  -0.963  1.00  0.00     0.001 C 
HETATM   23  C12 UNL     1      -2.770  -0.453  -1.196  1.00  0.00     0.012 C 
ENDBRANCH  14  18
ENDBRANCH   1  14
TORSDOF 4
