REMARK  4 active torsions:
REMARK  status: ('A' for Active; 'I' for Inactive)
REMARK    1  A    between atoms: C4_7  and  C5_8 
REMARK    2  A    between atoms: C5_8  and  C6_13 
REMARK    3  A    between atoms: N2_9  and  O1_11 
REMARK    4  A    between atoms: C12_19  and  O2_20 
ROOT
HETATM    1  C5  UNL     1       0.250  -0.802   0.772  1.00  0.00     0.052 C 
HETATM    2  N2  UNL     1       0.073  -1.898   1.417  1.00  0.00    -0.272 N 
ATOM      3  H2  UNL     1       0.932  -2.400   1.641  1.00  0.00     0.194 HD
ENDROOT
BRANCH   1   4
HETATM    4  C4  UNL     1       1.636  -0.463   0.470  1.00  0.00     0.062 A 
HETATM    5  C3  UNL     1       2.735  -1.260   0.809  1.00  0.00     0.119 A 
HETATM    6  N1  UNL     1       3.877  -0.680   0.446  1.00  0.00    -0.347 N 
HETATM    7 CL1  UNL     1       2.668  -2.817   1.603  1.00  0.00    -0.063 Cl
HETATM    8  C2  UNL     1       3.551   0.475  -0.120  1.00  0.00     0.041 A 
ATOM      9  H1  UNL     1       4.818  -1.051   0.577  1.00  0.00     0.167 HD
HETATM   10  C1  UNL     1       4.488   1.497  -0.696  1.00  0.00     0.071 C 
HETATM   11  C12 UNL     1       2.159   0.650  -0.125  1.00  0.00     0.103 A 
BRANCH  11  12
HETATM   12  O2  UNL     1       1.602   1.757  -0.648  1.00  0.00    -0.358 OA
ATOM     13  H2  UNL     1       0.659   1.875  -0.651  1.00  0.00     0.217 HD
ENDBRANCH  11  12
ENDBRANCH   1   4
BRANCH   1  14
HETATM   14  C6  UNL     1      -0.924  -0.058   0.330  1.00  0.00     0.038 C 
HETATM   15  C7  UNL     1      -1.154  -0.215  -1.160  1.00  0.00     0.011 C 
HETATM   16  C8  UNL     1      -2.640  -0.281  -1.499  1.00  0.00     0.001 C 
HETATM   17  C9  UNL     1      -3.314   0.843  -0.762  1.00  0.00     0.000 C 
HETATM   18  C10 UNL     1      -3.175   0.766   0.719  1.00  0.00     0.001 C 
HETATM   19  C11 UNL     1      -2.213  -0.405   1.043  1.00  0.00     0.011 C 
ENDBRANCH   1  14
BRANCH   2  20
HETATM   20  O1  UNL     1      -1.039  -2.491   1.843  1.00  0.00    -0.290 OA
ATOM     21  H1  UNL     1      -1.170  -3.302   2.320  1.00  0.00     0.244 HD
ENDBRANCH   2  20
TORSDOF 4
