REMARK  4 active torsions:
REMARK  status: ('A' for Active; 'I' for Inactive)
REMARK    1  A    between atoms: C8_8  and  N1_9 
REMARK    2  A    between atoms: C11_13  and  C12_14 
REMARK    3  A    between atoms: C12_14  and  N2_15 
REMARK    4  A    between atoms: C12_14  and  O1_19 
ROOT
HETATM    1  N1  UNL     1       1.231  -0.509   0.267  1.00  0.00    -0.359 N 
HETATM    2  C9  UNL     1       2.044  -1.581   0.309  1.00  0.00     0.115 A 
HETATM    3  C10 UNL     1       3.349  -1.133   0.329  1.00  0.00     0.061 A 
HETATM    4 CL1  UNL     1       4.784  -2.113   0.383  1.00  0.00    -0.082 Cl
HETATM    5  C11 UNL     1       3.322   0.240   0.299  1.00  0.00     0.036 A 
HETATM    6  C13 UNL     1       1.995   0.598   0.261  1.00  0.00     0.104 A 
ENDROOT
BRANCH   1   7
HETATM    7  C8  UNL     1      -0.217  -0.616   0.236  1.00  0.00     0.089 C 
HETATM    8  C7  UNL     1      -0.594  -1.549  -0.864  1.00  0.00     0.026 C 
HETATM    9  C6  UNL     1      -1.859  -2.263  -0.479  1.00  0.00     0.002 C 
HETATM   10  C5  UNL     1      -3.098  -1.467  -0.673  1.00  0.00     0.001 C 
HETATM   11  C4  UNL     1      -2.868  -0.036  -1.059  1.00  0.00     0.009 C 
HETATM   12  C2  UNL     1      -2.275   0.800   0.034  1.00  0.00    -0.046 C 
HETATM   13  C1  UNL     1      -2.673   2.253  -0.262  1.00  0.00     0.015 C 
HETATM   14  C3  UNL     1      -2.873   0.496   1.395  1.00  0.00     0.015 C 
HETATM   15  C14 UNL     1      -0.770   0.775   0.061  1.00  0.00     0.034 C 
ENDBRANCH   1   7
BRANCH   5  16
HETATM   16  C12 UNL     1       4.454   1.183   0.305  1.00  0.00     0.353 C 
BRANCH  16  17
HETATM   17  N2  UNL     1       5.506   0.792  -0.607  1.00  0.00    -0.049 N 
ATOM     18  H23 UNL     1       5.820  -0.160  -0.418  1.00  0.00     0.277 HD
ATOM     19  H22 UNL     1       5.143   0.661  -1.551  1.00  0.00     0.277 HD
ATOM     20  H21 UNL     1       6.290   1.445  -0.603  1.00  0.00     0.277 HD
ENDBRANCH  16  17
BRANCH  16  21
HETATM   21  O1  UNL     1       4.054   2.463  -0.050  1.00  0.00    -0.366 OA
ATOM     22  H1  UNL     1       4.784   3.071  -0.046  1.00  0.00     0.212 HD
ENDBRANCH  16  21
ENDBRANCH   5  16
TORSDOF 4
