REMARK  5 active torsions:
REMARK  status: ('A' for Active; 'I' for Inactive)
REMARK    1  A    between atoms: C4_4  and  N1_5 
REMARK    2  A    between atoms: N1_5  and  C5_7 
REMARK    3  A    between atoms: C5_7  and  S1_11 
REMARK    4  A    between atoms: S1_11  and  C6_12 
REMARK    5  A    between atoms: C12_19  and  O1_20 
ROOT
HETATM    1  C1  UNL     1      -2.657  -2.429  -0.077  1.00  0.00     0.051 C 
HETATM    2  C2  UNL     1      -2.499  -0.967  -0.079  1.00  0.00    -0.026 A 
HETATM    3  C3  UNL     1      -1.235  -0.440   0.138  1.00  0.00     0.042 A 
HETATM    4  C4  UNL     1      -0.994   0.918   0.153  1.00  0.00     0.074 A 
HETATM    5  C9  UNL     1      -2.070   1.746  -0.058  1.00  0.00     0.151 A 
HETATM    6  F1  UNL     1      -1.874   3.071  -0.050  1.00  0.00    -0.203 F 
HETATM    7  C10 UNL     1      -3.353   1.274  -0.279  1.00  0.00     0.013 A 
HETATM    8  C11 UNL     1      -4.505   2.192  -0.506  1.00  0.00     0.054 C 
HETATM    9  C12 UNL     1      -3.549  -0.090  -0.286  1.00  0.00     0.080 A 
ENDROOT
BRANCH   4  10
HETATM   10  N1  UNL     1       0.314   1.444   0.377  1.00  0.00    -0.335 N 
ATOM     11  H1  UNL     1       0.453   2.455   0.380  1.00  0.00     0.168 HD
BRANCH  10  12
HETATM   12  C5  UNL     1       1.415   0.596   0.593  1.00  0.00     0.138 C 
HETATM   13  N2  UNL     1       1.519  -0.061   1.675  1.00  0.00    -0.380 N 
ATOM     14  H22 UNL     1       0.808   0.019   2.402  1.00  0.00     0.158 HD
ATOM     15  H21 UNL     1       2.318  -0.676   1.832  1.00  0.00     0.158 HD
BRANCH  12  16
HETATM   16  S1  UNL     1       2.647   0.458  -0.665  1.00  0.00    -0.090 SA
BRANCH  16  17
HETATM   17  C6  UNL     1       3.971  -0.670  -0.146  1.00  0.00     0.047 C 
HETATM   18  C7  UNL     1       4.746  -0.082   1.014  1.00  0.00     0.021 C 
HETATM   19  C8  UNL     1       4.859  -1.019  -1.297  1.00  0.00     0.021 C 
ENDBRANCH  16  17
ENDBRANCH  12  16
ENDBRANCH  10  12
ENDBRANCH   4  10
BRANCH   9  20
HETATM   20  O1  UNL     1      -4.808  -0.605  -0.501  1.00  0.00    -0.360 OA
ATOM     21  H1  UNL     1      -5.529  -0.003  -0.643  1.00  0.00     0.217 HD
ENDBRANCH   9  20
TORSDOF 5
