REMARK  4 active torsions:
REMARK  status: ('A' for Active; 'I' for Inactive)
REMARK    1  A    between atoms: C1_4  and  N2_5 
REMARK    2  A    between atoms: C1_4  and  S1_15 
REMARK    3  A    between atoms: N2_5  and  C2_7 
REMARK    4  A    between atoms: S1_15  and  C8_16 
ROOT
HETATM    1  N1  UNL     1      -0.556   1.908  -0.217  1.00  0.00    -0.380 N 
ATOM      2  H11 UNL     1      -1.501   1.684   0.096  1.00  0.00     0.158 HD
ATOM      3  H12 UNL     1      -0.226   2.859  -0.054  1.00  0.00     0.158 HD
HETATM    4  C1  UNL     1       0.140   1.001  -0.779  1.00  0.00     0.138 C 
ENDROOT
BRANCH   4   5
HETATM    5  N2  UNL     1       1.452   1.312  -1.213  1.00  0.00    -0.337 N 
ATOM      6  H2  UNL     1       1.567   1.990  -1.966  1.00  0.00     0.168 HD
BRANCH   5   7
HETATM    7  C2  UNL     1       2.613   0.724  -0.649  1.00  0.00     0.037 A 
HETATM    8  C3  UNL     1       3.884   1.036  -1.079  1.00  0.00     0.031 A 
HETATM    9  C4  UNL     1       5.004   0.460  -0.527  1.00  0.00     0.032 A 
HETATM   10  C5  UNL     1       4.898  -0.456   0.485  1.00  0.00     0.085 A 
HETATM   11  N3  UNL     1       6.062  -1.064   1.069  1.00  0.00    -0.099 NA
HETATM   12  C6  UNL     1       3.631  -0.782   0.930  1.00  0.00     0.142 A 
HETATM   13  F1  UNL     1       3.517  -1.688   1.931  1.00  0.00    -0.204 F 
HETATM   14  C7  UNL     1       2.507  -0.207   0.378  1.00  0.00     0.073 A 
ENDBRANCH   5   7
ENDBRANCH   4   5
BRANCH   4  15
HETATM   15  S1  UNL     1      -0.436  -0.660  -1.063  1.00  0.00    -0.089 SA
BRANCH  15  16
HETATM   16  C8  UNL     1      -2.113  -0.907  -0.463  1.00  0.00     0.055 C 
HETATM   17  C9  UNL     1      -2.252  -0.815   1.006  1.00  0.00     0.015 C 
HETATM   18  C10 UNL     1      -3.393   0.003   1.506  1.00  0.00     0.001 C 
HETATM   19  C11 UNL     1      -4.612   0.024   0.686  1.00  0.00     0.000 C 
HETATM   20  C12 UNL     1      -4.462  -0.463  -0.724  1.00  0.00     0.001 C 
HETATM   21  C13 UNL     1      -3.088   0.015  -1.208  1.00  0.00     0.015 C 
ENDBRANCH  15  16
ENDBRANCH   4  15
TORSDOF 4
