REMARK  5 active torsions:
REMARK  status: ('A' for Active; 'I' for Inactive)
REMARK    1  A    between atoms: C2_2  and  N1_3 
REMARK    2  A    between atoms: C2_2  and  C3_7 
REMARK    3  A    between atoms: C3_7  and  C4_8 
REMARK    4  A    between atoms: C4_8  and  O1_9 
REMARK    5  A    between atoms: C9_15  and  C10_16 
ROOT
HETATM    1  C4  UNL     1       1.179  -0.152  -0.137  1.00  0.00     0.065 C 
HETATM    2  C5  UNL     1       1.505  -1.513   0.439  1.00  0.00     0.047 C 
HETATM    3  C6  UNL     1       0.035  -1.672   0.769  1.00  0.00    -0.038 C 
HETATM    4  C7  UNL     1      -0.215  -2.117   2.211  1.00  0.00     0.015 C 
HETATM    5  C8  UNL     1      -0.563  -2.682  -0.145  1.00  0.00     0.015 C 
HETATM    6  C9  UNL     1      -0.135  -0.245   0.591  1.00  0.00     0.032 C 
ENDROOT
BRANCH   1   7
HETATM    7  C3  UNL     1       2.104   0.939   0.360  1.00  0.00     0.070 C 
BRANCH   7   8
HETATM    8  C2  UNL     1       3.478   0.765  -0.210  1.00  0.00     0.182 C 
HETATM    9  C1  UNL     1       4.438   1.835   0.269  1.00  0.00     0.039 C 
BRANCH   8  10
HETATM   10  N1  UNL     1       3.503   0.775  -1.654  1.00  0.00    -0.075 N 
ATOM     11  H13 UNL     1       3.304   1.694  -2.049  1.00  0.00     0.274 HD
ATOM     12  H12 UNL     1       4.442   0.667  -2.036  1.00  0.00     0.274 HD
ATOM     13  H11 UNL     1       2.857   0.055  -1.976  1.00  0.00     0.274 HD
ENDBRANCH   8  10
ENDBRANCH   7   8
ENDBRANCH   1   7
BRANCH   1  14
HETATM   14  O1  UNL     1       1.092  -0.107  -1.519  1.00  0.00    -0.389 OA
ATOM     15  H1  UNL     1       0.512  -0.791  -1.831  1.00  0.00     0.210 HD
ENDBRANCH   1  14
BRANCH   6  16
HETATM   16  C10 UNL     1      -1.306   0.400  -0.024  1.00  0.00    -0.007 C 
HETATM   17  C11 UNL     1      -2.503   0.160   0.875  1.00  0.00     0.005 C 
HETATM   18  C12 UNL     1      -3.410   1.364   0.748  1.00  0.00     0.000 C 
HETATM   19  C13 UNL     1      -3.471   1.762  -0.715  1.00  0.00     0.000 C 
HETATM   20  C14 UNL     1      -3.142   0.583  -1.612  1.00  0.00     0.000 C 
HETATM   21  C15 UNL     1      -1.687   0.130  -1.410  1.00  0.00     0.005 C 
ENDBRANCH   6  16
TORSDOF 5
