REMARK  5 active torsions:
REMARK  status: ('A' for Active; 'I' for Inactive)
REMARK    1  A    between atoms: C2_2  and  C3_3 
REMARK    2  A    between atoms: C4_8  and  C5_9 
REMARK    3  A    between atoms: C5_9  and  N3_11 
REMARK    4  A    between atoms: N3_11  and  C6_13 
REMARK    5  A    between atoms: C9_16  and  C10_17 
ROOT
HETATM    1  C3  UNL     1      -2.088  -1.099  -0.805  1.00  0.00     0.038 A 
HETATM    2  N1  UNL     1      -1.335  -2.245  -0.903  1.00  0.00    -0.303 N 
ATOM      3  H1  UNL     1      -1.712  -3.182  -1.042  1.00  0.00     0.186 HD
HETATM    4  N2  UNL     1      -0.082  -1.961  -0.794  1.00  0.00    -0.297 N 
ATOM      5  H2  UNL     1       0.683  -2.635  -0.832  1.00  0.00     0.187 HD
HETATM    6  C4  UNL     1       0.056  -0.634  -0.622  1.00  0.00     0.098 A 
HETATM    7  C9  UNL     1      -1.222  -0.064  -0.627  1.00  0.00     0.020 A 
ENDROOT
BRANCH   6   8
HETATM    8  C5  UNL     1       1.345   0.055  -0.476  1.00  0.00     0.126 C 
HETATM    9  S1  UNL     1       1.664   1.483  -1.175  1.00  0.00    -0.058 SA
BRANCH   8  10
HETATM   10  N3  UNL     1       2.331  -0.558   0.327  1.00  0.00    -0.375 N 
ATOM     11  H3  UNL     1       2.093  -1.437   0.787  1.00  0.00     0.161 HD
BRANCH  10  12
HETATM   12  C6  UNL     1       3.650  -0.024   0.539  1.00  0.00     0.074 C 
HETATM   13  C7  UNL     1       4.457  -0.083  -0.716  1.00  0.00     0.031 C 
HETATM   14  C8  UNL     1       4.299  -0.783   1.680  1.00  0.00     0.031 C 
ENDBRANCH  10  12
ENDBRANCH   8  10
ENDBRANCH   6   8
BRANCH   7  15
HETATM   15  C10 UNL     1      -1.487   1.337  -0.491  1.00  0.00     0.035 C 
HETATM   16  C11 UNL     1      -2.042   2.059   0.436  1.00  0.00     0.009 C 
HETATM   17  C12 UNL     1      -2.159   3.570   0.214  1.00  0.00     0.062 C 
HETATM   18 CL1  UNL     1      -2.645   1.553   1.998  1.00  0.00    -0.089 Cl
ENDBRANCH   7  15
BRANCH   1  19
HETATM   19  C2  UNL     1      -3.554  -1.214  -0.891  1.00  0.00     0.055 C 
HETATM   20  C1  UNL     1      -4.159  -1.408   0.469  1.00  0.00     0.011 C 
ENDBRANCH   1  19
TORSDOF 5
