REMARK  4 active torsions:
REMARK  status: ('A' for Active; 'I' for Inactive)
REMARK    1  A    between atoms: O1_1  and  N1_3 
REMARK    2  A    between atoms: C1_5  and  C2_6 
REMARK    3  A    between atoms: C1_5  and  C13_18 
REMARK    4  A    between atoms: C2_6  and  C3_7 
ROOT
HETATM    1  C2  UNL     1       0.999   0.250   0.391  1.00  0.00     0.069 C 
ENDROOT
BRANCH   1   2
HETATM    2  C1  UNL     1       1.869  -0.108  -0.727  1.00  0.00     0.044 C 
HETATM    3  N1  UNL     1       1.397  -0.553  -1.807  1.00  0.00    -0.273 N 
ATOM      4  H1  UNL     1       0.380  -0.628  -1.799  1.00  0.00     0.194 HD
BRANCH   3   5
HETATM    5  O1  UNL     1       1.939  -0.945  -2.951  1.00  0.00    -0.290 OA
ATOM      6  H1  UNL     1       1.583  -1.281  -3.765  1.00  0.00     0.244 HD
ENDBRANCH   3   5
BRANCH   2   7
HETATM    7  C13 UNL     1       3.308   0.053  -0.572  1.00  0.00     0.005 A 
HETATM    8  C14 UNL     1       4.312  -0.212  -1.455  1.00  0.00     0.032 A 
HETATM    9  C15 UNL     1       5.548   0.100  -0.865  1.00  0.00     0.088 A 
HETATM   10  N2  UNL     1       5.274   0.548   0.362  1.00  0.00    -0.374 N 
HETATM   11  C16 UNL     1       3.955   0.536   0.575  1.00  0.00     0.101 A 
ATOM     12  H2  UNL     1       5.971   0.855   1.040  1.00  0.00     0.164 HD
ENDBRANCH   2   7
ENDBRANCH   1   2
BRANCH   1  13
HETATM   13  C3  UNL     1      -0.474   0.095   0.207  1.00  0.00    -0.031 C 
HETATM   14  C4  UNL     1      -1.070   0.911  -0.900  1.00  0.00     0.014 C 
HETATM   15  C5  UNL     1      -2.585   0.834  -0.828  1.00  0.00    -0.010 C 
HETATM   16  C6  UNL     1      -3.144   1.380   0.446  1.00  0.00     0.009 C 
HETATM   17  C10 UNL     1      -3.029  -0.601  -0.995  1.00  0.00     0.048 C 
HETATM   18  C7  UNL     1      -2.549   0.565   1.578  1.00  0.00    -0.010 C 
HETATM   19  C8  UNL     1      -2.949  -0.891   1.453  1.00  0.00     0.048 C 
HETATM   20  C12 UNL     1      -1.072   0.668   1.513  1.00  0.00     0.014 C 
HETATM   21  C9  UNL     1      -2.423  -1.391   0.135  1.00  0.00     0.105 C 
HETATM   22  F1  UNL     1      -2.811  -2.717  -0.048  1.00  0.00    -0.243 F 
HETATM   23  C11 UNL     1      -0.925  -1.336   0.068  1.00  0.00     0.053 C 
ENDBRANCH   1  13
TORSDOF 4
