REMARK  5 active torsions:
REMARK  status: ('A' for Active; 'I' for Inactive)
REMARK    1  A    between atoms: C2_2  and  C3_3 
REMARK    2  A    between atoms: C3_3  and  C4_4 
REMARK    3  A    between atoms: C4_4  and  C5_5 
REMARK    4  A    between atoms: C11_12  and  O1_13 
REMARK    5  A    between atoms: C12_15  and  O2_16 
ROOT
HETATM    1  C5  UNL     1       0.365  -0.732  -0.475  1.00  0.00    -0.016 A 
HETATM    2  C6  UNL     1       1.028   0.455  -0.325  1.00  0.00    -0.045 A 
HETATM    3  C7  UNL     1       0.775   1.704  -1.058  1.00  0.00     0.049 C 
HETATM    4  C8  UNL     1       2.090   0.503   0.593  1.00  0.00    -0.035 A 
HETATM    5  C9  UNL     1       2.840   1.776   0.783  1.00  0.00     0.050 C 
HETATM    6  C10 UNL     1       2.489  -0.577   1.336  1.00  0.00     0.053 A 
HETATM    7 BR1  UNL     1       3.924  -0.527   2.582  1.00  0.00    -0.047 Br
HETATM    8  C11 UNL     1       1.786  -1.768   1.150  1.00  0.00     0.117 A 
HETATM    9  C12 UNL     1       0.745  -1.864   0.269  1.00  0.00     0.107 A 
ENDROOT
BRANCH   1  10
HETATM   10  C4  UNL     1      -0.778  -0.904  -1.353  1.00  0.00     0.042 C 
BRANCH  10  11
HETATM   11  C3  UNL     1      -2.127  -0.578  -0.859  1.00  0.00     0.004 C 
BRANCH  11  12
HETATM   12  C2  UNL     1      -2.444   0.790  -0.414  1.00  0.00    -0.004 C 
HETATM   13  C1  UNL     1      -3.903   0.900   0.073  1.00  0.00     0.005 C 
ENDBRANCH  11  12
ENDBRANCH  10  11
ENDBRANCH   1  10
BRANCH   9  14
HETATM   14  O2  UNL     1       0.081  -3.070   0.123  1.00  0.00    -0.357 OA
ATOM     15  H2  UNL     1       0.338  -3.834   0.625  1.00  0.00     0.217 HD
ENDBRANCH   9  14
BRANCH   8  16
HETATM   16  O1  UNL     1       2.132  -2.915   1.871  1.00  0.00    -0.357 OA
ATOM     17  H1  UNL     1       1.653  -3.726   1.744  1.00  0.00     0.218 HD
ENDBRANCH   8  16
TORSDOF 5
