REMARK  4 active torsions:
REMARK  status: ('A' for Active; 'I' for Inactive)
REMARK    1  A    between atoms: C5_8  and  C6_9 
REMARK    2  A    between atoms: C10_13  and  N1_14 
REMARK    3  A    between atoms: C12_21  and  N4_22 
REMARK    4  A    between atoms: N4_22  and  C13_24 
ROOT
HETATM    1  N1  UNL     1      -1.121  -0.055   0.214  1.00  0.00    -0.364 N 
ATOM      2  H1  UNL     1      -1.792   0.689   0.024  1.00  0.00     0.162 HD
HETATM    3  C11 UNL     1       0.088   0.355   0.091  1.00  0.00     0.163 A 
HETATM    4  N2  UNL     1       1.271  -0.242   0.236  1.00  0.00    -0.278 N 
ATOM      5  H2  UNL     1       1.317  -1.227   0.498  1.00  0.00     0.189 HD
HETATM    6  N3  UNL     1       2.347   0.420   0.047  1.00  0.00    -0.277 N 
ATOM      7  H3  UNL     1       3.255  -0.033   0.156  1.00  0.00     0.189 HD
HETATM    8  C12 UNL     1       2.275   1.704  -0.293  1.00  0.00     0.169 A 
HETATM    9  S2  UNL     1       0.596   1.969  -0.343  1.00  0.00    -0.015 SA
ENDROOT
BRANCH   1  10
HETATM   10  C10 UNL     1      -1.751  -1.241   0.537  1.00  0.00     0.092 C 
HETATM   11  C6  UNL     1      -2.842  -1.478  -0.536  1.00  0.00     0.041 C 
HETATM   12  C7  UNL     1      -3.278  -2.877  -0.253  1.00  0.00     0.011 C 
HETATM   13  C8  UNL     1      -2.124  -3.570   0.428  1.00  0.00     0.003 C 
HETATM   14  C9  UNL     1      -0.998  -2.526   0.458  1.00  0.00     0.026 C 
BRANCH  11  15
HETATM   15  C5  UNL     1      -3.911  -0.485  -0.429  1.00  0.00    -0.049 A 
HETATM   16  C4  UNL     1      -4.111   0.382  -1.498  1.00  0.00     0.010 A 
HETATM   17  C3  UNL     1      -5.083   1.349  -1.503  1.00  0.00     0.040 A 
HETATM   18  C2  UNL     1      -5.905   1.472  -0.397  1.00  0.00     0.111 A 
HETATM   19  O1  UNL     1      -6.936   2.338  -0.145  1.00  0.00    -0.256 OA
HETATM   20  C19 UNL     1      -5.733   0.624   0.687  1.00  0.00     0.112 A 
HETATM   21  C1  UNL     1      -7.625   1.861   0.993  1.00  0.00     0.498 C 
HETATM   22  F1  UNL     1      -8.735   1.183   0.539  1.00  0.00    -0.147 F 
HETATM   23  F2  UNL     1      -7.963   2.937   1.788  1.00  0.00    -0.147 F 
HETATM   24  O3  UNL     1      -6.698   1.007   1.605  1.00  0.00    -0.256 OA
HETATM   25  C18 UNL     1      -4.740  -0.335   0.646  1.00  0.00     0.047 A 
ENDBRANCH  11  15
ENDBRANCH   1  10
BRANCH   8  26
HETATM   26  N4  UNL     1       3.271   2.539  -0.526  1.00  0.00    -0.301 N 
ATOM     27  H4  UNL     1       3.078   3.508  -0.780  1.00  0.00     0.171 HD
BRANCH  26  28
HETATM   28  C13 UNL     1       4.610   2.083  -0.421  1.00  0.00     0.222 C 
HETATM   29  N5  UNL     1       5.315   2.088  -1.504  1.00  0.00    -0.342 N 
HETATM   30  C14 UNL     1       6.675   1.648  -1.499  1.00  0.00     0.154 C 
ATOM     31  H5  UNL     1       4.895   2.411  -2.376  1.00  0.00     0.164 HD
HETATM   32  S1  UNL     1       7.816   2.620  -0.484  1.00  0.00    -0.143 SA
HETATM   33  C16 UNL     1       6.890   0.491  -0.548  1.00  0.00     0.052 C 
HETATM   34  C15 UNL     1       8.375   0.874  -0.537  1.00  0.00     0.085 C 
HETATM   35  C17 UNL     1       6.308   0.786   0.814  1.00  0.00     0.187 C 
HETATM   36  O2  UNL     1       5.191   1.646   0.740  1.00  0.00    -0.322 OA
ENDBRANCH  26  28
ENDBRANCH   8  26
TORSDOF 4
