REMARK  4 active torsions:
REMARK  status: ('A' for Active; 'I' for Inactive)
REMARK    1  A    between atoms: C8_10  and  O3_11 
REMARK    2  A    between atoms: C12_18  and  C13_19 
REMARK    3  A    between atoms: C15_23  and  C16_24 
REMARK    4  A    between atoms: C17_27  and  O6_28 
ROOT
HETATM    1  C1  UNL     1      -3.842   1.325  -1.295  1.00  0.00     0.016 C 
HETATM    2  C2  UNL     1      -2.904   1.594  -0.180  1.00  0.00     0.054 C 
HETATM    3  C3  UNL     1      -1.534   0.915  -0.385  1.00  0.00     0.072 C 
HETATM    4  C4  UNL     1      -1.820  -0.495  -0.797  1.00  0.00     0.028 C 
HETATM    5  C5  UNL     1      -2.765  -1.214   0.124  1.00  0.00     0.177 C 
HETATM    6  O1  UNL     1      -3.760  -0.396   0.633  1.00  0.00    -0.354 OA
HETATM    7  C6  UNL     1      -3.265   0.818   1.099  1.00  0.00     0.168 C 
HETATM    8  C7  UNL     1      -4.282   1.544   1.909  1.00  0.00     0.079 C 
HETATM    9  O2  UNL     1      -2.096   0.674   1.810  1.00  0.00    -0.311 OA
HETATM   10  C8  UNL     1      -1.027   1.065   1.010  1.00  0.00     0.233 C 
HETATM   11  C9  UNL     1       0.211   0.343   1.313  1.00  0.00     0.200 C 
HETATM   12  O4  UNL     1       0.637   0.689   2.402  1.00  0.00    -0.291 OA
HETATM   13  C10 UNL     1       1.045  -0.657   0.670  1.00  0.00     0.059 C 
HETATM   14  C11 UNL     1       1.667  -1.480   1.830  1.00  0.00     0.186 C 
HETATM   15  O5  UNL     1       2.275  -2.565   1.185  1.00  0.00    -0.379 OA
HETATM   16  C12 UNL     1       3.540  -2.108   0.816  1.00  0.00     0.187 C 
HETATM   17  C14 UNL     1       3.568  -0.650   0.521  1.00  0.00     0.051 C 
HETATM   18  C15 UNL     1       2.265  -0.097  -0.028  1.00  0.00     0.082 C 
HETATM   19  C19 UNL     1       0.350  -1.669  -0.171  1.00  0.00     0.029 C 
HETATM   20  C20 UNL     1      -0.626  -1.284  -1.178  1.00  0.00    -0.040 C 
HETATM   21  C21 UNL     1      -1.223  -2.630  -1.678  1.00  0.00     0.015 C 
HETATM   22  C22 UNL     1      -0.064  -0.689  -2.461  1.00  0.00     0.015 C 
ENDROOT
BRANCH  18  23
HETATM   23  C16 UNL     1       2.354   1.349  -0.131  1.00  0.00     0.130 A 
HETATM   24  N1  UNL     1       2.652   2.227   0.857  1.00  0.00    -0.319 N 
HETATM   25  C17 UNL     1       2.646   3.483   0.409  1.00  0.00     0.164 A 
ATOM     26  H1  UNL     1       2.855   1.961   1.821  1.00  0.00     0.169 HD
HETATM   27  C18 UNL     1       2.324   3.371  -0.938  1.00  0.00     0.199 A 
HETATM   28  O7  UNL     1       2.170   2.116  -1.180  1.00  0.00    -0.305 OA
BRANCH  25  29
HETATM   29  O6  UNL     1       2.899   4.666   1.102  1.00  0.00    -0.345 OA
ATOM     30  H6  UNL     1       2.895   5.561   0.783  1.00  0.00     0.219 HD
ENDBRANCH  25  29
ENDBRANCH  18  23
BRANCH  10  31
HETATM   31  O3  UNL     1      -0.853   2.457   1.212  1.00  0.00    -0.359 OA
ATOM     32  H3  UNL     1      -0.530   2.553   2.100  1.00  0.00     0.213 HD
ENDBRANCH  10  31
BRANCH  16  33
HETATM   33  C13 UNL     1       4.189  -2.938  -0.258  1.00  0.00     0.381 C 
HETATM   34  F1  UNL     1       4.321  -4.217   0.206  1.00  0.00    -0.212 F 
HETATM   35  F2  UNL     1       5.432  -2.419  -0.498  1.00  0.00    -0.212 F 
ENDBRANCH  16  33
TORSDOF 4
