REMARK  9 active torsions:
REMARK  status: ('A' for Active; 'I' for Inactive)
REMARK    1  A    between atoms: C3_4  and  O2_5 
REMARK    2  A    between atoms: O2_5  and  C4_6 
REMARK    3  A    between atoms: C4_6  and  C5_7 
REMARK    4  A    between atoms: C6_8  and  C7_9 
REMARK       I    between atoms: N1_14  and  C12_15 
REMARK    5  A    between atoms: C12_15  and  C13_17 
REMARK    6  A    between atoms: C13_17  and  N2_18 
REMARK    7  A    between atoms: C31_37  and  O5_38 
REMARK    8  A    between atoms: C32_40  and  O6_41 
REMARK    9  A    between atoms: C33_43  and  O7_44 
ROOT
HETATM    1  C5  UNL     1      -2.739   1.093   0.050  1.00  0.00    -0.031 C 
HETATM    2  C6  UNL     1      -1.484   1.383  -0.316  1.00  0.00    -0.043 C 
HETATM    3  C24 UNL     1      -1.296   2.440  -1.388  1.00  0.00     0.037 C 
HETATM    4  C25 UNL     1      -1.548   3.820  -0.881  1.00  0.00     0.004 C 
HETATM    5  C26 UNL     1      -2.509   4.640  -1.692  1.00  0.00     0.000 C 
HETATM    6  C27 UNL     1      -3.620   5.075  -0.752  1.00  0.00     0.000 C 
HETATM    7  C28 UNL     1      -4.730   4.071  -0.789  1.00  0.00     0.000 C 
HETATM    8  C29 UNL     1      -4.513   2.880   0.125  1.00  0.00     0.005 C 
HETATM    9  C30 UNL     1      -3.895   1.725  -0.614  1.00  0.00     0.041 C 
ENDROOT
BRANCH   2  10
HETATM   10  C7  UNL     1      -0.256   0.806   0.251  1.00  0.00     0.152 C 
HETATM   11  C8  UNL     1       0.536   1.883   0.962  1.00  0.00     0.043 C 
HETATM   12  C9  UNL     1       1.942   1.776   0.410  1.00  0.00     0.016 C 
HETATM   13  C10 UNL     1       2.992   2.431   1.255  1.00  0.00     0.027 C 
HETATM   14  C19 UNL     1       2.359   0.308   0.498  1.00  0.00     0.126 C 
HETATM   15  C11 UNL     1       4.208   1.720   0.683  1.00  0.00     0.127 C 
HETATM   16  N1  UNL     1       3.754   0.308   0.570  1.00  0.00    -0.343 N 
HETATM   17  C12 UNL     1       4.772  -0.680   0.570  1.00  0.00     0.248 C 
HETATM   18  O3  UNL     1       4.502  -1.892   0.508  1.00  0.00    -0.271 OA
HETATM   19  C20 UNL     1       1.600  -0.399  -0.534  1.00  0.00     0.083 C 
HETATM   20  C21 UNL     1       1.088  -1.749  -0.101  1.00  0.00     0.040 C 
HETATM   21  C23 UNL     1       2.161  -0.970  -1.747  1.00  0.00     0.040 C 
HETATM   22  O4  UNL     1       0.476   0.395  -0.896  1.00  0.00    -0.368 OA
HETATM   23  C22 UNL     1       1.518  -2.301  -1.439  1.00  0.00     0.006 C 
BRANCH  17  24
HETATM   24  C13 UNL     1       6.201  -0.296   0.644  1.00  0.00     0.374 C 
BRANCH  24  25
HETATM   25  N2  UNL     1       7.080  -1.448   0.619  1.00  0.00     0.097 N 
HETATM   26  C14 UNL     1       7.060  -2.093  -0.622  1.00  0.00     0.273 C 
HETATM   27  C15 UNL     1       8.322  -2.475  -1.280  1.00  0.00     0.030 C 
HETATM   28  C16 UNL     1       9.478  -2.593  -0.327  1.00  0.00     0.003 C 
HETATM   29  C17 UNL     1       9.527  -1.240   0.397  1.00  0.00     0.030 C 
HETATM   30  C18 UNL     1       8.311  -1.198   1.258  1.00  0.00     0.273 C 
ENDBRANCH  24  25
ENDBRANCH  17  24
ENDBRANCH   2  10
BRANCH   1  31
HETATM   31  C4  UNL     1      -2.948   0.112   1.134  1.00  0.00     0.145 C 
BRANCH  31  32
HETATM   32  O2  UNL     1      -3.602  -1.000   0.944  1.00  0.00    -0.329 OA
BRANCH  32  33
HETATM   33  C3  UNL     1      -4.854  -1.286   0.671  1.00  0.00     0.296 C 
HETATM   34  O1  UNL     1      -5.375  -2.113   1.717  1.00  0.00    -0.351 OA
HETATM   35  C2  UNL     1      -6.676  -2.476   1.485  1.00  0.00     0.152 C 
HETATM   36  C1  UNL     1      -7.654  -1.338   1.453  1.00  0.00     0.042 C 
HETATM   37  C33 UNL     1      -6.828  -3.349   0.255  1.00  0.00     0.178 C 
HETATM   38  C32 UNL     1      -5.416  -3.507  -0.321  1.00  0.00     0.183 C 
HETATM   39  C31 UNL     1      -4.932  -2.102  -0.636  1.00  0.00     0.205 C 
BRANCH  37  40
HETATM   40  O7  UNL     1      -7.283  -4.631   0.555  1.00  0.00    -0.390 OA
ATOM     41  H7  UNL     1      -7.378  -5.178  -0.216  1.00  0.00     0.210 HD
ENDBRANCH  37  40
BRANCH  38  42
HETATM   42  O6  UNL     1      -5.554  -4.261  -1.472  1.00  0.00    -0.390 OA
ATOM     43  H6  UNL     1      -5.857  -5.140  -1.275  1.00  0.00     0.210 HD
ENDBRANCH  38  42
BRANCH  39  44
HETATM   44  O5  UNL     1      -5.857  -1.528  -1.500  1.00  0.00    -0.388 OA
ATOM     45  H5  UNL     1      -5.905  -2.030  -2.305  1.00  0.00     0.210 HD
ENDBRANCH  39  44
ENDBRANCH  32  33
ENDBRANCH  31  32
ENDBRANCH   1  31
TORSDOF 9
