REMARK  5 active torsions:
REMARK  status: ('A' for Active; 'I' for Inactive)
REMARK       I    between atoms: C1_4  and  N3_6 
REMARK    1  A    between atoms: C4_9  and  N4_10 
REMARK       I    between atoms: N4_10  and  C5_12 
REMARK    2  A    between atoms: C5_12  and  C6_14 
REMARK    3  A    between atoms: C8_16  and  C9_17 
REMARK    4  A    between atoms: C11_21  and  N5_22 
REMARK       I    between atoms: N5_22  and  C12_24 
REMARK    5  A    between atoms: C12_24  and  C13_26 
ROOT
HETATM    1  C6  UNL     1       0.708   2.093  -0.620  1.00  0.00     0.073 A 
HETATM    2  C7  UNL     1       0.343   3.301  -1.242  1.00  0.00     0.038 A 
HETATM    3  C8  UNL     1      -0.954   3.595  -1.541  1.00  0.00     0.044 A 
HETATM    4  C10 UNL     1      -1.946   2.662  -1.217  1.00  0.00     0.051 A 
HETATM    5  C11 UNL     1      -1.667   1.462  -0.609  1.00  0.00     0.075 A 
HETATM    6  C20 UNL     1      -0.303   1.242  -0.336  1.00  0.00     0.158 A 
HETATM    7  F1  UNL     1      -0.045   0.060   0.283  1.00  0.00    -0.203 F 
ENDROOT
BRANCH   1   8
HETATM    8  C5  UNL     1       2.129   1.854  -0.361  1.00  0.00     0.255 C 
HETATM    9  N4  UNL     1       2.668   0.606  -0.065  1.00  0.00    -0.352 N 
ATOM     10  H4  UNL     1       2.084  -0.229  -0.014  1.00  0.00     0.163 HD
HETATM   11  O1  UNL     1       2.880   2.894  -0.426  1.00  0.00    -0.268 OA
BRANCH   9  12
HETATM   12  C4  UNL     1       4.130   0.545   0.173  1.00  0.00     0.087 C 
HETATM   13  C3  UNL     1       4.350   0.007   1.535  1.00  0.00     0.045 C 
HETATM   14  C2  UNL     1       5.568  -0.809   1.731  1.00  0.00     0.127 C 
HETATM   15  N3  UNL     1       6.333  -1.105   0.572  1.00  0.00    -0.356 N 
HETATM   16  C1  UNL     1       7.304  -2.144   0.615  1.00  0.00     0.183 C 
HETATM   17  C22 UNL     1       6.191  -0.403  -0.689  1.00  0.00     0.127 C 
HETATM   18  N1  UNL     1       6.903  -3.366   0.625  1.00  0.00    -0.374 N 
HETATM   19  N2  UNL     1       8.667  -1.800   0.645  1.00  0.00    -0.064 NA
ATOM     20  H12 UNL     1       7.599  -4.111   0.656  1.00  0.00     0.158 HD
ATOM     21  H11 UNL     1       5.914  -3.616   0.603  1.00  0.00     0.158 HD
HETATM   22  C21 UNL     1       4.679  -0.319  -0.936  1.00  0.00     0.045 C 
ENDBRANCH   9  12
ENDBRANCH   1   8
BRANCH   3  23
HETATM   23  C9  UNL     1      -1.339   4.834  -2.180  1.00  0.00     0.209 C 
HETATM   24  O2  UNL     1      -2.521   5.121  -2.462  1.00  0.00    -0.644 OA
HETATM   25  O3  UNL     1      -0.341   5.744  -2.492  1.00  0.00    -0.644 OA
ENDBRANCH   3  23
BRANCH   5  26
HETATM   26  N5  UNL     1      -2.621   0.490  -0.263  1.00  0.00    -0.324 N 
HETATM   27  C12 UNL     1      -3.990   0.582  -0.471  1.00  0.00     0.232 C 
HETATM   28  O4  UNL     1      -4.612   1.531  -0.996  1.00  0.00    -0.272 OA
ATOM     29  H5  UNL     1      -2.276  -0.361   0.182  1.00  0.00     0.169 HD
BRANCH  27  30
HETATM   30  C13 UNL     1      -4.845  -0.585  -0.020  1.00  0.00     0.065 C 
HETATM   31  C14 UNL     1      -4.383  -1.813  -0.770  1.00  0.00     0.023 C 
HETATM   32  C15 UNL     1      -5.144  -3.027  -0.266  1.00  0.00     0.034 C 
HETATM   33  C16 UNL     1      -6.075  -2.570   0.827  1.00  0.00     0.186 C 
HETATM   34  C17 UNL     1      -7.044  -1.556   0.260  1.00  0.00     0.034 C 
HETATM   35  N6  UNL     1      -5.274  -2.003   1.899  1.00  0.00    -0.070 N 
HETATM   36  C18 UNL     1      -6.301  -0.373  -0.366  1.00  0.00     0.023 C 
HETATM   37  C19 UNL     1      -4.730  -0.731   1.461  1.00  0.00     0.252 C 
ATOM     38  H62 UNL     1      -5.795  -1.922   2.772  1.00  0.00     0.277 HD
ATOM     39  H61 UNL     1      -4.550  -2.644   2.223  1.00  0.00     0.277 HD
ENDBRANCH  27  30
ENDBRANCH   5  26
TORSDOF 5
