REMARK  8 active torsions:
REMARK  status: ('A' for Active; 'I' for Inactive)
REMARK    1  A    between atoms: C6_6  and  O1_7 
REMARK    2  A    between atoms: C6_6  and  C7_9 
REMARK    3  A    between atoms: C7_9  and  O2_10 
REMARK    4  A    between atoms: N1_12  and  O3_14 
REMARK    5  A    between atoms: C11_19  and  N2_20 
REMARK       I    between atoms: N2_20  and  C12_22 
REMARK    6  A    between atoms: C12_22  and  C13_24 
REMARK    7  A    between atoms: C13_24  and  C15_27 
REMARK       I    between atoms: C15_27  and  N3_29 
REMARK    8  A    between atoms: N3_29  and  C16_31 
REMARK       I    between atoms: N4_34  and  C19_35 
ROOT
HETATM    1  N2  UNL     1      -0.953   1.520   0.679  1.00  0.00    -0.352 N 
ATOM      2  H2  UNL     1      -0.742   2.149  -0.096  1.00  0.00     0.163 HD
HETATM    3  C12 UNL     1      -0.212   1.628   1.881  1.00  0.00     0.267 C 
HETATM    4  O4  UNL     1      -0.468   0.852   2.850  1.00  0.00    -0.269 OA
ENDROOT
BRANCH   1   5
HETATM    5  C11 UNL     1      -2.005   0.535   0.527  1.00  0.00     0.092 C 
HETATM    6  C2  UNL     1      -1.586  -0.415  -0.532  1.00  0.00     0.005 C 
HETATM    7  C1  UNL     1      -0.734   0.185  -1.634  1.00  0.00     0.012 C 
HETATM    8  C3  UNL     1      -2.675  -1.309  -1.067  1.00  0.00     0.014 C 
HETATM    9  C4  UNL     1      -3.499  -1.755   0.081  1.00  0.00     0.025 C 
HETATM   10  C5  UNL     1      -3.921  -3.198  -0.162  1.00  0.00     0.013 C 
HETATM   11  C6  UNL     1      -4.730  -0.934   0.359  1.00  0.00     0.127 C 
HETATM   12  C8  UNL     1      -4.522   0.440   0.822  1.00  0.00     0.053 C 
HETATM   13  C9  UNL     1      -3.323   1.202   0.407  1.00  0.00     0.008 C 
HETATM   14  C10 UNL     1      -3.492   2.032  -0.846  1.00  0.00     0.012 C 
BRANCH  11  15
HETATM   15  O1  UNL     1      -5.354  -1.643   1.429  1.00  0.00    -0.381 OA
ATOM     16  H1  UNL     1      -6.131  -1.125   1.604  1.00  0.00     0.211 HD
ENDBRANCH  11  15
BRANCH  11  17
HETATM   17  C7  UNL     1      -5.730  -1.025  -0.728  1.00  0.00     0.171 C 
HETATM   18  N1  UNL     1      -6.105   0.054  -1.306  1.00  0.00    -0.248 N 
ATOM     19  H1  UNL     1      -5.693   0.931  -0.986  1.00  0.00     0.196 HD
BRANCH  17  20
HETATM   20  O2  UNL     1      -6.278  -2.219  -1.147  1.00  0.00    -0.346 OA
ATOM     21  H2  UNL     1      -6.920  -2.277  -1.845  1.00  0.00     0.219 HD
ENDBRANCH  17  20
BRANCH  18  22
HETATM   22  O3  UNL     1      -7.023   0.115  -2.326  1.00  0.00    -0.288 OA
ATOM     23  H3  UNL     1      -7.301   0.916  -2.755  1.00  0.00     0.244 HD
ENDBRANCH  18  22
ENDBRANCH  11  17
ENDBRANCH   1   5
BRANCH   3  24
HETATM   24  C13 UNL     1       0.871   2.620   2.074  1.00  0.00     0.259 C 
HETATM   25  C14 UNL     1       0.363   4.037   1.909  1.00  0.00     0.073 C 
HETATM   26  F1  UNL     1       1.417   2.532   3.326  1.00  0.00    -0.222 F 
BRANCH  24  27
HETATM   27  C15 UNL     1       1.965   2.328   1.104  1.00  0.00     0.267 C 
HETATM   28  O5  UNL     1       2.337   3.153   0.233  1.00  0.00    -0.269 OA
HETATM   29  N3  UNL     1       2.608   1.078   1.167  1.00  0.00    -0.353 N 
ATOM     30  H3  UNL     1       2.306   0.410   1.876  1.00  0.00     0.163 HD
BRANCH  29  31
HETATM   31  C16 UNL     1       3.687   0.695   0.263  1.00  0.00     0.087 C 
HETATM   32  C17 UNL     1       3.384  -0.567  -0.477  1.00  0.00     0.045 C 
HETATM   33  C18 UNL     1       4.305  -1.714  -0.108  1.00  0.00     0.127 C 
HETATM   34  N4  UNL     1       5.689  -1.315  -0.225  1.00  0.00    -0.356 N 
HETATM   35  C19 UNL     1       6.680  -2.212  -0.640  1.00  0.00     0.183 C 
HETATM   36  C20 UNL     1       6.044   0.049   0.100  1.00  0.00     0.127 C 
HETATM   37  N5  UNL     1       6.421  -3.140  -1.499  1.00  0.00    -0.374 N 
HETATM   38  N6  UNL     1       8.033  -2.158  -0.145  1.00  0.00    -0.064 NA
ATOM     39  H52 UNL     1       5.464  -3.178  -1.849  1.00  0.00     0.158 HD
ATOM     40  H51 UNL     1       7.143  -3.794  -1.801  1.00  0.00     0.158 HD
HETATM   41  C21 UNL     1       4.985   0.563   1.054  1.00  0.00     0.045 C 
ENDBRANCH  29  31
ENDBRANCH  24  27
ENDBRANCH   3  24
TORSDOF 8
