REMARK  13 active torsions:
REMARK  status: ('A' for Active; 'I' for Inactive)
REMARK    1  A    between atoms: C2_2  and  O1_5 
REMARK    2  A    between atoms: O1_5  and  C5_6 
REMARK    3  A    between atoms: C5_6  and  C6_7 
REMARK    4  A    between atoms: C6_7  and  C7_8 
REMARK    5  A    between atoms: C7_8  and  N1_9 
REMARK    6  A    between atoms: N1_9  and  C8_11 
REMARK    7  A    between atoms: C8_11  and  N2_13 
REMARK    8  A    between atoms: N2_13  and  N3_15 
REMARK       I    between atoms: N3_15  and  C9_16 
REMARK       I    between atoms: C9_16  and  N4_18 
REMARK    9  A    between atoms: N4_18  and  N5_20 
REMARK   10  A    between atoms: N5_20  and  C10_21 
REMARK   11  A    between atoms: C10_21  and  O3_22 
REMARK   12  A    between atoms: C10_21  and  N6_24 
REMARK   13  A    between atoms: N6_24  and  C11_26 
ROOT
HETATM    1  N3  UNL     1      -0.251  -1.133   0.889  1.00  0.00    -0.261 NA
HETATM    2  C9  UNL     1       1.063  -1.117   1.171  1.00  0.00     0.441 C 
HETATM    3  O2  UNL     1       1.594  -1.714   2.113  1.00  0.00    -0.226 OA
HETATM    4  N4  UNL     1       1.858  -0.241   0.298  1.00  0.00    -0.167 N 
ATOM      5  H4  UNL     1       1.429   0.169  -0.532  1.00  0.00     0.208 HD
ENDROOT
BRANCH   4   6
HETATM    6  N5  UNL     1       3.115   0.019   0.576  1.00  0.00    -0.275 NA
BRANCH   6   7
HETATM    7  C10 UNL     1       4.416   0.215   0.951  1.00  0.00     0.315 C 
BRANCH   7   8
HETATM    8  O3  UNL     1       4.865  -0.501   2.025  1.00  0.00    -0.320 OA
ATOM      9  H3  UNL     1       5.768  -0.365   2.285  1.00  0.00     0.222 HD
ENDBRANCH   7   8
BRANCH   7  10
HETATM   10  N6  UNL     1       5.431   1.029   0.494  1.00  0.00    -0.337 N 
ATOM     11  H6  UNL     1       5.276   1.606  -0.333  1.00  0.00     0.164 HD
BRANCH  10  12
HETATM   12  C11 UNL     1       6.733   1.080   1.177  1.00  0.00     0.108 C 
HETATM   13  C12 UNL     1       7.423   2.274   0.698  1.00  0.00     0.046 C 
HETATM   14  C13 UNL     1       8.888   2.128   0.323  1.00  0.00     0.128 C 
HETATM   15  N7  UNL     1       8.984   0.920  -0.460  1.00  0.00    -0.345 N 
HETATM   16  C14 UNL     1       9.285   0.200  -1.624  1.00  0.00     0.222 C 
HETATM   17  C16 UNL     1       8.606  -0.308   0.187  1.00  0.00     0.116 C 
HETATM   18  O4  UNL     1      10.037   0.269  -2.634  1.00  0.00    -0.273 OA
HETATM   19  C15 UNL     1       8.256  -0.843  -1.224  1.00  0.00     0.130 C 
HETATM   20  C17 UNL     1       7.450  -0.244   1.086  1.00  0.00     0.128 C 
HETATM   21 CL1  UNL     1       7.950  -0.869   2.663  1.00  0.00    -0.121 Cl
ENDBRANCH  10  12
ENDBRANCH   7  10
ENDBRANCH   6   7
ENDBRANCH   4   6
BRANCH   1  22
HETATM   22  N2  UNL     1      -1.538  -1.153   0.619  1.00  0.00    -0.204 N 
ATOM     23  H2  UNL     1      -2.022  -1.983   0.275  1.00  0.00     0.204 HD
BRANCH  22  24
HETATM   24  C8  UNL     1      -2.208   0.115   0.855  1.00  0.00     0.197 C 
HETATM   25  S1  UNL     1      -1.113   1.328   1.396  1.00  0.00    -0.039 SA
BRANCH  24  26
HETATM   26  N1  UNL     1      -3.502   0.483   0.697  1.00  0.00    -0.365 N 
ATOM     27  H1  UNL     1      -3.636   1.465   0.937  1.00  0.00     0.161 HD
BRANCH  26  28
HETATM   28  C7  UNL     1      -4.729  -0.117   0.289  1.00  0.00     0.124 C 
BRANCH  28  29
HETATM   29  C6  UNL     1      -4.877  -0.424  -1.171  1.00  0.00     0.046 C 
BRANCH  29  30
HETATM   30  C5  UNL     1      -6.345  -0.987  -1.283  1.00  0.00     0.170 C 
BRANCH  30  31
HETATM   31  O1  UNL     1      -7.074   0.042  -0.667  1.00  0.00    -0.381 OA
BRANCH  31  32
HETATM   32  C2  UNL     1      -8.416  -0.155  -0.580  1.00  0.00     0.050 C 
HETATM   33  C1  UNL     1      -9.119  -0.259  -1.920  1.00  0.00     0.045 C 
HETATM   34  C3  UNL     1      -9.030   1.035   0.183  1.00  0.00     0.045 C 
HETATM   35  C4  UNL     1      -8.762  -1.386   0.263  1.00  0.00     0.045 C 
ENDBRANCH  31  32
ENDBRANCH  30  31
ENDBRANCH  29  30
ENDBRANCH  28  29
ENDBRANCH  26  28
ENDBRANCH  24  26
ENDBRANCH  22  24
ENDBRANCH   1  22
TORSDOF 13
