REMARK  10 active torsions:
REMARK  status: ('A' for Active; 'I' for Inactive)
REMARK    1  A    between atoms: C1_2  and  C2_3 
REMARK       I    between atoms: C1_2  and  N3_24 
REMARK    2  A    between atoms: C2_3  and  N1_4 
REMARK    3  A    between atoms: N1_4  and  C3_6 
REMARK    4  A    between atoms: C3_6  and  N2_8 
REMARK    5  A    between atoms: N2_8  and  C4_10 
REMARK    6  A    between atoms: C4_10  and  O2_11 
REMARK    7  A    between atoms: C4_10  and  C5_13 
REMARK    8  A    between atoms: C11_19  and  O3_20 
REMARK    9  A    between atoms: N3_24  and  C14_26 
REMARK   10  A    between atoms: C17_29  and  C18_30 
ROOT
HETATM    1  C3  UNL     1      -0.379  -0.405  -2.069  1.00  0.00     0.170 C 
HETATM    2  S1  UNL     1      -0.025  -1.998  -1.801  1.00  0.00    -0.041 SA
ENDROOT
BRANCH   1   3
HETATM    3  N1  UNL     1       0.370   0.391  -2.973  1.00  0.00    -0.358 N 
ATOM      4  H1  UNL     1       0.085   1.361  -3.108  1.00  0.00     0.162 HD
BRANCH   3   5
HETATM    5  C2  UNL     1       1.505  -0.088  -3.709  1.00  0.00     0.224 C 
BRANCH   5   6
HETATM    6  C1  UNL     1       2.714  -0.343  -2.931  1.00  0.00     0.235 C 
HETATM    7  O1  UNL     1       3.711  -0.811  -3.592  1.00  0.00    -0.272 OA
HETATM    8  N3  UNL     1       2.784  -0.095  -1.559  1.00  0.00    -0.354 N 
ATOM      9  H3  UNL     1       1.955   0.281  -1.099  1.00  0.00     0.163 HD
BRANCH   8  10
HETATM   10  C14 UNL     1       3.961  -0.338  -0.746  1.00  0.00     0.102 C 
HETATM   11  C15 UNL     1       3.643  -1.352   0.345  1.00  0.00     0.028 C 
HETATM   12  C16 UNL     1       4.941  -1.771   0.948  1.00  0.00     0.017 C 
HETATM   13  C17 UNL     1       5.831  -0.668   1.407  1.00  0.00     0.088 C 
HETATM   14  C19 UNL     1       5.762   0.598   0.615  1.00  0.00     0.037 C 
HETATM   15  C20 UNL     1       4.450   0.894  -0.024  1.00  0.00     0.106 C 
HETATM   16 CL1  UNL     1       3.249   1.522   1.126  1.00  0.00    -0.123 Cl
BRANCH  13  17
HETATM   17  C18 UNL     1       5.704  -0.451   2.864  1.00  0.00     0.177 C 
HETATM   18  O4  UNL     1       4.920  -1.173   3.514  1.00  0.00    -0.648 OA
HETATM   19  O5  UNL     1       6.422   0.522   3.527  1.00  0.00    -0.648 OA
ENDBRANCH  13  17
ENDBRANCH   8  10
ENDBRANCH   5   6
ENDBRANCH   3   5
ENDBRANCH   1   3
BRANCH   1  20
HETATM   20  N2  UNL     1      -1.480   0.159  -1.378  1.00  0.00    -0.340 N 
ATOM     21  H2  UNL     1      -1.720   1.137  -1.541  1.00  0.00     0.164 HD
BRANCH  20  22
HETATM   22  C4  UNL     1      -2.273  -0.616  -0.447  1.00  0.00     0.231 C 
BRANCH  22  23
HETATM   23  O2  UNL     1      -2.774  -1.779  -0.973  1.00  0.00    -0.376 OA
ATOM     24  H2  UNL     1      -3.294  -2.288  -0.362  1.00  0.00     0.212 HD
ENDBRANCH  22  23
BRANCH  22  25
HETATM   25  C5  UNL     1      -3.376   0.186   0.147  1.00  0.00     0.035 C 
HETATM   26  C6  UNL     1      -2.862   1.406   0.921  1.00  0.00     0.021 C 
HETATM   27  C7  UNL     1      -4.068   1.624   1.847  1.00  0.00    -0.010 C 
HETATM   28  C8  UNL     1      -5.320   1.901   1.077  1.00  0.00     0.009 C 
HETATM   29  C12 UNL     1      -4.176   0.216   2.439  1.00  0.00     0.043 C 
HETATM   30  C9  UNL     1      -5.588   0.891   0.011  1.00  0.00    -0.010 C 
HETATM   31  C10 UNL     1      -5.622  -0.513   0.631  1.00  0.00     0.043 C 
HETATM   32  C13 UNL     1      -4.342   0.738  -0.876  1.00  0.00     0.021 C 
HETATM   33  C11 UNL     1      -4.175  -0.596   1.135  1.00  0.00     0.070 C 
BRANCH  33  34
HETATM   34  O3  UNL     1      -3.756  -1.883   1.324  1.00  0.00    -0.389 OA
ATOM     35  H3  UNL     1      -4.265  -2.381   1.953  1.00  0.00     0.210 HD
ENDBRANCH  33  34
ENDBRANCH  22  25
ENDBRANCH  20  22
ENDBRANCH   1  20
TORSDOF 10
