REMARK  9 active torsions:
REMARK  status: ('A' for Active; 'I' for Inactive)
REMARK    1  A    between atoms: C2_2  and  C3_3 
REMARK    2  A    between atoms: C3_3  and  O1_4 
REMARK    3  A    between atoms: C3_3  and  C7_10 
REMARK    4  A    between atoms: O1_4  and  C4_5 
REMARK       I    between atoms: C4_5  and  N1_7 
REMARK    5  A    between atoms: C7_10  and  O3_11 
REMARK    6  A    between atoms: C7_10  and  C8_13 
REMARK    7  A    between atoms: C10_15  and  C11_16 
REMARK    8  A    between atoms: C11_16  and  O4_17 
REMARK    9  A    between atoms: C11_16  and  O5_19 
ROOT
HETATM    1  C7  UNL     1      -0.197   0.112   0.836  1.00  0.00     0.136 C 
ENDROOT
BRANCH   1   2
HETATM    2  C3  UNL     1      -1.023  -0.812   0.359  1.00  0.00     0.116 C 
BRANCH   2   3
HETATM    3  C2  UNL     1      -0.592  -1.946  -0.419  1.00  0.00     0.030 C 
HETATM    4  C1  UNL     1      -1.417  -2.845  -0.876  1.00  0.00     0.014 C 
ENDBRANCH   2   3
BRANCH   2   5
HETATM    5  O1  UNL     1      -2.393  -0.718   0.605  1.00  0.00    -0.259 OA
BRANCH   5   6
HETATM    6  C4  UNL     1      -3.299  -0.014  -0.151  1.00  0.00     0.367 C 
HETATM    7  O2  UNL     1      -2.863   0.605  -1.160  1.00  0.00    -0.238 OA
HETATM    8  N1  UNL     1      -4.688   0.038   0.163  1.00  0.00    -0.336 N 
HETATM    9  C5  UNL     1      -5.604   0.811  -0.642  1.00  0.00     0.154 C 
HETATM   10  C6  UNL     1      -5.241  -0.685   1.296  1.00  0.00     0.154 C 
ENDBRANCH   5   6
ENDBRANCH   2   5
ENDBRANCH   1   2
BRANCH   1  11
HETATM   11  O3  UNL     1      -0.741   1.156   1.562  1.00  0.00    -0.356 OA
ATOM     12  H3  UNL     1      -0.150   1.817   1.903  1.00  0.00     0.218 HD
ENDBRANCH   1  11
BRANCH   1  13
HETATM   13  C8  UNL     1       1.227   0.064   0.634  1.00  0.00     0.136 A 
HETATM   14  C9  UNL     1       2.088   1.055   0.176  1.00  0.00     0.074 A 
HETATM   15  C10 UNL     1       3.344   0.511   0.170  1.00  0.00     0.089 A 
HETATM   16  N2  UNL     1       3.211  -0.745   0.607  1.00  0.00    -0.260 N 
HETATM   17  O6  UNL     1       1.969  -0.985   0.871  1.00  0.00    -0.235 OA
ATOM     18  H2  UNL     1       3.974  -1.413   0.716  1.00  0.00     0.194 HD
BRANCH  15  19
HETATM   19  C11 UNL     1       4.582   1.237  -0.273  1.00  0.00     0.309 C 
BRANCH  19  20
HETATM   20  O4  UNL     1       4.482   2.537   0.231  1.00  0.00    -0.366 OA
ATOM     21  H4  UNL     1       5.265   2.996  -0.049  1.00  0.00     0.213 HD
ENDBRANCH  19  20
BRANCH  19  22
HETATM   22  O5  UNL     1       5.707   0.603   0.188  1.00  0.00    -0.360 OA
HETATM   23  C12 UNL     1       6.544   0.160  -0.814  1.00  0.00     0.205 C 
ENDBRANCH  19  22
ENDBRANCH  15  19
ENDBRANCH   1  13
TORSDOF 9
