REMARK  5 active torsions:
REMARK  status: ('A' for Active; 'I' for Inactive)
REMARK    1  A    between atoms: C3_5  and  N2_6 
REMARK    2  A    between atoms: N2_6  and  C4_8 
REMARK    3  A    between atoms: C4_8  and  C5_9 
REMARK    4  A    between atoms: C5_9  and  S1_10 
REMARK    5  A    between atoms: S1_10  and  C6_11 
ROOT
HETATM    1  C5  UNL     1       1.287   1.103   0.367  1.00  0.00     0.101 C 
ENDROOT
BRANCH   1   2
HETATM    2  C4  UNL     1       0.905  -0.283  -0.092  1.00  0.00     0.132 C 
BRANCH   2   3
HETATM    3  N2  UNL     1      -0.163  -0.864   0.682  1.00  0.00    -0.370 N 
ATOM      4  H2  UNL     1       0.016  -1.534   1.430  1.00  0.00     0.161 HD
BRANCH   3   5
HETATM    5  C3  UNL     1      -1.384  -0.480   0.368  1.00  0.00     0.145 A 
HETATM    6  N1  UNL     1      -2.526  -0.871   0.932  1.00  0.00    -0.340 N 
HETATM    7  C2  UNL     1      -3.644  -0.381   0.487  1.00  0.00     0.020 A 
ATOM      8  H1  UNL     1      -2.523  -1.543   1.699  1.00  0.00     0.168 HD
HETATM    9  C1  UNL     1      -5.004  -0.757   1.056  1.00  0.00     0.069 C 
HETATM   10  C8  UNL     1      -3.585   0.517  -0.545  1.00  0.00     0.004 A 
HETATM   11  S3  UNL     1      -1.904   0.616  -0.831  1.00  0.00    -0.057 SA
HETATM   12  C9  UNL     1      -4.722   1.228  -1.242  1.00  0.00     0.058 C 
ENDBRANCH   3   5
ENDBRANCH   2   3
ENDBRANCH   1   2
BRANCH   1  13
HETATM   13  S1  UNL     1       2.625   1.694  -0.690  1.00  0.00    -0.102 SA
BRANCH  13  14
HETATM   14  C6  UNL     1       4.089   0.696  -0.413  1.00  0.00     0.130 A 
HETATM   15  N3  UNL     1       4.273  -0.328   0.406  1.00  0.00    -0.286 N 
HETATM   16  N4  UNL     1       5.396  -0.914   0.461  1.00  0.00    -0.279 N 
ATOM     17  H3  UNL     1       3.506  -0.648   0.997  1.00  0.00     0.188 HD
HETATM   18  C7  UNL     1       6.388  -0.481  -0.320  1.00  0.00     0.159 A 
ATOM     19  H4  UNL     1       5.539  -1.703   1.091  1.00  0.00     0.189 HD
HETATM   20  N5  UNL     1       7.611  -0.954  -0.404  1.00  0.00    -0.379 N 
HETATM   21  S2  UNL     1       5.627   0.819  -1.145  1.00  0.00    -0.027 SA
ATOM     22  H52 UNL     1       8.063  -1.726   0.086  1.00  0.00     0.158 HD
ATOM     23  H51 UNL     1       8.369  -0.623  -1.001  1.00  0.00     0.158 HD
ENDBRANCH  13  14
ENDBRANCH   1  13
TORSDOF 5
