REMARK  7 active torsions:
REMARK  status: ('A' for Active; 'I' for Inactive)
REMARK    1  A    between atoms: O1_2  and  C2_3 
REMARK    2  A    between atoms: C2_3  and  C3_5 
REMARK    3  A    between atoms: C5_9  and  O3_10 
REMARK    4  A    between atoms: C6_13  and  C7_14 
REMARK    5  A    between atoms: C7_14  and  C8_16 
REMARK    6  A    between atoms: C8_16  and  S1_17 
REMARK    7  A    between atoms: C11_20  and  O6_21 
ROOT
HETATM    1  C3  UNL     1       2.392  -0.414  -0.307  1.00  0.00     0.143 A 
HETATM    2  N1  UNL     1       1.746  -1.544  -0.537  1.00  0.00    -0.344 N 
ATOM      3  H1  UNL     1       2.203  -2.418  -0.797  1.00  0.00     0.166 HD
HETATM    4  C4  UNL     1       0.423  -1.408  -0.389  1.00  0.00     0.108 A 
HETATM    5  C5  UNL     1      -0.810  -2.045  -0.444  1.00  0.00     0.212 A 
HETATM    6  O4  UNL     1      -1.714  -1.177  -0.147  1.00  0.00    -0.281 OA
HETATM    7  C6  UNL     1      -1.200   0.025   0.112  1.00  0.00     0.140 A 
HETATM    8  C10 UNL     1       0.177  -0.081  -0.033  1.00  0.00     0.069 A 
HETATM    9  C11 UNL     1       1.410   0.557   0.022  1.00  0.00     0.114 A 
ENDROOT
BRANCH   7  10
HETATM   10  C7  UNL     1      -1.936   1.212   0.475  1.00  0.00     0.193 C 
HETATM   11  O5  UNL     1      -1.464   2.334   0.717  1.00  0.00    -0.289 OA
BRANCH  10  12
HETATM   12  C8  UNL     1      -3.429   1.134   0.583  1.00  0.00     0.159 C 
BRANCH  12  13
HETATM   13  S1  UNL     1      -4.049  -0.505   0.224  1.00  0.00    -0.166 SA
HETATM   14  C9  UNL     1      -5.836  -0.549   0.366  1.00  0.00     0.090 C 
ENDBRANCH  12  13
ENDBRANCH  10  12
ENDBRANCH   7  10
BRANCH   5  15
HETATM   15  O3  UNL     1      -0.932  -3.385  -0.772  1.00  0.00    -0.339 OA
ATOM     16  H3  UNL     1      -1.775  -3.821  -0.810  1.00  0.00     0.220 HD
ENDBRANCH   5  15
BRANCH   9  17
HETATM   17  O6  UNL     1       1.674   1.840   0.324  1.00  0.00    -0.357 OA
ATOM     18  H6  UNL     1       1.017   2.490   0.544  1.00  0.00     0.217 HD
ENDBRANCH   9  17
BRANCH   1  19
HETATM   19  C2  UNL     1       3.817  -0.104  -0.351  1.00  0.00     0.312 C 
HETATM   20  O2  UNL     1       4.664  -0.984  -0.646  1.00  0.00    -0.258 OA
BRANCH  19  21
HETATM   21  O1  UNL     1       4.303   1.163  -0.073  1.00  0.00    -0.321 OA
HETATM   22  C1  UNL     1       5.676   1.492  -0.107  1.00  0.00     0.213 C 
ENDBRANCH  19  21
ENDBRANCH   1  19
TORSDOF 7
