REMARK  8 active torsions:
REMARK  status: ('A' for Active; 'I' for Inactive)
REMARK    1  A    between atoms: O1_2  and  C2_3 
REMARK    2  A    between atoms: C2_3  and  C3_5 
REMARK    3  A    between atoms: C4_7  and  C5_8 
REMARK    4  A    between atoms: C5_8  and  C6_9 
REMARK    5  A    between atoms: C6_9  and  C8_12 
REMARK    6  A    between atoms: C10_16  and  C11_17 
REMARK    7  A    between atoms: C11_17  and  O6_18 
REMARK    8  A    between atoms: N2_20  and  O7_22 
ROOT
HETATM    1  C6  UNL     1       3.527  -0.450   0.260  1.00  0.00     0.266 C 
HETATM    2  C7  UNL     1       4.047  -1.805  -0.058  1.00  0.00     0.087 C 
HETATM    3  N1  UNL     1       4.473  -2.860  -0.303  1.00  0.00    -0.195 NA
ENDROOT
BRANCH   1   4
HETATM    4  C5  UNL     1       2.281  -0.304   0.103  1.00  0.00    -0.089 C 
BRANCH   4   5
HETATM    5  C4  UNL     1       0.923  -0.124  -0.063  1.00  0.00     0.120 A 
HETATM    6  O3  UNL     1      -0.070  -0.891   0.368  1.00  0.00    -0.295 OA
HETATM    7  C3  UNL     1      -1.239  -0.422   0.020  1.00  0.00     0.166 A 
HETATM    8  C10 UNL     1      -1.104   0.737  -0.696  1.00  0.00     0.060 A 
HETATM    9  C9  UNL     1       0.283   0.926  -0.748  1.00  0.00     0.064 A 
BRANCH   7  10
HETATM   10  C2  UNL     1      -2.504  -1.094   0.380  1.00  0.00     0.318 C 
HETATM   11  O2  UNL     1      -3.636  -0.743   0.107  1.00  0.00    -0.257 OA
BRANCH  10  12
HETATM   12  O1  UNL     1      -2.403  -2.289   1.132  1.00  0.00    -0.321 OA
HETATM   13  C1  UNL     1      -3.613  -2.964   1.498  1.00  0.00     0.213 C 
ENDBRANCH  10  12
ENDBRANCH   7  10
BRANCH   8  14
HETATM   14  C11 UNL     1      -2.063   1.623  -1.328  1.00  0.00     0.173 C 
HETATM   15  N2  UNL     1      -1.732   2.673  -1.922  1.00  0.00    -0.247 N 
ATOM     16  H2  UNL     1      -2.512   3.200  -2.316  1.00  0.00     0.196 HD
BRANCH  14  17
HETATM   17  O6  UNL     1      -3.416   1.345  -1.305  1.00  0.00    -0.344 OA
ATOM     18  H6  UNL     1      -4.044   1.925  -1.719  1.00  0.00     0.219 HD
ENDBRANCH  14  17
BRANCH  15  19
HETATM   19  O7  UNL     1      -0.541   3.218  -2.127  1.00  0.00    -0.288 OA
ATOM     20  H7  UNL     1      -0.290   4.015  -2.578  1.00  0.00     0.244 HD
ENDBRANCH  15  19
ENDBRANCH   8  14
ENDBRANCH   4   5
ENDBRANCH   1   4
BRANCH   1  21
HETATM   21  C8  UNL     1       4.524   0.481   0.689  1.00  0.00     0.203 C 
HETATM   22  O4  UNL     1       5.721   0.135   0.776  1.00  0.00    -0.646 OA
HETATM   23  O5  UNL     1       4.198   1.778   1.019  1.00  0.00    -0.646 OA
ENDBRANCH   1  21
TORSDOF 8
