REMARK  3 active torsions:
REMARK  status: ('A' for Active; 'I' for Inactive)
REMARK    1  A    between atoms: C7_10  and  C8_11 
REMARK    2  A    between atoms: C8_11  and  N3_12 
REMARK    3  A    between atoms: N4_18  and  C14_19 
ROOT
HETATM    1  N1  UNL     1      -2.097  -5.924   0.667  1.00  0.00    -0.102 NA
HETATM    2  C1  UNL     1      -1.886  -4.550   0.440  1.00  0.00     0.048 A 
HETATM    3  C2  UNL     1      -2.890  -3.622   0.617  1.00  0.00     0.029 A 
HETATM    4  C3  UNL     1      -2.634  -2.288   0.381  1.00  0.00     0.034 A 
HETATM    5  C4  UNL     1      -1.393  -1.829  -0.032  1.00  0.00     0.063 A 
HETATM    6  C5  UNL     1      -0.412  -2.773  -0.200  1.00  0.00     0.062 A 
HETATM    7  C6  UNL     1      -0.634  -4.130   0.028  1.00  0.00     0.058 A 
HETATM    8  N2  UNL     1       0.659  -2.084  -0.592  1.00  0.00    -0.342 N 
ATOM      9  H2  UNL     1       1.569  -2.493  -0.805  1.00  0.00     0.167 HD
HETATM   10  C7  UNL     1       0.370  -0.776  -0.667  1.00  0.00     0.113 A 
HETATM   11  N4  UNL     1      -0.897  -0.598  -0.324  1.00  0.00    -0.328 N 
ENDROOT
BRANCH  10  12
HETATM   12  C8  UNL     1       1.289   0.320  -1.058  1.00  0.00     0.348 C 
BRANCH  12  13
HETATM   13  N3  UNL     1       1.829   1.038   0.078  1.00  0.00     0.095 N 
HETATM   14  C9  UNL     1       2.574   0.181   0.949  1.00  0.00     0.273 C 
HETATM   15  C10 UNL     1       3.910  -0.226   0.390  1.00  0.00     0.030 C 
HETATM   16  C11 UNL     1       4.692   0.948  -0.107  1.00  0.00     0.003 C 
HETATM   17  C12 UNL     1       3.878   1.778  -1.048  1.00  0.00     0.030 C 
HETATM   18  C13 UNL     1       2.571   2.165  -0.406  1.00  0.00     0.273 C 
ENDBRANCH  12  13
ENDBRANCH  10  12
BRANCH  11  19
HETATM   19  C14 UNL     1      -1.716   0.575  -0.224  1.00  0.00     0.091 C 
HETATM   20  C15 UNL     1      -1.660   1.176   1.187  1.00  0.00     0.026 C 
HETATM   21  C16 UNL     1      -1.874   2.665   1.126  1.00  0.00     0.002 C 
HETATM   22  C17 UNL     1      -3.022   2.962   0.202  1.00  0.00     0.000 C 
HETATM   23  C18 UNL     1      -2.783   2.501  -1.208  1.00  0.00     0.002 C 
HETATM   24  C19 UNL     1      -1.495   1.655  -1.208  1.00  0.00     0.026 C 
ENDBRANCH  11  19
TORSDOF 3
