REMARK  3 active torsions:
REMARK  status: ('A' for Active; 'I' for Inactive)
REMARK       I    between atoms: C1_2  and  N1_3 
REMARK    1  A    between atoms: C1_2  and  C8_11 
REMARK    2  A    between atoms: N1_3  and  C2_5 
REMARK    3  A    between atoms: C11_15  and  C12_16 
ROOT
HETATM    1  C8  UNL     1       0.077  -0.649   0.728  1.00  0.00     0.077 A 
HETATM    2  C9  UNL     1       0.825   0.044  -0.180  1.00  0.00     0.065 A 
HETATM    3  C10 UNL     1       2.170  -0.101  -0.102  1.00  0.00     0.112 A 
HETATM    4  O2  UNL     1       3.241   0.355  -0.742  1.00  0.00    -0.294 OA
HETATM    5  C11 UNL     1       4.347  -0.111  -0.249  1.00  0.00     0.129 A 
HETATM    6  N2  UNL     1       4.028  -0.921   0.771  1.00  0.00    -0.332 N 
ATOM      7  H2  UNL     1       4.677  -1.441   1.361  1.00  0.00     0.168 HD
HETATM    8  C16 UNL     1       2.661  -0.916   0.867  1.00  0.00     0.111 A 
HETATM    9  S1  UNL     1       1.251  -1.469   1.652  1.00  0.00    -0.064 SA
ENDROOT
BRANCH   1  10
HETATM   10  C1  UNL     1      -1.401  -0.665   0.858  1.00  0.00     0.259 C 
HETATM   11  O1  UNL     1      -1.948  -1.356   1.750  1.00  0.00    -0.267 OA
HETATM   12  N1  UNL     1      -2.214   0.092  -0.015  1.00  0.00    -0.352 N 
ATOM     13  H1  UNL     1      -1.796   0.663  -0.750  1.00  0.00     0.163 HD
BRANCH  12  14
HETATM   14  C2  UNL     1      -3.648   0.043   0.152  1.00  0.00     0.084 C 
HETATM   15  C3  UNL     1      -4.126   1.470   0.359  1.00  0.00     0.025 C 
HETATM   16  C4  UNL     1      -5.594   1.570   0.058  1.00  0.00     0.002 C 
HETATM   17  C5  UNL     1      -6.319   0.256   0.262  1.00  0.00     0.000 C 
HETATM   18  C6  UNL     1      -5.776  -0.825  -0.645  1.00  0.00     0.002 C 
HETATM   19  C7  UNL     1      -4.344  -0.494  -1.080  1.00  0.00     0.025 C 
ENDBRANCH  12  14
ENDBRANCH   1  10
BRANCH   5  20
HETATM   20  C12 UNL     1       5.740   0.205  -0.743  1.00  0.00     0.061 C 
HETATM   21  C13 UNL     1       6.633   0.550   0.428  1.00  0.00     0.013 C 
HETATM   22  C14 UNL     1       7.715  -0.298  -0.220  1.00  0.00     0.002 C 
HETATM   23  C15 UNL     1       6.594  -1.009  -0.979  1.00  0.00     0.013 C 
ENDBRANCH   5  20
TORSDOF 3
