REMARK  4 active torsions:
REMARK  status: ('A' for Active; 'I' for Inactive)
REMARK    1  A    between atoms: C2_2  and  C3_3 
REMARK    2  A    between atoms: C5_7  and  C6_8 
REMARK    3  A    between atoms: C8_10  and  N2_11 
REMARK    4  A    between atoms: N2_11  and  C9_13 
ROOT
HETATM    1  C6  UNL     1       1.612  -0.463   0.420  1.00  0.00     0.071 A 
HETATM    2  C7  UNL     1       0.533   0.364   0.537  1.00  0.00     0.080 A 
HETATM    3  C8  UNL     1      -0.741  -0.103   0.207  1.00  0.00     0.104 A 
HETATM    4  N3  UNL     1      -0.889  -1.368  -0.222  1.00  0.00    -0.333 N 
ATOM      5  H3  UNL     1      -1.820  -1.710  -0.462  1.00  0.00     0.168 HD
HETATM    6  C15 UNL     1       0.168  -2.192  -0.341  1.00  0.00     0.079 A 
HETATM    7  C16 UNL     1      -0.016  -3.611  -0.825  1.00  0.00     0.089 C 
HETATM    8  N4  UNL     1       1.373  -1.724  -0.021  1.00  0.00    -0.344 N 
ATOM      9  H4  UNL     1       2.169  -2.355  -0.113  1.00  0.00     0.167 HD
ENDROOT
BRANCH   1  10
HETATM   10  C5  UNL     1       2.972  -0.037   0.748  1.00  0.00     0.101 A 
HETATM   11  N1  UNL     1       3.316   1.160   1.183  1.00  0.00    -0.357 N 
HETATM   12  C4  UNL     1       4.559   1.416   1.439  1.00  0.00     0.103 A 
ATOM     13  H1  UNL     1       2.606   1.880   1.317  1.00  0.00     0.166 HD
HETATM   14  C3  UNL     1       5.477   0.416   1.244  1.00  0.00    -0.000 A 
HETATM   15  S1  UNL     1       4.459  -0.858   0.690  1.00  0.00    -0.073 SA
BRANCH  14  16
HETATM   16  C2  UNL     1       6.958   0.455   1.464  1.00  0.00     0.043 C 
HETATM   17  C1  UNL     1       7.684   0.901   0.215  1.00  0.00     0.010 C 
ENDBRANCH  14  16
ENDBRANCH   1  10
BRANCH   3  18
HETATM   18  N2  UNL     1      -1.740   0.707   0.329  1.00  0.00    -0.372 N 
ATOM     19  H2  UNL     1      -1.585   1.660   0.658  1.00  0.00     0.161 HD
BRANCH  18  20
HETATM   20  C9  UNL     1      -3.058   0.272   0.005  1.00  0.00     0.083 C 
HETATM   21  C10 UNL     1      -4.084   1.254   0.583  1.00  0.00     0.025 C 
HETATM   22  C11 UNL     1      -5.472   0.723   0.299  1.00  0.00     0.002 C 
HETATM   23  C12 UNL     1      -5.732   0.496  -1.157  1.00  0.00     0.000 C 
HETATM   24  C13 UNL     1      -4.652  -0.454  -1.679  1.00  0.00     0.002 C 
HETATM   25  C14 UNL     1      -3.334   0.271  -1.498  1.00  0.00     0.025 C 
ENDBRANCH  18  20
ENDBRANCH   3  18
TORSDOF 4
