REMARK  2 active torsions:
REMARK  status: ('A' for Active; 'I' for Inactive)
REMARK    1  A    between atoms: C1_2  and  C2_4 
REMARK    2  A    between atoms: C4_6  and  C5_7 
ROOT
HETATM    1  C5  UNL     1       0.816  -0.518   0.323  1.00  0.00     0.045 C 
HETATM    2  N2  UNL     1       1.162  -1.705   0.636  1.00  0.00    -0.289 N 
ATOM      3  H2  UNL     1       2.161  -1.873   0.758  1.00  0.00     0.188 HD
HETATM    4  N3  UNL     1       0.313  -2.799   0.829  1.00  0.00    -0.247 N 
ATOM      5  H3  UNL     1       0.622  -3.484   1.518  1.00  0.00     0.208 HD
HETATM    6  N4  UNL     1      -0.811  -3.055   0.249  1.00  0.00    -0.321 N 
ATOM      7  H4  UNL     1      -1.323  -3.901   0.497  1.00  0.00     0.181 HD
HETATM    8  C6  UNL     1      -1.365  -2.143  -0.766  1.00  0.00     0.150 C 
HETATM    9  C7  UNL     1      -1.643  -0.827  -0.112  1.00  0.00    -0.018 C 
HETATM   10  C8  UNL     1      -2.297  -1.032   1.242  1.00  0.00     0.011 C 
HETATM   11  C9  UNL     1      -3.736  -0.588   1.258  1.00  0.00     0.001 C 
HETATM   12  C10 UNL     1      -3.900   0.844   0.814  1.00  0.00     0.000 C 
HETATM   13  C11 UNL     1      -3.013   1.178  -0.364  1.00  0.00     0.001 C 
HETATM   14  C12 UNL     1      -2.633  -0.104  -1.039  1.00  0.00     0.011 C 
HETATM   15  C13 UNL     1      -0.484   0.075   0.077  1.00  0.00     0.071 C 
ENDROOT
BRANCH   1  16
HETATM   16  C4  UNL     1       1.922   0.448   0.181  1.00  0.00     0.031 A 
HETATM   17  C3  UNL     1       3.260   0.230   0.342  1.00  0.00     0.037 A 
HETATM   18  C2  UNL     1       4.082   1.271   0.158  1.00  0.00     0.029 A 
HETATM   19  C14 UNL     1       3.513   2.471  -0.176  1.00  0.00     0.088 A 
HETATM   20  S2  UNL     1       1.846   2.100  -0.222  1.00  0.00    -0.075 SA
HETATM   21 CL1  UNL     1       4.329   4.014  -0.481  1.00  0.00    -0.075 Cl
BRANCH  18  22
HETATM   22  C1  UNL     1       5.566   1.190   0.298  1.00  0.00     0.125 C 
HETATM   23  N1  UNL     1       6.298   0.079  -0.200  1.00  0.00    -0.089 NA
HETATM   24  S1  UNL     1       6.400   2.384   1.033  1.00  0.00    -0.063 SA
ENDBRANCH  18  22
ENDBRANCH   1  16
TORSDOF 2
