REMARK  2 active torsions:
REMARK  status: ('A' for Active; 'I' for Inactive)
REMARK    1  A    between atoms: C3_4  and  N2_5 
REMARK    2  A    between atoms: N2_5  and  C4_7 
ROOT
HETATM    1  N1  UNL     1       1.361   2.233   1.524  1.00  0.00    -0.191 NA
HETATM    2  C1  UNL     1       0.859   1.313   0.979  1.00  0.00     0.103 C 
HETATM    3  C2  UNL     1       0.176   0.149   0.343  1.00  0.00     0.085 A 
HETATM    4  C3  UNL     1       0.869  -0.976   0.069  1.00  0.00     0.097 A 
HETATM    5  S2  UNL     1      -0.446  -2.039  -0.481  1.00  0.00    -0.075 SA
HETATM    6  C7  UNL     1      -1.743  -0.985  -0.327  1.00  0.00    -0.007 A 
HETATM    7  C8  UNL     1      -1.176   0.153   0.138  1.00  0.00    -0.021 A 
HETATM    8  C9  UNL     1      -2.149   1.311   0.368  1.00  0.00     0.041 C 
HETATM    9  C10 UNL     1      -3.133   1.251  -0.772  1.00  0.00     0.005 C 
HETATM   10  C11 UNL     1      -4.013   0.058  -0.511  1.00  0.00     0.005 C 
HETATM   11  C12 UNL     1      -3.197  -1.178  -0.610  1.00  0.00     0.047 C 
ENDROOT
BRANCH   4  12
HETATM   12  N2  UNL     1       2.219  -1.393   0.002  1.00  0.00    -0.343 N 
ATOM     13  H2  UNL     1       2.339  -2.406   0.027  1.00  0.00     0.167 HD
BRANCH  12  14
HETATM   14  C4  UNL     1       3.416  -0.687  -0.092  1.00  0.00     0.092 A 
HETATM   15  C5  UNL     1       4.708  -1.230   0.037  1.00  0.00     0.126 A 
HETATM   16  N3  UNL     1       5.701  -0.447  -0.169  1.00  0.00    -0.352 N 
HETATM   17  C6  UNL     1       5.525   0.816  -0.490  1.00  0.00     0.123 A 
ATOM     18  H3  UNL     1       6.650  -0.812  -0.082  1.00  0.00     0.166 HD
HETATM   19 BR1  UNL     1       6.884   2.119  -0.831  1.00  0.00    -0.023 Br
HETATM   20  S1  UNL     1       3.834   0.929  -0.506  1.00  0.00    -0.046 SA
ENDBRANCH  12  14
ENDBRANCH   4  12
TORSDOF 2
