REMARK  2 active torsions:
REMARK  status: ('A' for Active; 'I' for Inactive)
REMARK    1  A    between atoms: O1_2  and  C2_3 
REMARK    2  A    between atoms: C5_7  and  C6_8 
ROOT
HETATM    1  C2  UNL     1       3.870  -0.533   0.547  1.00  0.00     0.120 A 
HETATM    2  C3  UNL     1       2.960  -1.543   0.424  1.00  0.00     0.070 A 
HETATM    3 CL1  UNL     1       3.520  -3.178   0.796  1.00  0.00    -0.081 Cl
HETATM    4  C4  UNL     1       1.664  -1.286   0.028  1.00  0.00     0.041 A 
HETATM    5  C5  UNL     1       1.196  -0.012  -0.269  1.00  0.00    -0.001 A 
HETATM    6  C15 UNL     1       2.117   0.986  -0.141  1.00  0.00     0.098 A 
HETATM    7  N2  UNL     1       2.022   2.301  -0.334  1.00  0.00    -0.239 N 
ATOM      8  H2  UNL     1       1.185   2.802  -0.633  1.00  0.00     0.197 HD
HETATM    9  O2  UNL     1       3.178   2.836  -0.076  1.00  0.00    -0.156 OA
HETATM   10  N3  UNL     1       4.039   1.933   0.280  1.00  0.00    -0.237 N 
ATOM     11  H3  UNL     1       5.013   2.097   0.534  1.00  0.00     0.197 HD
HETATM   12  C16 UNL     1       3.414   0.738   0.254  1.00  0.00     0.121 A 
ENDROOT
BRANCH   5  13
HETATM   13  C6  UNL     1      -0.176   0.102  -0.729  1.00  0.00    -0.063 C 
HETATM   14  C7  UNL     1      -0.927  -1.130  -0.250  1.00  0.00     0.065 C 
HETATM   15  C8  UNL     1      -2.400  -0.973  -0.064  1.00  0.00     0.022 C 
HETATM   16  C9  UNL     1      -3.182  -1.389  -1.311  1.00  0.00     0.038 C 
HETATM   17  C10 UNL     1      -2.795  -2.092   0.933  1.00  0.00     0.038 C 
HETATM   18  N1  UNL     1      -2.841   0.222   0.532  1.00  0.00    -0.405 N 
HETATM   19  C11 UNL     1      -2.059   1.383   0.405  1.00  0.00     0.022 C 
ATOM     20  H1  UNL     1      -3.719   0.246   1.051  1.00  0.00     0.154 HD
HETATM   21  C12 UNL     1      -3.019   2.472  -0.126  1.00  0.00     0.038 C 
HETATM   22  C13 UNL     1      -1.539   1.937   1.703  1.00  0.00     0.038 C 
HETATM   23  C14 UNL     1      -0.965   1.298  -0.663  1.00  0.00     0.065 C 
ENDBRANCH   5  13
BRANCH   1  24
HETATM   24  O1  UNL     1       5.193  -0.779   0.948  1.00  0.00    -0.352 OA
HETATM   25  C1  UNL     1       6.117  -1.051  -0.112  1.00  0.00     0.210 C 
ENDBRANCH   1  24
TORSDOF 2
