REMARK  3 active torsions:
REMARK  status: ('A' for Active; 'I' for Inactive)
REMARK    1  A    between atoms: C6_11  and  N3_12 
REMARK       I    between atoms: N3_12  and  C7_14 
REMARK    2  A    between atoms: C7_14  and  O2_16 
REMARK    3  A    between atoms: O2_16  and  C8_17 
ROOT
HETATM    1  C1  UNL     1       7.015   1.283   0.645  1.00  0.00     0.079 C 
HETATM    2  C2  UNL     1       5.871   0.307   0.719  1.00  0.00     0.203 C 
HETATM    3  F1  UNL     1       6.309  -0.969   1.046  1.00  0.00    -0.217 F 
HETATM    4  N1  UNL     1       4.929   0.782   1.680  1.00  0.00    -0.300 N 
ATOM      5  H1  UNL     1       5.187   1.095   2.616  1.00  0.00     0.183 HD
HETATM    6  N2  UNL     1       3.781   0.774   1.262  1.00  0.00    -0.326 N 
ATOM      7  H2  UNL     1       2.983   1.081   1.818  1.00  0.00     0.180 HD
HETATM    8  C3  UNL     1       3.661   0.299  -0.066  1.00  0.00     0.066 C 
HETATM    9  C4  UNL     1       2.855   1.269  -0.898  1.00  0.00     0.036 C 
HETATM   10  C5  UNL     1       1.497   0.746  -1.242  1.00  0.00     0.028 C 
HETATM   11  C6  UNL     1       0.792   0.124  -0.059  1.00  0.00     0.086 C 
HETATM   12  C14 UNL     1       1.659  -0.880   0.657  1.00  0.00     0.028 C 
HETATM   13  C15 UNL     1       2.995  -1.054  -0.036  1.00  0.00     0.036 C 
HETATM   14  C16 UNL     1       5.100   0.212  -0.562  1.00  0.00     0.183 C 
HETATM   15  C17 UNL     1       5.239  -1.090  -1.219  1.00  0.00     0.071 C 
HETATM   16  N4  UNL     1       5.359  -2.132  -1.725  1.00  0.00    -0.197 NA
ENDROOT
BRANCH  11  17
HETATM   17  N3  UNL     1      -0.418  -0.508  -0.543  1.00  0.00    -0.332 N 
HETATM   18  C7  UNL     1      -1.713  -0.101  -0.121  1.00  0.00     0.361 C 
HETATM   19  O1  UNL     1      -1.880   0.836   0.702  1.00  0.00    -0.238 OA
ATOM     20  H3  UNL     1      -0.338  -1.274  -1.212  1.00  0.00     0.165 HD
BRANCH  18  21
HETATM   21  O2  UNL     1      -2.851  -0.726  -0.605  1.00  0.00    -0.299 OA
BRANCH  21  22
HETATM   22  C8  UNL     1      -4.139  -0.364  -0.222  1.00  0.00     0.133 C 
HETATM   23  C9  UNL     1      -4.993   0.108  -1.378  1.00  0.00     0.032 C 
HETATM   24  C10 UNL     1      -6.388   0.399  -0.925  1.00  0.00     0.002 C 
HETATM   25  C11 UNL     1      -6.438   0.447   0.583  1.00  0.00     0.000 C 
HETATM   26  C12 UNL     1      -6.036  -0.844   1.229  1.00  0.00     0.002 C 
HETATM   27  C13 UNL     1      -4.892  -1.480   0.466  1.00  0.00     0.032 C 
ENDBRANCH  21  22
ENDBRANCH  18  21
ENDBRANCH  11  17
TORSDOF 3
