REMARK  7 active torsions:
REMARK  status: ('A' for Active; 'I' for Inactive)
REMARK    1  A    between atoms: C3_3  and  C4_4 
REMARK    2  A    between atoms: C4_4  and  C5_5 
REMARK    3  A    between atoms: C4_4  and  C8_12 
REMARK    4  A    between atoms: C11_15  and  O1_16 
REMARK    5  A    between atoms: C12_18  and  N3_19 
REMARK    6  A    between atoms: N4_21  and  C13_23 
REMARK    7  A    between atoms: C16_26  and  N5_27 
ROOT
HETATM    1  C1  UNL     1      -4.439  -1.171  -3.414  1.00  0.00     0.112 C 
HETATM    2  C2  UNL     1      -4.020  -1.069  -2.008  1.00  0.00    -0.110 C 
HETATM    3  C3  UNL     1      -3.695  -0.993  -0.849  1.00  0.00    -0.090 C 
ENDROOT
BRANCH   3   4
HETATM    4  C4  UNL     1      -3.319  -0.907   0.582  1.00  0.00     0.165 C 
BRANCH   4   5
HETATM    5  C5  UNL     1      -3.537   0.491   1.025  1.00  0.00     0.093 C 
HETATM    6  N1  UNL     1      -2.640   1.287   1.496  1.00  0.00    -0.377 N 
HETATM    7  C6  UNL     1      -3.207   2.570   1.824  1.00  0.00     0.140 C 
ATOM      8  H1  UNL     1      -1.658   1.041   1.620  1.00  0.00     0.160 HD
HETATM    9  C7  UNL     1      -4.687   2.284   1.911  1.00  0.00     0.140 C 
HETATM   10  N2  UNL     1      -4.797   1.149   0.986  1.00  0.00    -0.377 N 
ATOM     11  H2  UNL     1      -5.610   0.886   0.430  1.00  0.00     0.160 HD
ENDBRANCH   4   5
BRANCH   4  12
HETATM   12  C8  UNL     1      -1.937  -1.353   0.712  1.00  0.00    -0.033 A 
HETATM   13  C9  UNL     1      -1.670  -2.513   1.406  1.00  0.00     0.012 A 
HETATM   14  C10 UNL     1      -0.395  -3.013   1.581  1.00  0.00     0.039 A 
HETATM   15  C11 UNL     1       0.686  -2.342   1.046  1.00  0.00     0.093 A 
HETATM   16  C12 UNL     1       0.422  -1.181   0.351  1.00  0.00     0.081 A 
HETATM   17  C19 UNL     1      -0.852  -0.683   0.177  1.00  0.00     0.042 A 
BRANCH  15  18
HETATM   18  O1  UNL     1       1.994  -2.780   1.178  1.00  0.00    -0.358 OA
ATOM     19  H1  UNL     1       2.738  -2.318   0.810  1.00  0.00     0.217 HD
ENDBRANCH  15  18
BRANCH  16  20
HETATM   20  N3  UNL     1       1.527  -0.482  -0.204  1.00  0.00    -0.298 N 
HETATM   21  N4  UNL     1       2.641  -0.492   0.431  1.00  0.00    -0.300 N 
ATOM     22  H4  UNL     1       2.692  -1.003   1.312  1.00  0.00     0.187 HD
ATOM     23  H3  UNL     1       1.436   0.017  -1.089  1.00  0.00     0.187 HD
BRANCH  21  24
HETATM   24  C13 UNL     1       3.793   0.165  -0.026  1.00  0.00     0.048 A 
HETATM   25  C14 UNL     1       3.771   1.470  -0.497  1.00  0.00     0.033 A 
HETATM   26  C15 UNL     1       4.927   2.097  -0.944  1.00  0.00     0.038 A 
HETATM   27  C16 UNL     1       6.131   1.448  -0.936  1.00  0.00     0.103 A 
HETATM   28  C17 UNL     1       6.162   0.140  -0.466  1.00  0.00     0.038 A 
HETATM   29  C18 UNL     1       5.025  -0.498  -0.018  1.00  0.00     0.033 A 
BRANCH  27  30
HETATM   30  N5  UNL     1       7.328   2.082  -1.393  1.00  0.00    -0.116 N 
HETATM   31  O2  UNL     1       7.258   3.248  -1.804  1.00  0.00    -0.532 OA
HETATM   32  O3  UNL     1       8.504   1.388  -1.364  1.00  0.00    -0.532 OA
ENDBRANCH  27  30
ENDBRANCH  21  24
ENDBRANCH  16  20
ENDBRANCH   4  12
ENDBRANCH   3   4
TORSDOF 7
