REMARK  7 active torsions:
REMARK  status: ('A' for Active; 'I' for Inactive)
REMARK    1  A    between atoms: C6_6  and  N1_7 
REMARK    2  A    between atoms: N1_7  and  C7_9 
REMARK    3  A    between atoms: C7_9  and  S1_10 
REMARK    4  A    between atoms: S1_10  and  C8_11 
REMARK    5  A    between atoms: C8_11  and  N2_12 
REMARK    6  A    between atoms: C18_24  and  N4_25 
REMARK    7  A    between atoms: N4_25  and  N5_27 
ROOT
HETATM    1  N2  UNL     1      -0.644  -1.295   0.633  1.00  0.00    -0.208 N 
HETATM    2  C9  UNL     1      -0.077  -0.076   0.114  1.00  0.00     0.142 C 
HETATM    3  C10 UNL     1      -1.009   0.390  -1.018  1.00  0.00     0.023 C 
HETATM    4  C11 UNL     1      -2.261   0.985  -0.453  1.00  0.00     0.033 C 
HETATM    5  C12 UNL     1      -3.404   0.035  -0.387  1.00  0.00     0.047 C 
HETATM    6  C13 UNL     1      -3.818  -0.488  -1.744  1.00  0.00     0.031 C 
HETATM    7  C14 UNL     1      -4.276   0.659  -2.589  1.00  0.00     0.002 C 
HETATM    8  C15 UNL     1      -5.553   1.205  -1.937  1.00  0.00     0.000 C 
HETATM    9  C16 UNL     1      -5.258   1.728  -0.550  1.00  0.00     0.002 C 
HETATM   10  C17 UNL     1      -4.548   0.732   0.312  1.00  0.00     0.031 C 
HETATM   11  N3  UNL     1      -3.052  -1.103   0.424  1.00  0.00    -0.216 N 
ATOM     12  H3  UNL     1      -3.883  -1.598   0.747  1.00  0.00     0.178 HD
HETATM   13  C18 UNL     1      -1.998  -1.655   0.844  1.00  0.00     0.691 C 
ENDROOT
BRANCH   1  14
HETATM   14  C8  UNL     1       0.310  -2.303   1.000  1.00  0.00     0.216 C 
BRANCH  14  15
HETATM   15  S1  UNL     1       1.370  -1.843   2.358  1.00  0.00    -0.129 SA
BRANCH  15  16
HETATM   16  C7  UNL     1       2.529  -0.549   1.963  1.00  0.00     0.197 C 
BRANCH  16  17
HETATM   17  N1  UNL     1       3.526  -0.980   1.000  1.00  0.00    -0.368 N 
ATOM     18  H1  UNL     1       3.499  -1.933   0.638  1.00  0.00     0.161 HD
BRANCH  17  19
HETATM   19  C6  UNL     1       4.536  -0.090   0.557  1.00  0.00     0.101 A 
HETATM   20  C5  UNL     1       4.568   1.217   1.055  1.00  0.00     0.048 A 
HETATM   21  C4  UNL     1       5.535   2.097   0.643  1.00  0.00     0.006 A 
HETATM   22  C3  UNL     1       6.469   1.657  -0.272  1.00  0.00     0.025 A 
HETATM   23  C2  UNL     1       6.440   0.371  -0.763  1.00  0.00     0.007 A 
HETATM   24  C1  UNL     1       7.473  -0.068  -1.754  1.00  0.00     0.068 C 
HETATM   25  N6  UNL     1       5.473  -0.459  -0.331  1.00  0.00    -0.347 N 
ATOM     26  H6  UNL     1       5.451  -1.412  -0.695  1.00  0.00     0.167 HD
ENDBRANCH  17  19
ENDBRANCH  16  17
ENDBRANCH  15  16
ENDBRANCH  14  15
ENDBRANCH   1  14
BRANCH  13  27
HETATM   27  N4  UNL     1      -2.163  -2.813   1.653  1.00  0.00    -0.139 N 
ATOM     28  H4  UNL     1      -1.772  -2.819   2.595  1.00  0.00     0.205 HD
BRANCH  27  29
HETATM   29  N5  UNL     1      -2.791  -3.853   1.232  1.00  0.00    -0.331 N 
ATOM     30  H52 UNL     1      -3.176  -3.830   0.288  1.00  0.00     0.177 HD
ATOM     31  H51 UNL     1      -2.909  -4.684   1.812  1.00  0.00     0.177 HD
ENDBRANCH  27  29
ENDBRANCH  13  27
TORSDOF 7
