REMARK  7 active torsions:
REMARK  status: ('A' for Active; 'I' for Inactive)
REMARK       I    between atoms: C3_3  and  N1_5 
REMARK    1  A    between atoms: N2_7  and  C4_9 
REMARK    2  A    between atoms: C5_10  and  O2_11 
REMARK    3  A    between atoms: C6_13  and  O3_14 
REMARK    4  A    between atoms: N3_16  and  C7_17 
REMARK    5  A    between atoms: C13_23  and  O4_24 
REMARK    6  A    between atoms: O4_24  and  C14_25 
REMARK    7  A    between atoms: C14_25  and  C15_26 
ROOT
HETATM    1  C1  UNL     1      -5.786   4.751   0.157  1.00  0.00     0.023 C 
HETATM    2  C2  UNL     1      -5.185   3.945  -0.519  1.00  0.00    -0.015 C 
HETATM    3  C3  UNL     1      -4.493   2.981  -1.324  1.00  0.00     0.314 C 
HETATM    4  O1  UNL     1      -5.134   2.334  -2.190  1.00  0.00    -0.256 OA
HETATM    5  N1  UNL     1      -3.104   2.722  -1.186  1.00  0.00    -0.258 N 
ATOM      6  H1  UNL     1      -2.509   3.464  -0.817  1.00  0.00     0.191 HD
HETATM    7  N2  UNL     1      -2.568   1.624  -1.495  1.00  0.00    -0.291 N 
ATOM      8  H2  UNL     1      -3.128   0.857  -1.867  1.00  0.00     0.187 HD
ENDROOT
BRANCH   7   9
HETATM    9  C4  UNL     1      -1.166   1.479  -1.313  1.00  0.00     0.137 A 
HETATM   10  C5  UNL     1      -0.252   2.464  -1.625  1.00  0.00     0.150 A 
HETATM   11  C6  UNL     1       0.981   1.932  -1.304  1.00  0.00     0.181 A 
HETATM   12  N3  UNL     1       0.847   0.688  -0.819  1.00  0.00    -0.299 N 
HETATM   13  C13 UNL     1      -0.465   0.395  -0.818  1.00  0.00     0.179 A 
BRANCH  10  14
HETATM   14  O2  UNL     1      -0.540   3.736  -2.159  1.00  0.00    -0.355 OA
ATOM     15  H2  UNL     1       0.089   4.414  -2.374  1.00  0.00     0.218 HD
ENDBRANCH  10  14
BRANCH  11  16
HETATM   16  O3  UNL     1       2.181   2.603  -1.465  1.00  0.00    -0.344 OA
ATOM     17  H3  UNL     1       3.029   2.237  -1.244  1.00  0.00     0.219 HD
ENDBRANCH  11  16
BRANCH  12  18
HETATM   18  C7  UNL     1       1.866  -0.226  -0.365  1.00  0.00     0.094 C 
HETATM   19  C8  UNL     1       3.083  -0.235  -1.285  1.00  0.00     0.026 C 
HETATM   20  C9  UNL     1       3.947  -1.400  -0.820  1.00  0.00     0.002 C 
HETATM   21  C10 UNL     1       4.368  -1.242   0.621  1.00  0.00     0.000 C 
HETATM   22  C11 UNL     1       3.135  -1.125   1.499  1.00  0.00     0.002 C 
HETATM   23  C12 UNL     1       2.404   0.135   1.018  1.00  0.00     0.026 C 
ENDBRANCH  12  18
BRANCH  13  24
HETATM   24  O4  UNL     1      -1.094  -0.769  -0.409  1.00  0.00    -0.327 OA
BRANCH  24  25
HETATM   25  C14 UNL     1      -1.425  -0.988   0.929  1.00  0.00     0.242 C 
BRANCH  25  26
HETATM   26  C15 UNL     1      -2.087  -2.286   1.147  1.00  0.00     0.076 A 
HETATM   27  C16 UNL     1      -2.519  -2.686   2.417  1.00  0.00     0.037 A 
HETATM   28  C17 UNL     1      -3.091  -3.929   2.298  1.00  0.00     0.027 A 
HETATM   29  C18 UNL     1      -2.987  -4.245   0.953  1.00  0.00     0.142 A 
HETATM   30  O5  UNL     1      -2.398  -3.254   0.350  1.00  0.00    -0.325 OA
ENDBRANCH  25  26
ENDBRANCH  24  25
ENDBRANCH  13  24
ENDBRANCH   7   9
TORSDOF 7
