REMARK  7 active torsions:
REMARK  status: ('A' for Active; 'I' for Inactive)
REMARK    1  A    between atoms: C2_2  and  C3_3 
REMARK    2  A    between atoms: C3_3  and  C4_4 
REMARK    3  A    between atoms: C7_8  and  C8_9 
REMARK    4  A    between atoms: C12_14  and  O2_15 
REMARK    5  A    between atoms: C14_18  and  O3_19 
REMARK    6  A    between atoms: C15_21  and  C16_22 
REMARK    7  A    between atoms: C16_22  and  N1_23 
ROOT
HETATM    1  C8  UNL     1       0.452   0.754  -0.640  1.00  0.00    -0.013 A 
HETATM    2  C9  UNL     1       1.109   1.831  -0.093  1.00  0.00     0.027 A 
HETATM    3  C10 UNL     1       0.482   2.676   0.786  1.00  0.00     0.005 A 
HETATM    4  C11 UNL     1       0.881   3.822   1.472  1.00  0.00     0.157 A 
HETATM    5  O1  UNL     1      -0.149   4.229   2.180  1.00  0.00    -0.299 OA
HETATM    6  C12 UNL     1      -1.175   3.426   1.993  1.00  0.00     0.197 A 
HETATM    7  C13 UNL     1      -0.827   2.420   1.113  1.00  0.00     0.068 A 
HETATM    8  C14 UNL     1      -1.485   1.320   0.553  1.00  0.00     0.090 A 
HETATM    9  C15 UNL     1      -0.880   0.461  -0.330  1.00  0.00     0.005 A 
ENDROOT
BRANCH   1  10
HETATM   10  C7  UNL     1       1.215  -0.026  -1.650  1.00  0.00    -0.012 A 
HETATM   11  C4  UNL     1       2.130  -0.963  -1.336  1.00  0.00    -0.037 A 
HETATM   12  C5  UNL     1       2.825  -1.522  -2.370  1.00  0.00     0.057 A 
HETATM   13  S1  UNL     1       2.190  -0.737  -3.746  1.00  0.00    -0.112 SA
HETATM   14  C6  UNL     1       1.058   0.282  -2.970  1.00  0.00     0.062 A 
BRANCH  11  15
HETATM   15  C3  UNL     1       2.351  -1.475   0.083  1.00  0.00     0.066 C 
BRANCH  15  16
HETATM   16  C2  UNL     1       3.529  -2.345   0.158  1.00  0.00    -0.032 C 
HETATM   17  C1  UNL     1       4.446  -2.142   1.067  1.00  0.00     0.007 C 
ENDBRANCH  15  16
ENDBRANCH  11  15
ENDBRANCH   1  10
BRANCH   9  18
HETATM   18  C16 UNL     1      -1.429  -0.725  -0.962  1.00  0.00     0.171 C 
BRANCH  18  19
HETATM   19  N1  UNL     1      -2.656  -1.246  -0.476  1.00  0.00    -0.347 N 
HETATM   20  C17 UNL     1      -2.807  -2.133   0.510  1.00  0.00     0.109 A 
HETATM   21  C18 UNL     1      -4.135  -2.438   0.684  1.00  0.00     0.106 A 
HETATM   22  N2  UNL     1      -4.774  -1.690  -0.252  1.00  0.00    -0.361 N 
HETATM   23  C19 UNL     1      -3.874  -0.973  -0.946  1.00  0.00     0.182 A 
ATOM     24  H2  UNL     1      -5.782  -1.675  -0.405  1.00  0.00     0.166 HD
ENDBRANCH  18  19
ENDBRANCH   9  18
BRANCH   8  25
HETATM   25  O3  UNL     1      -2.775   1.095   0.904  1.00  0.00    -0.359 OA
ATOM     26  H3  UNL     1      -3.222   0.348   0.524  1.00  0.00     0.217 HD
ENDBRANCH   8  25
BRANCH   6  27
HETATM   27  O2  UNL     1      -2.385   3.603   2.600  1.00  0.00    -0.340 OA
ATOM     28  H2  UNL     1      -3.126   3.023   2.465  1.00  0.00     0.220 HD
ENDBRANCH   6  27
TORSDOF 7
