REMARK  7 active torsions:
REMARK  status: ('A' for Active; 'I' for Inactive)
REMARK    1  A    between atoms: C2_2  and  C3_3 
REMARK    2  A    between atoms: C3_3  and  S1_4 
REMARK    3  A    between atoms: S1_4  and  C4_5 
REMARK    4  A    between atoms: C6_7  and  O1_8 
REMARK    5  A    between atoms: N1_10  and  C7_11 
REMARK    6  A    between atoms: C9_14  and  C10_15 
REMARK    7  A    between atoms: C16_23  and  O2_24 
ROOT
HETATM    1  C4  UNL     1       2.832  -0.768  -0.166  1.00  0.00     0.056 A 
HETATM    2  C5  UNL     1       2.466  -1.985   0.346  1.00  0.00     0.079 A 
HETATM    3  C6  UNL     1       1.130  -1.856   0.726  1.00  0.00     0.151 A 
HETATM    4  N1  UNL     1       0.723  -0.610   0.448  1.00  0.00    -0.256 N 
HETATM    5  C16 UNL     1       1.739   0.062  -0.092  1.00  0.00     0.167 A 
ENDROOT
BRANCH   4   6
HETATM    6  C7  UNL     1      -0.612  -0.085   0.697  1.00  0.00     0.123 A 
HETATM    7  C8  UNL     1      -0.811   0.725   1.795  1.00  0.00     0.100 A 
HETATM    8  S2  UNL     1      -2.477   1.080   1.672  1.00  0.00    -0.084 SA
HETATM    9  C9  UNL     1      -2.822   0.193   0.255  1.00  0.00     0.056 A 
HETATM   10  N2  UNL     1      -1.647  -0.327  -0.048  1.00  0.00    -0.339 N 
ATOM     11  H2  UNL     1      -1.552  -0.922  -0.871  1.00  0.00     0.168 HD
BRANCH   9  12
HETATM   12  C10 UNL     1      -4.135   0.029  -0.483  1.00  0.00     0.043 C 
HETATM   13  C11 UNL     1      -4.675   1.386  -0.795  1.00  0.00     0.011 C 
HETATM   14  C12 UNL     1      -6.187   1.309  -0.798  1.00  0.00     0.001 C 
HETATM   15  C13 UNL     1      -6.684  -0.035  -1.295  1.00  0.00     0.000 C 
HETATM   16  C14 UNL     1      -6.246  -1.176  -0.429  1.00  0.00     0.001 C 
HETATM   17  C15 UNL     1      -5.122  -0.644   0.467  1.00  0.00     0.011 C 
ENDBRANCH   9  12
ENDBRANCH   4   6
BRANCH   3  18
HETATM   18  O1  UNL     1       0.361  -2.861   1.296  1.00  0.00    -0.346 OA
ATOM     19  H1  UNL     1      -0.549  -2.773   1.555  1.00  0.00     0.219 HD
ENDBRANCH   3  18
BRANCH   5  20
HETATM   20  O2  UNL     1       1.767   1.392  -0.535  1.00  0.00    -0.345 OA
ATOM     21  H2  UNL     1       1.012   1.966  -0.484  1.00  0.00     0.219 HD
ENDBRANCH   5  20
BRANCH   1  22
HETATM   22  S1  UNL     1       4.467  -0.357  -0.816  1.00  0.00    -0.122 SA
BRANCH  22  23
HETATM   23  C3  UNL     1       5.487   0.292   0.565  1.00  0.00     0.119 C 
BRANCH  23  24
HETATM   24  C2  UNL     1       6.862   0.648   0.065  1.00  0.00     0.087 A 
HETATM   25  C1  UNL     1       7.642  -0.509  -0.540  1.00  0.00     0.049 C 
HETATM   26  C17 UNL     1       7.627   1.674   0.748  1.00  0.00     0.207 A 
HETATM   27  O3  UNL     1       7.037   1.861  -0.572  1.00  0.00    -0.375 OA
ENDBRANCH  23  24
ENDBRANCH  22  23
ENDBRANCH   1  22
TORSDOF 7
