REMARK  3 active torsions:
REMARK  status: ('A' for Active; 'I' for Inactive)
REMARK    1  A    between atoms: N4_13  and  C7_14 
REMARK    2  A    between atoms: C13_22  and  C14_23 
REMARK    3  A    between atoms: C14_23  and  C15_24 
ROOT
HETATM    1  C7  UNL     1       2.267  -0.936  -0.677  1.00  0.00     0.092 C 
HETATM    2  C8  UNL     1       1.483   0.224  -1.330  1.00  0.00     0.031 C 
HETATM    3  C9  UNL     1       0.081  -0.253  -1.492  1.00  0.00     0.073 C 
HETATM    4  C10 UNL     1      -0.572  -0.661  -0.220  1.00  0.00     0.200 C 
HETATM    5  C11 UNL     1       0.283  -1.253   0.801  1.00  0.00     0.073 C 
HETATM    6  C12 UNL     1       1.754  -1.062   0.704  1.00  0.00     0.031 C 
HETATM    7  O1  UNL     1      -1.581  -1.576  -0.544  1.00  0.00    -0.198 OA
HETATM    8  O2  UNL     1      -2.651  -0.887  -0.785  1.00  0.00    -0.204 OA
HETATM    9  C13 UNL     1      -2.613   0.032   0.311  1.00  0.00     0.313 C 
HETATM   10  O3  UNL     1      -1.326   0.452   0.247  1.00  0.00    -0.318 OA
ENDROOT
BRANCH   9  11
HETATM   11  C14 UNL     1      -3.685   1.077   0.055  1.00  0.00     0.040 A 
HETATM   12  C21 UNL     1      -3.637   2.426   0.632  1.00  0.00     0.020 A 
HETATM   13  C22 UNL     1      -3.296   2.210  -0.801  1.00  0.00     0.020 A 
BRANCH  11  14
HETATM   14  C15 UNL     1      -5.009   0.406  -0.080  1.00  0.00    -0.042 A 
HETATM   15  C16 UNL     1      -5.622  -0.087   1.045  1.00  0.00     0.008 A 
HETATM   16  C17 UNL     1      -6.830  -0.751   0.956  1.00  0.00     0.004 A 
HETATM   17  C18 UNL     1      -7.435  -0.932  -0.264  1.00  0.00     0.042 A 
HETATM   18  C19 UNL     1      -6.845  -0.454  -1.395  1.00  0.00     0.117 A 
HETATM   19  F1  UNL     1      -7.416  -0.609  -2.606  1.00  0.00    -0.206 F 
HETATM   20  C20 UNL     1      -5.616   0.225  -1.293  1.00  0.00     0.050 A 
ENDBRANCH  11  14
ENDBRANCH   9  11
BRANCH   1  21
HETATM   21  N4  UNL     1       3.675  -0.631  -0.774  1.00  0.00    -0.323 N 
HETATM   22  C4  UNL     1       4.593  -0.327   0.141  1.00  0.00     0.139 A 
HETATM   23  N2  UNL     1       4.516  -0.234   1.478  1.00  0.00    -0.336 N 
HETATM   24  C5  UNL     1       5.835  -0.073  -0.471  1.00  0.00     0.100 A 
HETATM   25  C3  UNL     1       5.616   0.094   2.165  1.00  0.00     0.182 A 
ATOM     26  H2  UNL     1       3.635  -0.410   1.961  1.00  0.00     0.168 HD
HETATM   27  N1  UNL     1       6.822   0.343   1.584  1.00  0.00    -0.354 N 
HETATM   28  C2  UNL     1       6.954   0.265   0.254  1.00  0.00     0.037 A 
ATOM     29  H1  UNL     1       7.625   0.589   2.162  1.00  0.00     0.166 HD
HETATM   30  C1  UNL     1       8.229   0.541  -0.423  1.00  0.00     0.070 C 
HETATM   31  N3  UNL     1       5.584  -0.248  -1.794  1.00  0.00    -0.348 N 
HETATM   32  C6  UNL     1       4.302  -0.579  -1.969  1.00  0.00     0.185 A 
ATOM     33  H3  UNL     1       6.271  -0.143  -2.541  1.00  0.00     0.167 HD
ENDBRANCH   1  21
TORSDOF 3
