REMARK  5 active torsions:
REMARK  status: ('A' for Active; 'I' for Inactive)
REMARK    1  A    between atoms: S1_3  and  C3_4 
REMARK    2  A    between atoms: C3_4  and  C4_5 
REMARK    3  A    between atoms: C5_6  and  C6_7 
REMARK    4  A    between atoms: C6_7  and  C8_10 
REMARK    5  A    between atoms: C6_7  and  C14_18 
ROOT
HETATM    1  C1  UNL     1       5.555   2.863   1.839  1.00  0.00     0.025 C 
HETATM    2  C2  UNL     1       5.416   2.465   0.702  1.00  0.00    -0.044 C 
HETATM    3  S1  UNL     1       5.241   1.899  -0.957  1.00  0.00    -0.067 SA
ENDROOT
BRANCH   3   4
HETATM    4  C3  UNL     1       3.537   2.123  -1.490  1.00  0.00     0.182 C 
BRANCH   4   5
HETATM    5  C4  UNL     1       2.601   1.283  -0.768  1.00  0.00    -0.093 C 
HETATM    6  C5  UNL     1       1.808   0.587  -0.184  1.00  0.00    -0.070 C 
BRANCH   6   7
HETATM    7  C6  UNL     1       0.819  -0.253   0.515  1.00  0.00     0.174 C 
HETATM    8  C7  UNL     1       1.052  -0.028   1.964  1.00  0.00     0.093 C 
HETATM    9  N1  UNL     1       1.255   0.153   3.090  1.00  0.00    -0.195 NA
BRANCH   7  10
HETATM   10  C8  UNL     1       0.925  -1.657   0.159  1.00  0.00    -0.017 A 
HETATM   11  C9  UNL     1       0.970  -2.627   1.126  1.00  0.00     0.012 A 
HETATM   12  C10 UNL     1       1.074  -3.980   0.781  1.00  0.00     0.026 A 
HETATM   13  C11 UNL     1       1.129  -4.310  -0.542  1.00  0.00     0.055 A 
HETATM   14 CL1  UNL     1       1.258  -5.981  -1.014  1.00  0.00    -0.083 Cl
HETATM   15  C12 UNL     1       1.085  -3.357  -1.535  1.00  0.00     0.056 A 
HETATM   16 CL2  UNL     1       1.161  -3.839  -3.218  1.00  0.00    -0.083 Cl
HETATM   17  C13 UNL     1       0.983  -2.038  -1.157  1.00  0.00     0.035 A 
ENDBRANCH   7  10
BRANCH   7  18
HETATM   18  C14 UNL     1      -0.518   0.328   0.222  1.00  0.00     0.049 A 
HETATM   19  S2  UNL     1      -0.833   1.617  -0.819  1.00  0.00    -0.071 SA
HETATM   20  C15 UNL     1      -2.567   1.710  -0.646  1.00  0.00     0.090 A 
HETATM   21  N2  UNL     1      -3.426   2.564  -1.241  1.00  0.00    -0.330 N 
HETATM   22  C18 UNL     1      -2.825   0.711   0.233  1.00  0.00     0.051 A 
HETATM   23  C16 UNL     1      -4.749   2.624  -1.099  1.00  0.00     0.144 A 
ATOM     24  H2  UNL     1      -3.012   3.246  -1.876  1.00  0.00     0.168 HD
HETATM   25  N3  UNL     1      -5.483   3.497  -1.728  1.00  0.00    -0.380 N 
HETATM   26  S3  UNL     1      -5.353   1.459  -0.031  1.00  0.00    -0.042 SA
ATOM     27  H32 UNL     1      -5.119   4.199  -2.372  1.00  0.00     0.158 HD
ATOM     28  H31 UNL     1      -6.496   3.543  -1.619  1.00  0.00     0.158 HD
HETATM   29  C17 UNL     1      -4.161   0.461   0.638  1.00  0.00     0.090 A 
HETATM   30  S4  UNL     1      -4.546  -0.733   1.700  1.00  0.00    -0.071 SA
HETATM   31  C19 UNL     1      -1.755  -0.013   0.688  1.00  0.00     0.077 A 
HETATM   32  N4  UNL     1      -1.817  -1.130   1.641  1.00  0.00    -0.100 NA
ENDBRANCH   7  18
ENDBRANCH   6   7
ENDBRANCH   4   5
ENDBRANCH   3   4
TORSDOF 5
