REMARK  9 active torsions:
REMARK  status: ('A' for Active; 'I' for Inactive)
REMARK    1  A    between atoms: S1_2  and  C2_3 
REMARK    2  A    between atoms: C2_3  and  N1_4 
REMARK    3  A    between atoms: C2_3  and  C7_12 
REMARK    4  A    between atoms: N1_4  and  S2_5 
REMARK    5  A    between atoms: S2_5  and  C3_8 
REMARK    6  A    between atoms: C10_15  and  N2_16 
REMARK    7  A    between atoms: N3_18  and  N4_20 
REMARK    8  A    between atoms: N4_20  and  C11_22 
REMARK    9  A    between atoms: C12_25  and  O3_26 
ROOT
HETATM    1  C7  UNL     1      -0.060   0.914   0.371  1.00  0.00     0.036 A 
HETATM    2  C8  UNL     1       0.133   0.108  -0.735  1.00  0.00     0.019 A 
HETATM    3  C9  UNL     1       1.330   0.133  -1.436  1.00  0.00     0.034 A 
HETATM    4  C10 UNL     1       2.375   0.952  -1.068  1.00  0.00     0.073 A 
HETATM    5  C14 UNL     1       2.183   1.756   0.035  1.00  0.00     0.084 A 
HETATM    6 CL1  UNL     1       3.510   2.807   0.516  1.00  0.00    -0.080 Cl
HETATM    7  C15 UNL     1       0.991   1.729   0.730  1.00  0.00     0.072 A 
HETATM    8 CL2  UNL     1       0.773   2.759   2.127  1.00  0.00    -0.081 Cl
ENDROOT
BRANCH   4   9
HETATM    9  N2  UNL     1       3.609   0.979  -1.789  1.00  0.00    -0.285 N 
HETATM   10  N3  UNL     1       4.531   0.142  -1.603  1.00  0.00    -0.240 N 
ATOM     11  H3  UNL     1       5.391   0.209  -2.147  1.00  0.00     0.208 HD
ATOM     12  H2  UNL     1       3.749   1.710  -2.486  1.00  0.00     0.188 HD
BRANCH  10  13
HETATM   13  N4  UNL     1       4.391  -0.862  -0.674  1.00  0.00    -0.265 N 
ATOM     14  H4  UNL     1       3.464  -1.196  -0.412  1.00  0.00     0.190 HD
BRANCH  13  15
HETATM   15  C11 UNL     1       5.466  -1.386  -0.128  1.00  0.00     0.166 A 
HETATM   16  N5  UNL     1       6.740  -1.072  -0.353  1.00  0.00    -0.316 N 
HETATM   17  C12 UNL     1       7.668  -1.713   0.294  1.00  0.00     0.148 A 
ATOM     18  H5  UNL     1       6.984  -0.341  -1.021  1.00  0.00     0.170 HD
HETATM   19  C13 UNL     1       7.277  -2.684   1.178  1.00  0.00     0.109 A 
HETATM   20  S3  UNL     1       5.576  -2.628   1.035  1.00  0.00    -0.060 SA
BRANCH  17  21
HETATM   21  O3  UNL     1       9.061  -1.460   0.132  1.00  0.00    -0.346 OA
ATOM     22  H3  UNL     1       9.739  -1.928   0.605  1.00  0.00     0.219 HD
ENDBRANCH  17  21
ENDBRANCH  13  15
ENDBRANCH  10  13
ENDBRANCH   4   9
BRANCH   1  23
HETATM   23  C2  UNL     1      -1.325   0.895   1.120  1.00  0.00     0.169 C 
BRANCH  23  24
HETATM   24  S1  UNL     1      -1.420   2.002   2.538  1.00  0.00    -0.100 SA
HETATM   25  C1  UNL     1      -3.057   1.794   3.284  1.00  0.00     0.098 C 
ENDBRANCH  23  24
BRANCH  23  26
HETATM   26  N1  UNL     1      -2.222   0.202   0.818  1.00  0.00    -0.314 NA
BRANCH  26  27
HETATM   27  S2  UNL     1      -3.413  -0.763   0.361  1.00  0.00     0.300 S 
HETATM   28  O1  UNL     1      -2.877  -2.147  -0.036  1.00  0.00    -0.191 OA
HETATM   29  O2  UNL     1      -4.429  -1.007   1.484  1.00  0.00    -0.191 OA
BRANCH  27  30
HETATM   30  C3  UNL     1      -4.395  -0.254  -1.038  1.00  0.00     0.084 C 
HETATM   31  C4  UNL     1      -5.079   1.055  -0.818  1.00  0.00     0.034 C 
HETATM   32  C5  UNL     1      -3.545  -0.174  -2.284  1.00  0.00     0.034 C 
HETATM   33  C6  UNL     1      -5.454  -1.318  -1.239  1.00  0.00     0.034 C 
ENDBRANCH  27  30
ENDBRANCH  26  27
ENDBRANCH  23  26
ENDBRANCH   1  23
TORSDOF 9
