REMARK  4 active torsions:
REMARK  status: ('A' for Active; 'I' for Inactive)
REMARK    1  A    between atoms: C3_8  and  C4_9 
REMARK    2  A    between atoms: C9_21  and  N6_22 
REMARK    3  A    between atoms: N6_22  and  C10_24 
REMARK    4  A    between atoms: C13_29  and  C14_30 
ROOT
HETATM    1 CL1  UNL     1      -0.575  -0.932   3.537  1.00  0.00    -0.062 Cl
HETATM    2  C1  UNL     1      -1.680  -0.798   2.164  1.00  0.00     0.134 A 
HETATM    3  N1  UNL     1      -2.899  -0.311   2.334  1.00  0.00    -0.329 N 
ATOM      4  H1  UNL     1      -3.205  -0.011   3.260  1.00  0.00     0.168 HD
HETATM    5  C2  UNL     1      -3.736  -0.212   1.282  1.00  0.00     0.137 A 
HETATM    6  N2  UNL     1      -5.002   0.226   1.123  1.00  0.00    -0.326 N 
ATOM      7  H2  UNL     1      -5.591   0.595   1.869  1.00  0.00     0.169 HD
HETATM    8  C3  UNL     1      -5.373   0.105  -0.163  1.00  0.00     0.120 A 
HETATM    9  N5  UNL     1      -4.342  -0.412  -0.828  1.00  0.00    -0.337 N 
ATOM     10  H5  UNL     1      -4.329  -0.618  -1.827  1.00  0.00     0.167 HD
HETATM   11  C7  UNL     1      -3.307  -0.623   0.032  1.00  0.00     0.102 A 
HETATM   12  C8  UNL     1      -2.044  -1.131  -0.161  1.00  0.00     0.095 A 
HETATM   13 CL2  UNL     1      -1.488  -1.654  -1.730  1.00  0.00    -0.079 Cl
HETATM   14  C9  UNL     1      -1.206  -1.220   0.944  1.00  0.00     0.112 A 
ENDROOT
BRANCH  14  15
HETATM   15  N6  UNL     1       0.113  -1.739   0.798  1.00  0.00    -0.187 N 
ATOM     16  H6  UNL     1       0.288  -2.738   0.911  1.00  0.00     0.184 HD
BRANCH  15  17
HETATM   17  C10 UNL     1       1.105  -0.919   0.516  1.00  0.00     0.683 A 
HETATM   18  N7  UNL     1       2.332  -1.411   0.383  1.00  0.00    -0.190 N 
HETATM   19  C11 UNL     1       3.389  -0.585   0.089  1.00  0.00     0.069 A 
ATOM     20  H7  UNL     1       2.490  -2.412   0.500  1.00  0.00     0.184 HD
HETATM   21  C12 UNL     1       4.688  -0.941  -0.076  1.00  0.00     0.051 A 
HETATM   22  C18 UNL     1       3.081   0.734  -0.048  1.00  0.00     0.049 A 
HETATM   23  C13 UNL     1       5.566   0.052  -0.364  1.00  0.00     0.018 A 
HETATM   24  S2  UNL     1       4.582   1.450  -0.400  1.00  0.00    -0.086 SA
HETATM   25  C19 UNL     1       1.774   1.215   0.101  1.00  0.00     0.127 A 
HETATM   26  N8  UNL     1       0.761   0.380   0.389  1.00  0.00    -0.200 N 
ATOM     27  H8  UNL     1      -0.199   0.705   0.503  1.00  0.00     0.183 HD
BRANCH  23  28
HETATM   28  C14 UNL     1       7.036  -0.053  -0.594  1.00  0.00    -0.012 A 
HETATM   29  C15 UNL     1       7.789   1.028  -0.873  1.00  0.00     0.020 A 
HETATM   30  C16 UNL     1       9.125   0.818  -1.065  1.00  0.00     0.050 A 
HETATM   31  S1  UNL     1       9.294  -0.860  -0.854  1.00  0.00    -0.113 SA
HETATM   32  C17 UNL     1       7.673  -1.261  -0.527  1.00  0.00     0.062 A 
ENDBRANCH  23  28
ENDBRANCH  15  17
ENDBRANCH  14  15
BRANCH   8  33
HETATM   33  C4  UNL     1      -6.685   0.485  -0.695  1.00  0.00     0.042 A 
HETATM   34  C5  UNL     1      -7.755   1.018  -0.021  1.00  0.00     0.123 A 
HETATM   35  N3  UNL     1      -8.764   1.221  -0.875  1.00  0.00    -0.311 N 
HETATM   36  N4  UNL     1      -8.344   0.824  -2.072  1.00  0.00    -0.311 N 
ATOM     37  H3  UNL     1      -9.681   1.607  -0.651  1.00  0.00     0.186 HD
HETATM   38  C6  UNL     1      -7.082   0.369  -2.004  1.00  0.00     0.123 A 
ATOM     39  H4  UNL     1      -8.903   0.860  -2.925  1.00  0.00     0.186 HD
ENDBRANCH   8  33
TORSDOF 4
