REMARK  5 active torsions:
REMARK  status: ('A' for Active; 'I' for Inactive)
REMARK    1  A    between atoms: C2_2  and  C3_3 
REMARK    2  A    between atoms: C3_3  and  C4_4 
REMARK    3  A    between atoms: C4_4  and  N1_5 
REMARK       I    between atoms: N2_7  and  C6_8 
REMARK    4  A    between atoms: C6_8  and  C7_10 
REMARK    5  A    between atoms: C7_10  and  C8_11 
ROOT
HETATM    1  N1  UNL     1       2.032  -1.204   0.416  1.00  0.00    -0.349 N 
HETATM    2  C5  UNL     1       1.060  -0.134   0.425  1.00  0.00     0.254 C 
HETATM    3  N2  UNL     1      -0.196  -0.508  -0.179  1.00  0.00    -0.326 N 
HETATM    4  C6  UNL     1      -1.356   0.266   0.233  1.00  0.00     0.222 C 
HETATM    5  O1  UNL     1      -1.217   1.202   1.056  1.00  0.00    -0.273 OA
HETATM    6  C12 UNL     1      -0.360  -1.538  -1.153  1.00  0.00     0.139 C 
HETATM    7  C13 UNL     1      -0.440  -0.932  -2.566  1.00  0.00     0.039 C 
HETATM    8  C14 UNL     1       0.747  -2.567  -1.134  1.00  0.00     0.084 A 
HETATM    9  N3  UNL     1       0.679  -3.706  -1.866  1.00  0.00    -0.311 N 
ATOM     10  H3  UNL     1      -0.076  -4.010  -2.480  1.00  0.00     0.175 HD
HETATM   11  S1  UNL     1       2.108  -4.497  -1.536  1.00  0.00     0.069 SA
HETATM   12  N4  UNL     1       2.774  -3.381  -0.478  1.00  0.00    -0.297 N 
ATOM     13  H4  UNL     1       3.673  -3.433   0.001  1.00  0.00     0.177 HD
HETATM   14  C15 UNL     1       1.857  -2.403  -0.404  1.00  0.00     0.137 A 
ENDROOT
BRANCH   4  15
HETATM   15  C7  UNL     1      -2.689  -0.026  -0.298  1.00  0.00     0.111 C 
BRANCH  15  16
HETATM   16  C8  UNL     1      -3.792   0.858   0.189  1.00  0.00    -0.043 C 
HETATM   17  C9  UNL     1      -5.108   0.405  -0.484  1.00  0.00     0.015 C 
HETATM   18  C10 UNL     1      -4.077   0.755   1.668  1.00  0.00     0.015 C 
HETATM   19  C11 UNL     1      -3.596   2.300  -0.174  1.00  0.00     0.015 C 
ENDBRANCH  15  16
ENDBRANCH   4  15
BRANCH   1  20
HETATM   20  C4  UNL     1       3.192  -1.046   1.233  1.00  0.00     0.126 C 
BRANCH  20  21
HETATM   21  C3  UNL     1       4.255  -0.118   0.832  1.00  0.00     0.020 C 
BRANCH  21  22
HETATM   22  C2  UNL     1       3.981   1.318   0.635  1.00  0.00    -0.003 C 
HETATM   23  C1  UNL     1       5.347   1.975   0.292  1.00  0.00     0.005 C 
ENDBRANCH  21  22
ENDBRANCH  20  21
ENDBRANCH   1  20
TORSDOF 5
