REMARK  4 active torsions:
REMARK  status: ('A' for Active; 'I' for Inactive)
REMARK    1  A    between atoms: C2_2  and  C3_3 
REMARK    2  A    between atoms: C3_3  and  N1_4 
REMARK    3  A    between atoms: N2_8  and  C7_9 
REMARK    4  A    between atoms: C12_14  and  C13_15 
ROOT
HETATM    1  C7  UNL     1      -1.287   0.600  -0.358  1.00  0.00     0.235 C 
HETATM    2  C8  UNL     1      -0.860   2.001  -0.630  1.00  0.00     0.036 C 
HETATM    3  C9  UNL     1      -2.112   2.880  -0.493  1.00  0.00     0.002 C 
HETATM    4  C10 UNL     1      -2.313   2.915   1.026  1.00  0.00     0.001 C 
HETATM    5  C11 UNL     1      -2.770   1.583   1.466  1.00  0.00     0.015 C 
HETATM    6  C12 UNL     1      -2.168   0.385   0.811  1.00  0.00     0.096 C 
ENDROOT
BRANCH   1   7
HETATM    7  N2  UNL     1      -0.196  -0.351  -0.379  1.00  0.00     0.099 N 
HETATM    8  C6  UNL     1       0.419  -0.445  -1.687  1.00  0.00     0.278 C 
HETATM    9  C5  UNL     1       1.332  -1.635  -1.803  1.00  0.00     0.075 C 
HETATM   10  C4  UNL     1       2.584  -1.521  -0.983  1.00  0.00     0.070 C 
HETATM   11  N1  UNL     1       2.946  -0.215  -0.633  1.00  0.00    -0.353 N 
HETATM   12  C17 UNL     1       2.038   0.600   0.070  1.00  0.00     0.098 C 
HETATM   13  C16 UNL     1       0.825  -0.076   0.593  1.00  0.00     0.318 C 
BRANCH  11  14
HETATM   14  C3  UNL     1       4.257   0.232  -0.840  1.00  0.00     0.068 C 
BRANCH  14  15
HETATM   15  C2  UNL     1       5.311  -0.385   0.016  1.00  0.00     0.040 C 
HETATM   16  C1  UNL     1       5.085  -0.158   1.491  1.00  0.00     0.010 C 
ENDBRANCH  14  15
ENDBRANCH  11  14
ENDBRANCH   1   7
BRANCH   6  17
HETATM   17  C13 UNL     1      -3.301  -0.511   0.473  1.00  0.00     0.154 A 
HETATM   18  N3  UNL     1      -3.676  -1.677   1.011  1.00  0.00    -0.327 N 
HETATM   19  C14 UNL     1      -4.786  -2.135   0.368  1.00  0.00     0.100 A 
ATOM     20  H3  UNL     1      -3.204  -2.149   1.782  1.00  0.00     0.169 HD
HETATM   21  C15 UNL     1      -5.517  -3.384   0.665  1.00  0.00     0.091 C 
HETATM   22  N4  UNL     1      -5.057  -1.209  -0.564  1.00  0.00    -0.248 N 
HETATM   23  O1  UNL     1      -4.158  -0.255  -0.480  1.00  0.00    -0.222 OA
ATOM     24  H4  UNL     1      -5.832  -1.240  -1.227  1.00  0.00     0.196 HD
ENDBRANCH   6  17
TORSDOF 4
