REMARK  4 active torsions:
REMARK  status: ('A' for Active; 'I' for Inactive)
REMARK    1  A    between atoms: C2_2  and  C3_3 
REMARK    2  A    between atoms: C3_3  and  C4_4 
REMARK    3  A    between atoms: C4_4  and  N1_5 
REMARK    4  A    between atoms: C6_7  and  C7_8 
ROOT
HETATM    1  N1  UNL     1       1.114  -0.032  -0.385  1.00  0.00    -0.388 N 
HETATM    2  C5  UNL     1       0.512   1.256  -0.490  1.00  0.00     0.101 C 
HETATM    3  C6  UNL     1      -0.714   1.458   0.033  1.00  0.00     0.055 C 
HETATM    4  C10 UNL     1      -1.288   0.286   0.679  1.00  0.00     0.206 C 
HETATM    5  O2  UNL     1      -2.523   0.392   1.214  1.00  0.00    -0.348 OA
HETATM    6  C11 UNL     1      -2.468   0.237   2.597  1.00  0.00     0.198 C 
HETATM    7  C12 UNL     1      -1.125  -0.352   2.834  1.00  0.00     0.198 C 
HETATM    8  O3  UNL     1      -0.399  -0.115   1.708  1.00  0.00    -0.348 OA
HETATM    9  C13 UNL     1      -1.186  -0.878  -0.319  1.00  0.00     0.037 C 
HETATM   10  C14 UNL     1      -1.720  -2.101   0.424  1.00  0.00     0.017 C 
HETATM   11  C15 UNL     1      -2.135  -2.968  -0.773  1.00  0.00     0.001 C 
HETATM   12  C16 UNL     1      -2.974  -1.958  -1.548  1.00  0.00     0.001 C 
HETATM   13  C17 UNL     1      -2.074  -0.716  -1.502  1.00  0.00     0.017 C 
HETATM   14  C18 UNL     1       0.256  -1.181  -0.641  1.00  0.00     0.137 C 
ENDROOT
BRANCH   3  15
HETATM   15  C7  UNL     1      -1.270   2.770  -0.103  1.00  0.00     0.105 A 
HETATM   16  C8  UNL     1      -2.490   3.232   0.333  1.00  0.00     0.127 A 
HETATM   17  N2  UNL     1      -2.614   4.528  -0.003  1.00  0.00    -0.354 N 
HETATM   18  C9  UNL     1      -1.492   4.850  -0.631  1.00  0.00     0.233 A 
ATOM     19  H2  UNL     1      -3.409   5.138   0.187  1.00  0.00     0.166 HD
HETATM   20  O1  UNL     1      -0.716   3.826  -0.686  1.00  0.00    -0.304 OA
ENDBRANCH   3  15
BRANCH   1  21
HETATM   21  C4  UNL     1       2.502  -0.182  -0.045  1.00  0.00     0.122 C 
BRANCH  21  22
HETATM   22  C3  UNL     1       3.364  -0.705  -1.157  1.00  0.00     0.019 C 
BRANCH  22  23
HETATM   23  C2  UNL     1       4.783  -0.795  -0.616  1.00  0.00    -0.003 C 
HETATM   24  C1  UNL     1       5.273   0.564  -0.171  1.00  0.00     0.005 C 
ENDBRANCH  22  23
ENDBRANCH  21  22
ENDBRANCH   1  21
TORSDOF 4
