REMARK  4 active torsions:
REMARK  status: ('A' for Active; 'I' for Inactive)
REMARK    1  A    between atoms: C4_4  and  C5_5 
REMARK    2  A    between atoms: C5_5  and  N1_6 
REMARK    3  A    between atoms: N2_9  and  C8_10 
REMARK    4  A    between atoms: C9_15  and  C10_16 
ROOT
HETATM    1  N1  UNL     1      -1.044  -0.786   0.264  1.00  0.00    -0.370 N 
HETATM    2  C6  UNL     1      -0.331   0.120   1.027  1.00  0.00     0.147 C 
HETATM    3  C7  UNL     1       1.021  -0.487   1.439  1.00  0.00     0.145 C 
HETATM    4  N2  UNL     1       1.672  -0.951   0.236  1.00  0.00    -0.354 N 
HETATM    5  C13 UNL     1       0.976  -1.699  -0.782  1.00  0.00     0.169 C 
HETATM    6  C14 UNL     1      -0.464  -1.232  -0.912  1.00  0.00     0.083 C 
ENDROOT
BRANCH   4   7
HETATM    7  C8  UNL     1       3.048  -0.656   0.039  1.00  0.00     0.163 A 
HETATM    8  N3  UNL     1       4.136  -1.344   0.338  1.00  0.00    -0.279 N 
HETATM    9  N4  UNL     1       5.283  -0.891   0.077  1.00  0.00    -0.296 N 
ATOM     10  H3  UNL     1       4.046  -2.256   0.787  1.00  0.00     0.189 HD
HETATM   11  C9  UNL     1       5.408   0.296  -0.506  1.00  0.00     0.074 A 
ATOM     12  H4  UNL     1       6.113  -1.435   0.313  1.00  0.00     0.187 HD
HETATM   13  S1  UNL     1       3.771   0.755  -0.674  1.00  0.00    -0.038 SA
BRANCH  11  14
HETATM   14  C10 UNL     1       6.640   1.042  -0.911  1.00  0.00     0.044 A 
HETATM   15  C11 UNL     1       7.904   0.363  -1.185  1.00  0.00     0.012 A 
HETATM   16  C12 UNL     1       7.723   1.052   0.137  1.00  0.00     0.012 A 
ENDBRANCH  11  14
ENDBRANCH   4   7
BRANCH   1  17
HETATM   17  C5  UNL     1      -2.339  -1.186   0.556  1.00  0.00     0.068 C 
BRANCH  17  18
HETATM   18  C4  UNL     1      -3.381  -0.103   0.398  1.00  0.00     0.024 C 
HETATM   19  C3  UNL     1      -4.775  -0.640   0.745  1.00  0.00     0.010 C 
HETATM   20  C2  UNL     1      -5.654   0.604   0.864  1.00  0.00     0.001 C 
HETATM   21  C1  UNL     1      -5.705   1.358  -0.427  1.00  0.00     0.000 C 
HETATM   22  C16 UNL     1      -4.331   1.706  -0.918  1.00  0.00     0.001 C 
HETATM   23  C15 UNL     1      -3.496   0.420  -1.013  1.00  0.00     0.010 C 
ENDBRANCH  17  18
ENDBRANCH   1  17
TORSDOF 4
