REMARK  3 active torsions:
REMARK  status: ('A' for Active; 'I' for Inactive)
REMARK    1  A    between atoms: C1_2  and  S1_4 
REMARK    2  A    between atoms: S1_4  and  C2_5 
REMARK    3  A    between atoms: C2_5  and  C3_6 
ROOT
HETATM    1  C3  UNL     1       0.531  -1.316   0.019  1.00  0.00     0.158 C 
HETATM    2  C4  UNL     1      -0.336  -1.749  -1.184  1.00  0.00     0.204 C 
HETATM    3  O2  UNL     1      -1.590  -1.425  -0.653  1.00  0.00    -0.352 OA
HETATM    4  C5  UNL     1      -1.390  -0.214  -0.022  1.00  0.00     0.164 C 
HETATM    5  C6  UNL     1      -1.827   0.887  -0.966  1.00  0.00     0.068 C 
HETATM    6  C7  UNL     1      -2.881   1.667  -0.233  1.00  0.00     0.006 C 
HETATM    7  C8  UNL     1      -2.646   1.414   1.250  1.00  0.00     0.006 C 
HETATM    8  C9  UNL     1      -2.182  -0.043   1.222  1.00  0.00     0.068 C 
HETATM    9  O3  UNL     1      -0.024  -0.095   0.285  1.00  0.00    -0.347 OA
ENDROOT
BRANCH   1  10
HETATM   10  C2  UNL     1       1.974  -1.434  -0.294  1.00  0.00     0.117 C 
BRANCH  10  11
HETATM   11  S1  UNL     1       3.045  -0.932   1.045  1.00  0.00    -0.070 SA
BRANCH  11  12
HETATM   12  C1  UNL     1       3.902   0.602   0.624  1.00  0.00     0.292 C 
HETATM   13  N1  UNL     1       4.929   0.505  -0.399  1.00  0.00    -0.051 NA
HETATM   14  O1  UNL     1       3.597   1.646   1.201  1.00  0.00    -0.264 OA
ENDBRANCH  11  12
ENDBRANCH  10  11
ENDBRANCH   1  10
TORSDOF 3
