REMARK  3 active torsions:
REMARK  status: ('A' for Active; 'I' for Inactive)
REMARK    1  A    between atoms: C2_2  and  C3_3 
REMARK    2  A    between atoms: C8_10  and  C9_11 
REMARK    3  A    between atoms: C9_11  and  O3_12 
ROOT
HETATM    1  C3  UNL     1      -1.197   0.072  -0.425  1.00  0.00    -0.001 C 
HETATM    2  C4  UNL     1      -1.496   1.179   0.591  1.00  0.00     0.022 C 
HETATM    3  C5  UNL     1      -0.432   0.647  -1.599  1.00  0.00     0.018 C 
HETATM    4  C6  UNL     1       0.800   1.377  -1.209  1.00  0.00     0.042 C 
HETATM    5  C7  UNL     1       1.991   0.514  -0.952  1.00  0.00     0.228 C 
HETATM    6  O1  UNL     1       2.117  -0.635  -1.684  1.00  0.00    -0.227 OA
HETATM    7  O2  UNL     1       2.252  -1.295  -0.528  1.00  0.00    -0.195 OA
HETATM    8  C8  UNL     1       1.914  -0.273   0.317  1.00  0.00     0.248 C 
HETATM    9  O4  UNL     1       0.677  -0.301   0.903  1.00  0.00    -0.343 OA
HETATM   10  C10 UNL     1      -0.294  -0.964   0.195  1.00  0.00     0.133 C 
HETATM   11  C11 UNL     1      -1.045  -1.899   1.115  1.00  0.00     0.040 C 
ENDROOT
BRANCH   1  12
HETATM   12  C2  UNL     1      -2.473  -0.468  -0.906  1.00  0.00    -0.025 C 
HETATM   13  C1  UNL     1      -3.653   0.063  -0.646  1.00  0.00     0.008 C 
ENDBRANCH   1  12
BRANCH   8  14
HETATM   14  C9  UNL     1       2.971   0.149   1.318  1.00  0.00     0.238 C 
BRANCH  14  15
HETATM   15  O3  UNL     1       3.291  -0.939   2.135  1.00  0.00    -0.395 OA
ATOM     16  H3  UNL     1       3.954  -0.675   2.762  1.00  0.00     0.209 HD
ENDBRANCH  14  15
ENDBRANCH   8  14
TORSDOF 3
