REMARK  2 active torsions:
REMARK  status: ('A' for Active; 'I' for Inactive)
REMARK    1  A    between atoms: O1_2  and  C2_3 
REMARK    2  A    between atoms: N1_11  and  N2_13 
ROOT
HETATM    1  C2  UNL     1      -0.907   1.569   0.178  1.00  0.00     0.191 C 
HETATM    2  C3  UNL     1      -1.952   1.030   1.166  1.00  0.00     0.206 C 
HETATM    3  O2  UNL     1      -2.769   0.233   0.365  1.00  0.00    -0.378 OA
HETATM    4  C4  UNL     1      -2.171  -0.909  -0.069  1.00  0.00     0.059 C 
HETATM    5  C5  UNL     1      -2.524  -2.017   0.934  1.00  0.00     0.046 C 
HETATM    6  C6  UNL     1      -2.853  -1.308  -1.386  1.00  0.00     0.046 C 
HETATM    7  C7  UNL     1      -0.720  -0.896  -0.284  1.00  0.00     0.094 C 
HETATM    8  C8  UNL     1      -0.035   0.388  -0.067  1.00  0.00     0.037 C 
HETATM    9  N1  UNL     1       1.235   0.443  -0.094  1.00  0.00    -0.306 N 
ATOM     10  H1  UNL     1       1.701   1.337   0.058  1.00  0.00     0.186 HD
ENDROOT
BRANCH   1  11
HETATM   11  O1  UNL     1      -0.253   2.662   0.644  1.00  0.00    -0.383 OA
HETATM   12  C1  UNL     1      -0.421   3.704  -0.264  1.00  0.00     0.202 C 
ENDBRANCH   1  11
BRANCH   9  13
HETATM   13  N2  UNL     1       1.996  -0.691  -0.327  1.00  0.00    -0.310 N 
HETATM   14  C9  UNL     1       3.250  -0.686  -0.067  1.00  0.00    -0.004 C 
HETATM   15  C10 UNL     1       3.869   0.540   0.482  1.00  0.00     0.064 C 
HETATM   16  C11 UNL     1       4.029  -1.922  -0.331  1.00  0.00     0.064 C 
ATOM     17  H2  UNL     1       1.557  -1.530  -0.706  1.00  0.00     0.186 HD
ENDBRANCH   9  13
TORSDOF 2
