REMARK  14 active torsions:
REMARK  status: ('A' for Active; 'I' for Inactive)
REMARK    1  A    between atoms: N1_1  and  N2_4 
REMARK    2  A    between atoms: N2_4  and  C1_6 
REMARK    3  A    between atoms: C3_10  and  N4_11 
REMARK    4  A    between atoms: N7_20  and  C6_21 
REMARK    5  A    between atoms: C7_22  and  O1_23 
REMARK    6  A    between atoms: C8_25  and  O2_26 
REMARK    7  A    between atoms: C9_28  and  C10_29 
REMARK    8  A    between atoms: C10_29  and  N8_30 
REMARK       I    between atoms: N8_30  and  C11_31 
REMARK    9  A    between atoms: C11_31  and  C12_33 
REMARK   10  A    between atoms: C16_41  and  N10_42 
REMARK   11  A    between atoms: C17_45  and  N11_46 
REMARK   12  A    between atoms: N11_46  and  O6_47 
REMARK   13  A    between atoms: N11_46  and  O7_49 
REMARK   14  A    between atoms: C19_54  and  O8_55 
ROOT
HETATM    1  C6  UNL     1      -2.840   0.191  -0.400  1.00  0.00     0.170 C 
HETATM    2  C7  UNL     1      -2.877  -0.611  -1.652  1.00  0.00     0.174 C 
HETATM    3  C8  UNL     1      -1.315  -0.775  -1.811  1.00  0.00     0.161 C 
HETATM    4  C9  UNL     1      -1.067  -1.415  -0.480  1.00  0.00     0.100 C 
HETATM    5  C19 UNL     1      -1.787  -0.515   0.485  1.00  0.00     0.157 C 
ENDROOT
BRANCH   4   6
HETATM    6  C10 UNL     1       0.279  -1.829  -0.115  1.00  0.00     0.169 C 
BRANCH   6   7
HETATM    7  N8  UNL     1       1.375  -1.064   0.032  1.00  0.00    -0.385 NA
HETATM    8  C11 UNL     1       2.467  -0.303   0.178  1.00  0.00     0.320 C 
HETATM    9  O3  UNL     1       2.747   0.677   0.943  1.00  0.00    -0.254 OA
BRANCH   8  10
HETATM   10  C12 UNL     1       3.673  -0.619  -0.729  1.00  0.00     0.242 A 
HETATM   11  N9  UNL     1       3.304  -0.517  -2.076  1.00  0.00    -0.377 N 
HETATM   12  C13 UNL     1       3.959   0.113  -2.960  1.00  0.00     0.142 A 
ATOM     13  H9  UNL     1       2.445  -0.984  -2.367  1.00  0.00     0.160 HD
HETATM   14  C14 UNL     1       5.192   0.803  -2.628  1.00  0.00     0.222 A 
HETATM   15  O4  UNL     1       5.884   1.444  -3.459  1.00  0.00    -0.284 OA
HETATM   16  C15 UNL     1       5.651   0.742  -1.229  1.00  0.00     0.154 A 
HETATM   17  O5  UNL     1       6.778   1.357  -0.894  1.00  0.00    -0.285 OA
HETATM   18  C18 UNL     1       4.889   0.044  -0.330  1.00  0.00     0.082 A 
HETATM   19  C16 UNL     1       7.191   1.301   0.344  1.00  0.00     0.185 A 
HETATM   20  C17 UNL     1       6.458   0.610   1.288  1.00  0.00     0.187 A 
HETATM   21  N12 UNL     1       5.326  -0.012   0.974  1.00  0.00    -0.339 N 
ATOM     22  H12 UNL     1       4.794  -0.518   1.682  1.00  0.00     0.167 HD
BRANCH  19  23
HETATM   23  N10 UNL     1       8.287   1.883   0.730  1.00  0.00    -0.377 N 
ATOM     24 2H10 UNL     1       8.829   2.394   0.033  1.00  0.00     0.158 HD
ATOM     25 1H10 UNL     1       8.609   1.839   1.697  1.00  0.00     0.158 HD
ENDBRANCH  19  23
BRANCH  20  26
HETATM   26  N11 UNL     1       6.985   0.588   2.639  1.00  0.00    -0.015 NA
BRANCH  26  27
HETATM   27  O6  UNL     1       7.955   1.555   2.773  1.00  0.00    -0.283 OA
ATOM     28  H6  UNL     1       8.300   1.541   3.658  1.00  0.00     0.240 HD
ENDBRANCH  26  27
BRANCH  26  29
HETATM   29  O7  UNL     1       7.592  -0.589   2.859  1.00  0.00    -0.283 OA
ATOM     30  H7  UNL     1       7.937  -0.603   3.744  1.00  0.00     0.240 HD
ENDBRANCH  26  29
ENDBRANCH  20  26
ENDBRANCH   8  10
ENDBRANCH   6   7
ENDBRANCH   4   6
BRANCH   3  31
HETATM   31  O2  UNL     1      -0.767   0.462  -1.999  1.00  0.00    -0.392 OA
ATOM     32  H2  UNL     1       0.173   0.363  -2.095  1.00  0.00     0.210 HD
ENDBRANCH   3  31
BRANCH   5  33
HETATM   33  O8  UNL     1      -2.449  -1.294   1.433  1.00  0.00    -0.393 OA
ATOM     34  H8  UNL     1      -1.802  -1.728   1.977  1.00  0.00     0.210 HD
ENDBRANCH   5  33
BRANCH   2  35
HETATM   35  O1  UNL     1      -3.342  -1.904  -1.537  1.00  0.00    -0.391 OA
ATOM     36  H1  UNL     1      -3.366  -2.416  -2.337  1.00  0.00     0.210 HD
ENDBRANCH   2  35
BRANCH   1  37
HETATM   37  N7  UNL     1      -4.045   0.487   0.273  1.00  0.00    -0.154 N 
HETATM   38  C1  UNL     1      -4.062   1.151   1.446  1.00  0.00     0.701 A 
HETATM   39  N3  UNL     1      -5.328   1.271   1.825  1.00  0.00    -0.183 N 
HETATM   40  C2  UNL     1      -6.162   0.696   0.918  1.00  0.00     0.137 A 
ATOM     41  H3  UNL     1      -5.634   1.732   2.682  1.00  0.00     0.184 HD
HETATM   42  C3  UNL     1      -7.507   0.543   0.819  1.00  0.00     0.131 A 
HETATM   43  C5  UNL     1      -5.318   0.211  -0.049  1.00  0.00     0.156 A 
HETATM   44  N5  UNL     1      -8.057  -0.088  -0.230  1.00  0.00    -0.337 N 
HETATM   45  C4  UNL     1      -7.228  -0.559  -1.174  1.00  0.00     0.183 A 
ATOM     46  H5  UNL     1      -9.067  -0.205  -0.307  1.00  0.00     0.168 HD
HETATM   47  N6  UNL     1      -5.905  -0.421  -1.098  1.00  0.00    -0.336 N 
ATOM     48  H6  UNL     1      -5.320  -0.798  -1.844  1.00  0.00     0.168 HD
BRANCH  38  49
HETATM   49  N2  UNL     1      -2.930   1.674   2.175  1.00  0.00    -0.138 N 
ATOM     50  H2  UNL     1      -2.464   1.128   2.900  1.00  0.00     0.205 HD
BRANCH  49  51
HETATM   51  N1  UNL     1      -2.535   2.863   1.868  1.00  0.00    -0.331 N 
ATOM     52  H12 UNL     1      -3.011   3.397   1.141  1.00  0.00     0.177 HD
ATOM     53  H11 UNL     1      -1.736   3.232   2.383  1.00  0.00     0.177 HD
ENDBRANCH  49  51
ENDBRANCH  38  49
BRANCH  42  54
HETATM   54  N4  UNL     1      -8.251   1.015   1.763  1.00  0.00    -0.383 N 
ATOM     55  H42 UNL     1      -7.833   1.495   2.560  1.00  0.00     0.157 HD
ATOM     56  H41 UNL     1      -9.262   0.900   1.689  1.00  0.00     0.157 HD
ENDBRANCH  42  54
ENDBRANCH   1  37
TORSDOF 14
