REMARK  11 active torsions:
REMARK  status: ('A' for Active; 'I' for Inactive)
REMARK    1  A    between atoms: N5_15  and  C6_16 
REMARK    2  A    between atoms: C6_16  and  C7_17 
REMARK    3  A    between atoms: C7_17  and  O1_18 
REMARK    4  A    between atoms: C7_17  and  C8_20 
REMARK    5  A    between atoms: C8_20  and  N6_21 
REMARK       I    between atoms: C9_23  and  N8_25 
REMARK    6  A    between atoms: N12_38  and  C15_39 
REMARK    7  A    between atoms: C16_41  and  C17_42 
REMARK    8  A    between atoms: C17_42  and  N13_43 
REMARK    9  A    between atoms: C17_42  and  C18_47 
REMARK   10  A    between atoms: C19_50  and  O4_51 
REMARK   11  A    between atoms: C20_53  and  O5_54 
ROOT
HETATM    1  N6  UNL     1       2.461   1.693  -0.230  1.00  0.00    -0.362 N 
ATOM      2  H6  UNL     1       2.239   1.093  -1.024  1.00  0.00     0.162 HD
HETATM    3  C9  UNL     1       1.932   1.404   0.885  1.00  0.00     0.189 C 
HETATM    4  N7  UNL     1       2.219   2.216   2.013  1.00  0.00    -0.063 NA
HETATM    5  N8  UNL     1       1.072   0.285   0.988  1.00  0.00    -0.315 N 
ATOM      6  H8  UNL     1       1.449  -0.631   1.230  1.00  0.00     0.170 HD
HETATM    7  C10 UNL     1      -0.187   0.430   0.775  1.00  0.00     0.139 A 
HETATM    8  N9  UNL     1      -0.678   1.629   0.457  1.00  0.00    -0.337 N 
ATOM      9  H9  UNL     1      -0.024   2.409   0.392  1.00  0.00     0.168 HD
HETATM   10  C11 UNL     1      -1.974   1.879   0.217  1.00  0.00     0.183 A 
HETATM   11  N10 UNL     1      -2.827   0.831   0.306  1.00  0.00    -0.336 N 
ATOM     12  H10 UNL     1      -3.819   0.989   0.128  1.00  0.00     0.168 HD
HETATM   13  C12 UNL     1      -2.417  -0.409   0.620  1.00  0.00     0.142 A 
HETATM   14  C13 UNL     1      -1.062  -0.629   0.863  1.00  0.00     0.122 A 
HETATM   15  N11 UNL     1      -0.920  -1.918   1.148  1.00  0.00    -0.346 N 
ATOM     16  H11 UNL     1      -0.035  -2.374   1.371  1.00  0.00     0.167 HD
HETATM   17  C14 UNL     1      -2.110  -2.533   1.100  1.00  0.00     0.188 A 
HETATM   18  N12 UNL     1      -3.024  -1.599   0.775  1.00  0.00    -0.297 N 
ENDROOT
BRANCH   1  19
HETATM   19  C8  UNL     1       3.349   2.799  -0.464  1.00  0.00     0.155 C 
BRANCH  19  20
HETATM   20  C7  UNL     1       4.768   2.288  -0.346  1.00  0.00     0.154 C 
BRANCH  20  21
HETATM   21  C6  UNL     1       4.982   1.259  -1.433  1.00  0.00     0.164 C 
BRANCH  21  22
HETATM   22  N5  UNL     1       6.351   0.791  -1.365  1.00  0.00    -0.325 N 
HETATM   23  C3  UNL     1       6.829  -0.246  -0.654  1.00  0.00     0.140 A 
HETATM   24  N3  UNL     1       6.258  -1.146   0.178  1.00  0.00    -0.336 N 
HETATM   25  C4  UNL     1       8.193  -0.387  -0.842  1.00  0.00     0.122 A 
HETATM   26  C2  UNL     1       6.964  -2.106   0.778  1.00  0.00     0.183 A 
ATOM     27  H3  UNL     1       5.255  -1.089   0.353  1.00  0.00     0.168 HD
HETATM   28  N2  UNL     1       8.293  -2.236   0.589  1.00  0.00    -0.337 N 
HETATM   29  C1  UNL     1       8.917  -1.377  -0.222  1.00  0.00     0.131 A 
ATOM     30  H2  UNL     1       8.813  -2.978   1.057  1.00  0.00     0.168 HD
HETATM   31  N1  UNL     1      10.179  -1.493  -0.408  1.00  0.00    -0.383 N 
ATOM     32  H12 UNL     1      10.716  -2.228   0.052  1.00  0.00     0.157 HD
ATOM     33  H11 UNL     1      10.655  -0.837  -1.027  1.00  0.00     0.157 HD
HETATM   34  N4  UNL     1       8.523   0.617  -1.704  1.00  0.00    -0.346 N 
HETATM   35  C5  UNL     1       7.413   1.310  -2.005  1.00  0.00     0.185 A 
ATOM     36  H4  UNL     1       9.459   0.810  -2.061  1.00  0.00     0.167 HD
ENDBRANCH  21  22
ENDBRANCH  20  21
BRANCH  20  37
HETATM   37  O1  UNL     1       4.994   1.766   0.917  1.00  0.00    -0.392 OA
ATOM     38  H1  UNL     1       4.860   2.413   1.600  1.00  0.00     0.210 HD
ENDBRANCH  20  37
ENDBRANCH  19  20
ENDBRANCH   1  19
BRANCH  18  39
HETATM   39  C15 UNL     1      -4.450  -1.815   0.611  1.00  0.00     0.262 C 
HETATM   40  O2  UNL     1      -4.892  -1.563  -0.656  1.00  0.00    -0.353 OA
HETATM   41  C16 UNL     1      -5.985  -0.745  -0.620  1.00  0.00     0.195 C 
HETATM   42  C19 UNL     1      -6.561  -0.814   0.780  1.00  0.00     0.182 C 
HETATM   43  C20 UNL     1      -5.265  -1.008   1.580  1.00  0.00     0.198 C 
BRANCH  41  44
HETATM   44  C17 UNL     1      -7.023  -1.083  -1.666  1.00  0.00     0.303 C 
BRANCH  44  45
HETATM   45  N13 UNL     1      -6.350  -0.941  -2.965  1.00  0.00    -0.064 N 
ATOM     46 3H13 UNL     1      -5.917  -0.028  -3.101  1.00  0.00     0.275 HD
ATOM     47 2H13 UNL     1      -5.497  -1.495  -3.044  1.00  0.00     0.275 HD
ATOM     48 1H13 UNL     1      -7.050  -1.169  -3.671  1.00  0.00     0.275 HD
ENDBRANCH  44  45
BRANCH  44  49
HETATM   49  C18 UNL     1      -8.123  -0.096  -1.609  1.00  0.00     0.264 C 
HETATM   50  N14 UNL     1      -8.398   0.790  -2.677  1.00  0.00    -0.060 NA
HETATM   51  O3  UNL     1      -8.849  -0.022  -0.592  1.00  0.00    -0.274 OA
ENDBRANCH  44  49
ENDBRANCH  41  44
BRANCH  42  52
HETATM   52  O4  UNL     1      -7.350  -1.954   0.948  1.00  0.00    -0.390 OA
ATOM     53  H4  UNL     1      -7.711  -1.997   1.826  1.00  0.00     0.210 HD
ENDBRANCH  42  52
BRANCH  43  54
HETATM   54  O5  UNL     1      -5.513  -1.681   2.765  1.00  0.00    -0.388 OA
ATOM     55  H5  UNL     1      -6.029  -1.170   3.378  1.00  0.00     0.210 HD
ENDBRANCH  43  54
ENDBRANCH  18  39
TORSDOF 11
