REMARK  10 active torsions:
REMARK  status: ('A' for Active; 'I' for Inactive)
REMARK    1  A    between atoms: N1_1  and  C1_5 
REMARK    2  A    between atoms: C1_5  and  C2_6 
REMARK    3  A    between atoms: C4_9  and  N2_10 
REMARK    4  A    between atoms: N2_10  and  C5_13 
REMARK    5  A    between atoms: C5_13  and  C6_14 
REMARK    6  A    between atoms: C6_14  and  N3_15 
REMARK    7  A    between atoms: N7_35  and  C17_36 
REMARK    8  A    between atoms: C17_36  and  C18_37 
REMARK    9  A    between atoms: C21_48  and  O2_49 
REMARK   10  A    between atoms: C22_51  and  O3_52 
ROOT
HETATM    1  N3  UNL     1       0.110   0.062   0.916  1.00  0.00    -0.303 N 
HETATM    2  C7  UNL     1      -0.107  -1.316   0.930  1.00  0.00     0.084 C 
HETATM    3  C8  UNL     1      -1.185  -1.821   1.861  1.00  0.00     0.073 C 
HETATM    4  C9  UNL     1      -1.557  -3.250   1.441  1.00  0.00     0.237 C 
HETATM    5  N4  UNL     1      -2.937  -3.537   1.691  1.00  0.00    -0.073 N 
ATOM      6  H41 UNL     1      -3.493  -2.695   1.844  1.00  0.00     0.277 HD
ATOM      7  H42 UNL     1      -3.090  -3.971   2.601  1.00  0.00     0.277 HD
HETATM    8  C10 UNL     1      -3.436  -4.345   0.595  1.00  0.00     0.259 C 
HETATM    9  C11 UNL     1      -4.914  -4.137   0.374  1.00  0.00     0.259 C 
HETATM   10  N5  UNL     1      -5.187  -3.497  -0.915  1.00  0.00    -0.073 N 
ATOM     11  H51 UNL     1      -6.180  -3.319  -1.068  1.00  0.00     0.277 HD
ATOM     12  H52 UNL     1      -5.040  -4.121  -1.708  1.00  0.00     0.277 HD
HETATM   13  C12 UNL     1      -4.390  -2.310  -0.984  1.00  0.00     0.234 C 
HETATM   14  C13 UNL     1      -5.021  -1.227  -1.833  1.00  0.00     0.055 C 
HETATM   15  C14 UNL     1      -4.042  -0.126  -2.063  1.00  0.00     0.234 C 
HETATM   16  N6  UNL     1      -2.764  -0.336  -1.386  1.00  0.00    -0.074 N 
ATOM     17  H61 UNL     1      -2.448  -1.303  -1.462  1.00  0.00     0.277 HD
ATOM     18  H62 UNL     1      -2.859  -0.287  -0.372  1.00  0.00     0.277 HD
HETATM   19  C15 UNL     1      -1.796   0.573  -1.868  1.00  0.00     0.248 C 
HETATM   20  C16 UNL     1      -0.835   1.192  -0.932  1.00  0.00     0.141 C 
HETATM   21  N7  UNL     1      -0.903   0.863   0.450  1.00  0.00    -0.221 NA
ENDROOT
BRANCH   1  22
HETATM   22  C6  UNL     1       1.034   0.640   1.789  1.00  0.00     0.110 C 
BRANCH  22  23
HETATM   23  C5  UNL     1       2.488   0.347   1.595  1.00  0.00     0.279 C 
BRANCH  23  24
HETATM   24  N2  UNL     1       3.025   0.736   0.338  1.00  0.00    -0.062 N 
ATOM     25  H22 UNL     1       2.833   1.716   0.133  1.00  0.00     0.278 HD
ATOM     26  H21 UNL     1       2.515   0.314  -0.438  1.00  0.00     0.278 HD
BRANCH  24  27
HETATM   27  C4  UNL     1       4.417   0.447   0.272  1.00  0.00     0.240 C 
HETATM   28  C3  UNL     1       4.809  -0.985   0.363  1.00  0.00     0.204 C 
HETATM   29  O1  UNL     1       6.211  -1.041   0.370  1.00  0.00    -0.379 OA
HETATM   30  C2  UNL     1       6.796  -0.548  -0.768  1.00  0.00     0.178 C 
HETATM   31  C22 UNL     1       5.803   0.009  -1.736  1.00  0.00     0.179 C 
HETATM   32  C21 UNL     1       4.971   1.042  -1.007  1.00  0.00     0.182 C 
BRANCH  30  33
HETATM   33  C1  UNL     1       7.699  -1.567  -1.432  1.00  0.00     0.264 C 
BRANCH  33  34
HETATM   34  N1  UNL     1       8.733  -1.917  -0.471  1.00  0.00    -0.077 N 
ATOM     35  H13 UNL     1       9.239  -1.106  -0.116  1.00  0.00     0.274 HD
ATOM     36  H12 UNL     1       8.357  -2.238   0.421  1.00  0.00     0.274 HD
ATOM     37  H11 UNL     1       9.341  -2.603  -0.918  1.00  0.00     0.274 HD
ENDBRANCH  33  34
ENDBRANCH  30  33
BRANCH  31  38
HETATM   38  O3  UNL     1       6.505   0.710  -2.744  1.00  0.00    -0.390 OA
ATOM     39  H3  UNL     1       5.874   1.064  -3.359  1.00  0.00     0.210 HD
ENDBRANCH  31  38
BRANCH  32  40
HETATM   40  O2  UNL     1       3.956   1.434  -1.873  1.00  0.00    -0.391 OA
ATOM     41  H2  UNL     1       4.303   1.807  -2.675  1.00  0.00     0.210 HD
ENDBRANCH  32  40
ENDBRANCH  24  27
ENDBRANCH  23  24
ENDBRANCH  22  23
ENDBRANCH   1  22
BRANCH  21  42
HETATM   42  C17 UNL     1      -1.211   1.984   1.232  1.00  0.00     0.160 C 
BRANCH  42  43
HETATM   43  C18 UNL     1      -2.573   2.586   1.168  1.00  0.00     0.201 A 
HETATM   44  N8  UNL     1      -2.974   3.078  -0.127  1.00  0.00    -0.342 N 
HETATM   45  C19 UNL     1      -3.403   4.246  -0.387  1.00  0.00     0.192 A 
ATOM     46  H8  UNL     1      -2.907   2.427  -0.909  1.00  0.00     0.164 HD
HETATM   47  N9  UNL     1      -3.776   4.634  -1.715  1.00  0.00    -0.063 NA
HETATM   48  N10 UNL     1      -3.528   5.209   0.620  1.00  0.00    -0.305 N 
HETATM   49  C20 UNL     1      -3.214   4.941   1.830  1.00  0.00     0.192 A 
ATOM     50  H10 UNL     1      -3.875   6.139   0.385  1.00  0.00     0.171 HD
HETATM   51  N11 UNL     1      -3.347   5.947   2.870  1.00  0.00    -0.063 NA
HETATM   52  N12 UNL     1      -2.734   3.651   2.139  1.00  0.00    -0.342 N 
ATOM     53  H12 UNL     1      -2.484   3.455   3.108  1.00  0.00     0.164 HD
ENDBRANCH  42  43
ENDBRANCH  21  42
TORSDOF 10
