REMARK  12 active torsions:
REMARK  status: ('A' for Active; 'I' for Inactive)
REMARK    1  A    between atoms: O1_2  and  C2_3 
REMARK    2  A    between atoms: C2_3  and  C3_5 
REMARK    3  A    between atoms: C3_5  and  N1_6 
REMARK    4  A    between atoms: N1_6  and  O3_7 
REMARK       I    between atoms: N1_6  and  C4_12 
REMARK    5  A    between atoms: O3_7  and  S1_8 
REMARK       I    between atoms: C4_12  and  N2_14 
REMARK    6  A    between atoms: N2_14  and  C5_16 
REMARK    7  A    between atoms: C7_18  and  O8_19 
REMARK    8  A    between atoms: C8_21  and  N3_22 
REMARK    9  A    between atoms: C9_23  and  N4_24 
REMARK   10  A    between atoms: C11_34  and  N8_35 
REMARK   11  A    between atoms: C12_39  and  O9_40 
REMARK   12  A    between atoms: C12_39  and  C13_42 
ROOT
HETATM    1  C5  UNL     1       0.437  -0.557  -0.198  1.00  0.00     0.163 C 
HETATM    2  C6  UNL     1      -0.007   0.630   0.572  1.00  0.00     0.071 C 
HETATM    3  C7  UNL     1      -1.456   0.607   1.026  1.00  0.00     0.173 C 
HETATM    4  C8  UNL     1      -2.248  -0.476   0.269  1.00  0.00     0.111 C 
HETATM    5  C12 UNL     1      -1.982  -0.542  -1.149  1.00  0.00     0.243 C 
HETATM    6  C14 UNL     1      -0.455  -0.674  -1.335  1.00  0.00     0.199 C 
HETATM    7  O11 UNL     1      -0.030  -0.879  -2.470  1.00  0.00    -0.291 OA
ENDROOT
BRANCH   4   8
HETATM    8  N3  UNL     1      -3.365  -0.967   0.954  1.00  0.00    -0.052 N 
HETATM    9  C9  UNL     1      -3.347  -2.075   1.750  1.00  0.00     0.713 A 
HETATM   10  N5  UNL     1      -4.571  -2.300   2.271  1.00  0.00    -0.017 N 
HETATM   11  C10 UNL     1      -5.386  -1.330   1.809  1.00  0.00     0.749 A 
ATOM     12  H5  UNL     1      -4.831  -3.062   2.897  1.00  0.00     0.203 HD
HETATM   13  N6  UNL     1      -6.626  -0.827   1.813  1.00  0.00    -0.115 N 
HETATM   14  N9  UNL     1      -4.633  -0.514   0.999  1.00  0.00     0.114 N 
HETATM   15  N7  UNL     1      -6.655   0.236   1.057  1.00  0.00    -0.116 N 
ATOM     16  H6  UNL     1      -7.420  -1.212   2.324  1.00  0.00     0.206 HD
HETATM   17  C11 UNL     1      -5.411   0.456   0.531  1.00  0.00     0.728 A 
ATOM     18  H7  UNL     1      -7.478   0.814   0.885  1.00  0.00     0.206 HD
BRANCH   9  19
HETATM   19  N4  UNL     1      -2.387  -2.852   2.045  1.00  0.00    -0.232 N 
ATOM     20  H42 UNL     1      -1.462  -2.682   1.651  1.00  0.00     0.174 HD
ATOM     21  H41 UNL     1      -2.374  -3.680   2.640  1.00  0.00     0.174 HD
ENDBRANCH   9  19
BRANCH  17  22
HETATM   22  N8  UNL     1      -5.131   1.426  -0.241  1.00  0.00    -0.231 N 
ATOM     23  H82 UNL     1      -5.728   2.171  -0.600  1.00  0.00     0.174 HD
ATOM     24  H81 UNL     1      -4.204   1.590  -0.633  1.00  0.00     0.174 HD
ENDBRANCH  17  22
ENDBRANCH   4   8
BRANCH   3  25
HETATM   25  O8  UNL     1      -1.903   1.876   0.900  1.00  0.00    -0.390 OA
ATOM     26  H8  UNL     1      -2.809   1.862   1.184  1.00  0.00     0.210 HD
ENDBRANCH   3  25
BRANCH   5  27
HETATM   27  O9  UNL     1      -2.286  -1.831  -1.670  1.00  0.00    -0.369 OA
ATOM     28  H9  UNL     1      -2.111  -1.874  -2.603  1.00  0.00     0.212 HD
ENDBRANCH   5  27
BRANCH   5  29
HETATM   29  C13 UNL     1      -2.213   0.481  -2.128  1.00  0.00     0.279 C 
HETATM   30  N10 UNL     1      -2.006   1.865  -2.091  1.00  0.00    -0.059 NA
HETATM   31  O10 UNL     1      -2.698   0.106  -3.264  1.00  0.00    -0.273 OA
ENDBRANCH   5  29
BRANCH   1  32
HETATM   32  N2  UNL     1       1.779  -0.239  -0.723  1.00  0.00    -0.330 N 
HETATM   33  C4  UNL     1       2.890  -1.069  -0.424  1.00  0.00     0.344 C 
HETATM   34  N1  UNL     1       4.160  -0.760  -0.932  1.00  0.00    -0.179 N 
HETATM   35  O7  UNL     1       2.712  -2.094   0.311  1.00  0.00    -0.245 OA
ATOM     36  H2  UNL     1       1.909   0.587  -1.307  1.00  0.00     0.165 HD
BRANCH  34  37
HETATM   37  C3  UNL     1       4.353   0.371  -1.792  1.00  0.00     0.273 C 
BRANCH  37  38
HETATM   38  C2  UNL     1       4.661   1.641  -1.142  1.00  0.00     0.279 C 
HETATM   39  O2  UNL     1       4.862   2.636  -1.919  1.00  0.00    -0.263 OA
BRANCH  38  40
HETATM   40  O1  UNL     1       4.762   1.911   0.193  1.00  0.00    -0.325 OA
HETATM   41  C1  UNL     1       5.065   3.176   0.739  1.00  0.00     0.213 C 
ENDBRANCH  38  40
ENDBRANCH  37  38
ENDBRANCH  34  37
BRANCH  34  42
HETATM   42  O3  UNL     1       5.213  -1.530  -0.638  1.00  0.00    -0.125 OA
BRANCH  42  43
HETATM   43  S1  UNL     1       5.470  -1.846   0.965  1.00  0.00     0.274 S 
HETATM   44  O4  UNL     1       5.133  -3.287   1.306  1.00  0.00    -0.571 OA
HETATM   45  O5  UNL     1       6.941  -1.705   1.315  1.00  0.00    -0.571 OA
HETATM   46  O6  UNL     1       4.632  -0.885   2.020  1.00  0.00    -0.571 OA
ENDBRANCH  42  43
ENDBRANCH  34  42
ENDBRANCH   1  32
TORSDOF 12
