REMARK  14 active torsions:
REMARK  status: ('A' for Active; 'I' for Inactive)
REMARK    1  A    between atoms: C2_2  and  N1_3 
REMARK    2  A    between atoms: C2_2  and  C3_7 
REMARK    3  A    between atoms: C3_7  and  O1_8 
REMARK    4  A    between atoms: C3_7  and  C4_10 
REMARK    5  A    between atoms: C3_7  and  C5_12 
REMARK    6  A    between atoms: C5_12  and  O3_13 
REMARK    7  A    between atoms: C5_12  and  N2_15 
REMARK    8  A    between atoms: N2_15  and  C6_17 
REMARK    9  A    between atoms: C6_17  and  C7_18 
REMARK   10  A    between atoms: C6_17  and  C8_21 
REMARK   11  A    between atoms: C9_23  and  N4_24 
REMARK   12  A    between atoms: C13_33  and  N7_34 
REMARK   13  A    between atoms: C15_40  and  O7_41 
REMARK   14  A    between atoms: C19_47  and  O9_48 
ROOT
HETATM    1  C8  UNL     1       0.201  -0.602  -0.250  1.00  0.00     0.164 C 
HETATM    2  O5  UNL     1      -0.728   0.250  -0.756  1.00  0.00    -0.355 OA
HETATM    3  C9  UNL     1      -1.680   0.677   0.114  1.00  0.00     0.262 C 
HETATM    4  C15 UNL     1      -1.990  -0.222   1.252  1.00  0.00     0.197 C 
HETATM    5  C16 UNL     1      -1.308  -1.493   1.389  1.00  0.00     0.163 C 
HETATM    6  O8  UNL     1      -2.187  -2.518   1.707  1.00  0.00    -0.383 OA
HETATM    7  C17 UNL     1      -1.585  -3.771   1.572  1.00  0.00     0.171 C 
HETATM    8  C18 UNL     1      -0.110  -3.717   1.819  1.00  0.00     0.058 C 
HETATM    9  C19 UNL     1       0.564  -2.938   0.660  1.00  0.00     0.129 C 
HETATM   10  C20 UNL     1      -0.424  -1.868   0.207  1.00  0.00     0.078 C 
ENDROOT
BRANCH   1  11
HETATM   11  C6  UNL     1       1.444  -0.669  -1.040  1.00  0.00     0.198 C 
BRANCH  11  12
HETATM   12  N2  UNL     1       2.129   0.574  -1.004  1.00  0.00    -0.380 N 
ATOM     13  H2  UNL     1       1.592   1.412  -0.781  1.00  0.00     0.156 HD
BRANCH  12  14
HETATM   14  C5  UNL     1       3.489   0.716  -1.255  1.00  0.00     0.258 C 
BRANCH  14  15
HETATM   15  C3  UNL     1       4.460   0.365  -0.173  1.00  0.00     0.181 C 
BRANCH  15  16
HETATM   16  C2  UNL     1       4.422   1.409   0.952  1.00  0.00     0.225 C 
HETATM   17  C1  UNL     1       3.061   1.484   1.601  1.00  0.00     0.043 C 
BRANCH  16  18
HETATM   18  N1  UNL     1       4.668   2.730   0.401  1.00  0.00    -0.072 N 
ATOM     19  H13 UNL     1       3.933   3.054  -0.227  1.00  0.00     0.274 HD
ATOM     20  H12 UNL     1       4.583   3.481   1.086  1.00  0.00     0.274 HD
ATOM     21  H11 UNL     1       5.588   2.679  -0.037  1.00  0.00     0.274 HD
ENDBRANCH  16  18
ENDBRANCH  15  16
BRANCH  15  22
HETATM   22  O1  UNL     1       5.754   0.532  -0.733  1.00  0.00    -0.376 OA
ATOM     23  H1  UNL     1       5.778  -0.114  -1.429  1.00  0.00     0.211 HD
ENDBRANCH  15  22
BRANCH  15  24
HETATM   24  C4  UNL     1       4.367  -0.953   0.412  1.00  0.00     0.275 C 
HETATM   25  O2  UNL     1       5.197  -1.847   0.259  1.00  0.00    -0.303 OA
ENDBRANCH  15  24
ENDBRANCH  14  15
BRANCH  14  26
HETATM   26  O3  UNL     1       3.794   2.013  -1.747  1.00  0.00    -0.373 OA
ATOM     27  H3  UNL     1       3.177   2.236  -2.434  1.00  0.00     0.212 HD
ENDBRANCH  14  26
ENDBRANCH  12  14
ENDBRANCH  11  12
BRANCH  11  28
HETATM   28  C7  UNL     1       1.256  -0.976  -2.507  1.00  0.00     0.256 C 
HETATM   29  N3  UNL     1       0.301  -1.902  -3.002  1.00  0.00    -0.060 NA
HETATM   30  O4  UNL     1       1.947  -0.408  -3.391  1.00  0.00    -0.274 OA
ENDBRANCH  11  28
ENDBRANCH   1  11
BRANCH   3  31
HETATM   31  N4  UNL     1      -2.900   0.918  -0.617  1.00  0.00    -0.297 N 
HETATM   32  C10 UNL     1      -3.296   0.231  -1.697  1.00  0.00     0.188 A 
HETATM   33  N5  UNL     1      -4.474   0.701  -2.144  1.00  0.00    -0.345 N 
HETATM   34  C11 UNL     1      -4.824   1.690  -1.341  1.00  0.00     0.147 A 
ATOM     35  H5  UNL     1      -4.998   0.359  -2.950  1.00  0.00     0.167 HD
HETATM   36  C12 UNL     1      -5.908   2.533  -1.302  1.00  0.00     0.290 A 
HETATM   37  C14 UNL     1      -3.850   1.835  -0.384  1.00  0.00     0.159 A 
HETATM   38  O6  UNL     1      -6.858   2.461  -2.158  1.00  0.00    -0.265 OA
HETATM   39  N6  UNL     1      -5.983   3.468  -0.336  1.00  0.00    -0.154 N 
HETATM   40  C13 UNL     1      -5.011   3.591   0.594  1.00  0.00     0.680 A 
ATOM     41  H6  UNL     1      -6.788   4.094  -0.306  1.00  0.00     0.187 HD
HETATM   42  N8  UNL     1      -3.943   2.773   0.569  1.00  0.00    -0.174 N 
ATOM     43  H8  UNL     1      -3.209   2.866   1.271  1.00  0.00     0.186 HD
BRANCH  40  44
HETATM   44  N7  UNL     1      -5.129   4.521   1.513  1.00  0.00    -0.234 N 
ATOM     45  H72 UNL     1      -5.939   5.141   1.532  1.00  0.00     0.174 HD
ATOM     46  H71 UNL     1      -4.395   4.614   2.215  1.00  0.00     0.174 HD
ENDBRANCH  40  44
ENDBRANCH   3  31
BRANCH   9  47
HETATM   47  O9  UNL     1       0.707  -3.884  -0.341  1.00  0.00    -0.395 OA
ATOM     48  H9  UNL     1       1.120  -3.407  -1.051  1.00  0.00     0.210 HD
ENDBRANCH   9  47
BRANCH   4  49
HETATM   49  O7  UNL     1      -3.388  -0.427   1.375  1.00  0.00    -0.389 OA
ATOM     50  H7  UNL     1      -3.587  -1.003   2.104  1.00  0.00     0.210 HD
ENDBRANCH   4  49
TORSDOF 14
