REMARK  11 active torsions:
REMARK  status: ('A' for Active; 'I' for Inactive)
REMARK    1  A    between atoms: O1_2  and  C2_3 
REMARK    2  A    between atoms: C2_3  and  C3_5 
REMARK    3  A    between atoms: C5_7  and  O3_8 
REMARK    4  A    between atoms: C6_10  and  C7_11 
REMARK    5  A    between atoms: C7_11  and  N1_12 
REMARK       I    between atoms: N1_12  and  C8_14 
REMARK    6  A    between atoms: C8_14  and  C9_16 
REMARK    7  A    between atoms: C9_16  and  N2_17 
REMARK    8  A    between atoms: C9_16  and  C12_22 
REMARK       I    between atoms: N2_17  and  C10_19 
REMARK    9  A    between atoms: C15_31  and  O6_32 
REMARK   10  A    between atoms: C16_34  and  N7_35 
REMARK   11  A    between atoms: C20_44  and  O7_45 
ROOT
HETATM    1  C3  UNL     1      -2.220   0.864   0.211  1.00  0.00     0.166 C 
HETATM    2  C4  UNL     1      -2.015   1.058  -1.269  1.00  0.00     0.086 C 
HETATM    3  C5  UNL     1      -1.393  -0.228  -1.715  1.00  0.00     0.130 C 
HETATM    4  C6  UNL     1      -0.089  -0.513  -1.001  1.00  0.00     0.150 C 
HETATM    5  N5  UNL     1      -0.530  -0.617   0.342  1.00  0.00    -0.151 NA
HETATM    6  N6  UNL     1      -1.972  -0.518   0.371  1.00  0.00    -0.170 NA
HETATM    7  C15 UNL     1      -2.194  -1.235  -0.855  1.00  0.00     0.201 C 
HETATM    8  C16 UNL     1      -3.456  -1.653  -1.368  1.00  0.00     0.236 C 
HETATM    9  N8  UNL     1      -4.686  -1.237  -0.775  1.00  0.00    -0.340 N 
ATOM     10  H8  UNL     1      -5.369  -1.981  -0.915  1.00  0.00     0.164 HD
HETATM   11  C19 UNL     1      -5.246  -0.316  -0.153  1.00  0.00     0.187 C 
HETATM   12  N9  UNL     1      -6.620  -0.510   0.190  1.00  0.00    -0.064 NA
HETATM   13  N10 UNL     1      -4.726   0.950   0.294  1.00  0.00    -0.336 N 
ATOM     14  H10 UNL     1      -5.443   1.676   0.297  1.00  0.00     0.164 HD
HETATM   15  C20 UNL     1      -3.499   1.433   0.721  1.00  0.00     0.254 C 
ENDROOT
BRANCH   4  16
HETATM   16  C7  UNL     1       0.981   0.467  -1.299  1.00  0.00     0.148 C 
BRANCH  16  17
HETATM   17  N1  UNL     1       2.185   0.100  -0.590  1.00  0.00    -0.357 N 
HETATM   18  C8  UNL     1       3.321   0.937  -0.676  1.00  0.00     0.246 C 
HETATM   19  O4  UNL     1       3.208   1.997  -1.372  1.00  0.00    -0.271 OA
ATOM     20  H1  UNL     1       2.215  -0.754  -0.033  1.00  0.00     0.162 HD
BRANCH  18  21
HETATM   21  C9  UNL     1       4.628   0.679  -0.021  1.00  0.00     0.228 C 
BRANCH  21  22
HETATM   22  N2  UNL     1       5.371   1.885   0.226  1.00  0.00    -0.343 N 
HETATM   23  C10 UNL     1       6.515   2.202  -0.535  1.00  0.00     0.214 C 
HETATM   24  C11 UNL     1       7.280   3.454  -0.267  1.00  0.00     0.117 C 
HETATM   25  O5  UNL     1       6.879   1.418  -1.435  1.00  0.00    -0.274 OA
ATOM     26  H2  UNL     1       5.066   2.521   0.963  1.00  0.00     0.163 HD
ENDBRANCH  21  22
BRANCH  21  27
HETATM   27  C12 UNL     1       4.593  -0.227   1.119  1.00  0.00     0.058 A 
HETATM   28  C13 UNL     1       4.839  -1.596   1.161  1.00  0.00     0.116 A 
HETATM   29  N3  UNL     1       4.712  -2.061   2.392  1.00  0.00    -0.360 N 
HETATM   30  C14 UNL     1       4.379  -1.008   3.180  1.00  0.00     0.180 A 
ATOM     31  H3  UNL     1       4.840  -3.027   2.692  1.00  0.00     0.166 HD
HETATM   32  N4  UNL     1       4.311   0.093   2.401  1.00  0.00    -0.352 N 
ATOM     33  H4  UNL     1       4.080   1.030   2.732  1.00  0.00     0.166 HD
ENDBRANCH  21  27
ENDBRANCH  18  21
ENDBRANCH  16  17
ENDBRANCH   4  16
BRANCH   3  34
HETATM   34  O3  UNL     1      -1.407  -0.472  -3.033  1.00  0.00    -0.383 OA
ATOM     35  H3  UNL     1      -1.012  -1.288  -3.316  1.00  0.00     0.210 HD
ENDBRANCH   3  34
BRANCH   7  36
HETATM   36  O6  UNL     1      -1.385  -2.409  -0.681  1.00  0.00    -0.368 OA
ATOM     37  H6  UNL     1      -1.877  -3.027  -0.153  1.00  0.00     0.212 HD
ENDBRANCH   7  36
BRANCH   1  38
HETATM   38  C2  UNL     1      -1.256   1.661   1.026  1.00  0.00     0.287 C 
HETATM   39  O2  UNL     1      -0.570   1.118   1.910  1.00  0.00    -0.263 OA
BRANCH  38  40
HETATM   40  O1  UNL     1      -1.094   3.030   0.825  1.00  0.00    -0.325 OA
HETATM   41  C1  UNL     1      -0.169   3.744   1.620  1.00  0.00     0.213 C 
ENDBRANCH  38  40
ENDBRANCH   1  38
BRANCH   8  42
HETATM   42  N7  UNL     1      -3.575  -3.096  -1.485  1.00  0.00    -0.397 N 
HETATM   43  C17 UNL     1      -2.730  -3.782  -2.355  1.00  0.00     0.144 C 
HETATM   44  C18 UNL     1      -3.981  -3.795  -0.334  1.00  0.00     0.144 C 
ENDBRANCH   8  42
BRANCH  15  45
HETATM   45  O7  UNL     1      -3.442   1.445   2.125  1.00  0.00    -0.374 OA
ATOM     46  H7  UNL     1      -4.258   1.808   2.450  1.00  0.00     0.212 HD
ENDBRANCH  15  45
TORSDOF 11
