REMARK  9 active torsions:
REMARK  status: ('A' for Active; 'I' for Inactive)
REMARK    1  A    between atoms: C2_2  and  C3_5 
REMARK    2  A    between atoms: C3_5  and  C4_6 
REMARK    3  A    between atoms: C4_6  and  O1_7 
REMARK    4  A    between atoms: C4_6  and  C18_26 
REMARK    5  A    between atoms: O1_7  and  C5_8 
REMARK    6  A    between atoms: C5_8  and  C6_10 
REMARK    7  A    between atoms: C6_10  and  O4_12 
REMARK    8  A    between atoms: O4_12  and  C7_13 
REMARK    9  A    between atoms: C10_16  and  O5_17 
ROOT
HETATM    1  C6  UNL     1       0.803   0.339  -0.224  1.00  0.00     0.359 C 
HETATM    2  O3  UNL     1       0.432   0.891  -1.283  1.00  0.00    -0.253 OA
ENDROOT
BRANCH   1   3
HETATM    3  C5  UNL     1       2.220   0.326   0.095  1.00  0.00     0.359 C 
HETATM    4  O2  UNL     1       2.583  -0.239   1.176  1.00  0.00    -0.253 OA
BRANCH   3   5
HETATM    5  O1  UNL     1       3.197   0.878  -0.681  1.00  0.00    -0.299 OA
BRANCH   5   6
HETATM    6  C4  UNL     1       4.596   0.831  -0.306  1.00  0.00     0.245 C 
BRANCH   6   7
HETATM    7  C3  UNL     1       5.414   0.250  -1.378  1.00  0.00     0.120 C 
BRANCH   7   8
HETATM    8  C2  UNL     1       6.866   0.089  -1.223  1.00  0.00     0.242 C 
HETATM    9  C1  UNL     1       7.299  -0.764  -0.064  1.00  0.00     0.090 C 
HETATM   10  F1  UNL     1       7.378  -0.624  -2.357  1.00  0.00    -0.207 F 
HETATM   11  F2  UNL     1       7.609   1.241  -1.234  1.00  0.00    -0.207 F 
ENDBRANCH   7   8
ENDBRANCH   6   7
BRANCH   6  12
HETATM   12  C18 UNL     1       4.924   2.261   0.023  1.00  0.00     0.414 C 
HETATM   13  F3  UNL     1       4.787   3.116  -1.071  1.00  0.00    -0.168 F 
HETATM   14  F4  UNL     1       3.827   2.676   0.851  1.00  0.00    -0.168 F 
HETATM   15  F5  UNL     1       6.048   2.450   0.746  1.00  0.00    -0.168 F 
ENDBRANCH   6  12
ENDBRANCH   5   6
ENDBRANCH   3   5
ENDBRANCH   1   3
BRANCH   1  16
HETATM   16  O4  UNL     1      -0.159  -0.229   0.585  1.00  0.00    -0.308 OA
BRANCH  16  17
HETATM   17  C7  UNL     1      -1.556  -0.204   0.249  1.00  0.00     0.136 C 
HETATM   18  C8  UNL     1      -2.011  -1.600   0.002  1.00  0.00     0.036 C 
HETATM   19  C9  UNL     1      -3.053  -1.690  -1.099  1.00  0.00     0.040 C 
HETATM   20  C10 UNL     1      -4.409  -1.267  -0.687  1.00  0.00     0.059 C 
HETATM   21  C11 UNL     1      -4.764  -1.500   0.736  1.00  0.00     0.043 C 
HETATM   22  C17 UNL     1      -4.667   0.207  -0.887  1.00  0.00     0.043 C 
HETATM   23  C12 UNL     1      -4.536  -0.232   1.490  1.00  0.00    -0.007 C 
HETATM   24  C13 UNL     1      -3.195  -0.152   2.165  1.00  0.00     0.012 C 
HETATM   25  C16 UNL     1      -4.534   0.865   0.447  1.00  0.00    -0.007 C 
HETATM   26  C14 UNL     1      -2.301   0.572   1.247  1.00  0.00     0.016 C 
HETATM   27  C15 UNL     1      -3.236   1.595   0.597  1.00  0.00     0.012 C 
BRANCH  20  28
HETATM   28  O5  UNL     1      -5.337  -1.939  -1.517  1.00  0.00    -0.390 OA
ATOM     29  H5  UNL     1      -6.208  -1.667  -1.252  1.00  0.00     0.210 HD
ENDBRANCH  20  28
ENDBRANCH  16  17
ENDBRANCH   1  16
TORSDOF 9
