REMARK  5 active torsions:
REMARK  status: ('A' for Active; 'I' for Inactive)
REMARK    1  A    between atoms: C3_3  and  C4_4 
REMARK       I    between atoms: C4_4  and  N1_6 
REMARK    2  A    between atoms: N1_6  and  C5_8 
REMARK    3  A    between atoms: C7_10  and  C8_11 
REMARK    4  A    between atoms: C8_11  and  C9_12 
REMARK    5  A    between atoms: C15_19  and  C16_20 
ROOT
HETATM    1  C4  UNL     1      -1.118  -0.394   0.616  1.00  0.00     0.263 C 
HETATM    2  O1  UNL     1      -0.820  -1.180   1.507  1.00  0.00    -0.267 OA
HETATM    3  N1  UNL     1      -0.081   0.034  -0.263  1.00  0.00    -0.322 N 
ATOM      4  H1  UNL     1      -0.270   0.742  -0.972  1.00  0.00     0.169 HD
ENDROOT
BRANCH   3   5
HETATM    5  C5  UNL     1       1.239  -0.541  -0.144  1.00  0.00     0.036 A 
HETATM    6  C6  UNL     1       2.400   0.157  -0.357  1.00  0.00     0.040 A 
HETATM    7  C7  UNL     1       3.629  -0.437  -0.374  1.00  0.00    -0.013 A 
HETATM    8  C14 UNL     1       3.628  -1.830  -0.161  1.00  0.00     0.133 A 
HETATM    9  F1  UNL     1       4.827  -2.507  -0.160  1.00  0.00    -0.205 F 
HETATM   10  C15 UNL     1       2.506  -2.563   0.058  1.00  0.00     0.007 A 
HETATM   11  C19 UNL     1       1.282  -1.909   0.069  1.00  0.00     0.044 A 
BRANCH   7  12
HETATM   12  C8  UNL     1       4.945   0.167  -0.498  1.00  0.00     0.075 C 
BRANCH  12  13
HETATM   13  C9  UNL     1       5.066   1.605  -0.191  1.00  0.00    -0.079 C 
HETATM   14  C10 UNL     1       5.684   2.128   0.896  1.00  0.00    -0.024 C 
HETATM   15  C11 UNL     1       5.596   3.620   0.854  1.00  0.00     0.027 C 
HETATM   16  C12 UNL     1       5.640   3.812  -0.681  1.00  0.00     0.008 C 
HETATM   17  C13 UNL     1       4.582   2.731  -1.025  1.00  0.00     0.034 C 
ENDBRANCH  12  13
ENDBRANCH   7  12
BRANCH  10  18
HETATM   18  C16 UNL     1       2.599  -4.039   0.131  1.00  0.00    -0.074 C 
HETATM   19  C17 UNL     1       2.861  -4.547   1.527  1.00  0.00     0.044 C 
HETATM   20  C18 UNL     1       3.226  -4.755  -0.989  1.00  0.00     0.044 C 
ENDBRANCH  10  18
ENDBRANCH   3   5
BRANCH   1  21
HETATM   21  C3  UNL     1      -2.529   0.051   0.528  1.00  0.00     0.082 A 
HETATM   22  C2  UNL     1      -3.281   0.741  -0.360  1.00  0.00    -0.021 A 
HETATM   23  C1  UNL     1      -2.615   1.330  -1.603  1.00  0.00     0.051 C 
HETATM   24  C21 UNL     1      -4.621   0.860  -0.111  1.00  0.00     0.074 A 
HETATM   25  C20 UNL     1      -5.091   0.268   1.022  1.00  0.00     0.097 A 
HETATM   26  C22 UNL     1      -5.610   1.504  -0.888  1.00  0.00     0.264 A 
HETATM   27  S1  UNL     1      -3.723  -0.432   1.713  1.00  0.00    -0.065 SA
HETATM   28  N3  UNL     1      -6.409   0.289   1.399  1.00  0.00    -0.297 N 
HETATM   29  C24 UNL     1      -7.329   0.908   0.654  1.00  0.00     0.331 A 
HETATM   30  C25 UNL     1      -6.763  -0.370   2.635  1.00  0.00     0.162 C 
HETATM   31  N2  UNL     1      -6.887   1.484  -0.454  1.00  0.00    -0.270 N 
HETATM   32  O3  UNL     1      -8.515   0.916   1.021  1.00  0.00    -0.246 OA
HETATM   33  C23 UNL     1      -7.912   2.144  -1.278  1.00  0.00     0.164 C 
HETATM   34  O2  UNL     1      -5.385   2.101  -1.965  1.00  0.00    -0.267 OA
ENDBRANCH   1  21
TORSDOF 5
