REMARK  4 active torsions:
REMARK  status: ('A' for Active; 'I' for Inactive)
REMARK    1  A    between atoms: C5_7  and  C6_8 
REMARK    2  A    between atoms: C8_10  and  C9_11 
REMARK    3  A    between atoms: C10_12  and  C11_13 
REMARK    4  A    between atoms: C18_23  and  C19_24 
ROOT
HETATM    1  C6  UNL     1       1.714  -0.061  -1.017  1.00  0.00     0.062 A 
HETATM    2  C7  UNL     1       0.597  -0.696  -0.516  1.00  0.00     0.053 A 
HETATM    3  C8  UNL     1      -0.474  -0.008   0.041  1.00  0.00     0.033 A 
HETATM    4  C15 UNL     1      -0.334   1.375   0.054  1.00  0.00     0.011 A 
HETATM    5  C16 UNL     1      -1.351   2.136   0.588  1.00  0.00     0.016 A 
HETATM    6  C17 UNL     1      -1.284   3.509   0.636  1.00  0.00     0.017 A 
HETATM    7  C18 UNL     1      -0.156   4.128   0.129  1.00  0.00     0.024 A 
HETATM    8  C20 UNL     1       0.881   3.361  -0.415  1.00  0.00     0.052 A 
HETATM    9 BR1  UNL     1       2.457   4.145  -1.128  1.00  0.00    -0.048 Br
HETATM   10  C21 UNL     1       0.793   1.990  -0.453  1.00  0.00     0.063 A 
HETATM   11  N6  UNL     1       1.797   1.283  -0.977  1.00  0.00    -0.352 N 
ATOM     12  H6  UNL     1       2.622   1.757  -1.345  1.00  0.00     0.166 HD
ENDROOT
BRANCH   1  13
HETATM   13  C5  UNL     1       2.816  -0.806  -1.591  1.00  0.00     0.075 A 
HETATM   14  C4  UNL     1       3.924  -0.188  -2.089  1.00  0.00     0.119 A 
HETATM   15  N1  UNL     1       4.936  -0.915  -2.618  1.00  0.00    -0.371 N 
HETATM   16  C3  UNL     1       4.875  -2.258  -2.668  1.00  0.00     0.112 A 
ATOM     17  H1  UNL     1       5.759  -0.436  -2.985  1.00  0.00     0.164 HD
HETATM   18  C2  UNL     1       3.739  -2.861  -2.156  1.00  0.00     0.021 A 
HETATM   19  C1  UNL     1       3.653  -4.358  -2.202  1.00  0.00     0.069 C 
HETATM   20  N7  UNL     1       2.739  -2.132  -1.631  1.00  0.00    -0.356 N 
ATOM     21  H7  UNL     1       1.913  -2.601  -1.260  1.00  0.00     0.166 HD
ENDBRANCH   1  13
BRANCH   3  22
HETATM   22  C9  UNL     1      -1.637  -0.673   0.561  1.00  0.00    -0.059 C 
HETATM   23  C10 UNL     1      -2.622  -1.233   0.980  1.00  0.00    -0.042 C 
BRANCH  23  24
HETATM   24  C11 UNL     1      -3.806  -1.885   1.460  1.00  0.00     0.105 A 
HETATM   25  C12 UNL     1      -5.109  -1.739   1.037  1.00  0.00     0.128 A 
HETATM   26  N2  UNL     1      -5.918  -2.539   1.754  1.00  0.00    -0.359 N 
HETATM   27  C13 UNL     1      -5.135  -3.187   2.623  1.00  0.00     0.183 A 
ATOM     28  H2  UNL     1      -6.929  -2.633   1.655  1.00  0.00     0.166 HD
HETATM   29  N3  UNL     1      -3.869  -2.796   2.448  1.00  0.00    -0.339 N 
HETATM   30  C14 UNL     1      -2.725  -3.261   3.188  1.00  0.00     0.158 C 
ENDBRANCH  23  24
ENDBRANCH   3  22
BRANCH   7  31
HETATM   31  C19 UNL     1      -0.075   5.558   0.174  1.00  0.00     0.121 C 
HETATM   32  N4  UNL     1      -1.019   6.288   0.672  1.00  0.00    -0.387 N 
ATOM     33  H42 UNL     1      -1.842   5.812   1.040  1.00  0.00     0.157 HD
ATOM     34  H41 UNL     1      -0.961   7.306   0.704  1.00  0.00     0.157 HD
HETATM   35  N5  UNL     1       1.083   6.228  -0.344  1.00  0.00    -0.082 NA
ENDBRANCH   7  31
TORSDOF 4
