REMARK  4 active torsions:
REMARK  status: ('A' for Active; 'I' for Inactive)
REMARK    1  A    between atoms: C6_7  and  S2_8 
REMARK    2  A    between atoms: S2_8  and  N1_11 
REMARK    3  A    between atoms: N1_11  and  C7_13 
REMARK    4  A    between atoms: C15_27  and  N5_28 
ROOT
HETATM    1  S2  UNL     1       0.364   0.855  -1.507  1.00  0.00     0.276 S 
HETATM    2  O1  UNL     1       0.887   2.135  -2.118  1.00  0.00    -0.200 OA
HETATM    3  O2  UNL     1       0.087  -0.098  -2.662  1.00  0.00    -0.200 OA
ENDROOT
BRANCH   1   4
HETATM    4  C6  UNL     1      -1.189   1.198  -0.780  1.00  0.00     0.081 A 
HETATM    5  C5  UNL     1      -1.402   2.450  -0.226  1.00  0.00     0.027 A 
HETATM    6  C4  UNL     1      -2.618   2.751   0.355  1.00  0.00     0.021 A 
HETATM    7  C3  UNL     1      -3.580   1.772   0.357  1.00  0.00     0.018 A 
HETATM    8  S1  UNL     1      -5.253   1.889   1.045  1.00  0.00    -0.088 SA
HETATM    9  C14 UNL     1      -3.446   0.526  -0.164  1.00  0.00     0.010 A 
HETATM   10  C2  UNL     1      -5.714   0.228   0.597  1.00  0.00     0.023 A 
HETATM   11  C1  UNL     1      -6.881  -0.321   0.839  1.00  0.00     0.034 C 
HETATM   12  C15 UNL     1      -4.579  -0.348  -0.056  1.00  0.00     0.054 A 
HETATM   13  C13 UNL     1      -2.195   0.262  -0.745  1.00  0.00     0.040 A 
BRANCH  12  14
HETATM   14  N5  UNL     1      -4.639  -1.571  -0.494  1.00  0.00    -0.397 N 
ATOM     15  H52 UNL     1      -5.444  -2.192  -0.417  1.00  0.00     0.156 HD
ATOM     16  H51 UNL     1      -3.830  -1.982  -0.960  1.00  0.00     0.156 HD
ENDBRANCH  12  14
ENDBRANCH   1   4
BRANCH   1  17
HETATM   17  N1  UNL     1       1.482   0.206  -0.402  1.00  0.00    -0.110 N 
ATOM     18  H1  UNL     1       1.261   0.121   0.590  1.00  0.00     0.197 HD
BRANCH  17  19
HETATM   19  C7  UNL     1       2.639  -0.180  -0.879  1.00  0.00     0.714 A 
HETATM   20  N2  UNL     1       3.083  -0.136  -2.143  1.00  0.00    -0.129 N 
HETATM   21  N3  UNL     1       4.310  -0.622  -2.212  1.00  0.00    -0.270 N 
ATOM     22  H2  UNL     1       2.551   0.221  -2.937  1.00  0.00     0.205 HD
HETATM   23  C8  UNL     1       4.673  -0.988  -0.978  1.00  0.00     0.143 A 
ATOM     24  H3  UNL     1       4.878  -0.703  -3.055  1.00  0.00     0.189 HD
HETATM   25  C9  UNL     1       5.827  -1.552  -0.434  1.00  0.00     0.052 A 
HETATM   26  N4  UNL     1       3.647  -0.718  -0.152  1.00  0.00    -0.139 N 
HETATM   27  C10 UNL     1       5.938  -1.835   0.910  1.00  0.00     0.024 A 
HETATM   28  C11 UNL     1       4.875  -1.547   1.718  1.00  0.00     0.027 A 
HETATM   29 BR1  UNL     1       4.980  -1.920   3.589  1.00  0.00    -0.050 Br
HETATM   30  C12 UNL     1       3.752  -0.994   1.170  1.00  0.00     0.136 A 
ENDBRANCH  17  19
ENDBRANCH   1  17
TORSDOF 4
