REMARK  9 active torsions:
REMARK  status: ('A' for Active; 'I' for Inactive)
REMARK    1  A    between atoms: C4_5  and  C5_6 
REMARK    2  A    between atoms: C6_7  and  C7_8 
REMARK    3  A    between atoms: C7_8  and  N1_9 
REMARK    4  A    between atoms: N1_9  and  C8_11 
REMARK    5  A    between atoms: C9_14  and  N3_15 
REMARK    6  A    between atoms: N3_15  and  C10_17 
REMARK    7  A    between atoms: C10_17  and  C11_18 
REMARK    8  A    between atoms: C11_18  and  C12_19 
REMARK    9  A    between atoms: C12_19  and  N4_20 
ROOT
HETATM    1  C8  UNL     1       1.525  -0.122   1.376  1.00  0.00     0.680 A 
HETATM    2  N2  UNL     1       0.298   0.276   1.779  1.00  0.00    -0.175 N 
ATOM      3  H2  UNL     1      -0.521  -0.133   1.329  1.00  0.00     0.186 HD
HETATM    4  C9  UNL     1       0.114   1.185   2.745  1.00  0.00     0.139 A 
HETATM    5  C17 UNL     1       1.222   1.734   3.349  1.00  0.00     0.104 A 
HETATM    6  C18 UNL     1       1.084   2.724   4.401  1.00  0.00     0.104 C 
HETATM    7  N5  UNL     1       0.964   3.526   5.227  1.00  0.00    -0.191 NA
HETATM    8  C19 UNL     1       2.479   1.326   2.936  1.00  0.00     0.132 A 
HETATM    9  N6  UNL     1       2.614   0.407   1.959  1.00  0.00    -0.200 N 
ATOM     10  H6  UNL     1       3.544   0.113   1.662  1.00  0.00     0.183 HD
ENDROOT
BRANCH   4  11
HETATM   11  N3  UNL     1      -1.031   1.545   3.113  1.00  0.00    -0.374 N 
ATOM     12  H3  UNL     1      -1.032   2.242   3.858  1.00  0.00     0.161 HD
BRANCH  11  13
HETATM   13  C10 UNL     1      -2.320   1.156   2.678  1.00  0.00     0.123 C 
BRANCH  13  14
HETATM   14  C11 UNL     1      -3.217   2.281   2.268  1.00  0.00     0.050 C 
BRANCH  14  15
HETATM   15  C12 UNL     1      -2.541   3.001   1.093  1.00  0.00     0.274 C 
BRANCH  15  16
HETATM   16  N4  UNL     1      -2.356   2.097  -0.019  1.00  0.00     0.092 N 
HETATM   17  C13 UNL     1      -3.624   1.751  -0.567  1.00  0.00     0.298 C 
HETATM   18  C14 UNL     1      -3.548   1.627  -2.048  1.00  0.00     0.198 C 
HETATM   19  O1  UNL     1      -2.376   0.981  -2.420  1.00  0.00    -0.388 OA
HETATM   20  C15 UNL     1      -1.250   1.760  -2.181  1.00  0.00     0.198 C 
HETATM   21  C16 UNL     1      -1.382   2.593  -0.934  1.00  0.00     0.298 C 
ENDBRANCH  15  16
ENDBRANCH  14  15
ENDBRANCH  13  14
ENDBRANCH  11  13
ENDBRANCH   4  11
BRANCH   1  22
HETATM   22  N1  UNL     1       1.703  -1.092   0.351  1.00  0.00    -0.216 N 
ATOM     23  H1  UNL     1       2.642  -1.373   0.069  1.00  0.00     0.178 HD
BRANCH  22  24
HETATM   24  C7  UNL     1       0.560  -1.671  -0.282  1.00  0.00     0.232 C 
BRANCH  24  25
HETATM   25  C6  UNL     1       1.011  -2.649  -1.270  1.00  0.00    -0.086 C 
HETATM   26  C5  UNL     1       1.398  -3.458  -2.065  1.00  0.00    -0.097 C 
BRANCH  26  27
HETATM   27  C4  UNL     1       1.899  -4.463  -3.031  1.00  0.00     0.107 A 
HETATM   28  C2  UNL     1       3.358  -4.410  -3.337  1.00  0.00     0.115 A 
HETATM   29  C1  UNL     1       4.178  -3.315  -2.672  1.00  0.00     0.053 C 
HETATM   30  F1  UNL     1       3.845  -4.809  -4.563  1.00  0.00    -0.242 F 
HETATM   31  C3  UNL     1       2.784  -5.496  -2.441  1.00  0.00     0.065 A 
ENDBRANCH  26  27
ENDBRANCH  24  25
ENDBRANCH  22  24
ENDBRANCH   1  22
TORSDOF 9
