REMARK  8 active torsions:
REMARK  status: ('A' for Active; 'I' for Inactive)
REMARK    1  A    between atoms: C2_2  and  N1_3 
REMARK    2  A    between atoms: N1_3  and  C3_5 
REMARK    3  A    between atoms: C4_8  and  N3_9 
REMARK    4  A    between atoms: N5_18  and  C11_20 
REMARK    5  A    between atoms: C11_20  and  C12_21 
REMARK    6  A    between atoms: C12_21  and  C13_22 
REMARK    7  A    between atoms: C13_22  and  N6_23 
REMARK    8  A    between atoms: N6_23  and  C15_25 
ROOT
HETATM    1  C3  UNL     1       3.141  -2.067  -0.206  1.00  0.00     0.707 A 
HETATM    2  N2  UNL     1       3.200  -0.741   0.095  1.00  0.00    -0.021 N 
ATOM      3  H2  UNL     1       4.069  -0.324   0.430  1.00  0.00     0.203 HD
HETATM    4  C4  UNL     1       2.107   0.002  -0.054  1.00  0.00     0.709 A 
HETATM    5  N4  UNL     1       0.957  -0.560  -0.499  1.00  0.00    -0.021 N 
ATOM      6  H4  UNL     1       0.136   0.036  -0.603  1.00  0.00     0.203 HD
HETATM    7  C10 UNL     1       0.843  -1.854  -0.809  1.00  0.00     0.710 A 
HETATM    8  N5  UNL     1      -0.184  -2.457  -1.233  1.00  0.00    -0.204 N 
ATOM      9  H5  UNL     1      -0.064  -3.454  -1.414  1.00  0.00     0.183 HD
HETATM   10  N7  UNL     1       1.990  -2.589  -0.644  1.00  0.00    -0.021 N 
ATOM     11  H7  UNL     1       1.964  -3.584  -0.867  1.00  0.00     0.203 HD
ENDROOT
BRANCH   8  12
HETATM   12  C11 UNL     1      -1.460  -1.951  -1.489  1.00  0.00     0.080 C 
BRANCH  12  13
HETATM   13  C12 UNL     1      -1.905  -0.712  -0.781  1.00  0.00     0.065 C 
BRANCH  13  14
HETATM   14  C13 UNL     1      -3.357  -0.458  -1.242  1.00  0.00     0.127 C 
BRANCH  14  15
HETATM   15  N6  UNL     1      -3.898   0.735  -0.588  1.00  0.00    -0.386 N 
HETATM   16  C14 UNL     1      -3.328   2.005  -0.958  1.00  0.00     0.149 C 
BRANCH  15  17
HETATM   17  C15 UNL     1      -4.933   0.620   0.356  1.00  0.00     0.037 C 
HETATM   18  C16 UNL     1      -5.785  -0.612   0.318  1.00  0.00     0.071 C 
HETATM   19  C17 UNL     1      -5.212   1.518   1.280  1.00  0.00     0.112 C 
HETATM   20  C18 UNL     1      -6.337   1.319   2.252  1.00  0.00     0.084 C 
HETATM   21  F1  UNL     1      -4.480   2.644   1.366  1.00  0.00    -0.209 F 
ENDBRANCH  15  17
ENDBRANCH  14  15
ENDBRANCH  13  14
ENDBRANCH  12  13
ENDBRANCH   8  12
BRANCH   4  22
HETATM   22  N3  UNL     1       2.068   1.394   0.217  1.00  0.00    -0.217 N 
HETATM   23  C5  UNL     1       1.871   1.820   1.588  1.00  0.00     0.141 C 
HETATM   24  C6  UNL     1       2.989   2.776   1.957  1.00  0.00     0.020 C 
HETATM   25  C7  UNL     1       3.940   3.044   0.833  1.00  0.00     0.003 C 
HETATM   26  C8  UNL     1       3.284   3.385  -0.480  1.00  0.00     0.020 C 
HETATM   27  C9  UNL     1       2.224   2.366  -0.854  1.00  0.00     0.141 C 
ENDBRANCH   4  22
BRANCH   1  28
HETATM   28  N1  UNL     1       4.235  -2.728  -0.025  1.00  0.00    -0.225 N 
ATOM     29  H1  UNL     1       5.068  -2.253   0.322  1.00  0.00     0.177 HD
BRANCH  28  30
HETATM   30  C2  UNL     1       4.276  -4.136  -0.314  1.00  0.00     0.133 C 
HETATM   31  C1  UNL     1       5.423  -4.703   0.531  1.00  0.00     0.027 C 
ENDBRANCH  28  30
ENDBRANCH   1  28
TORSDOF 8
