REMARK  8 active torsions:
REMARK  status: ('A' for Active; 'I' for Inactive)
REMARK    1  A    between atoms: C2_2  and  N1_4 
REMARK    2  A    between atoms: N1_4  and  C4_6 
REMARK    3  A    between atoms: C8_13  and  O1_14 
REMARK    4  A    between atoms: C8_13  and  N3_16 
REMARK    5  A    between atoms: N3_16  and  C9_18 
REMARK    6  A    between atoms: C9_18  and  C10_19 
REMARK    7  A    between atoms: C10_19  and  C11_20 
REMARK    8  A    between atoms: C11_20  and  N4_21 
ROOT
HETATM    1  C4  UNL     1       3.971  -1.056   0.145  1.00  0.00     0.075 A 
HETATM    2  C5  UNL     1       4.470  -2.373   0.138  1.00  0.00     0.077 A 
HETATM    3 CL1  UNL     1       6.084  -2.698   0.800  1.00  0.00    -0.080 Cl
HETATM    4  C6  UNL     1       3.698  -3.360  -0.379  1.00  0.00     0.114 A 
HETATM    5  N2  UNL     1       2.486  -3.134  -0.877  1.00  0.00    -0.359 N 
ATOM      6  H2  UNL     1       1.955  -3.921  -1.249  1.00  0.00     0.165 HD
HETATM    7  C7  UNL     1       1.920  -1.880  -0.910  1.00  0.00     0.106 A 
HETATM    8  C8  UNL     1       0.606  -1.764  -1.503  1.00  0.00     0.165 C 
HETATM    9  C16 UNL     1       2.698  -0.886  -0.393  1.00  0.00     0.103 A 
HETATM   10  C17 UNL     1       2.211   0.472  -0.459  1.00  0.00     0.104 C 
HETATM   11  N5  UNL     1       1.849   1.574  -0.534  1.00  0.00    -0.191 NA
ENDROOT
BRANCH   1  12
HETATM   12  N1  UNL     1       4.723  -0.213   0.631  1.00  0.00    -0.383 N 
ATOM     13  H1  UNL     1       5.559  -0.723   0.916  1.00  0.00     0.160 HD
BRANCH  12  14
HETATM   14  C2  UNL     1       4.955   1.089   0.965  1.00  0.00     0.073 C 
HETATM   15  C1  UNL     1       6.038   1.255   2.066  1.00  0.00     0.031 C 
HETATM   16  C3  UNL     1       5.601   1.803  -0.238  1.00  0.00     0.031 C 
ENDBRANCH  12  14
ENDBRANCH   1  12
BRANCH   8  17
HETATM   17  O1  UNL     1       0.298  -2.668  -2.393  1.00  0.00    -0.345 OA
ATOM     18  H1  UNL     1      -0.565  -2.592  -2.783  1.00  0.00     0.219 HD
ENDBRANCH   8  17
BRANCH   8  19
HETATM   19  N3  UNL     1      -0.401  -0.836  -1.270  1.00  0.00    -0.369 N 
ATOM     20  H3  UNL     1      -0.281  -0.089  -0.586  1.00  0.00     0.161 HD
BRANCH  19  21
HETATM   21  C9  UNL     1      -1.655  -0.966  -2.048  1.00  0.00     0.123 C 
BRANCH  21  22
HETATM   22  C10 UNL     1      -2.641   0.114  -1.672  1.00  0.00     0.050 C 
BRANCH  22  23
HETATM   23  C11 UNL     1      -3.011   0.037  -0.206  1.00  0.00     0.274 C 
BRANCH  23  24
HETATM   24  N4  UNL     1      -3.943   1.074   0.129  1.00  0.00     0.092 N 
HETATM   25  C12 UNL     1      -4.367   1.052   1.493  1.00  0.00     0.298 C 
HETATM   26  C13 UNL     1      -5.648   0.221   1.576  1.00  0.00     0.198 C 
HETATM   27  O2  UNL     1      -6.709   0.851   0.944  1.00  0.00    -0.388 OA
HETATM   28  C14 UNL     1      -6.291   1.759  -0.008  1.00  0.00     0.198 C 
HETATM   29  C15 UNL     1      -5.067   1.199  -0.743  1.00  0.00     0.298 C 
ENDBRANCH  23  24
ENDBRANCH  22  23
ENDBRANCH  21  22
ENDBRANCH  19  21
ENDBRANCH   8  19
TORSDOF 8
