REMARK  7 active torsions:
REMARK  status: ('A' for Active; 'I' for Inactive)
REMARK    1  A    between atoms: N3_8  and  C4_9 
REMARK    2  A    between atoms: C4_9  and  C5_10 
REMARK    3  A    between atoms: C4_9  and  C7_12 
REMARK       I    between atoms: C7_12  and  N4_14 
REMARK    4  A    between atoms: N4_14  and  C8_16 
REMARK    5  A    between atoms: C8_16  and  C9_17 
REMARK    6  A    between atoms: C9_17  and  N5_18 
REMARK    7  A    between atoms: C14_24  and  C15_26 
ROOT
HETATM    1  C15 UNL     1       5.365   0.137  -0.557  1.00  0.00    -0.053 C 
HETATM    2  C16 UNL     1       6.508   0.271  -0.210  1.00  0.00    -0.105 C 
HETATM    3  C17 UNL     1       7.898   0.454   0.199  1.00  0.00     0.112 C 
ENDROOT
BRANCH   1   4
HETATM    4  C14 UNL     1       3.958  -0.042  -0.956  1.00  0.00     0.111 C 
HETATM    5  C13 UNL     1       3.085  -0.063   0.008  1.00  0.00     0.062 C 
HETATM    6  N5  UNL     1       1.721  -0.239  -0.197  1.00  0.00    -0.377 N 
HETATM    7  C12 UNL     1       3.610   0.103   1.450  1.00  0.00     0.226 C 
HETATM    8  C10 UNL     1       0.771   0.407   0.717  1.00  0.00     0.149 C 
HETATM    9  C11 UNL     1       1.599   1.096   1.787  1.00  0.00     0.187 C 
HETATM   10  O2  UNL     1       2.522   0.187   2.278  1.00  0.00    -0.384 OA
HETATM   11 CL1  UNL     1       3.743  -0.207  -2.663  1.00  0.00    -0.072 Cl
BRANCH   6  12
HETATM   12  C9  UNL     1       1.184  -1.079  -1.216  1.00  0.00     0.142 C 
BRANCH  12  13
HETATM   13  C8  UNL     1       0.338  -0.480  -2.263  1.00  0.00     0.142 C 
BRANCH  13  14
HETATM   14  N4  UNL     1      -0.909   0.146  -1.829  1.00  0.00    -0.358 N 
HETATM   15  C7  UNL     1      -1.978  -0.510  -1.207  1.00  0.00     0.242 C 
HETATM   16  O1  UNL     1      -1.769  -1.778  -1.039  1.00  0.00    -0.271 OA
ATOM     17  H4  UNL     1      -1.009   1.148  -1.993  1.00  0.00     0.162 HD
BRANCH  15  18
HETATM   18  C4  UNL     1      -3.253  -0.020  -0.732  1.00  0.00     0.201 C 
BRANCH  18  19
HETATM   19  N3  UNL     1      -3.937  -1.062   0.069  1.00  0.00    -0.263 N 
HETATM   20  C2  UNL     1      -5.366  -1.071   0.236  1.00  0.00     0.114 A 
HETATM   21  C1  UNL     1      -6.219  -0.241  -0.288  1.00  0.00     0.065 C 
HETATM   22  N1  UNL     1      -5.654  -2.160   1.081  1.00  0.00    -0.337 N 
HETATM   23  C3  UNL     1      -4.597  -2.776   1.422  1.00  0.00     0.199 A 
ATOM     24  H1  UNL     1      -6.593  -2.421   1.381  1.00  0.00     0.168 HD
HETATM   25  N2  UNL     1      -3.471  -2.120   0.807  1.00  0.00    -0.292 N 
ATOM     26  H2  UNL     1      -2.494  -2.396   0.904  1.00  0.00     0.188 HD
ENDBRANCH  18  19
BRANCH  18  27
HETATM   27  C5  UNL     1      -3.201   1.198   0.108  1.00  0.00     0.032 C 
HETATM   28  C6  UNL     1      -2.611   2.414  -0.486  1.00  0.00     0.007 C 
ENDBRANCH  18  27
ENDBRANCH  15  18
ENDBRANCH  13  14
ENDBRANCH  12  13
ENDBRANCH   6  12
ENDBRANCH   1   4
TORSDOF 7
