REMARK  6 active torsions:
REMARK  status: ('A' for Active; 'I' for Inactive)
REMARK    1  A    between atoms: C4_4  and  C5_5 
REMARK    2  A    between atoms: C5_5  and  C6_6 
REMARK    3  A    between atoms: C8_10  and  O3_11 
REMARK    4  A    between atoms: O3_11  and  C9_12 
REMARK    5  A    between atoms: C9_12  and  C10_14 
REMARK    6  A    between atoms: C10_14  and  C11_15 
ROOT
HETATM    1  C1  UNL     1      -2.314   4.605  -0.341  1.00  0.00     0.018 C 
HETATM    2  C2  UNL     1      -1.537   3.694  -0.165  1.00  0.00    -0.074 C 
HETATM    3  C3  UNL     1      -0.633   2.604   0.057  1.00  0.00     0.058 A 
HETATM    4  C4  UNL     1       0.717   2.874   0.276  1.00  0.00    -0.024 A 
HETATM    5  C7  UNL     1       1.601   1.823   0.491  1.00  0.00     0.047 A 
HETATM    6  C8  UNL     1       1.145   0.517   0.488  1.00  0.00     0.096 A 
HETATM    7  C14 UNL     1      -0.188   0.237   0.272  1.00  0.00     0.079 A 
HETATM    8  C15 UNL     1      -1.030   1.289   0.064  1.00  0.00     0.105 A 
HETATM    9  O5  UNL     1      -2.398   1.200  -0.170  1.00  0.00    -0.338 OA
HETATM   10  C16 UNL     1      -3.251   0.097  -0.328  1.00  0.00     0.069 C 
HETATM   11  C17 UNL     1      -4.343   0.592  -1.286  1.00  0.00     0.047 C 
HETATM   12  C18 UNL     1      -3.958  -0.114   0.995  1.00  0.00     0.047 C 
HETATM   13  C19 UNL     1      -2.689  -1.121  -0.914  1.00  0.00     0.062 C 
HETATM   14  C20 UNL     1      -3.786  -2.135  -0.961  1.00  0.00    -0.008 C 
HETATM   15  C21 UNL     1      -3.570  -3.087  -0.047  1.00  0.00    -0.019 C 
HETATM   16  C22 UNL     1      -4.452  -4.273   0.207  1.00  0.00     0.052 C 
HETATM   17  C23 UNL     1      -2.332  -2.782   0.659  1.00  0.00     0.167 C 
HETATM   18  O6  UNL     1      -1.945  -3.178   1.768  1.00  0.00    -0.292 OA
HETATM   19  C24 UNL     1      -1.622  -1.868  -0.270  1.00  0.00     0.145 C 
HETATM   20  C25 UNL     1      -0.501  -1.168   0.313  1.00  0.00     0.177 C 
HETATM   21  O7  UNL     1       0.322  -1.890   0.950  1.00  0.00    -0.291 OA
ENDROOT
BRANCH   4  22
HETATM   22  C5  UNL     1       1.176   4.263   0.275  1.00  0.00     0.153 C 
BRANCH  22  23
HETATM   23  C6  UNL     1       0.836   5.012   1.501  1.00  0.00     0.176 C 
HETATM   24  O1  UNL     1       0.206   4.519   2.477  1.00  0.00    -0.648 OA
HETATM   25  O2  UNL     1       1.233   6.336   1.583  1.00  0.00    -0.648 OA
ENDBRANCH  22  23
ENDBRANCH   4  22
BRANCH   6  26
HETATM   26  O3  UNL     1       2.062  -0.517   0.707  1.00  0.00    -0.278 OA
BRANCH  26  27
HETATM   27  C9  UNL     1       2.894  -0.931  -0.317  1.00  0.00     0.264 C 
HETATM   28  O4  UNL     1       2.815  -0.372  -1.426  1.00  0.00    -0.265 OA
BRANCH  27  29
HETATM   29  C10 UNL     1       3.853  -2.021  -0.067  1.00  0.00     0.115 C 
BRANCH  29  30
HETATM   30  C11 UNL     1       5.231  -1.410   0.124  1.00  0.00    -0.013 C 
HETATM   31  C12 UNL     1       5.573  -0.663  -1.151  1.00  0.00     0.010 C 
HETATM   32  C13 UNL     1       6.260  -2.518   0.383  1.00  0.00     0.010 C 
ENDBRANCH  29  30
ENDBRANCH  27  29
ENDBRANCH  26  27
ENDBRANCH   6  26
TORSDOF 6
