REMARK  10 active torsions:
REMARK  status: ('A' for Active; 'I' for Inactive)
REMARK    1  A    between atoms: C2_2  and  C4_4 
REMARK    2  A    between atoms: C4_4  and  O1_5 
REMARK    3  A    between atoms: O1_5  and  C5_6 
REMARK    4  A    between atoms: C10_12  and  C11_13 
REMARK       I    between atoms: C11_13  and  N1_15 
REMARK    5  A    between atoms: N1_15  and  C12_17 
REMARK    6  A    between atoms: C12_17  and  C13_18 
REMARK    7  A    between atoms: C12_17  and  C20_33 
REMARK       I    between atoms: C13_18  and  N2_20 
REMARK    8  A    between atoms: N2_20  and  C14_22 
REMARK    9  A    between atoms: C14_22  and  C16_24 
REMARK   10  A    between atoms: C16_24  and  C17_26 
ROOT
HETATM    1  C12 UNL     1       0.488   0.112  -0.423  1.00  0.00     0.180 C 
ENDROOT
BRANCH   1   2
HETATM    2  N1  UNL     1      -0.720  -0.296   0.218  1.00  0.00    -0.343 N 
HETATM    3  C11 UNL     1      -0.992  -1.313   1.119  1.00  0.00     0.255 C 
HETATM    4  O2  UNL     1      -0.042  -2.089   1.483  1.00  0.00    -0.268 OA
ATOM      5  H1  UNL     1      -1.534   0.265  -0.034  1.00  0.00     0.163 HD
BRANCH   3   6
HETATM    6  C10 UNL     1      -2.291  -1.587   1.712  1.00  0.00     0.067 A 
HETATM    7  C5  UNL     1      -3.455  -0.886   1.487  1.00  0.00     0.084 A 
HETATM    8  C6  UNL     1      -4.619  -1.287   2.130  1.00  0.00     0.039 A 
HETATM    9  C7  UNL     1      -4.687  -2.355   2.991  1.00  0.00     0.026 A 
HETATM   10  C8  UNL     1      -3.537  -3.065   3.227  1.00  0.00     0.035 A 
HETATM   11 CL1  UNL     1      -3.633  -4.426   4.329  1.00  0.00    -0.084 Cl
HETATM   12  C9  UNL     1      -2.392  -2.681   2.603  1.00  0.00     0.043 A 
BRANCH   7  13
HETATM   13  O1  UNL     1      -3.525   0.177   0.677  1.00  0.00    -0.350 OA
BRANCH  13  14
HETATM   14  C4  UNL     1      -4.500   1.031   0.242  1.00  0.00     0.179 C 
BRANCH  14  15
HETATM   15  C2  UNL     1      -5.606   0.482  -0.587  1.00  0.00     0.002 C 
HETATM   16  C1  UNL     1      -5.099  -0.147  -1.877  1.00  0.00     0.011 C 
HETATM   17  C3  UNL     1      -6.466   1.672  -1.018  1.00  0.00     0.011 C 
ENDBRANCH  14  15
ENDBRANCH  13  14
ENDBRANCH   7  13
ENDBRANCH   3   6
ENDBRANCH   1   2
BRANCH   1  18
HETATM   18  C13 UNL     1       1.725   0.150   0.327  1.00  0.00     0.241 C 
HETATM   19  O3  UNL     1       1.967  -0.524   1.335  1.00  0.00    -0.271 OA
HETATM   20  N2  UNL     1       2.816   1.032  -0.069  1.00  0.00    -0.348 N 
ATOM     21  H2  UNL     1       2.697   1.629  -0.887  1.00  0.00     0.163 HD
BRANCH  20  22
HETATM   22  C14 UNL     1       4.064   1.086   0.665  1.00  0.00     0.157 C 
HETATM   23  C15 UNL     1       4.063   2.348   1.533  1.00  0.00     0.041 C 
BRANCH  22  24
HETATM   24  C16 UNL     1       5.196   1.107  -0.281  1.00  0.00     0.198 C 
HETATM   25  O4  UNL     1       4.937   1.148  -1.529  1.00  0.00    -0.288 OA
BRANCH  24  26
HETATM   26  C17 UNL     1       6.614   1.081   0.180  1.00  0.00     0.090 A 
HETATM   27  C18 UNL     1       6.893   0.968   1.516  1.00  0.00     0.088 A 
HETATM   28  S1  UNL     1       8.600   0.943   1.522  1.00  0.00    -0.039 SA
HETATM   29  C19 UNL     1       8.854   1.078  -0.156  1.00  0.00     0.288 A 
HETATM   30  O5  UNL     1       9.948   1.118  -0.829  1.00  0.00    -0.260 OA
HETATM   31  N3  UNL     1       7.618   1.135  -0.648  1.00  0.00    -0.314 N 
ATOM     32  H3  UNL     1       7.461   1.219  -1.652  1.00  0.00     0.170 HD
ENDBRANCH  24  26
ENDBRANCH  22  24
ENDBRANCH  20  22
ENDBRANCH   1  18
BRANCH   1  33
HETATM   33  C20 UNL     1       0.537  -0.555  -1.768  1.00  0.00     0.009 C 
HETATM   34  C21 UNL     1       1.733  -0.254  -2.601  1.00  0.00     0.012 C 
HETATM   35  C22 UNL     1       0.374  -2.061  -1.699  1.00  0.00     0.012 C 
ENDBRANCH   1  33
TORSDOF 10
