REMARK  9 active torsions:
REMARK  status: ('A' for Active; 'I' for Inactive)
REMARK    1  A    between atoms: C2_2  and  C3_3 
REMARK    2  A    between atoms: C3_3  and  C4_4 
REMARK    3  A    between atoms: C4_4  and  N1_5 
REMARK    4  A    between atoms: C6_8  and  C7_9 
REMARK    5  A    between atoms: C7_9  and  C8_10 
REMARK    6  A    between atoms: C13_16  and  S1_17 
REMARK    7  A    between atoms: S1_17  and  N3_20 
REMARK    8  A    between atoms: N3_20  and  C14_22 
REMARK    9  A    between atoms: C14_22  and  C17_25 
ROOT
HETATM    1  C8  UNL     1      -0.291  -0.687   0.061  1.00  0.00    -0.046 A 
HETATM    2  C9  UNL     1      -0.847   0.494  -0.369  1.00  0.00     0.016 A 
HETATM    3  C10 UNL     1      -0.141   1.674  -0.319  1.00  0.00    -0.038 A 
HETATM    4  C11 UNL     1      -0.724   2.958  -0.776  1.00  0.00     0.050 C 
HETATM    5  C12 UNL     1       1.140   1.657   0.170  1.00  0.00     0.063 A 
HETATM    6 CL1  UNL     1       2.047   3.158   0.238  1.00  0.00    -0.082 Cl
HETATM    7  C13 UNL     1       1.721   0.456   0.612  1.00  0.00     0.108 A 
HETATM    8  C19 UNL     1       1.016  -0.723   0.564  1.00  0.00    -0.030 A 
HETATM    9  C20 UNL     1       1.593  -2.003   1.061  1.00  0.00     0.050 C 
ENDROOT
BRANCH   1  10
HETATM   10  C7  UNL     1      -1.019  -1.988   0.028  1.00  0.00     0.087 C 
BRANCH  10  11
HETATM   11  C6  UNL     1      -2.411  -1.844  -0.462  1.00  0.00     0.056 A 
HETATM   12  C5  UNL     1      -3.420  -1.346   0.316  1.00  0.00     0.134 A 
HETATM   13  N1  UNL     1      -4.700  -1.213  -0.135  1.00  0.00    -0.287 N 
HETATM   14  N2  UNL     1      -3.170  -0.943   1.640  1.00  0.00    -0.082 NA
HETATM   15  C22 UNL     1      -4.937  -1.597  -1.399  1.00  0.00     0.330 A 
HETATM   16  N4  UNL     1      -3.973  -2.093  -2.200  1.00  0.00    -0.275 N 
HETATM   17  O4  UNL     1      -6.091  -1.509  -1.894  1.00  0.00    -0.246 OA
HETATM   18  C21 UNL     1      -2.713  -2.223  -1.751  1.00  0.00     0.259 A 
ATOM     19  H4  UNL     1      -4.202  -2.372  -3.154  1.00  0.00     0.173 HD
HETATM   20  O3  UNL     1      -1.818  -2.694  -2.526  1.00  0.00    -0.267 OA
BRANCH  13  21
HETATM   21  C4  UNL     1      -5.748  -0.695   0.706  1.00  0.00     0.135 C 
BRANCH  21  22
HETATM   22  C3  UNL     1      -5.908   0.781   0.697  1.00  0.00     0.020 C 
BRANCH  22  23
HETATM   23  C2  UNL     1      -6.224   1.391  -0.643  1.00  0.00    -0.003 C 
HETATM   24  C1  UNL     1      -6.356   2.898  -0.489  1.00  0.00     0.005 C 
ENDBRANCH  22  23
ENDBRANCH  21  22
ENDBRANCH  13  21
ENDBRANCH  10  11
ENDBRANCH   1  10
BRANCH   7  25
HETATM   25  S1  UNL     1       3.349   0.573   1.253  1.00  0.00     0.261 S 
HETATM   26  O1  UNL     1       3.289   1.798   2.178  1.00  0.00    -0.200 OA
HETATM   27  O2  UNL     1       3.516  -0.580   2.206  1.00  0.00    -0.200 OA
BRANCH  25  28
HETATM   28  N3  UNL     1       4.495   0.696   0.072  1.00  0.00    -0.306 N 
ATOM     29  H3  UNL     1       4.470   1.536  -0.506  1.00  0.00     0.173 HD
BRANCH  28  30
HETATM   30  C14 UNL     1       5.485  -0.225  -0.212  1.00  0.00     0.033 C 
HETATM   31  C15 UNL     1       5.149  -1.565  -0.756  1.00  0.00     0.038 C 
HETATM   32  C16 UNL     1       6.371   0.433  -1.302  1.00  0.00     0.038 C 
BRANCH  30  33
HETATM   33  C17 UNL     1       6.471  -0.466   0.933  1.00  0.00     0.026 C 
HETATM   34  C18 UNL     1       7.198   0.768   1.344  1.00  0.00     0.007 C 
ENDBRANCH  30  33
ENDBRANCH  28  30
ENDBRANCH  25  28
ENDBRANCH   7  25
TORSDOF 9
