REMARK  12 active torsions:
REMARK  status: ('A' for Active; 'I' for Inactive)
REMARK    1  A    between atoms: C2_2  and  C3_3 
REMARK    2  A    between atoms: C2_2  and  N2_12 
REMARK    3  A    between atoms: C3_3  and  C4_4 
REMARK    4  A    between atoms: C4_4  and  N1_5 
REMARK    5  A    between atoms: C7_8  and  O1_9 
REMARK    6  A    between atoms: N2_12  and  C9_14 
REMARK    7  A    between atoms: C10_17  and  N4_18 
REMARK    8  A    between atoms: C16_26  and  N6_27 
REMARK    9  A    between atoms: N6_27  and  C17_29 
REMARK   10  A    between atoms: C17_29  and  C18_30 
REMARK   11  A    between atoms: C18_30  and  C19_31 
REMARK   12  A    between atoms: C19_31  and  C20_32 
ROOT
HETATM    1  C9  UNL     1      -0.363  -0.923  -0.303  1.00  0.00     0.707 A 
HETATM    2  N3  UNL     1      -1.030  -2.000   0.104  1.00  0.00    -0.021 N 
ATOM      3  H3  UNL     1      -2.039  -1.928   0.233  1.00  0.00     0.203 HD
HETATM    4  C10 UNL     1      -0.429  -3.187   0.354  1.00  0.00     0.709 A 
HETATM    5  N5  UNL     1       0.883  -3.283   0.189  1.00  0.00    -0.021 N 
ATOM      6  H5  UNL     1       1.355  -4.168   0.373  1.00  0.00     0.203 HD
HETATM    7  C16 UNL     1       1.620  -2.176  -0.236  1.00  0.00     0.707 A 
HETATM    8  N7  UNL     1       0.989  -1.030  -0.472  1.00  0.00    -0.022 N 
ATOM      9  H7  UNL     1       1.522  -0.218  -0.784  1.00  0.00     0.203 HD
ENDROOT
BRANCH   1  10
HETATM   10  N2  UNL     1      -0.968   0.179  -0.506  1.00  0.00    -0.221 N 
ATOM     11  H2  UNL     1      -0.439   0.993  -0.817  1.00  0.00     0.178 HD
BRANCH  10  12
HETATM   12  C2  UNL     1      -2.376   0.290  -0.304  1.00  0.00     0.097 C 
HETATM   13  C1  UNL     1      -2.652   0.361   1.194  1.00  0.00     0.032 C 
BRANCH  12  14
HETATM   14  C3  UNL     1      -2.955   1.561  -0.960  1.00  0.00     0.055 C 
BRANCH  14  15
HETATM   15  C4  UNL     1      -4.428   1.575  -0.687  1.00  0.00     0.274 C 
BRANCH  15  16
HETATM   16  N1  UNL     1      -5.150   2.695  -1.198  1.00  0.00     0.091 N 
HETATM   17  C5  UNL     1      -6.564   2.425  -0.862  1.00  0.00     0.275 C 
HETATM   18  C6  UNL     1      -7.228   3.764  -0.855  1.00  0.00     0.064 C 
HETATM   19  C7  UNL     1      -6.110   4.764  -0.866  1.00  0.00     0.148 C 
HETATM   20  C8  UNL     1      -4.934   3.903  -0.419  1.00  0.00     0.303 C 
BRANCH  19  21
HETATM   21  O1  UNL     1      -6.346   5.816   0.020  1.00  0.00    -0.394 OA
ATOM     22  H1  UNL     1      -5.638   6.449   0.013  1.00  0.00     0.210 HD
ENDBRANCH  19  21
ENDBRANCH  15  16
ENDBRANCH  14  15
ENDBRANCH  12  14
ENDBRANCH  10  12
ENDBRANCH   1  10
BRANCH   4  23
HETATM   23  N4  UNL     1      -1.228  -4.309   0.787  1.00  0.00    -0.217 N 
HETATM   24  C11 UNL     1      -2.010  -5.041  -0.183  1.00  0.00     0.141 C 
HETATM   25  C12 UNL     1      -2.282  -6.423   0.334  1.00  0.00     0.020 C 
HETATM   26  C13 UNL     1      -1.098  -6.911   1.113  1.00  0.00     0.003 C 
HETATM   27  C14 UNL     1      -0.916  -6.123   2.403  1.00  0.00     0.020 C 
HETATM   28  C15 UNL     1      -1.206  -4.655   2.180  1.00  0.00     0.141 C 
ENDBRANCH   4  23
BRANCH   7  29
HETATM   29  N6  UNL     1       2.851  -2.322  -0.362  1.00  0.00    -0.225 N 
ATOM     30  H6  UNL     1       3.135  -3.272  -0.122  1.00  0.00     0.177 HD
BRANCH  29  31
HETATM   31  C17 UNL     1       3.920  -1.570  -0.730  1.00  0.00     0.138 C 
BRANCH  31  32
HETATM   32  C18 UNL     1       4.228  -0.402   0.222  1.00  0.00     0.020 C 
BRANCH  32  33
HETATM   33  C19 UNL     1       5.441   0.270  -0.336  1.00  0.00     0.006 C 
BRANCH  33  34
HETATM   34  C20 UNL     1       5.870   1.456   0.485  1.00  0.00    -0.014 C 
HETATM   35  C21 UNL     1       4.797   2.468   0.500  1.00  0.00     0.004 C 
HETATM   36  C22 UNL     1       5.200   3.736  -0.281  1.00  0.00     0.000 C 
HETATM   37  C23 UNL     1       6.389   4.270   0.495  1.00  0.00     0.000 C 
HETATM   38  C24 UNL     1       7.547   3.343   0.247  1.00  0.00     0.000 C 
HETATM   39  C25 UNL     1       7.223   1.911   0.074  1.00  0.00     0.004 C 
ENDBRANCH  33  34
ENDBRANCH  32  33
ENDBRANCH  31  32
ENDBRANCH  29  31
ENDBRANCH   7  29
TORSDOF 12
