REMARK  12 active torsions:
REMARK  status: ('A' for Active; 'I' for Inactive)
REMARK    1  A    between atoms: C2_2  and  C3_3 
REMARK    2  A    between atoms: C3_3  and  C4_4 
REMARK    3  A    between atoms: C4_4  and  N1_5 
REMARK    4  A    between atoms: N1_5  and  C5_6 
REMARK    5  A    between atoms: N1_5  and  C11_18 
REMARK    6  A    between atoms: C5_6  and  C6_7 
REMARK    7  A    between atoms: C6_7  and  C7_8 
REMARK    8  A    between atoms: C7_8  and  C8_9 
REMARK    9  A    between atoms: C8_9  and  C9_10 
REMARK   10  A    between atoms: C9_10  and  C10_11 
REMARK   11  A    between atoms: C10_11  and  O1_12 
REMARK   12  A    between atoms: N2_14  and  O2_16 
ROOT
HETATM    1  C5  UNL     1       0.047   0.803   1.402  1.00  0.00     0.273 C 
ENDROOT
BRANCH   1   2
HETATM    2  N1  UNL     1      -0.880   0.965   0.302  1.00  0.00     0.093 N 
BRANCH   2   3
HETATM    3  C4  UNL     1      -1.672   2.135   0.742  1.00  0.00     0.276 C 
BRANCH   3   4
HETATM    4  C3  UNL     1      -2.676   2.634  -0.197  1.00  0.00     0.056 C 
BRANCH   4   5
HETATM    5  C2  UNL     1      -3.341   3.819   0.418  1.00  0.00    -0.035 C 
HETATM    6  C1  UNL     1      -3.013   4.259   1.597  1.00  0.00     0.007 C 
ENDBRANCH   4   5
ENDBRANCH   3   4
ENDBRANCH   2   3
BRANCH   2   7
HETATM    7  C11 UNL     1      -1.739  -0.145   0.062  1.00  0.00     0.223 C 
HETATM    8  C12 UNL     1      -2.495  -0.721   1.190  1.00  0.00     0.036 C 
HETATM    9  C13 UNL     1      -2.507  -2.261   1.098  1.00  0.00     0.002 C 
HETATM   10  C14 UNL     1      -3.022  -2.627  -0.260  1.00  0.00     0.000 C 
HETATM   11  C15 UNL     1      -2.285  -1.989  -1.399  1.00  0.00     0.002 C 
HETATM   12  C16 UNL     1      -1.099  -1.194  -0.791  1.00  0.00     0.036 C 
ENDBRANCH   2   7
ENDBRANCH   1   2
BRANCH   1  13
HETATM   13  C6  UNL     1       1.188  -0.112   1.231  1.00  0.00     0.030 C 
BRANCH  13  14
HETATM   14  C7  UNL     1       2.122   0.286   0.108  1.00  0.00     0.002 C 
BRANCH  14  15
HETATM   15  C8  UNL     1       3.262  -0.702  -0.012  1.00  0.00     0.008 C 
BRANCH  15  16
HETATM   16  C9  UNL     1       4.133  -0.177  -1.156  1.00  0.00     0.086 C 
BRANCH  16  17
HETATM   17  C10 UNL     1       5.275  -1.087  -1.348  1.00  0.00     0.135 C 
HETATM   18  N2  UNL     1       5.485  -1.594  -2.511  1.00  0.00    -0.251 N 
ATOM     19  H2  UNL     1       4.862  -1.362  -3.285  1.00  0.00     0.196 HD
BRANCH  17  20
HETATM   20  O1  UNL     1       6.108  -1.388  -0.284  1.00  0.00    -0.348 OA
ATOM     21  H1  UNL     1       6.845  -1.975  -0.408  1.00  0.00     0.219 HD
ENDBRANCH  17  20
BRANCH  18  22
HETATM   22  O2  UNL     1       6.545  -2.447  -2.719  1.00  0.00    -0.288 OA
ATOM     23  H2  UNL     1       6.700  -2.822  -3.578  1.00  0.00     0.244 HD
ENDBRANCH  18  22
ENDBRANCH  16  17
ENDBRANCH  15  16
ENDBRANCH  14  15
ENDBRANCH  13  14
ENDBRANCH   1  13
TORSDOF 12
