REMARK  12 active torsions:
REMARK  status: ('A' for Active; 'I' for Inactive)
REMARK    1  A    between atoms: C2_3  and  C3_4 
REMARK    2  A    between atoms: C3_4  and  C4_5 
REMARK    3  A    between atoms: C4_5  and  C5_6 
REMARK    4  A    between atoms: C5_6  and  C6_7 
REMARK    5  A    between atoms: C6_7  and  C7_8 
REMARK    6  A    between atoms: C7_8  and  C8_9 
REMARK    7  A    between atoms: C8_9  and  C9_10 
REMARK    8  A    between atoms: C9_10  and  C10_11 
REMARK    9  A    between atoms: C10_11  and  C11_12 
REMARK   10  A    between atoms: C13_14  and  C14_15 
REMARK   11  A    between atoms: C14_15  and  O1_16 
REMARK   12  A    between atoms: C17_20  and  O2_21 
ROOT
HETATM    1  N1  UNL     1       6.762   3.224  -0.919  1.00  0.00    -0.197 NA
HETATM    2  C1  UNL     1       6.389   2.207  -0.497  1.00  0.00     0.059 C 
HETATM    3  C2  UNL     1       5.930   0.905   0.021  1.00  0.00     0.124 C 
ENDROOT
BRANCH   3   4
HETATM    4  C3  UNL     1       4.577   1.119   0.622  1.00  0.00     0.014 C 
BRANCH   4   5
HETATM    5  C4  UNL     1       4.053  -0.173   1.183  1.00  0.00     0.001 C 
BRANCH   5   6
HETATM    6  C5  UNL     1       3.939  -1.208   0.121  1.00  0.00     0.000 C 
BRANCH   6   7
HETATM    7  C6  UNL     1       3.016  -0.752  -0.964  1.00  0.00     0.000 C 
BRANCH   7   8
HETATM    8  C7  UNL     1       1.622  -0.450  -0.463  1.00  0.00     0.000 C 
BRANCH   8   9
HETATM    9  C8  UNL     1       1.039  -1.678   0.146  1.00  0.00     0.000 C 
BRANCH   9  10
HETATM   10  C9  UNL     1      -0.377  -1.457   0.668  1.00  0.00     0.000 C 
BRANCH  10  11
HETATM   11  C10 UNL     1      -1.345  -1.038  -0.383  1.00  0.00     0.005 C 
BRANCH  11  12
HETATM   12  C11 UNL     1      -2.719  -0.844   0.213  1.00  0.00    -0.007 C 
HETATM   13  C12 UNL     1      -3.710  -0.410  -0.887  1.00  0.00     0.019 C 
HETATM   14  C13 UNL     1      -4.199   0.856  -0.280  1.00  0.00     0.008 C 
HETATM   15  C15 UNL     1      -2.903   1.528   0.146  1.00  0.00     0.021 C 
HETATM   16  C17 UNL     1      -4.351   0.510   1.207  1.00  0.00     0.133 C 
HETATM   17  C16 UNL     1      -2.827   0.337   1.113  1.00  0.00     0.020 C 
BRANCH  14  18
HETATM   18  C14 UNL     1      -5.228   1.650  -0.905  1.00  0.00     0.176 C 
BRANCH  18  19
HETATM   19  O1  UNL     1      -6.395   0.924  -1.041  1.00  0.00    -0.400 OA
ATOM     20  H1  UNL     1      -7.073   1.447  -1.453  1.00  0.00     0.209 HD
ENDBRANCH  18  19
ENDBRANCH  14  18
BRANCH  16  21
HETATM   21  O2  UNL     1      -4.935  -0.714   1.452  1.00  0.00    -0.394 OA
ATOM     22  H2  UNL     1      -5.029  -0.928   2.373  1.00  0.00     0.210 HD
ENDBRANCH  16  21
ENDBRANCH  11  12
ENDBRANCH  10  11
ENDBRANCH   9  10
ENDBRANCH   8   9
ENDBRANCH   7   8
ENDBRANCH   6   7
ENDBRANCH   5   6
ENDBRANCH   4   5
ENDBRANCH   3   4
TORSDOF 12
