REMARK  12 active torsions:
REMARK  status: ('A' for Active; 'I' for Inactive)
REMARK    1  A    between atoms: O1_1  and  N1_3 
REMARK    2  A    between atoms: C1_5  and  O2_6 
REMARK    3  A    between atoms: C1_5  and  C2_8 
REMARK    4  A    between atoms: C2_8  and  C3_9 
REMARK    5  A    between atoms: C3_9  and  C4_10 
REMARK    6  A    between atoms: C4_10  and  C5_11 
REMARK    7  A    between atoms: C5_11  and  C6_12 
REMARK    8  A    between atoms: C6_12  and  C7_13 
REMARK    9  A    between atoms: C7_13  and  C8_14 
REMARK   10  A    between atoms: C8_14  and  C9_15 
REMARK   11  A    between atoms: C9_15  and  C10_16 
REMARK   12  A    between atoms: C10_16  and  N2_17 
ROOT
HETATM    1  C5  UNL     1       2.255  -1.293   0.505  1.00  0.00     0.000 C 
ENDROOT
BRANCH   1   2
HETATM    2  C4  UNL     1       3.543  -0.866  -0.111  1.00  0.00     0.000 C 
BRANCH   2   3
HETATM    3  C3  UNL     1       3.445   0.465  -0.810  1.00  0.00     0.008 C 
BRANCH   3   4
HETATM    4  C2  UNL     1       4.830   0.801  -1.388  1.00  0.00     0.086 C 
BRANCH   4   5
HETATM    5  C1  UNL     1       5.837   0.877  -0.315  1.00  0.00     0.135 C 
HETATM    6  N1  UNL     1       6.843   0.075  -0.339  1.00  0.00    -0.251 N 
ATOM      7  H1  UNL     1       6.897  -0.586  -1.114  1.00  0.00     0.196 HD
BRANCH   6   8
HETATM    8  O1  UNL     1       7.836   0.037   0.581  1.00  0.00    -0.288 OA
ATOM      9  H1  UNL     1       8.579  -0.555   0.563  1.00  0.00     0.244 HD
ENDBRANCH   6   8
BRANCH   5  10
HETATM   10  O2  UNL     1       5.748   1.781   0.728  1.00  0.00    -0.348 OA
ATOM     11  H2  UNL     1       5.005   2.373   0.746  1.00  0.00     0.219 HD
ENDBRANCH   5  10
ENDBRANCH   4   5
ENDBRANCH   3   4
ENDBRANCH   2   3
ENDBRANCH   1   2
BRANCH   1  12
HETATM   12  C6  UNL     1       1.188  -1.423  -0.548  1.00  0.00     0.000 C 
BRANCH  12  13
HETATM   13  C7  UNL     1      -0.138  -1.875  -0.017  1.00  0.00     0.000 C 
BRANCH  13  14
HETATM   14  C8  UNL     1      -0.675  -0.909   1.010  1.00  0.00     0.002 C 
BRANCH  14  15
HETATM   15  C9  UNL     1      -0.880   0.485   0.471  1.00  0.00     0.030 C 
BRANCH  15  16
HETATM   16  C10 UNL     1      -1.856   0.433  -0.655  1.00  0.00     0.272 C 
BRANCH  16  17
HETATM   17  N2  UNL     1      -3.157  -0.080  -0.195  1.00  0.00     0.088 N 
HETATM   18  C11 UNL     1      -3.985  -0.149  -1.352  1.00  0.00     0.272 C 
HETATM   19  C12 UNL     1      -5.456  -0.145  -1.095  1.00  0.00     0.030 C 
HETATM   20  C13 UNL     1      -5.749   1.081  -0.226  1.00  0.00     0.003 C 
HETATM   21  C14 UNL     1      -5.083   0.762   1.096  1.00  0.00     0.030 C 
HETATM   22  C15 UNL     1      -3.603   0.753   0.860  1.00  0.00     0.272 C 
ENDBRANCH  16  17
ENDBRANCH  15  16
ENDBRANCH  14  15
ENDBRANCH  13  14
ENDBRANCH  12  13
ENDBRANCH   1  12
TORSDOF 12
