REMARK  11 active torsions:
REMARK  status: ('A' for Active; 'I' for Inactive)
REMARK    1  A    between atoms: C1_4  and  O1_5 
REMARK    2  A    between atoms: C1_4  and  C2_7 
REMARK    3  A    between atoms: C2_7  and  C3_8 
REMARK    4  A    between atoms: C3_8  and  C4_9 
REMARK    5  A    between atoms: C4_9  and  C5_10 
REMARK    6  A    between atoms: C5_10  and  C6_11 
REMARK    7  A    between atoms: C6_11  and  C7_12 
REMARK    8  A    between atoms: C7_12  and  C8_13 
REMARK    9  A    between atoms: C8_13  and  C9_14 
REMARK   10  A    between atoms: C9_14  and  C10_15 
REMARK       I    between atoms: C10_15  and  N2_17 
REMARK   11  A    between atoms: N2_17  and  C11_19 
ROOT
HETATM    1  C7  UNL     1       1.621  -1.041   0.751  1.00  0.00     0.000 C 
ENDROOT
BRANCH   1   2
HETATM    2  C6  UNL     1       2.954  -0.333   0.678  1.00  0.00     0.000 C 
BRANCH   2   3
HETATM    3  C5  UNL     1       4.063  -1.286   1.034  1.00  0.00     0.000 C 
BRANCH   3   4
HETATM    4  C4  UNL     1       5.416  -0.658   0.984  1.00  0.00     0.000 C 
BRANCH   4   5
HETATM    5  C3  UNL     1       5.765  -0.117  -0.383  1.00  0.00     0.008 C 
BRANCH   5   6
HETATM    6  C2  UNL     1       7.159   0.487  -0.278  1.00  0.00     0.083 C 
BRANCH   6   7
HETATM    7  C1  UNL     1       7.617   1.054  -1.564  1.00  0.00     0.108 C 
HETATM    8  N1  UNL     1       7.901   2.307  -1.615  1.00  0.00    -0.384 N 
ATOM      9  H12 UNL     1       8.217   2.698  -2.502  1.00  0.00     0.157 HD
ATOM     10  H11 UNL     1       7.798   2.858  -0.763  1.00  0.00     0.157 HD
BRANCH   7  11
HETATM   11  O1  UNL     1       7.756   0.313  -2.710  1.00  0.00    -0.350 OA
ATOM     12  H1  UNL     1       7.546  -0.613  -2.672  1.00  0.00     0.219 HD
ENDBRANCH   7  11
ENDBRANCH   6   7
ENDBRANCH   5   6
ENDBRANCH   4   5
ENDBRANCH   3   4
ENDBRANCH   2   3
ENDBRANCH   1   2
BRANCH   1  13
HETATM   13  C8  UNL     1       0.474  -0.124   0.402  1.00  0.00     0.009 C 
BRANCH  13  14
HETATM   14  C9  UNL     1      -0.796  -0.913   0.501  1.00  0.00     0.103 C 
BRANCH  14  15
HETATM   15  C10 UNL     1      -1.994  -0.121   0.181  1.00  0.00     0.217 C 
HETATM   16  O2  UNL     1      -1.848   1.084  -0.130  1.00  0.00    -0.274 OA
HETATM   17  N2  UNL     1      -3.307  -0.647   0.207  1.00  0.00    -0.356 N 
ATOM     18  H2  UNL     1      -3.417  -1.628   0.463  1.00  0.00     0.162 HD
BRANCH  17  19
HETATM   19  C11 UNL     1      -4.489   0.091  -0.097  1.00  0.00     0.084 C 
HETATM   20  C12 UNL     1      -5.424   0.153   1.105  1.00  0.00     0.025 C 
HETATM   21  C13 UNL     1      -6.827   0.527   0.664  1.00  0.00     0.002 C 
HETATM   22  C14 UNL     1      -6.686   1.453  -0.534  1.00  0.00     0.000 C 
HETATM   23  C15 UNL     1      -6.273   0.583  -1.709  1.00  0.00     0.002 C 
HETATM   24  C16 UNL     1      -5.260  -0.451  -1.267  1.00  0.00     0.025 C 
ENDBRANCH  17  19
ENDBRANCH  14  15
ENDBRANCH  13  14
ENDBRANCH   1  13
TORSDOF 11
