REMARK  8 active torsions:
REMARK  status: ('A' for Active; 'I' for Inactive)
REMARK    1  A    between atoms: C2_2  and  C4_4 
REMARK    2  A    between atoms: C6_6  and  O1_7 
REMARK    3  A    between atoms: C8_11  and  O2_12 
REMARK    4  A    between atoms: C11_16  and  C12_17 
REMARK    5  A    between atoms: C12_17  and  C14_19 
REMARK    6  A    between atoms: C14_19  and  C15_20 
REMARK    7  A    between atoms: C15_20  and  C16_21 
REMARK    8  A    between atoms: C16_21  and  C18_23 
ROOT
HETATM    1  C4  UNL     1      -2.552   1.175  -0.323  1.00  0.00     0.032 C 
HETATM    2  C5  UNL     1      -3.869   0.607  -0.965  1.00  0.00     0.045 C 
HETATM    3  C6  UNL     1      -3.999  -0.765  -0.324  1.00  0.00     0.162 C 
HETATM    4  C7  UNL     1      -2.633  -1.211   0.039  1.00  0.00     0.166 C 
HETATM    5  F1  UNL     1      -2.364  -2.330  -0.784  1.00  0.00    -0.236 F 
HETATM    6  C8  UNL     1      -2.411  -1.723   1.402  1.00  0.00     0.162 C 
HETATM    7  C9  UNL     1      -0.968  -1.903   1.711  1.00  0.00     0.039 C 
HETATM    8  C10 UNL     1      -0.023  -1.509   0.577  1.00  0.00     0.038 C 
HETATM    9  C11 UNL     1      -0.391  -0.105   0.190  1.00  0.00    -0.062 C 
HETATM   10  C21 UNL     1      -1.734  -0.025  -0.374  1.00  0.00     0.029 C 
HETATM   11  C22 UNL     1      -1.613  -0.314  -1.914  1.00  0.00     0.024 C 
ENDROOT
BRANCH   9  12
HETATM   12  C12 UNL     1       0.736   0.596  -0.399  1.00  0.00    -0.064 C 
HETATM   13  C13 UNL     1       0.802   1.444  -1.402  1.00  0.00     0.019 C 
BRANCH  12  14
HETATM   14  C14 UNL     1       2.091   0.377   0.244  1.00  0.00     0.039 C 
BRANCH  14  15
HETATM   15  C15 UNL     1       2.797  -0.689  -0.506  1.00  0.00     0.015 C 
BRANCH  15  16
HETATM   16  C16 UNL     1       4.163  -1.015   0.067  1.00  0.00     0.034 C 
HETATM   17  C17 UNL     1       4.750  -2.114  -0.804  1.00  0.00     0.016 C 
BRANCH  16  18
HETATM   18  C18 UNL     1       5.090   0.145  -0.017  1.00  0.00     0.036 A 
HETATM   19  C19 UNL     1       5.433   0.884  -1.121  1.00  0.00     0.168 A 
HETATM   20  O3  UNL     1       6.280   1.819  -0.766  1.00  0.00    -0.316 OA
HETATM   21  C20 UNL     1       6.506   1.728   0.507  1.00  0.00     0.233 A 
HETATM   22  N1  UNL     1       5.789   0.704   1.010  1.00  0.00    -0.348 N 
ATOM     23  H1  UNL     1       5.773   0.402   1.984  1.00  0.00     0.167 HD
ENDBRANCH  16  18
ENDBRANCH  15  16
ENDBRANCH  14  15
ENDBRANCH  12  14
ENDBRANCH   9  12
BRANCH   1  24
HETATM   24  C2  UNL     1      -2.882   1.999   0.781  1.00  0.00    -0.088 C 
HETATM   25  C1  UNL     1      -2.611   1.935   2.037  1.00  0.00     0.014 C 
HETATM   26  C3  UNL     1      -3.716   3.236   0.414  1.00  0.00     0.043 C 
ENDBRANCH   1  24
BRANCH   6  27
HETATM   27  O2  UNL     1      -2.970  -3.024   1.458  1.00  0.00    -0.392 OA
ATOM     28  H2  UNL     1      -2.827  -3.354   2.337  1.00  0.00     0.210 HD
ENDBRANCH   6  27
BRANCH   3  29
HETATM   29  O1  UNL     1      -4.926  -0.789   0.703  1.00  0.00    -0.392 OA
ATOM     30  H1  UNL     1      -5.007  -1.647   1.104  1.00  0.00     0.210 HD
ENDBRANCH   3  29
TORSDOF 8
