REMARK  7 active torsions:
REMARK  status: ('A' for Active; 'I' for Inactive)
REMARK    1  A    between atoms: O1_2  and  C2_3 
REMARK    2  A    between atoms: C2_3  and  C3_4 
REMARK    3  A    between atoms: C3_4  and  C4_5 
REMARK    4  A    between atoms: C4_5  and  N1_6 
REMARK    5  A    between atoms: C5_8  and  C6_9 
REMARK    6  A    between atoms: C11_15  and  O2_16 
REMARK    7  A    between atoms: C12_18  and  O3_19 
ROOT
HETATM    1  N1  UNL     1       0.894   0.328  -1.355  1.00  0.00    -0.398 N 
ATOM      2  H1  UNL     1       0.979  -0.683  -1.463  1.00  0.00     0.158 HD
HETATM    3  C5  UNL     1       1.773   0.931  -0.651  1.00  0.00     0.097 C 
ENDROOT
BRANCH   3   4
HETATM    4  C6  UNL     1       2.868   0.232  -0.019  1.00  0.00     0.022 A 
HETATM    5  C7  UNL     1       3.059  -1.124  -0.159  1.00  0.00    -0.030 A 
HETATM    6  C8  UNL     1       2.181  -1.972  -1.030  1.00  0.00     0.050 C 
HETATM    7  C9  UNL     1       4.113  -1.749   0.498  1.00  0.00     0.020 A 
HETATM    8 BR1  UNL     1       4.345  -3.628   0.284  1.00  0.00    -0.050 Br
HETATM    9  C10 UNL     1       4.968  -1.017   1.288  1.00  0.00     0.059 A 
HETATM   10  C11 UNL     1       4.785   0.310   1.427  1.00  0.00     0.101 A 
HETATM   11  C12 UNL     1       3.749   0.952   0.787  1.00  0.00     0.111 A 
BRANCH  10  12
HETATM   12  O2  UNL     1       5.660   1.045   2.231  1.00  0.00    -0.358 OA
ATOM     13  H2  UNL     1       5.531   1.981   2.329  1.00  0.00     0.217 HD
ENDBRANCH  10  12
BRANCH  11  14
HETATM   14  O3  UNL     1       3.629   2.324   0.981  1.00  0.00    -0.357 OA
ATOM     15  H3  UNL     1       4.229   2.815   1.530  1.00  0.00     0.217 HD
ENDBRANCH  11  14
ENDBRANCH   3   4
BRANCH   1  16
HETATM   16  C4  UNL     1      -0.204   0.982  -2.002  1.00  0.00     0.122 C 
BRANCH  16  17
HETATM   17  C3  UNL     1      -1.244   1.484  -1.096  1.00  0.00     0.057 C 
BRANCH  17  18
HETATM   18  C2  UNL     1      -2.002   0.557  -0.242  1.00  0.00     0.062 C 
HETATM   19  C13 UNL     1      -2.633  -0.589  -0.975  1.00  0.00     0.038 C 
HETATM   20  C14 UNL     1      -3.502  -1.425  -0.127  1.00  0.00     0.003 C 
HETATM   21  C15 UNL     1      -3.176  -1.536   1.299  1.00  0.00     0.000 C 
HETATM   22  C16 UNL     1      -2.115  -0.678   1.847  1.00  0.00     0.003 C 
HETATM   23  C17 UNL     1      -1.131  -0.114   0.837  1.00  0.00     0.038 C 
BRANCH  18  24
HETATM   24  O1  UNL     1      -2.947   1.255   0.510  1.00  0.00    -0.385 OA
HETATM   25  C1  UNL     1      -3.892   1.948  -0.163  1.00  0.00     0.202 C 
ENDBRANCH  18  24
ENDBRANCH  17  18
ENDBRANCH  16  17
ENDBRANCH   1  16
TORSDOF 7
