REMARK  5 active torsions:
REMARK  status: ('A' for Active; 'I' for Inactive)
REMARK    1  A    between atoms: C4_6  and  N2_7 
REMARK    2  A    between atoms: N2_7  and  C5_9 
REMARK    3  A    between atoms: C5_9  and  C6_10 
REMARK    4  A    between atoms: C11_16  and  N3_17 
REMARK    5  A    between atoms: N3_17  and  C12_19 
ROOT
HETATM    1  C12 UNL     1      -2.848   1.819  -0.796  1.00  0.00     0.071 A 
HETATM    2  C13 UNL     1      -3.757   2.027  -1.813  1.00  0.00     0.118 A 
HETATM    3  N4  UNL     1      -4.804   2.669  -1.301  1.00  0.00    -0.371 N 
ATOM      4  H4  UNL     1      -5.631   2.953  -1.826  1.00  0.00     0.164 HD
HETATM    5  C14 UNL     1      -4.610   2.888   0.013  1.00  0.00     0.112 A 
HETATM    6  C15 UNL     1      -3.397   2.367   0.353  1.00  0.00     0.088 A 
HETATM    7  C16 UNL     1      -2.783   2.375   1.657  1.00  0.00     0.103 C 
HETATM    8  N5  UNL     1      -2.283   2.370   2.710  1.00  0.00    -0.191 NA
ENDROOT
BRANCH   1   9
HETATM    9  N3  UNL     1      -1.601   1.171  -0.918  1.00  0.00    -0.337 N 
ATOM     10  H3  UNL     1      -0.800   1.664  -1.314  1.00  0.00     0.167 HD
BRANCH   9  11
HETATM   11  C11 UNL     1      -1.483  -0.066  -0.519  1.00  0.00     0.150 A 
HETATM   12  C4  UNL     1      -0.222  -0.650  -0.668  1.00  0.00     0.146 A 
HETATM   13  N1  UNL     1      -0.086  -1.915  -0.264  1.00  0.00    -0.348 N 
HETATM   14  C3  UNL     1      -1.120  -2.629   0.275  1.00  0.00     0.114 A 
ATOM     15  H1  UNL     1       0.824  -2.366  -0.361  1.00  0.00     0.167 HD
HETATM   16  C2  UNL     1      -2.355  -2.030   0.411  1.00  0.00     0.022 A 
HETATM   17  C1  UNL     1      -3.464  -2.828   1.000  1.00  0.00     0.069 C 
HETATM   18  N6  UNL     1      -2.510  -0.752   0.008  1.00  0.00    -0.342 N 
ATOM     19  H6  UNL     1      -3.420  -0.301   0.105  1.00  0.00     0.167 HD
BRANCH  12  20
HETATM   20  N2  UNL     1       0.751   0.016  -1.173  1.00  0.00    -0.373 N 
ATOM     21  H2  UNL     1       0.559   0.977  -1.455  1.00  0.00     0.161 HD
BRANCH  20  22
HETATM   22  C5  UNL     1       2.089  -0.471  -1.378  1.00  0.00     0.126 C 
BRANCH  22  23
HETATM   23  C6  UNL     1       2.938  -0.433  -0.131  1.00  0.00     0.007 C 
HETATM   24  C7  UNL     1       3.136   0.919   0.482  1.00  0.00     0.031 C 
HETATM   25  C8  UNL     1       4.618   0.638   0.545  1.00  0.00     0.034 C 
HETATM   26  C9  UNL     1       5.085  -0.019   1.817  1.00  0.00     0.032 C 
HETATM   27 CL1  UNL     1       5.583   2.032   0.028  1.00  0.00    -0.120 Cl
HETATM   28  C10 UNL     1       4.414  -0.391  -0.549  1.00  0.00     0.031 C 
ENDBRANCH  22  23
ENDBRANCH  20  22
ENDBRANCH  12  20
ENDBRANCH   9  11
ENDBRANCH   1   9
TORSDOF 5
