REMARK  3 active torsions:
REMARK  status: ('A' for Active; 'I' for Inactive)
REMARK    1  A    between atoms: C7_7  and  N1_8 
REMARK       I    between atoms: N1_8  and  C8_10 
REMARK    2  A    between atoms: C8_10  and  C9_12 
REMARK       I    between atoms: C9_12  and  N2_14 
REMARK    3  A    between atoms: N2_14  and  C10_16 
ROOT
HETATM    1  C9  UNL     1      -0.279  -0.358   0.013  1.00  0.00     0.309 C 
HETATM    2  O2  UNL     1      -0.426  -1.434   0.638  1.00  0.00    -0.262 OA
HETATM    3  N2  UNL     1      -1.428   0.367  -0.366  1.00  0.00    -0.346 N 
ATOM      4  H2  UNL     1      -1.319   1.244  -0.875  1.00  0.00     0.163 HD
ENDROOT
BRANCH   1   5
HETATM    5  C8  UNL     1       1.066   0.090  -0.291  1.00  0.00     0.309 C 
HETATM    6  N1  UNL     1       2.208  -0.659   0.103  1.00  0.00    -0.348 N 
ATOM      7  H1  UNL     1       2.069  -1.532   0.612  1.00  0.00     0.163 HD
HETATM    8  O1  UNL     1       1.295   1.165  -0.919  1.00  0.00    -0.262 OA
BRANCH   6   9
HETATM    9  C7  UNL     1       3.565  -0.232  -0.189  1.00  0.00     0.088 C 
HETATM   10  C2  UNL     1       4.263   0.026   1.101  1.00  0.00     0.004 C 
HETATM   11  C1  UNL     1       4.262  -1.128   2.052  1.00  0.00     0.012 C 
HETATM   12  C3  UNL     1       5.710   0.406   0.772  1.00  0.00     0.006 C 
HETATM   13  C4  UNL     1       6.346  -0.827   0.193  1.00  0.00     0.001 C 
HETATM   14  C5  UNL     1       5.696  -1.205  -1.095  1.00  0.00     0.002 C 
HETATM   15  C6  UNL     1       4.202  -1.315  -1.019  1.00  0.00     0.025 C 
ENDBRANCH   6   9
ENDBRANCH   1   5
BRANCH   3  16
HETATM   16  C10 UNL     1      -2.761  -0.107  -0.048  1.00  0.00     0.122 C 
HETATM   17  C11 UNL     1      -3.482   0.850   0.840  1.00  0.00     0.065 C 
HETATM   18  C12 UNL     1      -4.584   1.449  -0.013  1.00  0.00     0.121 C 
HETATM   19  C13 UNL     1      -4.198   2.740  -0.653  1.00  0.00     0.046 C 
HETATM   20  C14 UNL     1      -5.853   1.625   0.798  1.00  0.00     0.046 C 
HETATM   21  N3  UNL     1      -4.846   0.457  -1.038  1.00  0.00    -0.057 N 
HETATM   22  C15 UNL     1      -3.622  -0.276  -1.249  1.00  0.00     0.139 C 
ATOM     23  H32 UNL     1      -5.639  -0.146  -0.816  1.00  0.00     0.279 HD
ATOM     24  H31 UNL     1      -5.222   0.860  -1.896  1.00  0.00     0.279 HD
HETATM   25  C16 UNL     1      -4.029  -1.750  -1.360  1.00  0.00     0.048 C 
HETATM   26  C17 UNL     1      -2.938   0.174  -2.527  1.00  0.00     0.048 C 
ENDBRANCH   3  16
TORSDOF 3
