REMARK  12 active torsions:
REMARK  status: ('A' for Active; 'I' for Inactive)
REMARK    1  A    between atoms: C2_2  and  N1_3 
REMARK    2  A    between atoms: C2_2  and  C9_13 
REMARK    3  A    between atoms: N1_3  and  N2_4 
REMARK    4  A    between atoms: N2_4  and  C3_6 
REMARK    5  A    between atoms: C3_6  and  C4_7 
REMARK       I    between atoms: C9_13  and  N4_15 
REMARK       I    between atoms: N4_15  and  C10_17 
REMARK    6  A    between atoms: C10_17  and  C11_19 
REMARK    7  A    between atoms: C11_19  and  N7_28 
REMARK    8  A    between atoms: N5_20  and  N6_22 
REMARK       I    between atoms: N6_22  and  C12_24 
REMARK    9  A    between atoms: C12_24  and  C13_26 
REMARK   10  A    between atoms: C15_30  and  O4_31 
REMARK   11  A    between atoms: C15_30  and  C16_33 
REMARK   12  A    between atoms: C16_33  and  O5_34 
ROOT
HETATM    1  C11 UNL     1      -3.016  -0.393   0.268  1.00  0.00     0.188 C 
HETATM    2  N5  UNL     1      -2.896  -1.663   0.229  1.00  0.00    -0.278 N 
ATOM      3  H5  UNL     1      -1.959  -2.059   0.305  1.00  0.00     0.189 HD
ENDROOT
BRANCH   1   4
HETATM    4  C10 UNL     1      -1.749   0.357   0.423  1.00  0.00     0.293 C 
HETATM    5  N4  UNL     1      -0.489  -0.293   0.521  1.00  0.00    -0.289 N 
HETATM    6  C9  UNL     1       0.677   0.484   0.669  1.00  0.00     0.245 C 
ATOM      7  H4  UNL     1      -0.429  -1.311   0.485  1.00  0.00     0.172 HD
HETATM    8  O1  UNL     1       0.578   1.732   0.712  1.00  0.00    -0.271 OA
HETATM    9  O2  UNL     1      -1.801   1.611   0.468  1.00  0.00    -0.264 OA
BRANCH   6  10
HETATM   10  C2  UNL     1       1.984  -0.165   0.770  1.00  0.00     0.187 C 
HETATM   11  C1  UNL     1       2.262  -1.038  -0.451  1.00  0.00     0.040 C 
BRANCH  10  12
HETATM   12  N1  UNL     1       3.076   0.771   0.918  1.00  0.00    -0.132 NA
BRANCH  12  13
HETATM   13  N2  UNL     1       4.242   0.088   1.096  1.00  0.00    -0.337 N 
ATOM     14  H2  UNL     1       4.284  -0.790   1.613  1.00  0.00     0.175 HD
BRANCH  13  15
HETATM   15  C3  UNL     1       5.401   0.683   0.510  1.00  0.00     0.171 C 
BRANCH  15  16
HETATM   16  C4  UNL     1       6.665  -0.065   0.710  1.00  0.00     0.241 C 
HETATM   17  C5  UNL     1       6.683  -1.447   0.161  1.00  0.00     0.039 C 
HETATM   18  C6  UNL     1       7.693  -1.406  -0.988  1.00  0.00     0.032 C 
HETATM   19  C7  UNL     1       8.645  -0.332  -0.477  1.00  0.00     0.272 C 
HETATM   20  N3  UNL     1       7.727   0.661   0.003  1.00  0.00     0.090 N 
HETATM   21  C8  UNL     1       8.310   1.687   0.801  1.00  0.00     0.310 C 
ENDBRANCH  15  16
ENDBRANCH  13  15
ENDBRANCH  12  13
ENDBRANCH  10  12
ENDBRANCH   6  10
ENDBRANCH   1   4
BRANCH   1  22
HETATM   22  N7  UNL     1      -4.210   0.350   0.177  1.00  0.00    -0.354 N 
HETATM   23  C14 UNL     1      -4.807   0.846  -1.037  1.00  0.00     0.165 C 
HETATM   24  C15 UNL     1      -5.973   1.685  -0.637  1.00  0.00     0.097 C 
HETATM   25  C17 UNL     1      -5.747   2.009   0.803  1.00  0.00     0.066 C 
HETATM   26  C18 UNL     1      -5.027   0.753   1.306  1.00  0.00     0.085 C 
HETATM   27  C19 UNL     1      -6.000  -0.296   1.733  1.00  0.00     0.032 C 
BRANCH  24  28
HETATM   28  O4  UNL     1      -7.140   0.939  -0.782  1.00  0.00    -0.386 OA
ATOM     29  H4  UNL     1      -7.883   1.474  -0.527  1.00  0.00     0.210 HD
ENDBRANCH  24  28
BRANCH  24  30
HETATM   30  C16 UNL     1      -6.008   2.939  -1.498  1.00  0.00     0.203 C 
BRANCH  30  31
HETATM   31  O5  UNL     1      -4.820   3.636  -1.308  1.00  0.00    -0.398 OA
ATOM     32  H5  UNL     1      -4.842   4.419  -1.846  1.00  0.00     0.209 HD
ENDBRANCH  30  31
ENDBRANCH  24  30
ENDBRANCH   1  22
BRANCH   2  33
HETATM   33  N6  UNL     1      -3.951  -2.526   0.091  1.00  0.00    -0.267 N 
HETATM   34  C12 UNL     1      -4.392  -2.947  -1.185  1.00  0.00     0.249 C 
HETATM   35  O3  UNL     1      -3.807  -2.521  -2.218  1.00  0.00    -0.271 OA
ATOM     36  H6  UNL     1      -4.427  -2.871   0.924  1.00  0.00     0.190 HD
BRANCH  34  37
HETATM   37  C13 UNL     1      -5.532  -3.880  -1.312  1.00  0.00     0.219 C 
HETATM   38 CL1  UNL     1      -7.062  -2.969  -1.426  1.00  0.00    -0.121 Cl
ENDBRANCH  34  37
ENDBRANCH   2  33
TORSDOF 12
