REMARK  10 active torsions:
REMARK  status: ('A' for Active; 'I' for Inactive)
REMARK    1  A    between atoms: C5_8  and  C6_9 
REMARK    2  A    between atoms: C6_9  and  N2_10 
REMARK    3  A    between atoms: N2_10  and  C7_12 
REMARK    4  A    between atoms: C9_18  and  C10_19 
REMARK    5  A    between atoms: C10_19  and  C11_20 
REMARK    6  A    between atoms: C11_20  and  C12_22 
REMARK    7  A    between atoms: C12_22  and  C13_23 
REMARK    8  A    between atoms: C13_23  and  C14_24 
REMARK       I    between atoms: C14_24  and  N5_26 
REMARK    9  A    between atoms: N5_26  and  C15_28 
REMARK   10  A    between atoms: C15_28  and  C16_29 
ROOT
HETATM    1  C7  UNL     1      -1.187   0.873   1.041  1.00  0.00     0.396 C 
HETATM    2  N3  UNL     1      -1.103   2.304   0.753  1.00  0.00    -0.084 NA
HETATM    3  N4  UNL     1       0.162   2.813   1.159  1.00  0.00    -0.269 N 
ATOM      4  H4  UNL     1       0.369   3.805   1.040  1.00  0.00     0.185 HD
HETATM    5  C8  UNL     1       1.135   1.956   1.726  1.00  0.00     0.264 C 
HETATM    6  O2  UNL     1       2.020   2.413   2.457  1.00  0.00    -0.270 OA
HETATM    7  C9  UNL     1       1.059   0.523   1.420  1.00  0.00     0.289 C 
HETATM    8  N6  UNL     1      -0.029   0.239   0.474  1.00  0.00    -0.025 N 
ATOM      9  H61 UNL     1       0.171   0.524  -0.485  1.00  0.00     0.282 HD
ATOM     10  H62 UNL     1      -0.156  -0.753   0.276  1.00  0.00     0.282 HD
ENDROOT
BRANCH   1  11
HETATM   11  N2  UNL     1      -2.452   0.403   0.624  1.00  0.00    -0.381 N 
ATOM     12  H2  UNL     1      -3.151   1.035   0.234  1.00  0.00     0.156 HD
BRANCH  11  13
HETATM   13  C6  UNL     1      -2.710  -0.987   0.770  1.00  0.00     0.132 C 
BRANCH  13  14
HETATM   14  C5  UNL     1      -4.129  -1.342   0.360  1.00  0.00     0.109 C 
HETATM   15  C4  UNL     1      -4.336  -0.973  -1.026  1.00  0.00     0.225 C 
HETATM   16  N1  UNL     1      -5.393  -0.233  -1.594  1.00  0.00    -0.339 N 
HETATM   17  O1  UNL     1      -3.443  -1.366  -1.854  1.00  0.00    -0.273 OA
HETATM   18  C2  UNL     1      -6.650  -0.069  -0.903  1.00  0.00     0.129 C 
ATOM     19  H1  UNL     1      -5.267   0.195  -2.511  1.00  0.00     0.164 HD
HETATM   20  C1  UNL     1      -7.423  -1.345  -0.966  1.00  0.00     0.055 C 
HETATM   21  C3  UNL     1      -7.404   1.105  -1.476  1.00  0.00     0.055 C 
HETATM   22  S1  UNL     1      -6.200   0.392   0.775  1.00  0.00     0.171 S 
HETATM   23  C17 UNL     1      -5.138  -0.889   1.353  1.00  0.00     0.158 C 
HETATM   24  O5  UNL     1      -7.395   0.469   1.667  1.00  0.00    -0.225 OA
HETATM   25  O6  UNL     1      -5.494   1.721   0.670  1.00  0.00    -0.225 OA
ENDBRANCH  13  14
ENDBRANCH  11  13
ENDBRANCH   1  11
BRANCH   7  26
HETATM   26  C10 UNL     1       2.343  -0.138   1.097  1.00  0.00     0.121 C 
BRANCH  26  27
HETATM   27  C11 UNL     1       3.086   0.392  -0.050  1.00  0.00     0.129 C 
HETATM   28  O3  UNL     1       2.746   1.342  -0.724  1.00  0.00    -0.298 OA
BRANCH  27  29
HETATM   29  C12 UNL     1       4.362  -0.282  -0.420  1.00  0.00     0.087 C 
BRANCH  29  30
HETATM   30  C13 UNL     1       5.506   0.715  -0.470  1.00  0.00     0.110 C 
BRANCH  30  31
HETATM   31  C14 UNL     1       6.740  -0.001  -0.846  1.00  0.00     0.217 C 
HETATM   32  O4  UNL     1       6.680  -1.248  -1.059  1.00  0.00    -0.274 OA
HETATM   33  N5  UNL     1       7.994   0.630  -0.983  1.00  0.00    -0.360 N 
ATOM     34  H5  UNL     1       8.033   1.635  -0.815  1.00  0.00     0.162 HD
BRANCH  33  35
HETATM   35  C15 UNL     1       9.222  -0.026  -1.340  1.00  0.00     0.137 C 
BRANCH  35  36
HETATM   36  C16 UNL     1       9.625  -1.068  -0.351  1.00  0.00     0.134 C 
HETATM   37 CL1  UNL     1      11.155  -1.814  -0.871  1.00  0.00    -0.129 Cl
ENDBRANCH  35  36
ENDBRANCH  33  35
ENDBRANCH  30  31
ENDBRANCH  29  30
ENDBRANCH  27  29
ENDBRANCH  26  27
ENDBRANCH   7  26
TORSDOF 10
