REMARK  13 active torsions:
REMARK  status: ('A' for Active; 'I' for Inactive)
REMARK    1  A    between atoms: C2_2  and  C4_4 
REMARK    2  A    between atoms: C4_4  and  N1_5 
REMARK    3  A    between atoms: C4_4  and  C5_9 
REMARK       I    between atoms: C5_9  and  N2_11 
REMARK    4  A    between atoms: N2_11  and  C6_13 
REMARK    5  A    between atoms: C6_13  and  N3_14 
REMARK    6  A    between atoms: C6_13  and  C7_18 
REMARK    7  A    between atoms: C7_18  and  C8_19 
REMARK       I    between atoms: C8_19  and  N4_21 
REMARK    8  A    between atoms: N4_21  and  C9_23 
REMARK    9  A    between atoms: C11_25  and  C12_26 
REMARK   10  A    between atoms: C11_25  and  C15_35 
REMARK   11  A    between atoms: C12_26  and  O3_27 
REMARK   12  A    between atoms: O3_27  and  C13_28 
REMARK       I    between atoms: C13_28  and  N5_30 
REMARK   13  A    between atoms: N5_30  and  S1_31 
ROOT
HETATM    1  C8  UNL     1      -0.342  -0.935   1.091  1.00  0.00     0.221 C 
HETATM    2  O2  UNL     1      -0.057  -1.520   0.013  1.00  0.00    -0.273 OA
HETATM    3  N4  UNL     1       0.211  -0.539   2.183  1.00  0.00    -0.350 N 
ATOM      4  H4  UNL     1      -0.436  -0.049   2.800  1.00  0.00     0.163 HD
ENDROOT
BRANCH   1   5
HETATM    5  C7  UNL     1      -1.918  -0.643   0.821  1.00  0.00     0.157 C 
BRANCH   5   6
HETATM    6  C6  UNL     1      -1.822   0.437  -0.204  1.00  0.00     0.292 C 
BRANCH   6   7
HETATM    7  N2  UNL     1      -2.978   0.793  -0.872  1.00  0.00    -0.331 N 
HETATM    8  C5  UNL     1      -4.220   1.235  -0.347  1.00  0.00     0.250 C 
HETATM    9  O1  UNL     1      -4.402   1.377   0.848  1.00  0.00    -0.271 OA
ATOM     10  H2  UNL     1      -2.932   0.729  -1.889  1.00  0.00     0.164 HD
BRANCH   8  11
HETATM   11  C4  UNL     1      -5.231   1.506  -1.377  1.00  0.00     0.278 C 
BRANCH  11  12
HETATM   12  C2  UNL     1      -6.037   0.283  -1.756  1.00  0.00     0.017 C 
HETATM   13  C1  UNL     1      -5.258  -0.970  -2.036  1.00  0.00     0.012 C 
HETATM   14  C3  UNL     1      -7.152  -0.006  -0.790  1.00  0.00     0.012 C 
ENDBRANCH  11  12
BRANCH  11  15
HETATM   15  N1  UNL     1      -6.165   2.552  -1.119  1.00  0.00    -0.066 N 
ATOM     16  H13 UNL     1      -6.807   2.718  -1.894  1.00  0.00     0.275 HD
ATOM     17  H12 UNL     1      -6.867   2.301  -0.422  1.00  0.00     0.275 HD
ATOM     18  H11 UNL     1      -5.622   3.377  -0.863  1.00  0.00     0.275 HD
ENDBRANCH  11  15
ENDBRANCH   8  11
ENDBRANCH   6   7
BRANCH   6  19
HETATM   19  N3  UNL     1      -1.422   1.648   0.676  1.00  0.00    -0.058 N 
ATOM     20  H33 UNL     1      -1.330   2.516   0.148  1.00  0.00     0.276 HD
ATOM     21  H32 UNL     1      -2.168   1.955   1.300  1.00  0.00     0.276 HD
ATOM     22  H31 UNL     1      -0.569   1.385   1.169  1.00  0.00     0.276 HD
ENDBRANCH   6  19
ENDBRANCH   5   6
ENDBRANCH   1   5
BRANCH   3  23
HETATM   23  C9  UNL     1       1.539  -0.634   2.727  1.00  0.00     0.159 A 
HETATM   24  C10 UNL     1       2.212  -1.941   2.840  1.00  0.00     0.060 A 
HETATM   25  C11 UNL     1       3.242  -1.474   1.788  1.00  0.00     0.139 A 
HETATM   26  C16 UNL     1       2.553  -0.228   1.604  1.00  0.00     0.283 A 
HETATM   27  F1  UNL     1       3.305   0.845   2.126  1.00  0.00    -0.203 F 
HETATM   28  F2  UNL     1       1.971   0.161   0.455  1.00  0.00    -0.203 F 
BRANCH  25  29
HETATM   29  C12 UNL     1       4.654  -1.316   2.361  1.00  0.00     0.208 C 
BRANCH  29  30
HETATM   30  O3  UNL     1       5.359  -0.450   1.471  1.00  0.00    -0.290 OA
BRANCH  30  31
HETATM   31  C13 UNL     1       5.675  -0.854   0.102  1.00  0.00     0.450 C 
HETATM   32  O4  UNL     1       5.631  -2.069  -0.098  1.00  0.00    -0.220 OA
HETATM   33  N5  UNL     1       5.909   0.046  -0.832  1.00  0.00    -0.258 NA
BRANCH  33  34
HETATM   34  S1  UNL     1       6.210   1.173  -2.058  1.00  0.00     0.292 S 
HETATM   35  C14 UNL     1       6.554   2.817  -1.438  1.00  0.00     0.202 C 
HETATM   36  O5  UNL     1       4.896   1.332  -2.886  1.00  0.00    -0.192 OA
HETATM   37  O6  UNL     1       7.229   0.740  -3.072  1.00  0.00    -0.192 OA
ENDBRANCH  33  34
ENDBRANCH  30  31
ENDBRANCH  29  30
ENDBRANCH  25  29
BRANCH  25  38
HETATM   38  C15 UNL     1       3.142  -2.603   0.767  1.00  0.00     0.190 C 
HETATM   39  O7  UNL     1       3.467  -3.750   1.304  1.00  0.00    -0.647 OA
HETATM   40  O8  UNL     1       2.758  -2.589  -0.512  1.00  0.00    -0.647 OA
ENDBRANCH  25  38
ENDBRANCH   3  23
TORSDOF 13
