REMARK  11 active torsions:
REMARK  status: ('A' for Active; 'I' for Inactive)
REMARK    1  A    between atoms: C2_2  and  O1_3 
REMARK    2  A    between atoms: C2_2  and  C8_27 
REMARK    3  A    between atoms: C2_2  and  C9_30 
REMARK    4  A    between atoms: O1_3  and  N1_4 
REMARK    5  A    between atoms: N1_4  and  C3_6 
REMARK    6  A    between atoms: C3_6  and  N2_7 
REMARK    7  A    between atoms: C3_6  and  C6_20 
REMARK       I    between atoms: N2_7  and  C4_9 
REMARK    8  A    between atoms: C4_9  and  C5_11 
REMARK    9  A    between atoms: C5_11  and  N3_12 
REMARK   10  A    between atoms: C5_11  and  N4_16 
REMARK   11  A    between atoms: C7_22  and  S1_23 
REMARK       I    between atoms: C9_30  and  N5_32 
ROOT
HETATM    1  C3  UNL     1      -2.037  -1.349   1.172  1.00  0.00     0.252 C 
ENDROOT
BRANCH   1   2
HETATM    2  N1  UNL     1      -0.968  -2.049   0.646  1.00  0.00    -0.272 N 
ATOM      3  H1  UNL     1      -1.253  -2.930   0.219  1.00  0.00     0.190 HD
BRANCH   2   4
HETATM    4  O1  UNL     1       0.248  -1.862   0.570  1.00  0.00    -0.251 OA
BRANCH   4   5
HETATM    5  C2  UNL     1       0.960  -0.756   0.187  1.00  0.00     0.251 C 
HETATM    6  C1  UNL     1       0.590  -0.258  -1.169  1.00  0.00     0.071 C 
BRANCH   5   7
HETATM    7  C8  UNL     1       0.962   0.231   1.279  1.00  0.00     0.221 C 
HETATM    8  O6  UNL     1       0.578  -0.188   2.436  1.00  0.00    -0.645 OA
HETATM    9  O7  UNL     1       1.341   1.562   1.151  1.00  0.00    -0.645 OA
ENDBRANCH   5   7
BRANCH   5  10
HETATM   10  C9  UNL     1       2.422  -1.179   0.077  1.00  0.00     0.268 C 
HETATM   11  O8  UNL     1       2.627  -2.398   0.468  1.00  0.00    -0.269 OA
HETATM   12  N5  UNL     1       3.495  -0.427  -0.377  1.00  0.00    -0.342 N 
HETATM   13  C10 UNL     1       3.534   0.911  -0.871  1.00  0.00     0.127 C 
HETATM   14  C14 UNL     1       4.856  -1.075  -0.367  1.00  0.00     0.204 C 
HETATM   15  C11 UNL     1       4.652   1.083  -1.934  1.00  0.00     0.027 C 
HETATM   16  C12 UNL     1       5.958   1.085  -1.136  1.00  0.00     0.081 C 
HETATM   17  C13 UNL     1       5.822   0.017  -0.096  1.00  0.00     0.144 C 
HETATM   18  O9  UNL     1       6.495   0.080   0.916  1.00  0.00    -0.296 OA
ENDBRANCH   5  10
ENDBRANCH   4   5
ENDBRANCH   2   4
ENDBRANCH   1   2
BRANCH   1  19
HETATM   19  N2  UNL     1      -2.400  -0.074   0.594  1.00  0.00    -0.330 N 
HETATM   20  C4  UNL     1      -2.762   1.033   1.426  1.00  0.00     0.277 C 
HETATM   21  O2  UNL     1      -2.758   0.876   2.671  1.00  0.00    -0.269 OA
ATOM     22  H2  UNL     1      -2.398   0.038  -0.420  1.00  0.00     0.165 HD
BRANCH  20  23
HETATM   23  C5  UNL     1      -3.138   2.347   0.896  1.00  0.00     0.468 C 
BRANCH  23  24
HETATM   24  N3  UNL     1      -3.061   2.260  -0.566  1.00  0.00    -0.042 N 
ATOM     25  H33 UNL     1      -2.153   1.939  -0.900  1.00  0.00     0.277 HD
ATOM     26  H32 UNL     1      -3.619   1.498  -0.952  1.00  0.00     0.277 HD
ATOM     27  H31 UNL     1      -3.323   3.174  -0.935  1.00  0.00     0.277 HD
ENDBRANCH  23  24
BRANCH  23  28
HETATM   28  N4  UNL     1      -2.260   3.415   1.383  1.00  0.00    -0.042 N 
ATOM     29  H43 UNL     1      -2.223   3.426   2.402  1.00  0.00     0.277 HD
ATOM     30  H42 UNL     1      -1.281   3.205   1.187  1.00  0.00     0.277 HD
ATOM     31  H41 UNL     1      -2.522   4.329   1.014  1.00  0.00     0.277 HD
ENDBRANCH  23  28
ENDBRANCH  20  23
ENDBRANCH   1  19
BRANCH   1  32
HETATM   32  C6  UNL     1      -3.286  -2.231   0.961  1.00  0.00     0.069 C 
HETATM   33 CL1  UNL     1      -3.310  -3.812   1.712  1.00  0.00    -0.084 Cl
HETATM   34  C7  UNL     1      -4.291  -1.812   0.247  1.00  0.00     0.157 C 
BRANCH  34  35
HETATM   35  S1  UNL     1      -5.739  -2.753  -0.036  1.00  0.00     0.128 S 
HETATM   36  O3  UNL     1      -5.759  -3.908   0.931  1.00  0.00    -0.592 OA
HETATM   37  O4  UNL     1      -5.719  -3.253  -1.453  1.00  0.00    -0.592 OA
HETATM   38  O5  UNL     1      -7.061  -1.736   0.213  1.00  0.00    -0.592 OA
ENDBRANCH  34  35
ENDBRANCH   1  32
TORSDOF 11
