REMARK  15 active torsions:
REMARK  status: ('A' for Active; 'I' for Inactive)
REMARK    1  A    between atoms: C2_2  and  C3_3 
REMARK    2  A    between atoms: C3_3  and  C4_4 
REMARK    3  A    between atoms: C4_4  and  N1_5 
REMARK    4  A    between atoms: C4_4  and  C28_36 
REMARK       I    between atoms: N1_5  and  C5_7 
REMARK    5  A    between atoms: C5_7  and  C6_9 
REMARK    6  A    between atoms: C6_9  and  C7_10 
REMARK    7  A    between atoms: C6_9  and  N2_14 
REMARK    8  A    between atoms: C7_10  and  C8_11 
REMARK       I    between atoms: N2_14  and  C11_15 
REMARK    9  A    between atoms: N2_14  and  C14_20 
REMARK   10  A    between atoms: C11_15  and  O3_17 
REMARK   11  A    between atoms: O3_17  and  C12_18 
REMARK   12  A    between atoms: C14_20  and  C15_21 
REMARK   13  A    between atoms: C15_21  and  O5_23 
REMARK   14  A    between atoms: O5_23  and  C16_24 
REMARK       I    between atoms: C28_36  and  N3_38 
REMARK   15  A    between atoms: N3_38  and  C29_40 
ROOT
HETATM    1  C6  UNL     1      -0.106  -0.894  -0.641  1.00  0.00     0.183 C 
ENDROOT
BRANCH   1   2
HETATM    2  C5  UNL     1       1.208  -0.415  -0.159  1.00  0.00     0.241 C 
HETATM    3  N1  UNL     1       2.270   0.012  -0.965  1.00  0.00    -0.346 N 
ATOM      4  H1  UNL     1       2.142  -0.004  -1.977  1.00  0.00     0.163 HD
HETATM    5  O1  UNL     1       1.430  -0.363   1.080  1.00  0.00    -0.271 OA
BRANCH   3   6
HETATM    6  C4  UNL     1       3.546   0.477  -0.442  1.00  0.00     0.177 C 
BRANCH   6   7
HETATM    7  C3  UNL     1       4.636  -0.494  -0.807  1.00  0.00     0.034 C 
BRANCH   7   8
HETATM    8  C2  UNL     1       4.407  -1.874  -0.241  1.00  0.00    -0.002 C 
HETATM    9  C1  UNL     1       5.562  -2.748  -0.682  1.00  0.00     0.005 C 
ENDBRANCH   7   8
ENDBRANCH   6   7
BRANCH   6  10
HETATM   10  C28 UNL     1       3.913   1.812  -0.967  1.00  0.00     0.258 C 
HETATM   11  O6  UNL     1       3.166   2.438  -1.776  1.00  0.00    -0.270 OA
HETATM   12  N3  UNL     1       5.117   2.466  -0.598  1.00  0.00    -0.155 N 
ATOM     13  H3  UNL     1       5.866   2.510  -1.289  1.00  0.00     0.187 HD
BRANCH  12  14
HETATM   14  C29 UNL     1       5.327   3.007   0.550  1.00  0.00     0.716 A 
HETATM   15  N4  UNL     1       6.482   3.614   0.855  1.00  0.00    -0.115 N 
HETATM   16  N5  UNL     1       6.400   4.066   2.092  1.00  0.00    -0.213 N 
ATOM     17  H4  UNL     1       7.287   3.710   0.236  1.00  0.00     0.207 HD
HETATM   18  N6  UNL     1       5.209   3.748   2.560  1.00  0.00    -0.213 N 
ATOM     19  H5  UNL     1       7.128   4.571   2.596  1.00  0.00     0.210 HD
HETATM   20  N7  UNL     1       4.540   3.097   1.624  1.00  0.00    -0.115 N 
ATOM     21  H6  UNL     1       4.860   3.969   3.493  1.00  0.00     0.210 HD
ATOM     22  H7  UNL     1       3.592   2.729   1.708  1.00  0.00     0.207 HD
ENDBRANCH  12  14
ENDBRANCH   6  10
ENDBRANCH   3   6
ENDBRANCH   1   2
BRANCH   1  23
HETATM   23  C7  UNL     1      -0.028  -2.231  -1.199  1.00  0.00     0.039 C 
BRANCH  23  24
HETATM   24  C8  UNL     1       0.839  -2.387  -2.432  1.00  0.00    -0.020 C 
HETATM   25  C9  UNL     1       0.737  -3.902  -2.818  1.00  0.00     0.009 C 
HETATM   26  C10 UNL     1       0.185  -1.649  -3.563  1.00  0.00     0.009 C 
ENDBRANCH  23  24
ENDBRANCH   1  23
BRANCH   1  27
HETATM   27  N2  UNL     1      -1.177  -0.614   0.347  1.00  0.00    -0.295 N 
HETATM   28  C11 UNL     1      -1.124  -1.510   1.427  1.00  0.00     0.364 C 
HETATM   29  O2  UNL     1      -1.857  -1.575   2.435  1.00  0.00    -0.238 OA
BRANCH  28  30
HETATM   30  O3  UNL     1      -0.167  -2.556   1.560  1.00  0.00    -0.304 OA
BRANCH  30  31
HETATM   31  C12 UNL     1      -0.097  -3.449   2.615  1.00  0.00     0.176 C 
HETATM   32  C13 UNL     1       1.068  -4.383   2.340  1.00  0.00     0.034 C 
ENDBRANCH  30  31
ENDBRANCH  28  30
BRANCH  27  33
HETATM   33  C14 UNL     1      -2.027   0.527   0.316  1.00  0.00     0.135 C 
HETATM   34  C18 UNL     1      -2.041   1.365  -0.912  1.00  0.00     0.049 C 
HETATM   35  C19 UNL     1      -3.556   1.368  -1.244  1.00  0.00     0.006 C 
HETATM   36  C20 UNL     1      -4.101   1.807   0.048  1.00  0.00    -0.032 C 
HETATM   37  C25 UNL     1      -3.934  -0.040  -0.889  1.00  0.00    -0.032 C 
HETATM   38  C21 UNL     1      -5.570   1.940  -0.139  1.00  0.00     0.016 C 
HETATM   39  C22 UNL     1      -3.637   3.003   0.776  1.00  0.00     0.016 C 
HETATM   40  C23 UNL     1      -3.490   0.418   0.424  1.00  0.00     0.006 C 
HETATM   41  C24 UNL     1      -4.197   0.018   1.662  1.00  0.00     0.020 C 
HETATM   42  C26 UNL     1      -3.350  -0.791  -1.986  1.00  0.00     0.016 C 
HETATM   43  C27 UNL     1      -5.300  -0.613  -0.766  1.00  0.00     0.016 C 
BRANCH  33  44
HETATM   44  C15 UNL     1      -1.365   1.360   1.395  1.00  0.00     0.288 C 
HETATM   45  O4  UNL     1      -1.383   1.110   2.613  1.00  0.00    -0.262 OA
BRANCH  44  46
HETATM   46  O5  UNL     1      -0.644   2.525   1.085  1.00  0.00    -0.320 OA
BRANCH  46  47
HETATM   47  C16 UNL     1      -0.005   3.321   2.061  1.00  0.00     0.174 C 
HETATM   48  C17 UNL     1       0.655   4.470   1.343  1.00  0.00     0.034 C 
ENDBRANCH  46  47
ENDBRANCH  44  46
ENDBRANCH  33  44
ENDBRANCH  27  33
ENDBRANCH   1  27
TORSDOF 15
