REMARK  12 active torsions:
REMARK  status: ('A' for Active; 'I' for Inactive)
REMARK    1  A    between atoms: O1_2  and  C2_3 
REMARK    2  A    between atoms: C4_5  and  N1_6 
REMARK    3  A    between atoms: N2_9  and  C7_10 
REMARK    4  A    between atoms: C15_19  and  N3_20 
REMARK    5  A    between atoms: N4_23  and  C18_24 
REMARK    6  A    between atoms: C18_24  and  C19_25 
REMARK    7  A    between atoms: C19_25  and  C20_26 
REMARK    8  A    between atoms: C20_26  and  C21_27 
REMARK       I    between atoms: N7_33  and  C23_35 
REMARK    9  A    between atoms: C23_35  and  C24_37 
REMARK   10  A    between atoms: C24_37  and  C25_38 
REMARK   11  A    between atoms: C25_38  and  C26_39 
REMARK   12  A    between atoms: C26_39  and  C27_40 
ROOT
HETATM    1  N3  UNL     1      -0.778   0.719  -0.095  1.00  0.00    -0.375 N 
HETATM    2  C16 UNL     1       0.066  -0.393   0.282  1.00  0.00     0.153 C 
HETATM    3  C17 UNL     1       1.399  -0.413  -0.432  1.00  0.00     0.292 C 
HETATM    4  N4  UNL     1       2.003   0.863  -0.418  1.00  0.00     0.091 N 
HETATM    5  C28 UNL     1       1.275   1.774   0.407  1.00  0.00     0.292 C 
HETATM    6  C29 UNL     1      -0.083   1.983  -0.288  1.00  0.00     0.153 C 
ENDROOT
BRANCH   4   7
HETATM    7  C18 UNL     1       3.427   0.894  -0.153  1.00  0.00     0.273 C 
BRANCH   7   8
HETATM    8  C19 UNL     1       3.709   0.497   1.253  1.00  0.00     0.037 C 
BRANCH   8   9
HETATM    9  C20 UNL     1       5.123   0.512   1.681  1.00  0.00     0.068 C 
BRANCH   9  10
HETATM   10  C21 UNL     1       5.961  -0.424   0.896  1.00  0.00     0.070 A 
HETATM   11  N5  UNL     1       5.716  -1.318  -0.038  1.00  0.00    -0.296 N 
HETATM   12  N6  UNL     1       6.649  -1.991  -0.570  1.00  0.00    -0.279 N 
ATOM     13  H5  UNL     1       4.754  -1.473  -0.340  1.00  0.00     0.187 HD
HETATM   14  C22 UNL     1       7.906  -1.777  -0.164  1.00  0.00     0.167 A 
ATOM     15  H6  UNL     1       6.446  -2.682  -1.293  1.00  0.00     0.189 HD
HETATM   16  N7  UNL     1       9.000  -2.364  -0.583  1.00  0.00    -0.306 N 
HETATM   17  S1  UNL     1       7.686  -0.565   1.020  1.00  0.00    -0.038 SA
HETATM   18  C23 UNL     1      10.202  -1.895   0.070  1.00  0.00     0.223 C 
ATOM     19  H7  UNL     1       9.003  -3.086  -1.304  1.00  0.00     0.171 HD
HETATM   20  O3  UNL     1      10.147  -1.519   1.265  1.00  0.00    -0.273 OA
BRANCH  18  21
HETATM   21  C24 UNL     1      11.487  -1.852  -0.640  1.00  0.00     0.103 C 
BRANCH  21  22
HETATM   22  C25 UNL     1      12.592  -1.160   0.094  1.00  0.00     0.020 C 
BRANCH  22  23
HETATM   23  C26 UNL     1      12.350   0.276   0.417  1.00  0.00     0.113 C 
BRANCH  23  24
HETATM   24  C27 UNL     1      12.121   1.114  -0.809  1.00  0.00     0.172 C 
HETATM   25  O4  UNL     1      11.034   0.956  -1.432  1.00  0.00    -0.648 OA
HETATM   26  O5  UNL     1      13.021   2.032  -1.281  1.00  0.00    -0.648 OA
ENDBRANCH  23  24
ENDBRANCH  22  23
ENDBRANCH  21  22
ENDBRANCH  18  21
ENDBRANCH   9  10
ENDBRANCH   8   9
ENDBRANCH   7   8
ENDBRANCH   4   7
BRANCH   1  27
HETATM   27  C15 UNL     1      -2.180   0.564  -0.228  1.00  0.00     0.064 A 
HETATM   28  C2  UNL     1      -2.966   1.541  -0.845  1.00  0.00     0.096 A 
HETATM   29  C3  UNL     1      -4.335   1.402  -0.937  1.00  0.00     0.069 A 
HETATM   30  C4  UNL     1      -5.001   0.321  -0.443  1.00  0.00     0.041 A 
HETATM   31  C13 UNL     1      -4.229  -0.658   0.172  1.00  0.00     0.032 A 
HETATM   32  C14 UNL     1      -2.852  -0.528   0.270  1.00  0.00     0.034 A 
BRANCH  28  33
HETATM   33  O1  UNL     1      -2.387   2.660  -1.371  1.00  0.00    -0.354 OA
HETATM   34  C1  UNL     1      -3.182   3.646  -1.993  1.00  0.00     0.210 C 
ENDBRANCH  28  33
BRANCH  30  35
HETATM   35  N1  UNL     1      -6.409   0.172  -0.521  1.00  0.00    -0.298 N 
HETATM   36  C5  UNL     1      -7.170  -0.223  -1.656  1.00  0.00     0.154 C 
HETATM   37  C6  UNL     1      -8.577  -0.481  -1.195  1.00  0.00     0.148 C 
HETATM   38  N2  UNL     1      -8.550  -0.275   0.227  1.00  0.00    -0.328 N 
HETATM   39  C12 UNL     1      -7.337   0.393   0.532  1.00  0.00     0.325 C 
HETATM   40  O2  UNL     1      -7.075   1.091   1.570  1.00  0.00    -0.247 OA
BRANCH  38  41
HETATM   41  C7  UNL     1      -9.532  -0.646   1.245  1.00  0.00     0.089 C 
HETATM   42  C8  UNL     1     -10.840   0.001   0.909  1.00  0.00     0.025 C 
HETATM   43  C9  UNL     1     -11.565  -1.013   0.067  1.00  0.00     0.002 C 
HETATM   44  C10 UNL     1     -11.201  -2.329   0.748  1.00  0.00     0.002 C 
HETATM   45  C11 UNL     1      -9.805  -2.109   1.253  1.00  0.00     0.025 C 
ENDBRANCH  38  41
ENDBRANCH  30  35
ENDBRANCH   1  27
TORSDOF 12
