REMARK  9 active torsions:
REMARK  status: ('A' for Active; 'I' for Inactive)
REMARK    1  A    between atoms: N1_2  and  C2_5 
REMARK    2  A    between atoms: C3_6  and  O1_7 
REMARK    3  A    between atoms: C4_9  and  O2_10 
REMARK    4  A    between atoms: O2_10  and  C5_11 
REMARK    5  A    between atoms: C8_15  and  O4_16 
REMARK    6  A    between atoms: C9_18  and  O5_19 
REMARK    7  A    between atoms: C10_21  and  O6_22 
REMARK    8  A    between atoms: C11_25  and  C12_26 
REMARK    9  A    between atoms: C16_30  and  O8_31 
ROOT
HETATM    1  C2  UNL     1      -1.934   1.689  -1.080  1.00  0.00     0.250 C 
HETATM    2  C3  UNL     1      -0.420   1.565  -1.119  1.00  0.00     0.206 C 
HETATM    3  C4  UNL     1      -0.007   0.321  -0.360  1.00  0.00     0.294 C 
HETATM    4  O7  UNL     1      -1.073  -0.607  -0.455  1.00  0.00    -0.347 OA
HETATM    5  C11 UNL     1      -2.134  -0.264   0.350  1.00  0.00     0.178 C 
HETATM    6  C16 UNL     1      -2.477   1.213   0.262  1.00  0.00     0.186 C 
ENDROOT
BRANCH   3   7
HETATM    7  O2  UNL     1       1.047  -0.253  -1.021  1.00  0.00    -0.326 OA
BRANCH   7   8
HETATM    8  C5  UNL     1       2.175  -0.474  -0.300  1.00  0.00     0.294 C 
HETATM    9  O3  UNL     1       2.564  -1.803  -0.227  1.00  0.00    -0.351 OA
HETATM   10  C6  UNL     1       3.541  -2.007   0.718  1.00  0.00     0.152 C 
HETATM   11  C7  UNL     1       2.992  -2.147   2.116  1.00  0.00     0.042 C 
HETATM   12  C8  UNL     1       4.629  -0.929   0.666  1.00  0.00     0.178 C 
HETATM   13  C9  UNL     1       4.624  -0.408  -0.758  1.00  0.00     0.183 C 
HETATM   14  C10 UNL     1       3.301   0.311  -0.944  1.00  0.00     0.204 C 
BRANCH  12  15
HETATM   15  O4  UNL     1       5.854  -1.441   1.008  1.00  0.00    -0.390 OA
ATOM     16  H4  UNL     1       6.528  -0.773   0.976  1.00  0.00     0.210 HD
ENDBRANCH  12  15
BRANCH  13  17
HETATM   17  O5  UNL     1       5.683   0.436  -1.014  1.00  0.00    -0.390 OA
ATOM     18  H5  UNL     1       5.680   0.762  -1.906  1.00  0.00     0.210 HD
ENDBRANCH  13  17
BRANCH  14  19
HETATM   19  O6  UNL     1       3.353   1.546  -0.292  1.00  0.00    -0.388 OA
ATOM     20  H6  UNL     1       4.059   2.038  -0.696  1.00  0.00     0.210 HD
ENDBRANCH  14  19
ENDBRANCH   7   8
ENDBRANCH   3   7
BRANCH   2  21
HETATM   21  O1  UNL     1       0.183   2.719  -0.614  1.00  0.00    -0.388 OA
ATOM     22  H1  UNL     1       1.130   2.641  -0.638  1.00  0.00     0.210 HD
ENDBRANCH   2  21
BRANCH   1  23
HETATM   23  N1  UNL     1      -2.397   3.005  -1.377  1.00  0.00    -0.070 N 
HETATM   24  C1  UNL     1      -2.009   3.352  -2.731  1.00  0.00     0.267 C 
ATOM     25  H12 UNL     1      -2.077   3.692  -0.694  1.00  0.00     0.277 HD
ATOM     26  H11 UNL     1      -3.400   3.107  -1.223  1.00  0.00     0.277 HD
ENDBRANCH   1  23
BRANCH   5  27
HETATM   27  C12 UNL     1      -3.326  -1.049  -0.118  1.00  0.00     0.009 C 
HETATM   28  C13 UNL     1      -3.534  -2.290   0.281  1.00  0.00    -0.089 C 
HETATM   29  C14 UNL     1      -4.727  -3.014  -0.214  1.00  0.00     0.042 C 
HETATM   30  C15 UNL     1      -2.589  -2.943   1.208  1.00  0.00     0.042 C 
ENDBRANCH   5  27
BRANCH   6  31
HETATM   31  O8  UNL     1      -1.923   1.919   1.303  1.00  0.00    -0.386 OA
HETATM   32  C17 UNL     1      -2.879   2.624   2.035  1.00  0.00     0.202 C 
ENDBRANCH   6  31
TORSDOF 9
