REMARK  10 active torsions:
REMARK  status: ('A' for Active; 'I' for Inactive)
REMARK    1  A    between atoms: O1_1  and  C1_3 
REMARK    2  A    between atoms: C3_5  and  O2_6 
REMARK    3  A    between atoms: C4_8  and  O3_9 
REMARK    4  A    between atoms: O3_9  and  C5_10 
REMARK    5  A    between atoms: C11_17  and  O5_18 
REMARK    6  A    between atoms: O5_18  and  C12_19 
REMARK    7  A    between atoms: C12_19  and  C13_20 
REMARK    8  A    between atoms: C15_23  and  O7_24 
REMARK    9  A    between atoms: C16_26  and  O8_27 
REMARK   10  A    between atoms: C17_29  and  O9_30 
ROOT
HETATM    1  C1  UNL     1       0.268  -1.348  -2.050  1.00  0.00     0.176 C 
HETATM    2  C2  UNL     1       0.951  -0.158  -2.648  1.00  0.00     0.073 C 
HETATM    3  C3  UNL     1       1.027   0.980  -1.673  1.00  0.00     0.176 C 
HETATM    4  C4  UNL     1       1.192   0.451  -0.285  1.00  0.00     0.292 C 
HETATM    5  O4  UNL     1       0.230  -0.432   0.118  1.00  0.00    -0.326 OA
HETATM    6  C11 UNL     1      -0.588  -0.901  -0.894  1.00  0.00     0.291 C 
ENDROOT
BRANCH   6   7
HETATM    7  O5  UNL     1      -1.525   0.029  -1.201  1.00  0.00    -0.356 OA
BRANCH   7   8
HETATM    8  C12 UNL     1      -2.826  -0.304  -0.984  1.00  0.00     0.205 C 
BRANCH   8   9
HETATM    9  C13 UNL     1      -3.159  -0.636   0.451  1.00  0.00     0.176 C 
HETATM   10  O6  UNL     1      -2.918   0.396   1.319  1.00  0.00    -0.378 OA
HETATM   11  C14 UNL     1      -3.741   1.488   1.164  1.00  0.00     0.202 C 
HETATM   12  C15 UNL     1      -5.203   1.177   1.389  1.00  0.00     0.173 C 
HETATM   13  C16 UNL     1      -5.285  -0.319   1.683  1.00  0.00     0.180 C 
HETATM   14  C17 UNL     1      -4.641  -1.006   0.473  1.00  0.00     0.180 C 
BRANCH  12  15
HETATM   15  O7  UNL     1      -5.917   1.372   0.187  1.00  0.00    -0.391 OA
ATOM     16  H7  UNL     1      -6.836   1.177   0.328  1.00  0.00     0.210 HD
ENDBRANCH  12  15
BRANCH  13  17
HETATM   17  O8  UNL     1      -6.606  -0.711   1.790  1.00  0.00    -0.390 OA
ATOM     18  H8  UNL     1      -6.657  -1.642   1.973  1.00  0.00     0.210 HD
ENDBRANCH  13  17
BRANCH  14  19
HETATM   19  O9  UNL     1      -4.819  -2.372   0.512  1.00  0.00    -0.390 OA
ATOM     20  H9  UNL     1      -5.741  -2.602   0.526  1.00  0.00     0.210 HD
ENDBRANCH  14  19
ENDBRANCH   8   9
ENDBRANCH   7   8
ENDBRANCH   6   7
BRANCH   1  21
HETATM   21  O1  UNL     1       1.206  -2.252  -1.542  1.00  0.00    -0.391 OA
ATOM     22  H1  UNL     1       0.772  -3.007  -1.162  1.00  0.00     0.210 HD
ENDBRANCH   1  21
BRANCH   4  23
HETATM   23  O3  UNL     1       2.487  -0.045  -0.165  1.00  0.00    -0.353 OA
BRANCH  23  24
HETATM   24  C5  UNL     1       3.261   0.685   0.730  1.00  0.00     0.124 C 
HETATM   25  C6  UNL     1       4.504   1.237   0.103  1.00  0.00     0.032 C 
HETATM   26  C7  UNL     1       5.676   1.011   1.034  1.00  0.00     0.002 C 
HETATM   27  C8  UNL     1       6.001  -0.465   1.111  1.00  0.00     0.000 C 
HETATM   28  C9  UNL     1       4.738  -1.194   1.500  1.00  0.00     0.002 C 
HETATM   29  C10 UNL     1       3.630  -0.229   1.874  1.00  0.00     0.032 C 
ENDBRANCH  23  24
ENDBRANCH   4  23
BRANCH   3  30
HETATM   30  O2  UNL     1       2.201   1.706  -1.979  1.00  0.00    -0.391 OA
ATOM     31  H2  UNL     1       2.249   2.427  -1.362  1.00  0.00     0.210 HD
ENDBRANCH   3  30
TORSDOF 10
