REMARK  10 active torsions:
REMARK  status: ('A' for Active; 'I' for Inactive)
REMARK    1  A    between atoms: C3_4  and  O2_5 
REMARK    2  A    between atoms: O2_5  and  C4_6 
REMARK    3  A    between atoms: C4_6  and  C5_7 
REMARK    4  A    between atoms: C9_12  and  O4_13 
REMARK    5  A    between atoms: C10_15  and  O5_16 
REMARK    6  A    between atoms: C11_18  and  O6_19 
REMARK    7  A    between atoms: O6_19  and  C12_20 
REMARK    8  A    between atoms: C14_22  and  O7_23 
REMARK    9  A    between atoms: C16_26  and  O8_27 
REMARK   10  A    between atoms: C17_29  and  O9_30 
ROOT
HETATM    1  C1  UNL     1       1.049   1.682  -0.894  1.00  0.00     0.042 C 
HETATM    2  C2  UNL     1       0.370   0.752   0.077  1.00  0.00     0.152 C 
HETATM    3  O1  UNL     1       1.286  -0.144   0.582  1.00  0.00    -0.351 OA
HETATM    4  C3  UNL     1       2.038  -0.836  -0.367  1.00  0.00     0.291 C 
HETATM    5  C9  UNL     1       1.055  -1.490  -1.333  1.00  0.00     0.204 C 
HETATM    6  C10 UNL     1      -0.326  -1.448  -0.781  1.00  0.00     0.183 C 
HETATM    7  C11 UNL     1      -0.786  -0.005  -0.518  1.00  0.00     0.182 C 
ENDROOT
BRANCH   7   8
HETATM    8  O6  UNL     1      -1.894  -0.073   0.262  1.00  0.00    -0.373 OA
BRANCH   8   9
HETATM    9  C12 UNL     1      -3.067   0.351  -0.282  1.00  0.00     0.155 C 
HETATM   10  C13 UNL     1      -3.661   1.395   0.653  1.00  0.00     0.066 C 
HETATM   11  C14 UNL     1      -4.881   1.945  -0.002  1.00  0.00     0.123 C 
HETATM   12  C15 UNL     1      -5.900   0.879  -0.154  1.00  0.00     0.066 C 
HETATM   13  C16 UNL     1      -5.420  -0.400  -0.731  1.00  0.00     0.151 C 
HETATM   14  C17 UNL     1      -4.043  -0.809  -0.301  1.00  0.00     0.176 C 
BRANCH  11  15
HETATM   15  O7  UNL     1      -4.542   2.589  -1.187  1.00  0.00    -0.395 OA
ATOM     16  H7  UNL     1      -5.320   2.940  -1.605  1.00  0.00     0.210 HD
ENDBRANCH  11  15
BRANCH  13  17
HETATM   17  O8  UNL     1      -6.292  -1.419  -0.279  1.00  0.00    -0.393 OA
ATOM     18  H8  UNL     1      -5.985  -2.238  -0.649  1.00  0.00     0.210 HD
ENDBRANCH  13  17
BRANCH  14  19
HETATM   19  O9  UNL     1      -4.014  -1.436   0.937  1.00  0.00    -0.390 OA
ATOM     20  H9  UNL     1      -4.626  -2.163   0.925  1.00  0.00     0.210 HD
ENDBRANCH  14  19
ENDBRANCH   8   9
ENDBRANCH   7   8
BRANCH   6  21
HETATM   21  O5  UNL     1      -0.487  -2.240   0.350  1.00  0.00    -0.390 OA
ATOM     22  H5  UNL     1      -1.369  -2.213   0.702  1.00  0.00     0.210 HD
ENDBRANCH   6  21
BRANCH   5  23
HETATM   23  O4  UNL     1       1.423  -2.835  -1.442  1.00  0.00    -0.388 OA
ATOM     24  H4  UNL     1       0.811  -3.242  -2.044  1.00  0.00     0.210 HD
ENDBRANCH   5  23
BRANCH   4  25
HETATM   25  O2  UNL     1       2.747  -1.794   0.275  1.00  0.00    -0.356 OA
BRANCH  25  26
HETATM   26  C4  UNL     1       4.086  -1.766   0.158  1.00  0.00     0.203 C 
BRANCH  26  27
HETATM   27  C5  UNL     1       4.816  -0.644   0.781  1.00  0.00     0.145 C 
HETATM   28  C6  UNL     1       4.713   0.711   0.185  1.00  0.00     0.036 C 
HETATM   29  C7  UNL     1       5.977   1.391   0.758  1.00  0.00     0.029 C 
HETATM   30  C8  UNL     1       6.711   0.210   1.347  1.00  0.00     0.168 C 
HETATM   31  O3  UNL     1       6.226  -0.860   0.600  1.00  0.00    -0.384 OA
ENDBRANCH  26  27
ENDBRANCH  25  26
ENDBRANCH   4  25
TORSDOF 10
