REMARK  9 active torsions:
REMARK  status: ('A' for Active; 'I' for Inactive)
REMARK    1  A    between atoms: C2_2  and  C3_3 
REMARK    2  A    between atoms: C4_5  and  O2_6 
REMARK    3  A    between atoms: O2_6  and  C5_7 
REMARK    4  A    between atoms: C7_10  and  O4_11 
REMARK    5  A    between atoms: C8_13  and  O5_14 
REMARK    6  A    between atoms: C9_16  and  O6_17 
REMARK    7  A    between atoms: C10_19  and  O7_20 
REMARK    8  A    between atoms: C11_22  and  N1_23 
REMARK       I    between atoms: N1_23  and  C12_25 
REMARK    9  A    between atoms: C12_25  and  C13_27 
ROOT
HETATM    1  C3  UNL     1      -1.378  -2.013  -0.843  1.00  0.00     0.172 C 
HETATM    2  O1  UNL     1      -0.042  -2.130  -0.553  1.00  0.00    -0.347 OA
HETATM    3  C4  UNL     1       0.498  -0.862  -0.460  1.00  0.00     0.294 C 
HETATM    4  C10 UNL     1      -0.292   0.037  -1.347  1.00  0.00     0.199 C 
HETATM    5  C11 UNL     1      -1.615  -0.660  -1.454  1.00  0.00     0.151 C 
ENDROOT
BRANCH   3   6
HETATM    6  O2  UNL     1       1.863  -0.842  -0.732  1.00  0.00    -0.326 OA
BRANCH   6   7
HETATM    7  C5  UNL     1       2.608  -0.413   0.345  1.00  0.00     0.294 C 
HETATM    8  O3  UNL     1       3.490  -1.377   0.816  1.00  0.00    -0.356 OA
HETATM    9  C6  UNL     1       4.788  -1.200   0.343  1.00  0.00     0.205 C 
HETATM   10  C7  UNL     1       5.460  -0.004   0.990  1.00  0.00     0.173 C 
HETATM   11  C8  UNL     1       4.356   1.016   1.242  1.00  0.00     0.182 C 
HETATM   12  C9  UNL     1       3.379   0.851   0.068  1.00  0.00     0.204 C 
BRANCH  10  13
HETATM   13  O4  UNL     1       6.408   0.559   0.167  1.00  0.00    -0.391 OA
ATOM     14  H4  UNL     1       6.829   1.308   0.572  1.00  0.00     0.210 HD
ENDBRANCH  10  13
BRANCH  11  15
HETATM   15  O5  UNL     1       3.665   0.570   2.370  1.00  0.00    -0.390 OA
ATOM     16  H5  UNL     1       2.977   1.206   2.527  1.00  0.00     0.210 HD
ENDBRANCH  11  15
BRANCH  12  17
HETATM   17  O6  UNL     1       2.594   1.982   0.028  1.00  0.00    -0.388 OA
ATOM     18  H6  UNL     1       3.080   2.779  -0.147  1.00  0.00     0.210 HD
ENDBRANCH  12  17
ENDBRANCH   6   7
ENDBRANCH   3   6
BRANCH   4  19
HETATM   19  O7  UNL     1       0.238   0.190  -2.619  1.00  0.00    -0.388 OA
ATOM     20  H7  UNL     1      -0.266   0.763  -3.185  1.00  0.00     0.210 HD
ENDBRANCH   4  19
BRANCH   1  21
HETATM   21  C2  UNL     1      -2.249  -2.251   0.340  1.00  0.00    -0.003 C 
HETATM   22  C1  UNL     1      -3.249  -3.123   0.329  1.00  0.00     0.009 C 
ENDBRANCH   1  21
BRANCH   5  23
HETATM   23  N1  UNL     1      -2.596   0.110  -0.746  1.00  0.00    -0.345 N 
HETATM   24  C12 UNL     1      -3.743   0.598  -1.420  1.00  0.00     0.275 C 
HETATM   25  O8  UNL     1      -3.889   0.349  -2.642  1.00  0.00    -0.265 OA
ATOM     26  H1  UNL     1      -2.468   0.307   0.246  1.00  0.00     0.163 HD
BRANCH  24  27
HETATM   27  C13 UNL     1      -4.775   1.386  -0.755  1.00  0.00     0.142 A 
HETATM   28  C14 UNL     1      -4.742   1.736   0.595  1.00  0.00     0.045 A 
HETATM   29  C15 UNL     1      -5.879   2.472   0.846  1.00  0.00     0.027 A 
HETATM   30  C16 UNL     1      -6.558   2.541  -0.360  1.00  0.00     0.143 A 
HETATM   31  O9  UNL     1      -5.864   1.892  -1.244  1.00  0.00    -0.317 OA
ENDBRANCH  24  27
ENDBRANCH   5  23
TORSDOF 9
