REMARK  10 active torsions:
REMARK  status: ('A' for Active; 'I' for Inactive)
REMARK    1  A    between atoms: O1_1  and  C1_3 
REMARK    2  A    between atoms: C3_5  and  O2_6 
REMARK    3  A    between atoms: C4_8  and  O3_9 
REMARK    4  A    between atoms: C5_11  and  O4_12 
REMARK    5  A    between atoms: O4_12  and  C6_13 
REMARK    6  A    between atoms: C8_16  and  C9_17 
REMARK    7  A    between atoms: C9_17  and  O6_18 
REMARK    8  A    between atoms: O6_18  and  C10_19 
REMARK    9  A    between atoms: C16_25  and  O7_26 
REMARK   10  A    between atoms: C17_28  and  O8_29 
ROOT
HETATM    1  C6  UNL     1      -1.798  -0.353   0.044  1.00  0.00     0.179 C 
HETATM    2  C7  UNL     1      -1.105   0.508   1.071  1.00  0.00     0.203 C 
HETATM    3  O5  UNL     1       0.236   0.171   1.224  1.00  0.00    -0.378 OA
HETATM    4  C8  UNL     1       0.932   0.332   0.008  1.00  0.00     0.176 C 
HETATM    5  C16 UNL     1       0.482  -0.815  -0.877  1.00  0.00     0.180 C 
HETATM    6  C17 UNL     1      -0.976  -0.610  -1.176  1.00  0.00     0.180 C 
ENDROOT
BRANCH   1   7
HETATM    7  O4  UNL     1      -3.005   0.263  -0.273  1.00  0.00    -0.348 OA
BRANCH   7   8
HETATM    8  C5  UNL     1      -4.110  -0.509   0.087  1.00  0.00     0.294 C 
HETATM    9  C4  UNL     1      -4.910   0.158   1.185  1.00  0.00     0.202 C 
HETATM   10  C3  UNL     1      -6.387   0.026   1.001  1.00  0.00     0.156 C 
HETATM   11  C2  UNL     1      -6.845   0.349  -0.390  1.00  0.00     0.095 C 
HETATM   12  C1  UNL     1      -5.781   0.036  -1.412  1.00  0.00     0.262 C 
HETATM   13  O9  UNL     1      -4.874  -0.906  -0.983  1.00  0.00    -0.329 OA
BRANCH   9  14
HETATM   14  O3  UNL     1      -4.586  -0.349   2.445  1.00  0.00    -0.388 OA
ATOM     15  H3  UNL     1      -3.647  -0.265   2.562  1.00  0.00     0.210 HD
ENDBRANCH   9  14
BRANCH  10  16
HETATM   16  O2  UNL     1      -7.000   0.926   1.893  1.00  0.00    -0.393 OA
ATOM     17  H2  UNL     1      -6.710   0.721   2.774  1.00  0.00     0.210 HD
ENDBRANCH  10  16
BRANCH  12  18
HETATM   18  O1  UNL     1      -5.197   1.210  -1.866  1.00  0.00    -0.371 OA
ATOM     19  H1  UNL     1      -4.527   1.013  -2.510  1.00  0.00     0.212 HD
ENDBRANCH  12  18
ENDBRANCH   7   8
ENDBRANCH   1   7
BRANCH   6  20
HETATM   20  O8  UNL     1      -1.530  -1.745  -1.812  1.00  0.00    -0.390 OA
ATOM     21  H8  UNL     1      -1.007  -1.908  -2.588  1.00  0.00     0.210 HD
ENDBRANCH   6  20
BRANCH   5  22
HETATM   22  O7  UNL     1       0.709  -1.998  -0.169  1.00  0.00    -0.390 OA
ATOM     23  H7  UNL     1       0.427  -2.716  -0.723  1.00  0.00     0.210 HD
ENDBRANCH   5  22
BRANCH   4  24
HETATM   24  C9  UNL     1       2.402   0.230   0.351  1.00  0.00     0.202 C 
BRANCH  24  25
HETATM   25  O6  UNL     1       3.224   0.369  -0.749  1.00  0.00    -0.383 OA
BRANCH  25  26
HETATM   26  C10 UNL     1       4.530   0.265  -0.359  1.00  0.00     0.121 C 
HETATM   27  C11 UNL     1       5.269  -0.854  -1.104  1.00  0.00     0.032 C 
HETATM   28  C12 UNL     1       6.547  -1.054  -0.345  1.00  0.00     0.002 C 
HETATM   29  C13 UNL     1       7.265   0.180   0.017  1.00  0.00     0.000 C 
HETATM   30  C14 UNL     1       6.731   1.464  -0.463  1.00  0.00     0.002 C 
HETATM   31  C15 UNL     1       5.266   1.531  -0.728  1.00  0.00     0.032 C 
ENDBRANCH  25  26
ENDBRANCH  24  25
ENDBRANCH   4  24
TORSDOF 10
