REMARK  10 active torsions:
REMARK  status: ('A' for Active; 'I' for Inactive)
REMARK    1  A    between atoms: C4_5  and  O2_6 
REMARK    2  A    between atoms: C5_8  and  O3_9 
REMARK    3  A    between atoms: O3_9  and  C6_10 
REMARK    4  A    between atoms: C7_11  and  O4_12 
REMARK    5  A    between atoms: C9_15  and  O5_16 
REMARK    6  A    between atoms: O5_16  and  C10_17 
REMARK    7  A    between atoms: C13_20  and  C14_21 
REMARK    8  A    between atoms: C14_21  and  O6_22 
REMARK    9  A    between atoms: C16_25  and  O7_26 
REMARK   10  A    between atoms: C17_28  and  O8_29 
ROOT
HETATM    1  C6  UNL     1       1.723   1.289   0.628  1.00  0.00     0.184 C 
HETATM    2  C7  UNL     1       1.195   0.854   1.976  1.00  0.00     0.152 C 
HETATM    3  C8  UNL     1      -0.205   1.454   1.955  1.00  0.00     0.069 C 
HETATM    4  C9  UNL     1      -0.685   1.036   0.583  1.00  0.00     0.155 C 
HETATM    5  C17 UNL     1       0.531   1.099  -0.288  1.00  0.00     0.178 C 
ENDROOT
BRANCH   4   6
HETATM    6  O5  UNL     1      -1.274  -0.232   0.610  1.00  0.00    -0.375 OA
BRANCH   6   7
HETATM    7  C10 UNL     1      -2.562  -0.232   0.133  1.00  0.00     0.150 C 
HETATM    8  C11 UNL     1      -2.752  -1.107  -1.088  1.00  0.00     0.035 C 
HETATM    9  C12 UNL     1      -4.132  -0.798  -1.636  1.00  0.00     0.009 C 
HETATM   10  C13 UNL     1      -5.159  -1.282  -0.656  1.00  0.00     0.012 C 
HETATM   11  C15 UNL     1      -4.515  -1.724   0.633  1.00  0.00     0.041 C 
HETATM   12  C16 UNL     1      -3.543  -0.715   1.179  1.00  0.00     0.147 C 
BRANCH  10  13
HETATM   13  C14 UNL     1      -6.177  -0.212  -0.317  1.00  0.00     0.168 C 
BRANCH  13  14
HETATM   14  O6  UNL     1      -6.864   0.210  -1.461  1.00  0.00    -0.400 OA
ATOM     15  H6  UNL     1      -7.502   0.881  -1.248  1.00  0.00     0.209 HD
ENDBRANCH  13  14
ENDBRANCH  10  13
BRANCH  12  16
HETATM   16  O7  UNL     1      -2.839  -1.343   2.216  1.00  0.00    -0.393 OA
ATOM     17  H7  UNL     1      -3.455  -1.646   2.873  1.00  0.00     0.210 HD
ENDBRANCH  12  16
ENDBRANCH   6   7
ENDBRANCH   4   6
BRANCH   5  18
HETATM   18  O8  UNL     1       0.619  -0.099  -0.999  1.00  0.00    -0.390 OA
ATOM     19  H8  UNL     1      -0.128  -0.218  -1.573  1.00  0.00     0.210 HD
ENDBRANCH   5  18
BRANCH   2  20
HETATM   20  O4  UNL     1       1.948   1.343   3.027  1.00  0.00    -0.393 OA
ATOM     21  H4  UNL     1       1.616   1.070   3.874  1.00  0.00     0.210 HD
ENDBRANCH   2  20
BRANCH   1  22
HETATM   22  O3  UNL     1       2.746   0.506   0.157  1.00  0.00    -0.348 OA
BRANCH  22  23
HETATM   23  C5  UNL     1       3.904   1.200  -0.147  1.00  0.00     0.294 C 
HETATM   24  C4  UNL     1       4.363   0.936  -1.583  1.00  0.00     0.197 C 
HETATM   25  C3  UNL     1       4.665  -0.544  -1.672  1.00  0.00     0.207 C 
HETATM   26  O1  UNL     1       4.368  -1.234  -0.522  1.00  0.00    -0.359 OA
HETATM   27  C2  UNL     1       4.907  -0.706   0.621  1.00  0.00     0.259 C 
HETATM   28  C1  UNL     1       6.275  -1.311   0.892  1.00  0.00     0.071 C 
HETATM   29  O9  UNL     1       4.919   0.666   0.668  1.00  0.00    -0.329 OA
BRANCH  24  30
HETATM   30  O2  UNL     1       5.576   1.625  -1.721  1.00  0.00    -0.388 OA
ATOM     31  H2  UNL     1       5.386   2.554  -1.665  1.00  0.00     0.210 HD
ENDBRANCH  24  30
ENDBRANCH  22  23
ENDBRANCH   1  22
TORSDOF 10
