REMARK  8 active torsions:
REMARK  status: ('A' for Active; 'I' for Inactive)
REMARK    1  A    between atoms: C2_2  and  O2_4 
REMARK    2  A    between atoms: O2_4  and  C3_5 
REMARK    3  A    between atoms: C4_7  and  O4_8 
REMARK    4  A    between atoms: C9_14  and  O5_16 
REMARK    5  A    between atoms: C17_24  and  O6_25 
REMARK    6  A    between atoms: C20_29  and  C21_30 
REMARK    7  A    between atoms: C21_30  and  O7_33 
REMARK    8  A    between atoms: C26_37  and  O8_38 
ROOT
HETATM    1  C3  UNL     1      -0.653   1.763  -0.003  1.00  0.00     0.206 C 
HETATM    2  O3  UNL     1      -0.181   1.797   1.275  1.00  0.00    -0.321 OA
HETATM    3  C4  UNL     1       1.092   1.394   1.510  1.00  0.00     0.266 C 
HETATM    4  C5  UNL     1       1.471   0.105   0.834  1.00  0.00     0.064 C 
HETATM    5  C6  UNL     1       2.945  -0.054   0.931  1.00  0.00    -0.008 C 
HETATM    6  C7  UNL     1       3.774   1.178   0.638  1.00  0.00     0.018 C 
HETATM    7  C8  UNL     1       3.280  -0.256   2.433  1.00  0.00     0.018 C 
HETATM    8  C9  UNL     1       3.479  -1.306   0.280  1.00  0.00     0.062 C 
HETATM    9  C10 UNL     1       4.819  -1.090  -0.404  1.00  0.00     0.046 C 
HETATM   10  C11 UNL     1       2.498  -1.955  -0.640  1.00  0.00     0.043 C 
HETATM   11  C12 UNL     1       1.618  -0.950  -1.409  1.00  0.00    -0.003 C 
HETATM   12  C13 UNL     1       2.454  -0.350  -2.446  1.00  0.00     0.011 C 
HETATM   13  C14 UNL     1       0.747  -0.178  -0.472  1.00  0.00     0.012 C 
HETATM   14  C15 UNL     1       0.098   1.045  -1.045  1.00  0.00     0.060 C 
HETATM   15  C16 UNL     1       0.791   1.974  -1.921  1.00  0.00     0.016 C 
HETATM   16  C17 UNL     1      -0.437  -1.113  -0.132  1.00  0.00     0.077 C 
HETATM   17  C18 UNL     1      -0.863  -2.023  -1.241  1.00  0.00     0.040 C 
HETATM   18  C19 UNL     1      -2.212  -2.537  -0.745  1.00  0.00     0.011 C 
HETATM   19  C20 UNL     1      -2.824  -1.179  -0.468  1.00  0.00     0.033 C 
HETATM   20  C24 UNL     1      -1.723  -0.512   0.324  1.00  0.00     0.025 C 
HETATM   21  C25 UNL     1      -1.981  -0.840   1.807  1.00  0.00     0.022 C 
HETATM   22  C26 UNL     1      -1.955   0.922   0.157  1.00  0.00     0.193 C 
ENDROOT
BRANCH  19  23
HETATM   23  C21 UNL     1      -4.182  -1.297  -0.114  1.00  0.00     0.055 C 
HETATM   24  C22 UNL     1      -5.058  -0.139   0.215  1.00  0.00     0.045 C 
HETATM   25  C23 UNL     1      -4.498  -2.360   0.925  1.00  0.00     0.045 C 
BRANCH  23  26
HETATM   26  O7  UNL     1      -4.842  -1.843  -1.271  1.00  0.00    -0.390 OA
ATOM     27  H7  UNL     1      -5.758  -1.923  -1.032  1.00  0.00     0.210 HD
ENDBRANCH  23  26
ENDBRANCH  19  23
BRANCH  16  28
HETATM   28  O6  UNL     1      -0.035  -2.000   0.869  1.00  0.00    -0.388 OA
ATOM     29  H6  UNL     1      -0.762  -2.574   1.078  1.00  0.00     0.210 HD
ENDBRANCH  16  28
BRANCH  22  30
HETATM   30  O8  UNL     1      -2.641   1.265  -1.036  1.00  0.00    -0.389 OA
ATOM     31  H8  UNL     1      -3.435   0.752  -0.938  1.00  0.00     0.210 HD
ENDBRANCH  22  30
BRANCH   1  32
HETATM   32  O2  UNL     1      -1.186   3.025  -0.262  1.00  0.00    -0.280 OA
BRANCH  32  33
HETATM   33  C2  UNL     1      -0.649   4.259  -0.192  1.00  0.00     0.257 C 
HETATM   34  C1  UNL     1      -1.421   5.494  -0.533  1.00  0.00     0.126 C 
HETATM   35  O1  UNL     1       0.546   4.378   0.173  1.00  0.00    -0.266 OA
ENDBRANCH  32  33
ENDBRANCH   1  32
BRANCH   3  36
HETATM   36  O4  UNL     1       1.096   1.225   2.933  1.00  0.00    -0.371 OA
ATOM     37  H4  UNL     1       1.988   0.943   3.098  1.00  0.00     0.212 HD
ENDBRANCH   3  36
BRANCH   8  38
HETATM   38  O5  UNL     1       3.741  -2.332   1.231  1.00  0.00    -0.389 OA
ATOM     39  H5  UNL     1       4.077  -3.120   0.821  1.00  0.00     0.210 HD
ENDBRANCH   8  38
TORSDOF 8
