REMARK  9 active torsions:
REMARK  status: ('A' for Active; 'I' for Inactive)
REMARK    1  A    between atoms: N1_6  and  O1_8 
REMARK    2  A    between atoms: C7_11  and  O2_13 
REMARK    3  A    between atoms: C12_18  and  C13_19 
REMARK    4  A    between atoms: C13_19  and  C14_20 
REMARK    5  A    between atoms: C18_24  and  O3_25 
REMARK    6  A    between atoms: O3_25  and  C19_26 
REMARK    7  A    between atoms: C22_30  and  O5_31 
REMARK    8  A    between atoms: C23_33  and  O6_34 
REMARK    9  A    between atoms: C24_36  and  O7_37 
ROOT
HETATM    1  C14 UNL     1       0.126   1.194  -0.459  1.00  0.00     0.041 C 
HETATM    2  C15 UNL     1       1.101   0.899   0.704  1.00  0.00    -0.004 C 
HETATM    3  C16 UNL     1       0.454   1.106   2.029  1.00  0.00     0.011 C 
HETATM    4  C17 UNL     1       1.612  -0.517   0.632  1.00  0.00     0.066 C 
HETATM    5  C18 UNL     1       2.449  -0.650  -0.633  1.00  0.00     0.264 C 
HETATM    6  O8  UNL     1       2.091   0.305  -1.574  1.00  0.00    -0.356 OA
HETATM    7  C25 UNL     1       0.744   0.517  -1.683  1.00  0.00     0.128 C 
HETATM    8  C26 UNL     1      -0.032  -0.716  -2.101  1.00  0.00     0.040 C 
ENDROOT
BRANCH   1   9
HETATM    9  C13 UNL     1      -1.163   0.619  -0.095  1.00  0.00    -0.011 C 
BRANCH   9  10
HETATM   10  C12 UNL     1      -2.353   1.141  -0.043  1.00  0.00    -0.047 C 
HETATM   11  C2  UNL     1      -2.746   2.486  -0.346  1.00  0.00    -0.060 C 
HETATM   12  C1  UNL     1      -2.240   3.357  -1.149  1.00  0.00     0.019 C 
HETATM   13  C3  UNL     1      -4.010   2.748   0.496  1.00  0.00     0.050 C 
HETATM   14  C4  UNL     1      -4.683   1.466   0.114  1.00  0.00     0.050 C 
HETATM   15  C5  UNL     1      -5.831   1.033   0.881  1.00  0.00     0.018 C 
HETATM   16  C10 UNL     1      -3.585   0.443   0.410  1.00  0.00    -0.005 C 
HETATM   17  N1  UNL     1      -6.495   1.732   1.712  1.00  0.00    -0.277 N 
HETATM   18  C6  UNL     1      -6.265  -0.380   0.661  1.00  0.00     0.092 C 
ATOM     19  H1  UNL     1      -7.288   1.305   2.190  1.00  0.00     0.193 HD
HETATM   20  C7  UNL     1      -5.398  -1.127  -0.289  1.00  0.00     0.060 C 
HETATM   21  C8  UNL     1      -5.473  -2.606   0.099  1.00  0.00     0.046 C 
HETATM   22  C9  UNL     1      -3.966  -0.754  -0.378  1.00  0.00     0.052 C 
HETATM   23  C11 UNL     1      -3.483   0.178   1.895  1.00  0.00     0.021 C 
BRANCH  17  24
HETATM   24  O1  UNL     1      -6.182   3.041   1.988  1.00  0.00    -0.290 OA
ATOM     25  H1  UNL     1      -6.678   3.563   2.608  1.00  0.00     0.244 HD
ENDBRANCH  17  24
BRANCH  20  26
HETATM   26  O2  UNL     1      -5.968  -1.057  -1.576  1.00  0.00    -0.390 OA
ATOM     27  H2  UNL     1      -5.414  -1.534  -2.183  1.00  0.00     0.210 HD
ENDBRANCH  20  26
ENDBRANCH   9  10
ENDBRANCH   1   9
BRANCH   5  28
HETATM   28  O3  UNL     1       3.766  -0.580  -0.270  1.00  0.00    -0.329 OA
BRANCH  28  29
HETATM   29  C19 UNL     1       4.502  -1.718  -0.489  1.00  0.00     0.294 C 
HETATM   30  O4  UNL     1       5.532  -1.502  -1.393  1.00  0.00    -0.351 OA
HETATM   31  C20 UNL     1       6.400  -0.500  -0.997  1.00  0.00     0.152 C 
HETATM   32  C21 UNL     1       6.014   0.763  -1.740  1.00  0.00     0.042 C 
HETATM   33  C22 UNL     1       6.370  -0.210   0.464  1.00  0.00     0.178 C 
HETATM   34  C23 UNL     1       6.108  -1.396   1.328  1.00  0.00     0.183 C 
HETATM   35  C24 UNL     1       4.997  -2.257   0.835  1.00  0.00     0.204 C 
BRANCH  33  36
HETATM   36  O5  UNL     1       7.650   0.280   0.818  1.00  0.00    -0.390 OA
ATOM     37  H5  UNL     1       7.631   0.465   1.750  1.00  0.00     0.210 HD
ENDBRANCH  33  36
BRANCH  34  38
HETATM   38  O6  UNL     1       7.278  -2.153   1.542  1.00  0.00    -0.390 OA
ATOM     39  H6  UNL     1       7.111  -2.909   2.093  1.00  0.00     0.210 HD
ENDBRANCH  34  38
BRANCH  35  40
HETATM   40  O7  UNL     1       5.384  -3.579   0.626  1.00  0.00    -0.388 OA
ATOM     41  H7  UNL     1       5.695  -3.917   1.457  1.00  0.00     0.210 HD
ENDBRANCH  35  40
ENDBRANCH  28  29
ENDBRANCH   5  28
TORSDOF 9
