REMARK  8 active torsions:
REMARK  status: ('A' for Active; 'I' for Inactive)
REMARK    1  A    between atoms: C2_2  and  O2_4 
REMARK    2  A    between atoms: O2_4  and  C3_5 
REMARK    3  A    between atoms: C4_6  and  O3_7 
REMARK    4  A    between atoms: C14_18  and  C15_19 
REMARK    5  A    between atoms: C15_19  and  C16_20 
REMARK    6  A    between atoms: C16_20  and  O4_21 
REMARK    7  A    between atoms: C20_27  and  O6_28 
REMARK    8  A    between atoms: N1_33  and  O7_34 
ROOT
HETATM    1  C3  UNL     1      -2.926   0.808   0.820  1.00  0.00     0.173 C 
HETATM    2  C4  UNL     1      -3.921  -0.421   0.952  1.00  0.00     0.149 C 
HETATM    3  C5  UNL     1      -2.982  -1.529   1.044  1.00  0.00     0.042 C 
HETATM    4  C6  UNL     1      -1.845  -1.125   0.164  1.00  0.00     0.027 C 
HETATM    5  C7  UNL     1      -1.917   0.327  -0.192  1.00  0.00     0.015 C 
HETATM    6  C8  UNL     1      -2.681   0.625  -1.487  1.00  0.00     0.023 C 
HETATM    7  C9  UNL     1      -0.581   1.004  -0.197  1.00  0.00    -0.057 C 
HETATM    8  C10 UNL     1      -0.141   1.827   0.960  1.00  0.00    -0.080 C 
HETATM    9  C11 UNL     1      -0.851   3.065   1.332  1.00  0.00     0.043 C 
HETATM   10  C12 UNL     1       0.418   1.037   2.102  1.00  0.00     0.034 C 
HETATM   11  C13 UNL     1       1.674   0.421   1.609  1.00  0.00     0.013 C 
HETATM   12  C14 UNL     1       1.838   0.320   0.106  1.00  0.00     0.039 C 
HETATM   13  C21 UNL     1       0.603   0.153  -0.689  1.00  0.00     0.001 C 
HETATM   14  C22 UNL     1       0.833   0.753  -2.118  1.00  0.00     0.022 C 
HETATM   15  C23 UNL     1       0.368  -1.248  -1.019  1.00  0.00     0.135 C 
HETATM   16  N1  UNL     1      -0.744  -1.613  -1.846  1.00  0.00    -0.189 NA
HETATM   17  C24 UNL     1      -1.774  -2.102  -0.948  1.00  0.00     0.036 C 
HETATM   18  C25 UNL     1      -3.035  -2.476  -1.611  1.00  0.00     0.034 C 
HETATM   19  C26 UNL     1      -1.219  -3.410  -0.349  1.00  0.00     0.034 C 
ENDROOT
BRANCH  12  20
HETATM   20  C15 UNL     1       3.134  -0.341  -0.088  1.00  0.00     0.113 C 
HETATM   21  O5  UNL     1       3.967   0.515   0.766  1.00  0.00    -0.370 OA
HETATM   22  C17 UNL     1       5.240   0.459   0.355  1.00  0.00     0.121 C 
HETATM   23  C18 UNL     1       6.260  -0.029   1.371  1.00  0.00     0.040 C 
HETATM   24  C19 UNL     1       5.335  -0.197  -0.976  1.00  0.00     0.066 C 
HETATM   25  C20 UNL     1       3.854  -0.038  -1.378  1.00  0.00     0.157 C 
BRANCH  20  26
HETATM   26  C16 UNL     1       3.488  -1.639   0.487  1.00  0.00     0.205 C 
BRANCH  26  27
HETATM   27  O4  UNL     1       3.009  -2.821  -0.021  1.00  0.00    -0.398 OA
ATOM     28  H4  UNL     1       3.239  -3.664   0.352  1.00  0.00     0.209 HD
ENDBRANCH  26  27
ENDBRANCH  20  26
BRANCH  25  29
HETATM   29  O6  UNL     1       3.830   1.323  -1.720  1.00  0.00    -0.392 OA
ATOM     30  H6  UNL     1       4.284   1.514  -2.533  1.00  0.00     0.210 HD
ENDBRANCH  25  29
ENDBRANCH  12  20
BRANCH  16  31
HETATM   31  O7  UNL     1      -0.503  -2.478  -2.821  1.00  0.00    -0.312 OA
ATOM     32  H7  UNL     1      -1.240  -2.720  -3.369  1.00  0.00     0.237 HD
ENDBRANCH  16  31
BRANCH   1  33
HETATM   33  O2  UNL     1      -3.880   1.724   0.319  1.00  0.00    -0.313 OA
BRANCH  33  34
HETATM   34  C2  UNL     1      -4.541   2.603   1.105  1.00  0.00     0.255 C 
HETATM   35  C1  UNL     1      -5.536   3.560   0.568  1.00  0.00     0.126 C 
HETATM   36  O1  UNL     1      -4.313   2.617   2.333  1.00  0.00    -0.266 OA
ENDBRANCH  33  34
ENDBRANCH   1  33
BRANCH   2  37
HETATM   37  O3  UNL     1      -4.646  -0.287   2.136  1.00  0.00    -0.393 OA
ATOM     38  H3  UNL     1      -5.242  -1.023   2.215  1.00  0.00     0.210 HD
ENDBRANCH   2  37
TORSDOF 8
