REMARK  2 active torsions:
REMARK  status: ('A' for Active; 'I' for Inactive)
REMARK    1  A    between atoms: N1_2  and  C3_4 
REMARK    2  A    between atoms: C5_10  and  N4_11 
ROOT
HETATM    1  C3  UNL     1      -3.160  -0.040  -0.003  1.00  0.00     0.682 A 
HETATM    2  N2  UNL     1      -2.437   0.687  -0.873  1.00  0.00    -0.172 N 
ATOM      3  H2  UNL     1      -2.819   1.221  -1.653  1.00  0.00     0.186 HD
HETATM    4  C4  UNL     1      -1.129   0.602  -0.556  1.00  0.00     0.181 A 
HETATM    5  N3  UNL     1       0.134   0.955  -0.832  1.00  0.00    -0.171 N 
ATOM      6  H3  UNL     1       0.410   1.562  -1.604  1.00  0.00     0.186 HD
HETATM    7  C5  UNL     1       0.986   0.403   0.044  1.00  0.00     0.702 A 
HETATM    8  N8  UNL     1       0.238  -0.316   0.897  1.00  0.00    -0.171 N 
ATOM      9  H8  UNL     1       0.605  -0.855   1.681  1.00  0.00     0.186 HD
HETATM   10  C9  UNL     1      -1.073  -0.225   0.569  1.00  0.00     0.181 A 
HETATM   11  N9  UNL     1      -2.322  -0.596   0.879  1.00  0.00    -0.172 N 
ATOM     12  H9  UNL     1      -2.589  -1.200   1.656  1.00  0.00     0.186 HD
ENDROOT
BRANCH   7  13
HETATM   13  N4  UNL     1       2.419   0.555   0.073  1.00  0.00    -0.120 N 
HETATM   14  C6  UNL     1       3.033   1.441  -0.902  1.00  0.00     0.188 C 
HETATM   15  C7  UNL     1       4.091   0.613  -1.606  1.00  0.00     0.144 C 
HETATM   16  N5  UNL     1       4.952   0.027  -0.609  1.00  0.00    -0.362 N 
HETATM   17  C8  UNL     1       4.463  -0.377   0.656  1.00  0.00     0.203 C 
ATOM     18  H5  UNL     1       5.942  -0.100  -0.821  1.00  0.00     0.162 HD
HETATM   19  N6  UNL     1       5.317  -1.068   1.574  1.00  0.00    -0.062 NA
HETATM   20  N7  UNL     1       3.220  -0.112   0.979  1.00  0.00    -0.257 N 
ATOM     21  H7  UNL     1       2.850  -0.395   1.887  1.00  0.00     0.190 HD
ENDBRANCH   7  13
BRANCH   1  22
HETATM   22  N1  UNL     1      -4.556  -0.219   0.002  1.00  0.00    -0.226 N 
HETATM   23  C1  UNL     1      -5.427   0.901   0.209  1.00  0.00     0.168 C 
HETATM   24  C2  UNL     1      -5.115  -1.531  -0.189  1.00  0.00     0.168 C 
ENDBRANCH   1  22
TORSDOF 2
