REMARK  12 active torsions:
REMARK  status: ('A' for Active; 'I' for Inactive)
REMARK    1  A    between atoms: C2_2  and  C21_21 
REMARK    2  A    between atoms: C3_3  and  C4_4 
REMARK    3  A    between atoms: C5_5  and  C6_6 
REMARK    4  A    between atoms: C6_6  and  C7_7 
REMARK    5  A    between atoms: C7_7  and  C8_8 
REMARK    6  A    between atoms: C8_8  and  C10_10 
REMARK    7  A    between atoms: C10_10  and  C11_11 
REMARK    8  A    between atoms: C11_11  and  C12_12 
REMARK    9  A    between atoms: C21_21  and  C22_22 
REMARK   10  A    between atoms: C22_22  and  C23_23 
REMARK   11  A    between atoms: C23_23  and  C24_24 
REMARK       I    between atoms: C24_24  and  N1_26 
REMARK   12  A    between atoms: N1_26  and  C25_28 
ROOT
HETATM    1  C4  UNL     1       1.481  -0.163  -0.597  1.00  0.00     0.001 C 
HETATM    2  C5  UNL     1       0.570   0.019   0.484  1.00  0.00     0.000 C 
ENDROOT
BRANCH   2   3
HETATM    3  C6  UNL     1      -0.762   0.057   0.301  1.00  0.00     0.001 C 
BRANCH   3   4
HETATM    4  C7  UNL     1      -1.348  -0.087  -0.983  1.00  0.00     0.007 C 
BRANCH   4   5
HETATM    5  C8  UNL     1      -2.691  -0.047  -1.277  1.00  0.00    -0.062 C 
HETATM    6  C9  UNL     1      -2.923  -0.240  -2.740  1.00  0.00     0.048 C 
BRANCH   5   7
HETATM    7  C10 UNL     1      -3.611   0.143  -0.234  1.00  0.00     0.007 C 
BRANCH   7   8
HETATM    8  C11 UNL     1      -4.790   0.283   0.198  1.00  0.00     0.009 C 
BRANCH   8   9
HETATM    9  C12 UNL     1      -6.196   0.365  -0.058  1.00  0.00    -0.048 C 
HETATM   10  C13 UNL     1      -6.982   0.530   1.033  1.00  0.00    -0.077 C 
HETATM   11  C14 UNL     1      -6.444   0.622   2.419  1.00  0.00     0.044 C 
HETATM   12  C15 UNL     1      -8.453   0.633   0.891  1.00  0.00     0.034 C 
HETATM   13  C16 UNL     1      -8.653   1.525  -0.344  1.00  0.00     0.005 C 
HETATM   14  C17 UNL     1      -8.284   0.598  -1.471  1.00  0.00     0.014 C 
HETATM   15  C18 UNL     1      -6.784   0.271  -1.402  1.00  0.00    -0.020 C 
HETATM   16  C19 UNL     1      -6.177   1.145  -2.452  1.00  0.00     0.020 C 
HETATM   17  C20 UNL     1      -6.667  -1.200  -1.850  1.00  0.00     0.020 C 
ENDBRANCH   8   9
ENDBRANCH   7   8
ENDBRANCH   5   7
ENDBRANCH   4   5
ENDBRANCH   3   4
ENDBRANCH   2   3
BRANCH   1  18
HETATM   18  C3  UNL     1       2.764  -0.237  -0.608  1.00  0.00     0.007 C 
HETATM   19  C2  UNL     1       3.704  -0.168   0.467  1.00  0.00    -0.054 C 
HETATM   20  C1  UNL     1       3.377  -0.063   1.885  1.00  0.00     0.049 C 
BRANCH  19  21
HETATM   21  C21 UNL     1       5.006  -0.255   0.103  1.00  0.00     0.062 C 
BRANCH  21  22
HETATM   22  C22 UNL     1       6.027  -0.245   1.138  1.00  0.00    -0.122 C 
BRANCH  22  23
HETATM   23  C23 UNL     1       6.844  -0.237   1.951  1.00  0.00     0.129 C 
BRANCH  23  24
HETATM   24  C24 UNL     1       8.302  -0.295   1.961  1.00  0.00     0.249 C 
HETATM   25  O1  UNL     1       8.922  -0.322   3.083  1.00  0.00    -0.268 OA
HETATM   26  N1  UNL     1       9.078  -0.316   0.800  1.00  0.00    -0.353 N 
ATOM     27  H1  UNL     1       8.647  -0.292  -0.124  1.00  0.00     0.163 HD
BRANCH  26  28
HETATM   28  C25 UNL     1      10.548  -0.374   0.958  1.00  0.00     0.076 C 
HETATM   29  C26 UNL     1      10.971   1.109   1.151  1.00  0.00     0.032 C 
HETATM   30  C27 UNL     1      11.224  -0.925  -0.245  1.00  0.00     0.032 C 
ENDBRANCH  26  28
ENDBRANCH  23  24
ENDBRANCH  22  23
ENDBRANCH  21  22
ENDBRANCH  19  21
ENDBRANCH   1  18
TORSDOF 12
