REMARK  11 active torsions:
REMARK  status: ('A' for Active; 'I' for Inactive)
REMARK    1  A    between atoms: C2_2  and  C21_21 
REMARK    2  A    between atoms: C3_3  and  C4_4 
REMARK    3  A    between atoms: C4_4  and  C5_5 
REMARK    4  A    between atoms: C5_5  and  C6_6 
REMARK    5  A    between atoms: C6_6  and  C8_8 
REMARK    6  A    between atoms: C15_15  and  C16_16 
REMARK    7  A    between atoms: C17_17  and  C18_18 
REMARK    8  A    between atoms: C21_21  and  C22_22 
REMARK    9  A    between atoms: C22_22  and  C23_23 
REMARK   10  A    between atoms: C23_23  and  C24_24 
REMARK   11  A    between atoms: C24_24  and  C26_26 
ROOT
HETATM    1  C6  UNL     1      -0.856  -0.217  -0.759  1.00  0.00    -0.075 C 
HETATM    2  C7  UNL     1      -1.271   1.197  -0.651  1.00  0.00     0.044 C 
ENDROOT
BRANCH   1   3
HETATM    3  C5  UNL     1       0.393  -0.540  -0.536  1.00  0.00     0.003 C 
BRANCH   3   4
HETATM    4  C4  UNL     1       1.338   0.545  -0.180  1.00  0.00     0.001 C 
BRANCH   4   5
HETATM    5  C3  UNL     1       2.598   0.288   0.053  1.00  0.00     0.007 C 
HETATM    6  C2  UNL     1       3.595   1.267   0.404  1.00  0.00    -0.062 C 
HETATM    7  C1  UNL     1       3.328   2.717   0.552  1.00  0.00     0.048 C 
BRANCH   6   8
HETATM    8  C21 UNL     1       4.874   0.846   0.619  1.00  0.00     0.006 C 
BRANCH   8   9
HETATM    9  C22 UNL     1       5.896   1.809   0.974  1.00  0.00    -0.003 C 
BRANCH   9  10
HETATM   10  C23 UNL     1       7.149   1.511   1.201  1.00  0.00    -0.012 C 
BRANCH  10  11
HETATM   11  C24 UNL     1       7.743   0.175   1.142  1.00  0.00     0.105 C 
HETATM   12  C25 UNL     1       8.340  -0.250   2.475  1.00  0.00     0.025 C 
BRANCH  11  13
HETATM   13  C26 UNL     1       8.826   0.143   0.119  1.00  0.00     0.180 C 
HETATM   14  O1  UNL     1       9.086   1.184  -0.523  1.00  0.00    -0.647 OA
HETATM   15  O2  UNL     1       9.528  -1.030  -0.108  1.00  0.00    -0.647 OA
ENDBRANCH  11  13
ENDBRANCH  10  11
ENDBRANCH   9  10
ENDBRANCH   8   9
ENDBRANCH   6   8
ENDBRANCH   4   5
ENDBRANCH   3   4
ENDBRANCH   1   3
BRANCH   1  16
HETATM   16  C8  UNL     1      -1.793  -1.282  -1.118  1.00  0.00     0.045 C 
HETATM   17  C9  UNL     1      -2.350  -1.054  -2.477  1.00  0.00    -0.015 C 
HETATM   18  C10 UNL     1      -3.509  -1.555  -2.863  1.00  0.00    -0.086 C 
HETATM   19  C11 UNL     1      -4.030  -1.294  -4.258  1.00  0.00     0.043 C 
HETATM   20  C12 UNL     1      -4.394  -2.394  -2.012  1.00  0.00     0.038 C 
HETATM   21  C13 UNL     1      -3.672  -2.739  -0.755  1.00  0.00    -0.006 C 
HETATM   22  C14 UNL     1      -4.566  -3.348   0.297  1.00  0.00     0.011 C 
HETATM   23  C15 UNL     1      -2.938  -1.508  -0.194  1.00  0.00     0.024 C 
BRANCH  23  24
HETATM   24  C16 UNL     1      -3.860  -0.388  -0.003  1.00  0.00    -0.024 C 
HETATM   25  C17 UNL     1      -4.109   0.205   1.147  1.00  0.00    -0.026 C 
BRANCH  25  26
HETATM   26  C18 UNL     1      -5.057   1.335   1.264  1.00  0.00    -0.001 C 
HETATM   27  C19 UNL     1      -6.219   1.023   2.173  1.00  0.00     0.013 C 
HETATM   28  C20 UNL     1      -4.379   2.591   1.795  1.00  0.00     0.013 C 
ENDBRANCH  25  26
ENDBRANCH  23  24
ENDBRANCH   1  16
TORSDOF 11
