REMARK  8 active torsions:
REMARK  status: ('A' for Active; 'I' for Inactive)
REMARK    1  A    between atoms: C2_2  and  C4_5 
REMARK    2  A    between atoms: C4_5  and  C22_25 
REMARK    3  A    between atoms: C5_6  and  C6_7 
REMARK    4  A    between atoms: C7_8  and  C8_9 
REMARK    5  A    between atoms: C8_9  and  C10_11 
REMARK    6  A    between atoms: C11_12  and  O1_13 
REMARK    7  A    between atoms: C22_25  and  C23_26 
REMARK    8  A    between atoms: C23_26  and  C25_28 
ROOT
HETATM    1  C1  UNL     1       5.038   1.937  -2.342  1.00  0.00     0.036 C 
HETATM    2  C2  UNL     1       3.872   1.494  -1.939  1.00  0.00     0.042 C 
HETATM    3  C3  UNL     1       2.700   2.174  -2.381  1.00  0.00     0.099 C 
HETATM    4  N1  UNL     1       1.768   2.729  -2.760  1.00  0.00    -0.191 NA
ENDROOT
BRANCH   2   5
HETATM    5  C4  UNL     1       3.765   0.338  -1.050  1.00  0.00    -0.034 C 
HETATM    6  C5  UNL     1       2.522  -0.066  -0.709  1.00  0.00     0.009 C 
BRANCH   6   7
HETATM    7  C6  UNL     1       2.253  -1.168   0.144  1.00  0.00     0.001 C 
HETATM    8  C7  UNL     1       1.183  -1.691   0.572  1.00  0.00     0.007 C 
BRANCH   8   9
HETATM    9  C8  UNL     1      -0.253  -1.498   0.465  1.00  0.00    -0.059 C 
HETATM   10  C9  UNL     1      -0.989  -2.377   1.110  1.00  0.00     0.019 C 
BRANCH   9  11
HETATM   11  C10 UNL     1      -0.842  -0.433  -0.312  1.00  0.00     0.062 C 
HETATM   12  C11 UNL     1      -0.719   0.876   0.527  1.00  0.00     0.150 C 
HETATM   13  C12 UNL     1      -1.987   0.872   1.270  1.00  0.00     0.009 C 
HETATM   14  C13 UNL     1      -2.933   0.150   0.644  1.00  0.00    -0.064 C 
HETATM   15  C14 UNL     1      -4.339  -0.112   1.031  1.00  0.00    -0.024 C 
HETATM   16  C20 UNL     1      -2.304  -0.371  -0.590  1.00  0.00    -0.010 C 
HETATM   17  C15 UNL     1      -4.926   1.275   1.323  1.00  0.00     0.019 C 
HETATM   18  C16 UNL     1      -4.531  -0.940   2.235  1.00  0.00     0.019 C 
HETATM   19  C17 UNL     1      -5.121  -0.657  -0.159  1.00  0.00     0.013 C 
HETATM   20  C18 UNL     1      -4.359  -1.855  -0.639  1.00  0.00     0.002 C 
HETATM   21  C19 UNL     1      -2.973  -1.562  -1.119  1.00  0.00     0.014 C 
HETATM   22  C21 UNL     1      -2.436   0.758  -1.682  1.00  0.00     0.021 C 
BRANCH  12  23
HETATM   23  O1  UNL     1      -0.542   1.980  -0.247  1.00  0.00    -0.391 OA
ATOM     24  H1  UNL     1      -0.467   2.777   0.264  1.00  0.00     0.210 HD
ENDBRANCH  12  23
ENDBRANCH   9  11
ENDBRANCH   8   9
ENDBRANCH   6   7
BRANCH   5  25
HETATM   25  C22 UNL     1       4.971  -0.394  -0.622  1.00  0.00     0.084 C 
BRANCH  25  26
HETATM   26  C23 UNL     1       5.735   0.448   0.340  1.00  0.00     0.013 C 
HETATM   27  C24 UNL     1       5.213   1.538   0.866  1.00  0.00     0.026 C 
BRANCH  26  28
HETATM   28  C25 UNL     1       7.094   0.031   0.692  1.00  0.00     0.204 C 
HETATM   29  O2  UNL     1       7.596  -0.991   0.206  1.00  0.00    -0.644 OA
HETATM   30  O3  UNL     1       7.802   0.814   1.583  1.00  0.00    -0.644 OA
ENDBRANCH  26  28
ENDBRANCH  25  26
ENDBRANCH   5  25
ENDBRANCH   2   5
TORSDOF 8
