REMARK  9 active torsions:
REMARK  status: ('A' for Active; 'I' for Inactive)
REMARK    1  A    between atoms: C2_2  and  N1_3 
REMARK    2  A    between atoms: C2_2  and  C3_7 
REMARK    3  A    between atoms: C8_12  and  O1_13 
REMARK    4  A    between atoms: O1_13  and  C9_14 
REMARK    5  A    between atoms: C9_14  and  O2_15 
REMARK    6  A    between atoms: C14_21  and  C15_22 
REMARK    7  A    between atoms: C15_22  and  C16_23 
REMARK    8  A    between atoms: C16_23  and  C17_24 
REMARK    9  A    between atoms: C17_24  and  C19_26 
ROOT
HETATM    1  C3  UNL     1      -2.245  -1.569  -1.520  1.00  0.00     0.024 C 
HETATM    2  C4  UNL     1      -3.349  -0.606  -1.317  1.00  0.00     0.034 C 
HETATM    3  C5  UNL     1      -3.756  -0.706   0.116  1.00  0.00    -0.023 C 
HETATM    4  C6  UNL     1      -2.840  -0.852   0.995  1.00  0.00    -0.072 C 
HETATM    5  C7  UNL     1      -3.120  -0.950   2.442  1.00  0.00     0.066 C 
HETATM    6  C8  UNL     1      -2.584   0.383   3.012  1.00  0.00     0.128 C 
HETATM    7  C10 UNL     1      -1.342   0.880   2.401  1.00  0.00     0.033 C 
HETATM    8  C11 UNL     1      -1.091   0.624   0.931  1.00  0.00     0.016 C 
HETATM    9  C12 UNL     1      -1.373  -0.842   0.644  1.00  0.00    -0.017 C 
HETATM   10  C13 UNL     1      -0.711  -1.747   1.708  1.00  0.00     0.020 C 
HETATM   11  C14 UNL     1      -1.024  -1.396  -0.674  1.00  0.00     0.004 C 
ENDROOT
BRANCH  11  12
HETATM   12  C15 UNL     1       0.116  -0.773  -1.417  1.00  0.00     0.006 C 
BRANCH  12  13
HETATM   13  C16 UNL     1       1.429  -0.714  -0.672  1.00  0.00     0.005 C 
BRANCH  13  14
HETATM   14  C17 UNL     1       2.493  -0.041  -1.486  1.00  0.00    -0.014 C 
HETATM   15  C18 UNL     1       2.706  -0.820  -2.800  1.00  0.00     0.010 C 
BRANCH  14  16
HETATM   16  C19 UNL     1       3.832   0.099  -0.868  1.00  0.00     0.001 A 
HETATM   17  C20 UNL     1       4.773   0.755  -1.855  1.00  0.00     0.033 A 
HETATM   18  C21 UNL     1       5.424   1.838  -1.107  1.00  0.00    -0.023 A 
HETATM   19  C22 UNL     1       5.020   1.896   0.127  1.00  0.00    -0.079 A 
HETATM   20  C23 UNL     1       5.110   2.570   1.441  1.00  0.00     0.034 C 
HETATM   21  C26 UNL     1       4.002   0.806   0.391  1.00  0.00     0.019 A 
HETATM   22  C24 UNL     1       3.624   2.781   1.720  1.00  0.00     0.005 C 
HETATM   23  C25 UNL     1       2.906   1.647   0.948  1.00  0.00     0.010 C 
ENDBRANCH  14  16
ENDBRANCH  13  14
ENDBRANCH  12  13
ENDBRANCH  11  12
BRANCH   1  24
HETATM   24  C2  UNL     1      -1.938  -1.805  -2.995  1.00  0.00     0.184 C 
HETATM   25  C1  UNL     1      -3.214  -2.373  -3.633  1.00  0.00     0.040 C 
BRANCH  24  26
HETATM   26  N1  UNL     1      -1.715  -0.539  -3.666  1.00  0.00    -0.075 N 
ATOM     27  H13 UNL     1      -1.672  -0.612  -4.682  1.00  0.00     0.274 HD
ATOM     28  H12 UNL     1      -2.513   0.095  -3.628  1.00  0.00     0.274 HD
ATOM     29  H11 UNL     1      -0.867  -0.162  -3.242  1.00  0.00     0.274 HD
ENDBRANCH  24  26
ENDBRANCH   1  24
BRANCH   6  30
HETATM   30  O1  UNL     1      -3.598   1.325   2.844  1.00  0.00    -0.362 OA
BRANCH  30  31
HETATM   31  C9  UNL     1      -4.116   1.762   4.057  1.00  0.00     0.335 C 
BRANCH  31  32
HETATM   32  O2  UNL     1      -4.665   0.765   4.825  1.00  0.00    -0.377 OA
ATOM     33  H2  UNL     1      -5.019   1.064   5.654  1.00  0.00     0.212 HD
ENDBRANCH  31  32
ENDBRANCH  30  31
ENDBRANCH   6  30
TORSDOF 9
