REMARK  5 active torsions:
REMARK  status: ('A' for Active; 'I' for Inactive)
REMARK    1  A    between atoms: C3_3  and  O1_4 
REMARK    2  A    between atoms: C14_17  and  C15_18 
REMARK    3  A    between atoms: C15_18  and  C16_20 
REMARK    4  A    between atoms: C16_20  and  C17_22 
REMARK    5  A    between atoms: C17_22  and  N1_24 
ROOT
HETATM    1  C1  UNL     1      -7.073   0.595  -1.974  1.00  0.00     0.015 C 
HETATM    2  C2  UNL     1      -6.110   0.605  -1.248  1.00  0.00    -0.079 C 
HETATM    3  C3  UNL     1      -4.917   0.596  -0.367  1.00  0.00     0.120 C 
HETATM    4  C4  UNL     1      -3.721   0.658  -1.291  1.00  0.00     0.053 C 
HETATM    5  C5  UNL     1      -3.239  -0.761  -1.465  1.00  0.00     0.030 C 
HETATM    6  C6  UNL     1      -2.622  -1.299  -0.165  1.00  0.00     0.045 C 
HETATM    7 CL1  UNL     1      -2.351  -3.053  -0.507  1.00  0.00    -0.118 Cl
HETATM    8  C7  UNL     1      -3.584  -1.096   0.936  1.00  0.00     0.013 C 
HETATM    9  C8  UNL     1      -3.180  -0.268   2.085  1.00  0.00     0.007 C 
HETATM   10  C9  UNL     1      -1.879   0.445   1.987  1.00  0.00     0.006 C 
HETATM   11  C10 UNL     1      -0.863  -0.550   1.410  1.00  0.00    -0.004 C 
HETATM   12  C11 UNL     1       0.508  -0.025   1.584  1.00  0.00    -0.001 C 
HETATM   13  C12 UNL     1       0.652   1.441   1.250  1.00  0.00     0.006 C 
HETATM   14  C13 UNL     1       2.043   1.605   0.619  1.00  0.00     0.014 C 
HETATM   15  C14 UNL     1       2.694   0.284   0.929  1.00  0.00     0.072 C 
HETATM   16  C19 UNL     1       1.551  -0.670   0.693  1.00  0.00    -0.029 C 
HETATM   17  C20 UNL     1       1.924  -2.040   1.196  1.00  0.00     0.016 C 
HETATM   18  C21 UNL     1       1.104  -0.779  -0.724  1.00  0.00     0.011 C 
HETATM   19  C22 UNL     1      -0.241  -1.522  -0.718  1.00  0.00     0.007 C 
HETATM   20  C23 UNL     1      -1.287  -0.677  -0.037  1.00  0.00     0.014 C 
HETATM   21  C24 UNL     1      -4.971  -0.665   0.426  1.00  0.00     0.058 C 
ENDROOT
BRANCH   3  22
HETATM   22  O1  UNL     1      -5.008   1.753   0.404  1.00  0.00    -0.378 OA
ATOM     23  H1  UNL     1      -4.244   1.747   0.968  1.00  0.00     0.211 HD
ENDBRANCH   3  22
BRANCH  15  24
HETATM   24  C15 UNL     1       3.910   0.008   0.180  1.00  0.00     0.201 C 
HETATM   25  O2  UNL     1       4.049  -0.982  -0.605  1.00  0.00    -0.289 OA
BRANCH  24  26
HETATM   26  C16 UNL     1       5.045   0.893   0.314  1.00  0.00     0.225 C 
HETATM   27  O3  UNL     1       4.924   1.891   1.109  1.00  0.00    -0.287 OA
BRANCH  26  28
HETATM   28  C17 UNL     1       6.343   0.748  -0.391  1.00  0.00     0.256 C 
HETATM   29  C18 UNL     1       6.649   2.069  -1.118  1.00  0.00     0.048 C 
BRANCH  28  30
HETATM   30  N1  UNL     1       6.450  -0.357  -1.263  1.00  0.00    -0.068 N 
ATOM     31  H13 UNL     1       6.230  -1.217  -0.761  1.00  0.00     0.275 HD
ATOM     32  H12 UNL     1       5.687  -0.340  -1.940  1.00  0.00     0.275 HD
ATOM     33  H11 UNL     1       7.342  -0.457  -1.748  1.00  0.00     0.275 HD
ENDBRANCH  28  30
ENDBRANCH  26  28
ENDBRANCH  24  26
ENDBRANCH  15  24
TORSDOF 5
