REMARK  5 active torsions:
REMARK  status: ('A' for Active; 'I' for Inactive)
REMARK    1  A    between atoms: C3_3  and  C4_4 
REMARK    2  A    between atoms: C13_14  and  O2_15 
REMARK    3  A    between atoms: C22_25  and  O3_26 
REMARK    4  A    between atoms: C22_25  and  C23_28 
REMARK    5  A    between atoms: C23_28  and  C24_30 
ROOT
HETATM    1  C4  UNL     1      -2.793  -0.253   0.235  1.00  0.00     0.051 C 
HETATM    2  C5  UNL     1      -1.866  -0.937  -0.737  1.00  0.00     0.018 C 
HETATM    3  C6  UNL     1      -0.902   0.106  -1.224  1.00  0.00     0.002 C 
HETATM    4  C7  UNL     1       0.517  -0.185  -1.064  1.00  0.00    -0.005 C 
HETATM    5  C8  UNL     1       0.957  -1.510  -1.642  1.00  0.00     0.006 C 
HETATM    6  C9  UNL     1       2.437  -1.402  -1.868  1.00  0.00     0.013 C 
HETATM    7  C10 UNL     1       3.210  -0.937  -0.670  1.00  0.00     0.064 C 
HETATM    8  C11 UNL     1       4.105   0.207  -0.963  1.00  0.00     0.134 C 
HETATM    9  O1  UNL     1       3.959   0.864  -1.950  1.00  0.00    -0.297 OA
HETATM   10  C12 UNL     1       5.187   0.509   0.005  1.00  0.00     0.110 C 
HETATM   11  C13 UNL     1       4.692   0.060   1.365  1.00  0.00     0.126 C 
HETATM   12  C14 UNL     1       3.209   0.343   1.396  1.00  0.00     0.042 C 
HETATM   13  C15 UNL     1       2.410  -0.632   0.542  1.00  0.00    -0.027 C 
HETATM   14  C16 UNL     1       2.336  -1.926   1.369  1.00  0.00     0.016 C 
HETATM   15  C17 UNL     1       1.042  -0.113   0.338  1.00  0.00    -0.001 C 
HETATM   16  C18 UNL     1       0.876   1.365   0.720  1.00  0.00     0.007 C 
HETATM   17  C19 UNL     1      -0.615   1.652   0.732  1.00  0.00     0.013 C 
HETATM   18  C20 UNL     1      -1.318   1.370  -0.538  1.00  0.00    -0.001 C 
HETATM   19  C21 UNL     1      -1.171   2.567  -1.494  1.00  0.00     0.019 C 
HETATM   20  C22 UNL     1      -2.801   1.140  -0.386  1.00  0.00     0.133 C 
ENDROOT
BRANCH  20  21
HETATM   21  O3  UNL     1      -3.258   0.950  -1.716  1.00  0.00    -0.381 OA
ATOM     22  H3  UNL     1      -3.263   1.818  -2.103  1.00  0.00     0.211 HD
ENDBRANCH  20  21
BRANCH  20  23
HETATM   23  C23 UNL     1      -3.576   2.139   0.313  1.00  0.00     0.176 C 
HETATM   24  O4  UNL     1      -4.406   2.764  -0.393  1.00  0.00    -0.293 OA
BRANCH  23  25
HETATM   25  C24 UNL     1      -3.539   2.526   1.724  1.00  0.00     0.196 C 
HETATM   26 CL1  UNL     1      -4.769   3.797   2.012  1.00  0.00    -0.122 Cl
ENDBRANCH  23  25
ENDBRANCH  20  23
BRANCH   1  27
HETATM   27  C3  UNL     1      -4.151  -0.782   0.348  1.00  0.00    -0.023 C 
HETATM   28  C2  UNL     1      -4.742  -1.848  -0.092  1.00  0.00    -0.034 C 
HETATM   29  C1  UNL     1      -4.202  -2.958  -0.906  1.00  0.00     0.036 C 
ENDBRANCH   1  27
BRANCH  11  30
HETATM   30  O2  UNL     1       5.031  -1.220   1.689  1.00  0.00    -0.395 OA
ATOM     31  H2  UNL     1       4.721  -1.501   2.542  1.00  0.00     0.210 HD
ENDBRANCH  11  30
TORSDOF 5
