REMARK  4 active torsions:
REMARK  status: ('A' for Active; 'I' for Inactive)
REMARK    1  A    between atoms: C2_2  and  C3_3 
REMARK    2  A    between atoms: C11_13  and  O3_14 
REMARK    3  A    between atoms: C11_13  and  C12_16 
REMARK    4  A    between atoms: C16_20  and  C17_21 
ROOT
HETATM    1  C3  UNL     1      -1.661   1.108   0.216  1.00  0.00     0.062 C 
HETATM    2  C4  UNL     1      -2.273   1.836  -0.908  1.00  0.00     0.046 C 
HETATM    3  O1  UNL     1      -0.442   1.685   0.481  1.00  0.00    -0.374 OA
HETATM    4  C5  UNL     1       0.551   0.961  -0.150  1.00  0.00     0.138 C 
HETATM    5  C6  UNL     1      -0.171  -0.189  -0.908  1.00  0.00     0.058 C 
HETATM    6  C7  UNL     1       0.762  -1.257  -1.194  1.00  0.00    -0.018 A 
HETATM    7  C8  UNL     1       0.809  -2.252  -2.144  1.00  0.00     0.149 A 
HETATM    8  O2  UNL     1       1.876  -2.980  -2.030  1.00  0.00    -0.334 OA
HETATM    9  C9  UNL     1       2.583  -2.543  -1.043  1.00  0.00     0.152 A 
HETATM   10  C10 UNL     1       1.941  -1.462  -0.475  1.00  0.00     0.007 A 
HETATM   11  C11 UNL     1       2.374  -0.619   0.658  1.00  0.00     0.092 C 
HETATM   12  C14 UNL     1       1.435   0.464   0.946  1.00  0.00     0.050 C 
HETATM   13  C15 UNL     1       2.165   1.679   1.495  1.00  0.00     0.016 C 
HETATM   14  C16 UNL     1      -1.307  -0.353  -0.007  1.00  0.00     0.034 C 
ENDROOT
BRANCH  11  15
HETATM   15  O3  UNL     1       2.394  -1.499   1.774  1.00  0.00    -0.384 OA
ATOM     16  H3  UNL     1       2.672  -0.957   2.503  1.00  0.00     0.211 HD
ENDBRANCH  11  15
BRANCH  11  17
HETATM   17  C12 UNL     1       3.834  -0.219   0.508  1.00  0.00     0.039 C 
HETATM   18  C13 UNL     1       4.134   0.554  -0.729  1.00  0.00     0.008 C 
ENDBRANCH  11  17
BRANCH  14  19
HETATM   19  C17 UNL     1      -2.441  -1.222  -0.256  1.00  0.00    -0.015 C 
HETATM   20  C18 UNL     1      -2.018  -2.668  -0.410  1.00  0.00     0.010 C 
HETATM   21  C19 UNL     1      -3.437  -0.841  -1.315  1.00  0.00     0.010 C 
ENDBRANCH  14  19
BRANCH   1  22
HETATM   22  C2  UNL     1      -2.540   1.265   1.440  1.00  0.00     0.033 C 
HETATM   23  C1  UNL     1      -2.656   2.734   1.777  1.00  0.00     0.008 C 
ENDBRANCH   1  22
TORSDOF 4
