REMARK  2 active torsions:
REMARK  status: ('A' for Active; 'I' for Inactive)
REMARK    1  A    between atoms: C4_4  and  C5_5 
REMARK    2  A    between atoms: C7_7  and  C8_8 
ROOT
HETATM    1  C5  UNL     1      -0.432   0.028  -0.515  1.00  0.00    -0.009 C 
HETATM    2  C6  UNL     1      -0.089   0.762  -1.810  1.00  0.00     0.021 C 
HETATM    3  C7  UNL     1      -0.573   0.998   0.577  1.00  0.00     0.038 C 
HETATM    4  C12 UNL     1       0.852   1.590   0.713  1.00  0.00     0.082 C 
HETATM    5  C13 UNL     1       1.766   0.615   0.113  1.00  0.00     0.206 C 
HETATM    6  O1  UNL     1       2.446   1.022  -1.001  1.00  0.00    -0.197 OA
HETATM    7  O2  UNL     1       3.699   0.663  -0.923  1.00  0.00    -0.198 OA
HETATM    8  C14 UNL     1       3.593  -0.465  -0.090  1.00  0.00     0.197 C 
HETATM    9  C15 UNL     1       4.906  -0.860   0.503  1.00  0.00     0.082 C 
HETATM   10  C16 UNL     1       2.999  -1.552  -0.872  1.00  0.00     0.072 C 
HETATM   11  C17 UNL     1       1.484  -1.633  -0.923  1.00  0.00     0.016 C 
HETATM   12  C18 UNL     1       0.876  -0.614  -0.080  1.00  0.00     0.064 C 
HETATM   13  O3  UNL     1       2.786   0.105   0.920  1.00  0.00    -0.313 OA
ENDROOT
BRANCH   3  14
HETATM   14  C8  UNL     1      -1.515   2.104   0.500  1.00  0.00    -0.036 A 
HETATM   15  C9  UNL     1      -2.201   2.590   1.632  1.00  0.00     0.026 A 
HETATM   16  C10 UNL     1      -3.019   3.616   1.262  1.00  0.00     0.088 A 
HETATM   17  N1  UNL     1      -2.864   3.779  -0.046  1.00  0.00    -0.375 N 
HETATM   18  C11 UNL     1      -1.969   2.887  -0.531  1.00  0.00     0.095 A 
ATOM     19  H1  UNL     1      -3.351   4.478  -0.607  1.00  0.00     0.164 HD
ENDBRANCH   3  14
BRANCH   1  20
HETATM   20  C4  UNL     1      -1.495  -0.888  -0.853  1.00  0.00    -0.014 C 
HETATM   21  C2  UNL     1      -2.201  -1.806   0.005  1.00  0.00    -0.091 C 
HETATM   22  C1  UNL     1      -2.970  -1.197   1.185  1.00  0.00     0.042 C 
HETATM   23  C3  UNL     1      -1.594  -3.093   0.438  1.00  0.00     0.042 C 
ENDBRANCH   1  20
TORSDOF 2
