REMARK  3 active torsions:
REMARK  status: ('A' for Active; 'I' for Inactive)
REMARK       I    between atoms: C1_2  and  N1_3 
REMARK    1  A    between atoms: C1_2  and  C15_21 
REMARK    2  A    between atoms: N1_3  and  C2_5 
REMARK    3  A    between atoms: C3_8  and  C4_9 
ROOT
HETATM    1  C2  UNL     1       1.672  -0.106   0.263  1.00  0.00     0.151 A 
HETATM    2  N2  UNL     1       0.410   0.091  -0.053  1.00  0.00    -0.339 N 
ATOM      3  H2  UNL     1       0.160   0.766  -0.776  1.00  0.00     0.168 HD
HETATM    4  C3  UNL     1      -0.512  -0.580   0.562  1.00  0.00     0.026 A 
HETATM    5  C14 UNL     1      -0.120  -1.476   1.525  1.00  0.00     0.079 A 
HETATM    6  S1  UNL     1       1.583  -1.290   1.480  1.00  0.00    -0.064 SA
ENDROOT
BRANCH   4   7
HETATM    7  C4  UNL     1      -1.980  -0.337   0.275  1.00  0.00     0.004 C 
HETATM    8  C5  UNL     1      -2.266   1.149   0.402  1.00  0.00     0.020 C 
HETATM    9  C6  UNL     1      -3.707   1.375   0.081  1.00  0.00    -0.013 C 
HETATM   10  C7  UNL     1      -4.614   0.589   1.028  1.00  0.00     0.009 C 
HETATM   11  C11 UNL     1      -4.052   0.929  -1.326  1.00  0.00     0.009 C 
HETATM   12  C8  UNL     1      -4.281  -0.881   0.916  1.00  0.00    -0.013 C 
HETATM   13  C9  UNL     1      -4.495  -1.368  -0.499  1.00  0.00     0.009 C 
HETATM   14  C13 UNL     1      -2.823  -1.069   1.261  1.00  0.00     0.020 C 
HETATM   15  C10 UNL     1      -3.712  -0.527  -1.478  1.00  0.00    -0.013 C 
HETATM   16  C12 UNL     1      -2.240  -0.723  -1.159  1.00  0.00     0.020 C 
ENDBRANCH   4   7
BRANCH   1  17
HETATM   17  N1  UNL     1       2.844   0.526  -0.285  1.00  0.00    -0.307 N 
HETATM   18  C1  UNL     1       4.123   0.246   0.240  1.00  0.00     0.227 C 
HETATM   19  O1  UNL     1       4.231  -0.560   1.195  1.00  0.00    -0.273 OA
ATOM     20  H1  UNL     1       2.749   1.182  -1.060  1.00  0.00     0.171 HD
BRANCH  18  21
HETATM   21  C15 UNL     1       5.298   0.900  -0.331  1.00  0.00     0.078 C 
HETATM   22  C16 UNL     1       6.488   1.049   0.644  1.00  0.00     0.014 C 
HETATM   23  C17 UNL     1       7.365   0.868  -0.568  1.00  0.00     0.002 C 
HETATM   24  C18 UNL     1       6.248  -0.046  -1.105  1.00  0.00     0.014 C 
ENDBRANCH  18  21
ENDBRANCH   1  17
TORSDOF 3
