REMARK  20 active torsions:
REMARK  status: ('A' for Active; 'I' for Inactive)
REMARK    1  A    between atoms: C2_2  and  C3_3 
REMARK    2  A    between atoms: C3_3  and  C4_4 
REMARK    3  A    between atoms: C4_4  and  C5_5 
REMARK    4  A    between atoms: C5_5  and  N1_6 
REMARK    5  A    between atoms: C5_5  and  C20_29 
REMARK    6  A    between atoms: N1_6  and  C6_8 
REMARK    7  A    between atoms: C6_8  and  C7_9 
REMARK    8  A    between atoms: C6_8  and  C15_22 
REMARK    9  A    between atoms: C7_9  and  O1_10 
REMARK   10  A    between atoms: C7_9  and  N2_12 
REMARK       I    between atoms: N2_12  and  C8_14 
REMARK   11  A    between atoms: C8_14  and  C9_16 
REMARK   12  A    between atoms: C9_16  and  C10_17 
REMARK   13  A    between atoms: C9_16  and  C12_19 
REMARK   14  A    between atoms: C15_22  and  O4_24 
REMARK   15  A    between atoms: O4_24  and  C16_25 
REMARK       I    between atoms: C20_29  and  N3_31 
REMARK   16  A    between atoms: C23_34  and  C24_35 
REMARK       I    between atoms: C24_35  and  N4_37 
REMARK   17  A    between atoms: N4_37  and  C25_39 
REMARK   18  A    between atoms: C25_39  and  C26_40 
REMARK   19  A    between atoms: C25_39  and  C28_44 
REMARK   20  A    between atoms: C26_40  and  O8_42 
ROOT
HETATM    1  C5  UNL     1      -0.459  -1.842   1.272  1.00  0.00     0.170 C 
ENDROOT
BRANCH   1   2
HETATM    2  C4  UNL     1      -0.536  -3.083   0.356  1.00  0.00     0.034 C 
BRANCH   2   3
HETATM    3  C3  UNL     1       0.829  -3.567   0.010  1.00  0.00     0.002 C 
BRANCH   3   4
HETATM    4  C2  UNL     1       1.542  -4.155   1.227  1.00  0.00    -0.004 C 
HETATM    5  C1  UNL     1       0.700  -5.347   1.701  1.00  0.00     0.005 C 
ENDBRANCH   3   4
ENDBRANCH   2   3
ENDBRANCH   1   2
BRANCH   1   6
HETATM    6  N1  UNL     1      -1.770  -1.444   1.619  1.00  0.00    -0.390 N 
ATOM      7  H1  UNL     1      -2.012  -1.474   2.609  1.00  0.00     0.155 HD
BRANCH   6   8
HETATM    8  C6  UNL     1      -2.762  -1.016   0.745  1.00  0.00     0.254 C 
BRANCH   8   9
HETATM    9  C7  UNL     1      -3.637  -0.053   1.519  1.00  0.00     0.151 C 
BRANCH   9  10
HETATM   10  O1  UNL     1      -3.581  -0.230   2.806  1.00  0.00    -0.347 OA
ATOM     11  H1  UNL     1      -4.130   0.374   3.292  1.00  0.00     0.219 HD
ENDBRANCH   9  10
BRANCH   9  12
HETATM   12  N2  UNL     1      -4.460   0.949   1.084  1.00  0.00    -0.309 N 
HETATM   13  C8  UNL     1      -4.680   1.444  -0.195  1.00  0.00     0.228 C 
HETATM   14  O2  UNL     1      -4.064   1.028  -1.188  1.00  0.00    -0.273 OA
ATOM     15  H2  UNL     1      -5.000   1.407   1.818  1.00  0.00     0.170 HD
BRANCH  13  16
HETATM   16  C9  UNL     1      -5.692   2.527  -0.468  1.00  0.00     0.081 C 
BRANCH  16  17
HETATM   17  C10 UNL     1      -7.083   1.953  -0.431  1.00  0.00     0.010 C 
HETATM   18  C11 UNL     1      -7.483   1.337   0.872  1.00  0.00     0.006 C 
ENDBRANCH  16  17
BRANCH  16  19
HETATM   19  C12 UNL     1      -5.440   3.099  -1.829  1.00  0.00    -0.010 C 
HETATM   20  C13 UNL     1      -6.450   4.193  -2.160  1.00  0.00     0.010 C 
HETATM   21  C14 UNL     1      -4.077   3.783  -1.853  1.00  0.00     0.010 C 
ENDBRANCH  16  19
ENDBRANCH  13  16
ENDBRANCH   9  12
ENDBRANCH   8   9
BRANCH   8  22
HETATM   22  C15 UNL     1      -3.762  -2.157   0.479  1.00  0.00     0.290 C 
HETATM   23  O3  UNL     1      -3.634  -3.228   1.101  1.00  0.00    -0.262 OA
BRANCH  22  24
HETATM   24  O4  UNL     1      -4.770  -2.023  -0.414  1.00  0.00    -0.309 OA
BRANCH  24  25
HETATM   25  C16 UNL     1      -5.722  -3.024  -0.721  1.00  0.00     0.060 C 
HETATM   26  C17 UNL     1      -6.531  -3.450   0.473  1.00  0.00     0.045 C 
HETATM   27  C18 UNL     1      -5.036  -4.242  -1.342  1.00  0.00     0.045 C 
HETATM   28  C19 UNL     1      -6.669  -2.482  -1.769  1.00  0.00     0.045 C 
ENDBRANCH  24  25
ENDBRANCH  22  24
ENDBRANCH   8  22
ENDBRANCH   6   8
ENDBRANCH   1   6
BRANCH   1  29
HETATM   29  C20 UNL     1       0.274  -0.771   0.506  1.00  0.00     0.243 C 
HETATM   30  O5  UNL     1      -0.324  -0.305  -0.489  1.00  0.00    -0.271 OA
HETATM   31  N3  UNL     1       1.546  -0.246   0.794  1.00  0.00    -0.340 N 
HETATM   32  C21 UNL     1       2.339  -0.450   1.988  1.00  0.00     0.127 C 
HETATM   33  C31 UNL     1       2.368   0.614  -0.076  1.00  0.00     0.047 C 
HETATM   34  C22 UNL     1       3.721   0.108   1.738  1.00  0.00     0.036 C 
HETATM   35  C23 UNL     1       3.755   0.115   0.213  1.00  0.00     0.107 C 
HETATM   36  C32 UNL     1       2.030   0.474  -1.538  1.00  0.00     0.032 C 
HETATM   37  C35 UNL     1       2.110   2.029   0.307  1.00  0.00     0.032 C 
HETATM   38  C33 UNL     1       1.427   1.763  -1.995  1.00  0.00     0.002 C 
HETATM   39  C34 UNL     1       1.363   2.682  -0.804  1.00  0.00     0.002 C 
BRANCH  35  40
HETATM   40  C24 UNL     1       4.862   0.908  -0.308  1.00  0.00     0.225 C 
HETATM   41  O6  UNL     1       4.674   1.831  -1.120  1.00  0.00    -0.273 OA
HETATM   42  N4  UNL     1       6.221   0.660   0.092  1.00  0.00    -0.346 N 
ATOM     43  H4  UNL     1       6.411  -0.087   0.760  1.00  0.00     0.163 HD
BRANCH  42  44
HETATM   44  C25 UNL     1       7.310   1.424  -0.415  1.00  0.00     0.187 C 
BRANCH  44  45
HETATM   45  C26 UNL     1       8.415   0.598  -0.964  1.00  0.00     0.281 C 
HETATM   46  O7  UNL     1       8.376  -0.643  -0.987  1.00  0.00    -0.263 OA
BRANCH  45  47
HETATM   47  O8  UNL     1       9.558   1.239  -1.480  1.00  0.00    -0.325 OA
HETATM   48  C27 UNL     1      10.620   0.499  -2.002  1.00  0.00     0.213 C 
ENDBRANCH  45  47
ENDBRANCH  44  45
BRANCH  44  49
HETATM   49  C28 UNL     1       7.897   2.375   0.609  1.00  0.00     0.010 C 
HETATM   50  C29 UNL     1       8.421   1.697   1.829  1.00  0.00     0.012 C 
HETATM   51  C30 UNL     1       6.894   3.461   0.953  1.00  0.00     0.012 C 
ENDBRANCH  44  49
ENDBRANCH  42  44
ENDBRANCH  35  40
ENDBRANCH   1  29
TORSDOF 20
