REMARK  5 active torsions:
REMARK  status: ('A' for Active; 'I' for Inactive)
REMARK    1  A    between atoms: C2_2  and  C3_4 
REMARK    2  A    between atoms: C3_4  and  N1_7 
REMARK       I    between atoms: N1_7  and  C6_9 
REMARK    3  A    between atoms: C6_9  and  C7_11 
REMARK    4  A    between atoms: C12_16  and  C13_17 
REMARK    5  A    between atoms: C13_17  and  C14_19 
ROOT
HETATM    1  C7  UNL     1       0.228  -1.389   0.367  1.00  0.00     0.089 C 
HETATM    2  C8  UNL     1       1.184  -2.592   0.362  1.00  0.00     0.015 C 
HETATM    3  C9  UNL     1       0.541  -3.854  -0.095  1.00  0.00     0.001 C 
HETATM    4  C10 UNL     1      -0.816  -3.571  -0.643  1.00  0.00     0.001 C 
HETATM    5  C11 UNL     1      -0.695  -2.461  -1.681  1.00  0.00     0.013 C 
HETATM    6  C12 UNL     1      -0.326  -1.146  -0.994  1.00  0.00     0.069 C 
ENDROOT
BRANCH   1   7
HETATM    7  C6  UNL     1       1.077  -0.235   0.756  1.00  0.00     0.223 C 
HETATM    8  N1  UNL     1       2.174   0.164  -0.029  1.00  0.00    -0.345 N 
ATOM      9  H1  UNL     1       2.382  -0.356  -0.881  1.00  0.00     0.163 HD
HETATM   10  O2  UNL     1       0.818   0.400   1.804  1.00  0.00    -0.273 OA
BRANCH   8  11
HETATM   11  C3  UNL     1       3.020   1.287   0.327  1.00  0.00     0.086 C 
HETATM   12  C4  UNL     1       3.727   1.054   1.653  1.00  0.00     0.046 C 
HETATM   13  C5  UNL     1       2.224   2.570   0.377  1.00  0.00     0.046 C 
BRANCH  11  14
HETATM   14  C2  UNL     1       4.085   1.451  -0.699  1.00  0.00     0.150 C 
HETATM   15  C1  UNL     1       5.111   2.523  -0.610  1.00  0.00     0.093 C 
HETATM   16  O1  UNL     1       4.150   0.701  -1.658  1.00  0.00    -0.296 OA
ENDBRANCH  11  14
ENDBRANCH   8  11
ENDBRANCH   1   7
BRANCH   6  17
HETATM   17  C13 UNL     1      -1.416  -0.192  -1.014  1.00  0.00     0.136 C 
HETATM   18  O3  UNL     1      -1.160   0.895  -1.605  1.00  0.00    -0.297 OA
BRANCH  17  19
HETATM   19  C14 UNL     1      -2.767  -0.268  -0.466  1.00  0.00     0.056 C 
HETATM   20  C15 UNL     1      -2.832  -0.343   1.018  1.00  0.00     0.012 C 
HETATM   21  C16 UNL     1      -4.116   0.324   1.549  1.00  0.00     0.001 C 
HETATM   22  C17 UNL     1      -4.078   1.811   1.362  1.00  0.00     0.000 C 
HETATM   23  C18 UNL     1      -3.319   2.094   0.083  1.00  0.00     0.001 C 
HETATM   24  C19 UNL     1      -3.621   0.951  -0.867  1.00  0.00     0.012 C 
ENDBRANCH  17  19
ENDBRANCH   6  17
TORSDOF 5
