REMARK  6 active torsions:
REMARK  status: ('A' for Active; 'I' for Inactive)
REMARK    1  A    between atoms: O1_2  and  C2_3 
REMARK    2  A    between atoms: C2_3  and  C3_4 
REMARK    3  A    between atoms: C3_4  and  O2_5 
REMARK    4  A    between atoms: O2_5  and  C4_6 
REMARK    5  A    between atoms: C20_22  and  C21_23 
REMARK    6  A    between atoms: C21_23  and  O3_24 
ROOT
HETATM    1  C4  UNL     1       1.644  -0.691   0.613  1.00  0.00     0.132 C 
HETATM    2  C5  UNL     1       1.459  -0.470   2.113  1.00  0.00     0.023 C 
HETATM    3  C6  UNL     1       1.028  -1.775   2.737  1.00  0.00     0.013 C 
HETATM    4  C7  UNL     1      -0.381  -1.394   2.261  1.00  0.00    -0.000 C 
HETATM    5  C8  UNL     1       0.123   0.052   2.391  1.00  0.00     0.019 C 
HETATM    6  C9  UNL     1      -0.660   0.932   1.556  1.00  0.00    -0.017 C 
HETATM    7  C10 UNL     1      -1.460   0.585   0.568  1.00  0.00    -0.067 C 
HETATM    8  C11 UNL     1      -2.225   1.601  -0.203  1.00  0.00    -0.024 C 
HETATM    9  C12 UNL     1      -1.840   1.845  -1.596  1.00  0.00     0.019 C 
HETATM   10  C13 UNL     1      -2.156   2.965   0.516  1.00  0.00     0.019 C 
HETATM   11  C14 UNL     1      -3.685   1.157  -0.076  1.00  0.00     0.013 C 
HETATM   12  C15 UNL     1      -3.907   0.073   0.920  1.00  0.00     0.002 C 
HETATM   13  C16 UNL     1      -3.072  -1.159   0.826  1.00  0.00     0.014 C 
HETATM   14  C17 UNL     1      -1.678  -0.844   0.214  1.00  0.00    -0.016 C 
HETATM   15  C18 UNL     1      -1.920  -1.138  -1.240  1.00  0.00     0.020 C 
HETATM   16  C19 UNL     1      -0.635  -1.688   0.826  1.00  0.00     0.011 C 
HETATM   17  C20 UNL     1       0.694  -1.751   0.159  1.00  0.00     0.044 C 
ENDROOT
BRANCH   1  18
HETATM   18  O2  UNL     1       2.930  -0.789   0.253  1.00  0.00    -0.383 OA
BRANCH  18  19
HETATM   19  C3  UNL     1       3.631   0.227  -0.261  1.00  0.00     0.194 C 
BRANCH  19  20
HETATM   20  C2  UNL     1       3.150   0.899  -1.512  1.00  0.00     0.193 C 
BRANCH  20  21
HETATM   21  O1  UNL     1       3.946   1.940  -1.955  1.00  0.00    -0.394 OA
HETATM   22  C1  UNL     1       5.240   1.607  -2.263  1.00  0.00     0.201 C 
ENDBRANCH  20  21
ENDBRANCH  19  20
ENDBRANCH  18  19
ENDBRANCH   1  18
BRANCH  17  23
HETATM   23  C21 UNL     1       0.860  -2.014  -1.265  1.00  0.00     0.171 C 
BRANCH  23  24
HETATM   24  O3  UNL     1       2.214  -2.487  -1.427  1.00  0.00    -0.400 OA
ATOM     25  H3  UNL     1       2.322  -2.658  -2.355  1.00  0.00     0.209 HD
ENDBRANCH  23  24
ENDBRANCH  17  23
TORSDOF 6
