REMARK  5 active torsions:
REMARK  status: ('A' for Active; 'I' for Inactive)
REMARK    1  A    between atoms: C2_2  and  O1_3 
REMARK    2  A    between atoms: O1_3  and  C3_4 
REMARK    3  A    between atoms: C3_4  and  C4_6 
REMARK    4  A    between atoms: C9_16  and  C10_17 
REMARK       I    between atoms: N3_18  and  C11_20 
REMARK    5  A    between atoms: C11_20  and  O4_22 
ROOT
HETATM    1  C4  UNL     1      -2.006  -0.405   0.876  1.00  0.00     0.081 A 
HETATM    2  C5  UNL     1      -2.355  -0.181   2.192  1.00  0.00     0.106 A 
HETATM    3  N1  UNL     1      -3.675   0.003   2.748  1.00  0.00    -0.093 NA
HETATM    4  S1  UNL     1      -0.848  -0.174   2.994  1.00  0.00    -0.056 SA
HETATM    5  C6  UNL     1       0.170  -0.451   1.665  1.00  0.00     0.082 A 
HETATM    6  C7  UNL     1      -0.697  -0.545   0.606  1.00  0.00     0.020 A 
HETATM    7  C8  UNL     1       0.064  -0.798  -0.680  1.00  0.00     0.277 C 
HETATM    8  N2  UNL     1       1.069  -1.826  -0.515  1.00  0.00    -0.046 N 
ATOM      9  H21 UNL     1       1.431  -2.139  -1.416  1.00  0.00     0.280 HD
ATOM     10  H22 UNL     1       0.655  -2.702  -0.196  1.00  0.00     0.280 HD
HETATM   11  C9  UNL     1       2.144  -1.397   0.367  1.00  0.00     0.324 C 
HETATM   12  N4  UNL     1       1.589  -0.591   1.435  1.00  0.00    -0.352 N 
ATOM     13  H4  UNL     1       2.232  -0.098   2.055  1.00  0.00     0.162 HD
ENDROOT
BRANCH  11  14
HETATM   14  C10 UNL     1       3.209  -0.701  -0.366  1.00  0.00     0.120 C 
HETATM   15  N3  UNL     1       3.869   0.240   0.209  1.00  0.00    -0.313 N 
HETATM   16  C11 UNL     1       4.913   0.962  -0.433  1.00  0.00     0.363 C 
ATOM     17  H3  UNL     1       3.633   0.481   1.172  1.00  0.00     0.170 HD
HETATM   18  O3  UNL     1       4.893   1.052  -1.687  1.00  0.00    -0.238 OA
BRANCH  16  19
HETATM   19  O4  UNL     1       5.942   1.565   0.267  1.00  0.00    -0.309 OA
HETATM   20  C12 UNL     1       6.992   2.291  -0.379  1.00  0.00     0.215 C 
ENDBRANCH  16  19
ENDBRANCH  11  14
BRANCH   1  21
HETATM   21  C3  UNL     1      -3.085  -0.471  -0.140  1.00  0.00     0.296 C 
HETATM   22  O2  UNL     1      -2.828  -0.669  -1.339  1.00  0.00    -0.259 OA
BRANCH  21  23
HETATM   23  O1  UNL     1      -4.424  -0.316   0.198  1.00  0.00    -0.318 OA
BRANCH  23  24
HETATM   24  C2  UNL     1      -5.421  -0.386  -0.804  1.00  0.00     0.174 C 
HETATM   25  C1  UNL     1      -5.116   0.721  -1.799  1.00  0.00     0.034 C 
ENDBRANCH  23  24
ENDBRANCH  21  23
ENDBRANCH   1  21
TORSDOF 5
