REMARK  6 active torsions:
REMARK  status: ('A' for Active; 'I' for Inactive)
REMARK    1  A    between atoms: N1_1  and  C1_4 
REMARK    2  A    between atoms: C6_16  and  O2_17 
REMARK    3  A    between atoms: C6_16  and  C7_19 
REMARK    4  A    between atoms: C7_19  and  N5_20 
REMARK    5  A    between atoms: N5_20  and  C8_22 
REMARK    6  A    between atoms: N8_30  and  C12_31 
ROOT
HETATM    1  C1  UNL     1      -5.616  -0.501  -0.242  1.00  0.00     0.129 A 
HETATM    2  N2  UNL     1      -5.765   0.805  -0.527  1.00  0.00    -0.337 N 
ATOM      3  H2  UNL     1      -6.683   1.140  -0.820  1.00  0.00     0.168 HD
HETATM    4  C2  UNL     1      -4.756   1.687  -0.442  1.00  0.00     0.182 A 
HETATM    5  N3  UNL     1      -3.546   1.261  -0.063  1.00  0.00    -0.350 N 
ATOM      6  H3  UNL     1      -2.774   1.924   0.003  1.00  0.00     0.166 HD
HETATM    7  C3  UNL     1      -3.334  -0.064   0.239  1.00  0.00     0.090 A 
HETATM    8  C4  UNL     1      -4.367  -0.961   0.156  1.00  0.00     0.105 A 
HETATM    9  N4  UNL     1      -3.921  -2.274   0.531  1.00  0.00    -0.319 N 
ATOM     10  H4  UNL     1      -4.493  -3.119   0.553  1.00  0.00     0.169 HD
HETATM   11  C5  UNL     1      -2.575  -2.190   0.858  1.00  0.00     0.268 A 
HETATM   12  O1  UNL     1      -1.837  -3.114   1.268  1.00  0.00    -0.269 OA
HETATM   13  C6  UNL     1      -2.102  -0.782   0.642  1.00  0.00     0.216 A 
ENDROOT
BRANCH  13  14
HETATM   14  O2  UNL     1      -1.614  -0.262   1.807  1.00  0.00    -0.370 OA
ATOM     15  H2  UNL     1      -0.824  -0.722   2.065  1.00  0.00     0.212 HD
ENDBRANCH  13  14
BRANCH  13  16
HETATM   16  C7  UNL     1      -1.129  -0.872  -0.503  1.00  0.00     0.110 C 
BRANCH  16  17
HETATM   17  N5  UNL     1      -0.486   0.285  -0.948  1.00  0.00    -0.394 N 
ATOM     18  H5  UNL     1      -0.739   0.747  -1.822  1.00  0.00     0.159 HD
BRANCH  17  19
HETATM   19  C8  UNL     1       0.563   0.784  -0.086  1.00  0.00     0.086 C 
HETATM   20  C9  UNL     1       0.626   2.257  -0.174  1.00  0.00     0.031 C 
HETATM   21  C10 UNL     1       1.927   2.833  -0.660  1.00  0.00     0.063 C 
HETATM   22  C11 UNL     1       3.079   2.129  -0.077  1.00  0.00     0.051 A 
HETATM   23  N6  UNL     1       4.271   2.466   0.476  1.00  0.00    -0.288 N 
HETATM   24  C15 UNL     1       3.039   0.759  -0.036  1.00  0.00     0.056 A 
HETATM   25  N7  UNL     1       4.902   1.349   0.823  1.00  0.00    -0.240 N 
ATOM     26  H6  UNL     1       4.623   3.415   0.604  1.00  0.00     0.188 HD
HETATM   27  N8  UNL     1       4.197   0.291   0.533  1.00  0.00    -0.275 N 
ATOM     28  H7  UNL     1       5.823   1.323   1.261  1.00  0.00     0.208 HD
HETATM   29  C16 UNL     1       1.848   0.078  -0.573  1.00  0.00     0.086 C 
BRANCH  27  30
HETATM   30  C12 UNL     1       4.402  -1.130   0.683  1.00  0.00     0.109 A 
HETATM   31  C13 UNL     1       5.403  -1.797  -0.190  1.00  0.00     0.029 A 
HETATM   32  C14 UNL     1       5.738  -1.579   1.235  1.00  0.00     0.029 A 
ENDBRANCH  27  30
ENDBRANCH  17  19
ENDBRANCH  16  17
ENDBRANCH  13  16
BRANCH   1  33
HETATM   33  N1  UNL     1      -6.608  -1.331  -0.329  1.00  0.00    -0.384 N 
ATOM     34  H12 UNL     1      -7.525  -0.993  -0.621  1.00  0.00     0.157 HD
ATOM     35  H11 UNL     1      -6.495  -2.321  -0.113  1.00  0.00     0.157 HD
ENDBRANCH   1  33
TORSDOF 6
