REMARK  5 active torsions:
REMARK  status: ('A' for Active; 'I' for Inactive)
REMARK    1  A    between atoms: C2_2  and  C4_4 
REMARK    2  A    between atoms: C5_7  and  S1_8 
REMARK    3  A    between atoms: S1_8  and  C6_9 
REMARK    4  A    between atoms: C9_20  and  S2_21 
REMARK    5  A    between atoms: S2_21  and  N5_22 
ROOT
HETATM    1  C6  UNL     1      -2.031   0.060  -0.871  1.00  0.00     0.122 A 
HETATM    2  N2  UNL     1      -2.119   1.383  -0.799  1.00  0.00    -0.184 N 
ATOM      3  H2  UNL     1      -1.251   1.913  -0.874  1.00  0.00     0.185 HD
HETATM    4  C7  UNL     1      -3.273   2.094  -0.633  1.00  0.00     0.679 A 
HETATM    5  N3  UNL     1      -3.309   3.298  -0.541  1.00  0.00    -0.234 N 
ATOM      6  H31 UNL     1      -4.171   3.829  -0.417  1.00  0.00     0.174 HD
ATOM      7  H32 UNL     1      -2.449   3.843  -0.608  1.00  0.00     0.174 HD
HETATM    8  N4  UNL     1      -4.440   1.355  -0.542  1.00  0.00    -0.155 N 
ATOM      9  H4  UNL     1      -5.328   1.841  -0.421  1.00  0.00     0.187 HD
HETATM   10  C8  UNL     1      -4.432   0.031  -0.608  1.00  0.00     0.285 A 
HETATM   11  O1  UNL     1      -5.537  -0.622  -0.522  1.00  0.00    -0.266 OA
HETATM   12  C9  UNL     1      -3.239  -0.644  -0.774  1.00  0.00     0.181 A 
ENDROOT
BRANCH   1  13
HETATM   13  S1  UNL     1      -0.608  -0.918  -1.173  1.00  0.00    -0.034 SA
BRANCH  13  14
HETATM   14  C5  UNL     1       0.685  -0.834   0.033  1.00  0.00     0.155 A 
HETATM   15  N1  UNL     1       1.832  -0.167  -0.176  1.00  0.00    -0.326 N 
HETATM   16  C4  UNL     1       2.812  -0.062   0.715  1.00  0.00     0.090 A 
ATOM     17  H1  UNL     1       1.959   0.289  -1.079  1.00  0.00     0.169 HD
HETATM   18  N7  UNL     1       2.678  -0.647   1.935  1.00  0.00    -0.297 N 
HETATM   19  C10 UNL     1       1.529  -1.325   2.183  1.00  0.00     0.327 A 
ATOM     20  H7  UNL     1       3.414  -0.579   2.638  1.00  0.00     0.172 HD
HETATM   21  N6  UNL     1       0.551  -1.425   1.259  1.00  0.00    -0.288 N 
HETATM   22  O4  UNL     1       1.334  -1.897   3.309  1.00  0.00    -0.247 OA
ATOM     23  H6  UNL     1      -0.298  -1.947   1.477  1.00  0.00     0.172 HD
BRANCH  16  24
HETATM   24  C2  UNL     1       4.105   0.567   0.371  1.00  0.00     0.045 C 
HETATM   25  C1  UNL     1       4.659   0.010  -0.931  1.00  0.00     0.017 C 
HETATM   26  C3  UNL     1       4.089   2.064   0.361  1.00  0.00     0.017 C 
ENDBRANCH  16  24
ENDBRANCH  13  14
ENDBRANCH   1  13
BRANCH  12  27
HETATM   27  S2  UNL     1      -3.214  -2.375  -0.772  1.00  0.00     0.265 S 
HETATM   28  O2  UNL     1      -4.128  -2.968  -1.799  1.00  0.00    -0.200 OA
HETATM   29  O3  UNL     1      -1.814  -2.881  -1.128  1.00  0.00    -0.200 OA
BRANCH  27  30
HETATM   30  N5  UNL     1      -3.531  -3.027   0.800  1.00  0.00    -0.324 N 
ATOM     31  H52 UNL     1      -3.710  -2.446   1.619  1.00  0.00     0.169 HD
ATOM     32  H51 UNL     1      -3.516  -4.047   0.801  1.00  0.00     0.169 HD
ENDBRANCH  27  30
ENDBRANCH  12  27
TORSDOF 5
