REMARK  8 active torsions:
REMARK  status: ('A' for Active; 'I' for Inactive)
REMARK    1  A    between atoms: C4_5  and  N1_6 
REMARK    2  A    between atoms: N1_6  and  C5_8 
REMARK    3  A    between atoms: C5_8  and  C6_9 
REMARK    4  A    between atoms: N2_13  and  C10_14 
REMARK    5  A    between atoms: C10_14  and  C11_15 
REMARK    6  A    between atoms: C11_15  and  N3_16 
REMARK    7  A    between atoms: N3_16  and  C12_19 
REMARK    8  A    between atoms: C12_19  and  C13_20 
ROOT
HETATM    1  C6  UNL     1      -0.691  -1.738   0.666  1.00  0.00     0.029 A 
HETATM    2  C7  UNL     1      -0.915  -2.452   1.853  1.00  0.00     0.028 A 
HETATM    3  C8  UNL     1      -0.371  -3.712   1.734  1.00  0.00     0.019 A 
HETATM    4  C9  UNL     1       0.180  -3.747   0.475  1.00  0.00     0.091 A 
HETATM    5  N2  UNL     1      -0.020  -2.556  -0.154  1.00  0.00    -0.357 N 
ENDROOT
BRANCH   5   6
HETATM    6  C10 UNL     1       0.462  -2.252  -1.477  1.00  0.00     0.155 C 
BRANCH   6   7
HETATM    7  C11 UNL     1       1.893  -1.796  -1.515  1.00  0.00     0.253 C 
BRANCH   7   8
HETATM    8  N3  UNL     1       2.196  -0.627  -0.762  1.00  0.00    -0.068 N 
ATOM      9  H32 UNL     1       1.576   0.142  -1.015  1.00  0.00     0.277 HD
ATOM     10  H31 UNL     1       1.927  -0.741   0.215  1.00  0.00     0.277 HD
BRANCH   8  11
HETATM   11  C12 UNL     1       3.590  -0.232  -0.877  1.00  0.00     0.290 C 
BRANCH  11  12
HETATM   12  C13 UNL     1       3.816   0.996  -0.060  1.00  0.00     0.052 A 
HETATM   13  C14 UNL     1       4.986   1.692   0.064  1.00  0.00     0.047 A 
HETATM   14  C15 UNL     1       4.729   2.747   0.914  1.00  0.00     0.109 A 
HETATM   15  N4  UNL     1       3.436   2.686   1.292  1.00  0.00    -0.312 N 
HETATM   16  N5  UNL     1       2.915   1.634   0.698  1.00  0.00    -0.304 N 
ATOM     17  H4  UNL     1       2.954   3.331   1.918  1.00  0.00     0.186 HD
ATOM     18  H5  UNL     1       1.944   1.340   0.802  1.00  0.00     0.186 HD
ENDBRANCH  11  12
ENDBRANCH   8  11
ENDBRANCH   7   8
ENDBRANCH   6   7
ENDBRANCH   5   6
BRANCH   1  19
HETATM   19  C5  UNL     1      -1.162  -0.366   0.442  1.00  0.00     0.177 C 
BRANCH  19  20
HETATM   20  N1  UNL     1      -2.574  -0.346   0.033  1.00  0.00    -0.384 N 
ATOM     21  H1  UNL     1      -3.069  -1.233  -0.057  1.00  0.00     0.160 HD
BRANCH  20  22
HETATM   22  C4  UNL     1      -3.268   0.838  -0.238  1.00  0.00     0.028 A 
HETATM   23  C3  UNL     1      -2.716   2.099  -0.134  1.00  0.00     0.031 A 
HETATM   24  C2  UNL     1      -3.425   3.249  -0.409  1.00  0.00     0.026 A 
HETATM   25  C1  UNL     1      -4.747   3.165  -0.807  1.00  0.00     0.034 A 
HETATM   26 CL1  UNL     1      -5.701   4.604  -1.170  1.00  0.00    -0.084 Cl
HETATM   27  C17 UNL     1      -5.319   1.907  -0.916  1.00  0.00     0.026 A 
HETATM   28  C16 UNL     1      -4.586   0.775  -0.636  1.00  0.00     0.031 A 
ENDBRANCH  20  22
ENDBRANCH  19  20
ENDBRANCH   1  19
TORSDOF 8
