REMARK  9 active torsions:
REMARK  status: ('A' for Active; 'I' for Inactive)
REMARK    1  A    between atoms: C2_2  and  C3_3 
REMARK    2  A    between atoms: C7_8  and  C8_9 
REMARK    3  A    between atoms: C8_9  and  S1_10 
REMARK    4  A    between atoms: S1_10  and  C9_11 
REMARK    5  A    between atoms: C9_11  and  C10_12 
REMARK    6  A    between atoms: C10_12  and  N1_13 
REMARK    7  A    between atoms: N1_13  and  C11_16 
REMARK    8  A    between atoms: C11_16  and  C12_17 
REMARK    9  A    between atoms: C14_21  and  N3_22 
ROOT
HETATM    1  N1  UNL     1       2.717  -0.200  -0.419  1.00  0.00    -0.070 N 
ATOM      2  H11 UNL     1       3.141   0.685  -0.699  1.00  0.00     0.277 HD
ATOM      3  H12 UNL     1       2.175  -0.391  -1.262  1.00  0.00     0.277 HD
ENDROOT
BRANCH   1   4
HETATM    4  C10 UNL     1       1.855  -0.031   0.735  1.00  0.00     0.242 C 
BRANCH   4   5
HETATM    5  C9  UNL     1       0.773   0.973   0.410  1.00  0.00     0.101 C 
BRANCH   5   6
HETATM    6  S1  UNL     1      -0.441   0.368  -0.723  1.00  0.00    -0.163 SA
BRANCH   6   7
HETATM    7  C8  UNL     1      -1.559  -0.827   0.064  1.00  0.00     0.114 C 
BRANCH   7   8
HETATM    8  C7  UNL     1      -2.981  -0.469  -0.244  1.00  0.00    -0.027 A 
HETATM    9  C6  UNL     1      -3.234  -0.612  -1.629  1.00  0.00     0.041 A 
HETATM   10  C5  UNL     1      -4.515  -0.458  -2.079  1.00  0.00     0.025 A 
HETATM   11 CL1  UNL     1      -1.904  -0.950  -2.742  1.00  0.00    -0.084 Cl
HETATM   12  C4  UNL     1      -5.518  -0.173  -1.201  1.00  0.00     0.009 A 
HETATM   13  C3  UNL     1      -5.310  -0.027   0.172  1.00  0.00    -0.058 A 
HETATM   14  C16 UNL     1      -3.994  -0.188   0.603  1.00  0.00     0.016 A 
BRANCH  13  15
HETATM   15  C2  UNL     1      -6.504   0.149   1.020  1.00  0.00     0.034 C 
HETATM   16  C1  UNL     1      -7.214   1.457   0.941  1.00  0.00     0.010 C 
ENDBRANCH  13  15
ENDBRANCH   7   8
ENDBRANCH   6   7
ENDBRANCH   5   6
ENDBRANCH   4   5
ENDBRANCH   1   4
BRANCH   1  17
HETATM   17  C11 UNL     1       3.717  -1.213  -0.197  1.00  0.00     0.273 C 
BRANCH  17  18
HETATM   18  C12 UNL     1       5.084  -0.552  -0.205  1.00  0.00    -0.001 A 
HETATM   19  C13 UNL     1       6.160  -1.278   0.321  1.00  0.00     0.116 A 
HETATM   20  N2  UNL     1       7.340  -0.635   0.437  1.00  0.00    -0.202 N 
HETATM   21  C14 UNL     1       7.476   0.641   0.063  1.00  0.00     0.675 A 
ATOM     22  H2  UNL     1       8.145  -1.133   0.818  1.00  0.00     0.183 HD
HETATM   23  N4  UNL     1       6.472   1.313  -0.433  1.00  0.00    -0.202 N 
HETATM   24  C15 UNL     1       5.233   0.729  -0.586  1.00  0.00     0.116 A 
ATOM     25  H4  UNL     1       6.607   2.285  -0.711  1.00  0.00     0.183 HD
BRANCH  21  26
HETATM   26  N3  UNL     1       8.652   1.233   0.300  1.00  0.00    -0.234 N 
ATOM     27  H32 UNL     1       9.436   0.708   0.687  1.00  0.00     0.174 HD
ATOM     28  H31 UNL     1       8.756   2.207   0.015  1.00  0.00     0.174 HD
ENDBRANCH  21  26
ENDBRANCH  17  18
ENDBRANCH   1  17
TORSDOF 9
