REMARK  11 active torsions:
REMARK  status: ('A' for Active; 'I' for Inactive)
REMARK    1  A    between atoms: N1_1  and  C1_5 
REMARK    2  A    between atoms: C1_5  and  C2_6 
REMARK    3  A    between atoms: C2_6  and  C3_7 
REMARK    4  A    between atoms: C3_7  and  C4_8 
REMARK    5  A    between atoms: C4_8  and  C5_9 
REMARK    6  A    between atoms: C5_9  and  C6_10 
REMARK    7  A    between atoms: C6_10  and  N2_11 
REMARK    8  A    between atoms: N2_11  and  C7_13 
REMARK    9  A    between atoms: N3_16  and  C10_17 
REMARK   10  A    between atoms: C10_17  and  C11_18 
REMARK   11  A    between atoms: C17_25  and  O1_26 
ROOT
HETATM    1  C7  UNL     1       0.533  -1.658   0.469  1.00  0.00     0.033 A 
HETATM    2  C8  UNL     1       1.534  -2.523   0.097  1.00  0.00     0.046 A 
HETATM    3  C9  UNL     1       2.643  -2.075  -0.568  1.00  0.00     0.096 A 
HETATM    4  N3  UNL     1       2.774  -0.782  -0.869  1.00  0.00    -0.334 N 
HETATM    5  C17 UNL     1       1.822   0.091  -0.525  1.00  0.00     0.144 A 
HETATM    6  C18 UNL     1       0.671  -0.330   0.157  1.00  0.00     0.085 A 
ENDROOT
BRANCH   1   7
HETATM    7  N2  UNL     1      -0.506  -2.065   1.089  1.00  0.00    -0.390 N 
ATOM      8  H2  UNL     1      -0.577  -3.059   1.304  1.00  0.00     0.159 HD
BRANCH   7   9
HETATM    9  C6  UNL     1      -1.585  -1.204   1.503  1.00  0.00     0.119 C 
BRANCH   9  10
HETATM   10  C5  UNL     1      -2.586  -0.974   0.395  1.00  0.00     0.020 C 
BRANCH  10  11
HETATM   11  C4  UNL     1      -3.681  -0.077   0.873  1.00  0.00     0.002 C 
BRANCH  11  12
HETATM   12  C3  UNL     1      -4.652   0.116  -0.281  1.00  0.00     0.002 C 
BRANCH  12  13
HETATM   13  C2  UNL     1      -5.759   1.036   0.236  1.00  0.00     0.027 C 
BRANCH  13  14
HETATM   14  C1  UNL     1      -6.743   1.241  -0.912  1.00  0.00     0.229 C 
BRANCH  14  15
HETATM   15  N1  UNL     1      -7.827   2.105  -0.500  1.00  0.00    -0.079 N 
ATOM     16  H13 UNL     1      -8.290   1.758   0.340  1.00  0.00     0.274 HD
ATOM     17  H12 UNL     1      -7.486   2.992  -0.130  1.00  0.00     0.274 HD
ATOM     18  H11 UNL     1      -8.485   2.242  -1.267  1.00  0.00     0.274 HD
ENDBRANCH  14  15
ENDBRANCH  13  14
ENDBRANCH  12  13
ENDBRANCH  11  12
ENDBRANCH  10  11
ENDBRANCH   9  10
ENDBRANCH   7   9
ENDBRANCH   1   7
BRANCH   5  19
HETATM   19  O1  UNL     1       1.873   1.452  -0.798  1.00  0.00    -0.346 OA
ATOM     20  H1  UNL     1       1.196   2.072  -0.554  1.00  0.00     0.219 HD
ENDBRANCH   5  19
BRANCH   4  21
HETATM   21  C10 UNL     1       3.951  -0.323  -1.564  1.00  0.00     0.169 C 
BRANCH  21  22
HETATM   22  C11 UNL     1       5.075   0.055  -0.711  1.00  0.00    -0.038 A 
HETATM   23  C12 UNL     1       5.963  -0.920  -0.263  1.00  0.00     0.009 A 
HETATM   24  C13 UNL     1       7.037  -0.602   0.537  1.00  0.00     0.002 A 
HETATM   25  C14 UNL     1       7.252   0.725   0.915  1.00  0.00     0.024 A 
HETATM   26  C15 UNL     1       6.365   1.702   0.468  1.00  0.00     0.034 A 
HETATM   27 CL1  UNL     1       6.605   3.377   0.924  1.00  0.00    -0.084 Cl
HETATM   28  C16 UNL     1       5.281   1.363  -0.343  1.00  0.00     0.032 A 
ENDBRANCH  21  22
ENDBRANCH   4  21
TORSDOF 11
