REMARK  15 active torsions:
REMARK  status: ('A' for Active; 'I' for Inactive)
REMARK    1  A    between atoms: C2_2  and  C4_4 
REMARK    2  A    between atoms: N1_6  and  C6_7 
REMARK    3  A    between atoms: C6_7  and  O1_8 
REMARK    4  A    between atoms: C6_7  and  N2_10 
REMARK    5  A    between atoms: C9_13  and  C11_15 
REMARK    6  A    between atoms: C11_15  and  C12_16 
REMARK    7  A    between atoms: C12_16  and  N3_17 
REMARK    8  A    between atoms: N3_17  and  C13_19 
REMARK    9  A    between atoms: C16_22  and  N4_23 
REMARK   10  A    between atoms: N4_23  and  N5_25 
REMARK   11  A    between atoms: N5_25  and  C17_26 
REMARK   12  A    between atoms: C17_26  and  C18_27 
REMARK   13  A    between atoms: C18_27  and  P1_28 
REMARK   14  A    between atoms: P1_28  and  O2_29 
REMARK   15  A    between atoms: P1_28  and  O3_31 
ROOT
HETATM    1  C12 UNL     1      -0.404   1.385  -1.894  1.00  0.00     0.126 C 
ENDROOT
BRANCH   1   2
HETATM    2  C11 UNL     1      -0.810   2.402  -0.847  1.00  0.00     0.081 C 
BRANCH   2   3
HETATM    3  C9  UNL     1      -1.551   1.805   0.317  1.00  0.00     0.147 C 
HETATM    4  N1  UNL     1      -2.813   1.136  -0.066  1.00  0.00    -0.313 N 
HETATM    5  C5  UNL     1      -3.060  -0.275  -0.049  1.00  0.00     0.155 C 
HETATM    6  C4  UNL     1      -3.336  -0.820   1.333  1.00  0.00     0.108 C 
HETATM    7  N8  UNL     1      -2.082  -0.832   2.056  1.00  0.00    -0.330 N 
HETATM    8  C19 UNL     1      -0.875  -0.195   1.749  1.00  0.00     0.363 C 
ATOM      9  H8  UNL     1      -2.078  -1.385   2.913  1.00  0.00     0.165 HD
HETATM   10  O4  UNL     1      -0.657   0.847   0.874  1.00  0.00    -0.272 OA
HETATM   11  O5  UNL     1       0.146  -0.639   2.358  1.00  0.00    -0.238 OA
HETATM   12  C10 UNL     1      -1.764   2.869   1.350  1.00  0.00     0.072 C 
BRANCH   4  13
HETATM   13  C6  UNL     1      -3.819   1.988  -0.449  1.00  0.00     0.218 C 
BRANCH  13  14
HETATM   14  O1  UNL     1      -3.444   3.263  -0.436  1.00  0.00    -0.332 OA
ATOM     15  H1  UNL     1      -4.140   3.853  -0.701  1.00  0.00     0.220 HD
ENDBRANCH  13  14
BRANCH  13  16
HETATM   16  N2  UNL     1      -5.142   1.887  -0.853  1.00  0.00    -0.356 N 
HETATM   17  C7  UNL     1      -5.892   3.142  -1.207  1.00  0.00     0.152 C 
HETATM   18  C8  UNL     1      -5.924   0.713  -0.977  1.00  0.00     0.152 C 
ENDBRANCH  13  16
ENDBRANCH   4  13
BRANCH   6  19
HETATM   19  C2  UNL     1      -3.843  -2.247   1.139  1.00  0.00     0.002 C 
HETATM   20  C1  UNL     1      -4.144  -2.872   2.465  1.00  0.00     0.011 C 
HETATM   21  C3  UNL     1      -2.920  -3.050   0.280  1.00  0.00     0.011 C 
ENDBRANCH   6  19
ENDBRANCH   2   3
ENDBRANCH   1   2
BRANCH   1  22
HETATM   22  N3  UNL     1       0.497   0.376  -1.413  1.00  0.00    -0.375 N 
ATOM     23  H3  UNL     1       0.124  -0.563  -1.272  1.00  0.00     0.161 HD
BRANCH  22  24
HETATM   24  C13 UNL     1       1.878   0.592  -1.118  1.00  0.00     0.115 A 
HETATM   25  C14 UNL     1       2.494   1.799  -1.353  1.00  0.00     0.053 A 
HETATM   26  C15 UNL     1       3.832   1.941  -1.020  1.00  0.00     0.054 A 
HETATM   27  C16 UNL     1       4.523   0.899  -0.470  1.00  0.00     0.131 A 
HETATM   28  N6  UNL     1       3.870  -0.253  -0.265  1.00  0.00    -0.283 N 
HETATM   29  N7  UNL     1       2.614  -0.396  -0.573  1.00  0.00    -0.284 N 
ATOM     30  H6  UNL     1       4.372  -1.041   0.144  1.00  0.00     0.188 HD
ATOM     31  H7  UNL     1       2.167  -1.295  -0.394  1.00  0.00     0.188 HD
BRANCH  27  32
HETATM   32  N4  UNL     1       5.904   1.014  -0.116  1.00  0.00    -0.288 N 
ATOM     33  H4  UNL     1       6.399   1.892  -0.275  1.00  0.00     0.184 HD
BRANCH  32  34
HETATM   34  N5  UNL     1       6.569  -0.061   0.441  1.00  0.00    -0.139 NA
BRANCH  34  35
HETATM   35  C17 UNL     1       7.322  -0.819  -0.544  1.00  0.00     0.144 C 
BRANCH  35  36
HETATM   36  C18 UNL     1       8.030  -1.979   0.100  1.00  0.00     0.111 C 
BRANCH  36  37
HETATM   37  P1  UNL     1       6.802  -3.115   0.897  1.00  0.00     0.164 P 
BRANCH  37  38
HETATM   38  O2  UNL     1       6.110  -4.203  -0.249  1.00  0.00    -0.350 OA
ATOM     39  H2  UNL     1       5.480  -4.785   0.160  1.00  0.00     0.217 HD
ENDBRANCH  37  38
BRANCH  37  40
HETATM   40  O3  UNL     1       7.599  -4.021   2.159  1.00  0.00    -0.350 OA
ATOM     41  H3  UNL     1       6.969  -4.603   2.568  1.00  0.00     0.217 HD
ENDBRANCH  37  40
ENDBRANCH  36  37
ENDBRANCH  35  36
ENDBRANCH  34  35
ENDBRANCH  32  34
ENDBRANCH  27  32
ENDBRANCH  22  24
ENDBRANCH   1  22
TORSDOF 15
