REMARK  14 active torsions:
REMARK  status: ('A' for Active; 'I' for Inactive)
REMARK    1  A    between atoms: N1_1  and  C1_5 
REMARK    2  A    between atoms: C1_5  and  C2_6 
REMARK    3  A    between atoms: C2_6  and  O1_7 
REMARK    4  A    between atoms: O1_7  and  C3_8 
REMARK    5  A    between atoms: C3_8  and  C4_9 
REMARK    6  A    between atoms: C4_9  and  N2_10 
REMARK    7  A    between atoms: C6_16  and  N5_17 
REMARK    8  A    between atoms: C11_26  and  C12_27 
REMARK    9  A    between atoms: C12_27  and  N8_28 
REMARK   10  A    between atoms: N8_28  and  C13_30 
REMARK   11  A    between atoms: C16_33  and  P1_34 
REMARK   12  A    between atoms: P1_34  and  O3_35 
REMARK   13  A    between atoms: P1_34  and  O4_37 
REMARK   14  A    between atoms: O4_37  and  O5_38 
ROOT
HETATM    1  C3  UNL     1      -1.246  -0.295  -0.480  1.00  0.00     0.090 C 
HETATM    2  C8  UNL     1      -1.363   1.067   0.157  1.00  0.00     0.067 C 
HETATM    3  C9  UNL     1      -1.192   2.214  -0.774  1.00  0.00     0.170 C 
HETATM    4  O2  UNL     1      -0.183   2.050  -1.726  1.00  0.00    -0.390 OA
HETATM    5  C10 UNL     1      -0.401   0.918  -2.500  1.00  0.00     0.180 C 
HETATM    6  C11 UNL     1      -0.209  -0.260  -1.537  1.00  0.00     0.084 C 
ENDROOT
BRANCH   1   7
HETATM    7  O1  UNL     1      -0.840  -1.186   0.529  1.00  0.00    -0.376 OA
BRANCH   7   8
HETATM    8  C2  UNL     1      -0.768  -2.492   0.149  1.00  0.00     0.196 C 
BRANCH   8   9
HETATM    9  C1  UNL     1      -0.244  -3.381   1.286  1.00  0.00     0.255 C 
BRANCH   9  10
HETATM   10  N1  UNL     1      -1.048  -3.347   2.433  1.00  0.00    -0.077 N 
ATOM     11  H13 UNL     1      -1.180  -2.388   2.755  1.00  0.00     0.274 HD
ATOM     12  H12 UNL     1      -2.014  -3.583   2.205  1.00  0.00     0.274 HD
ATOM     13  H11 UNL     1      -0.700  -3.938   3.188  1.00  0.00     0.274 HD
ENDBRANCH   9  10
ENDBRANCH   8   9
ENDBRANCH   7   8
ENDBRANCH   1   7
BRANCH   1  14
HETATM   14  C4  UNL     1      -2.596  -0.681  -1.021  1.00  0.00     0.187 C 
BRANCH  14  15
HETATM   15  N2  UNL     1      -3.709  -0.631  -0.152  1.00  0.00    -0.174 N 
HETATM   16  C5  UNL     1      -4.105  -1.437   0.877  1.00  0.00     0.218 A 
HETATM   17  N3  UNL     1      -5.215  -0.979   1.469  1.00  0.00    -0.281 N 
HETATM   18  N4  UNL     1      -5.559   0.102   0.857  1.00  0.00    -0.131 N 
ATOM     19  H3  UNL     1      -5.699  -1.407   2.259  1.00  0.00     0.188 HD
HETATM   20  C6  UNL     1      -4.677   0.353  -0.134  1.00  0.00     0.702 A 
ATOM     21  H4  UNL     1      -6.370   0.677   1.085  1.00  0.00     0.205 HD
BRANCH  20  22
HETATM   22  N5  UNL     1      -4.784   1.431  -1.046  1.00  0.00    -0.164 N 
HETATM   23  C7  UNL     1      -5.742   2.266  -1.003  1.00  0.00     0.215 C 
HETATM   24  N6  UNL     1      -6.755   2.156  -0.030  1.00  0.00    -0.066 NA
HETATM   25  N7  UNL     1      -5.810   3.348  -1.952  1.00  0.00    -0.066 NA
ATOM     26  H5  UNL     1      -4.067   1.542  -1.763  1.00  0.00     0.186 HD
ENDBRANCH  20  22
ENDBRANCH  14  15
ENDBRANCH   1  14
BRANCH   6  27
HETATM   27  C12 UNL     1       1.199  -0.375  -1.184  1.00  0.00     0.071 C 
BRANCH  27  28
HETATM   28  N8  UNL     1       1.863   0.540  -0.339  1.00  0.00    -0.369 N 
ATOM     29  H8  UNL     1       1.349   1.331   0.050  1.00  0.00     0.165 HD
BRANCH  28  30
HETATM   30  C13 UNL     1       3.279   0.368  -0.015  1.00  0.00     0.031 A 
HETATM   31  C14 UNL     1       3.949  -0.672  -0.604  1.00  0.00     0.030 A 
HETATM   32  C15 UNL     1       5.289  -0.840  -0.297  1.00  0.00     0.019 A 
HETATM   33  C16 UNL     1       5.928   0.016   0.575  1.00  0.00     0.025 A 
HETATM   34  C17 UNL     1       5.227   1.057   1.153  1.00  0.00     0.019 A 
HETATM   35  C18 UNL     1       3.906   1.213   0.844  1.00  0.00     0.030 A 
BRANCH  33  36
HETATM   36  P1  UNL     1       7.693  -0.207   0.977  1.00  0.00     0.239 P 
BRANCH  36  37
HETATM   37  O3  UNL     1       7.995  -1.908   1.287  1.00  0.00    -0.344 OA
ATOM     38  H3  UNL     1       8.914  -2.024   1.496  1.00  0.00     0.217 HD
ENDBRANCH  36  37
BRANCH  36  39
HETATM   39  O4  UNL     1       8.192   0.754   2.303  1.00  0.00    -0.181 OA
BRANCH  39  40
HETATM   40  O5  UNL     1       8.683   1.919   1.941  1.00  0.00    -0.244 OA
ATOM     41  H5  UNL     1       8.960   2.452   2.677  1.00  0.00     0.254 HD
ENDBRANCH  39  40
ENDBRANCH  36  39
ENDBRANCH  33  36
ENDBRANCH  28  30
ENDBRANCH  27  28
ENDBRANCH   6  27
TORSDOF 14
