REMARK  12 active torsions:
REMARK  status: ('A' for Active; 'I' for Inactive)
REMARK    1  A    between atoms: C2_2  and  C4_4 
REMARK    2  A    between atoms: C4_4  and  N1_5 
REMARK    3  A    between atoms: C4_4  and  C13_22 
REMARK       I    between atoms: N1_5  and  C5_7 
REMARK    4  A    between atoms: C5_7  and  C6_9 
REMARK    5  A    between atoms: C6_9  and  C7_10 
REMARK    6  A    between atoms: C7_10  and  N2_11 
REMARK       I    between atoms: N3_14  and  C10_15 
REMARK       I    between atoms: C13_22  and  N6_24 
REMARK    7  A    between atoms: N6_24  and  C15_26 
REMARK    8  A    between atoms: N7_29  and  C18_30 
REMARK    9  A    between atoms: C18_30  and  C19_31 
REMARK   10  A    between atoms: N8_34  and  C22_35 
REMARK   11  A    between atoms: C22_35  and  O3_36 
REMARK   12  A    between atoms: C22_35  and  N9_38 
ROOT
HETATM    1  C15 UNL     1       0.261   1.076   1.342  1.00  0.00     0.090 C 
HETATM    2  C16 UNL     1      -0.101  -0.378   1.497  1.00  0.00     0.055 C 
HETATM    3  C17 UNL     1      -1.439  -0.598   0.809  1.00  0.00     0.274 C 
HETATM    4  N7  UNL     1      -1.391  -0.097  -0.543  1.00  0.00     0.088 N 
HETATM    5  C33 UNL     1      -0.025   0.236  -0.937  1.00  0.00     0.274 C 
HETATM    6  C34 UNL     1       0.504   1.380  -0.098  1.00  0.00     0.055 C 
ENDROOT
BRANCH   1   7
HETATM    7  N6  UNL     1       1.351   1.482   2.224  1.00  0.00    -0.350 N 
HETATM    8  C13 UNL     1       2.650   0.977   2.104  1.00  0.00     0.243 C 
HETATM    9  O2  UNL     1       2.803   0.074   1.203  1.00  0.00    -0.271 OA
HETATM   10  C14 UNL     1       1.011   2.456   3.236  1.00  0.00     0.153 C 
BRANCH   8  11
HETATM   11  C4  UNL     1       3.832   1.343   2.864  1.00  0.00     0.180 C 
BRANCH  11  12
HETATM   12  C2  UNL     1       4.147   2.809   2.967  1.00  0.00     0.009 C 
HETATM   13  C1  UNL     1       4.638   3.445   1.697  1.00  0.00     0.012 C 
HETATM   14  C3  UNL     1       5.332   2.892   3.981  1.00  0.00     0.012 C 
ENDBRANCH  11  12
BRANCH  11  15
HETATM   15  N1  UNL     1       5.015   0.600   2.502  1.00  0.00    -0.347 N 
HETATM   16  C5  UNL     1       5.599   0.393   1.260  1.00  0.00     0.220 C 
HETATM   17  O1  UNL     1       5.208   0.827   0.150  1.00  0.00    -0.274 OA
ATOM     18  H1  UNL     1       5.499   0.157   3.283  1.00  0.00     0.163 HD
BRANCH  16  19
HETATM   19  C6  UNL     1       6.856  -0.444   1.190  1.00  0.00     0.133 C 
BRANCH  19  20
HETATM   20  C7  UNL     1       7.377  -0.399  -0.203  1.00  0.00     0.281 C 
BRANCH  20  21
HETATM   21  N2  UNL     1       8.591  -1.176  -0.375  1.00  0.00     0.092 N 
HETATM   22  C8  UNL     1       9.700  -0.615   0.342  1.00  0.00     0.292 C 
HETATM   23  C9  UNL     1      10.897  -1.541   0.196  1.00  0.00     0.156 C 
HETATM   24  N3  UNL     1      11.160  -1.625  -1.217  1.00  0.00    -0.353 N 
HETATM   25  C10 UNL     1      12.216  -2.424  -1.700  1.00  0.00     0.184 C 
HETATM   26  C11 UNL     1      10.319  -0.879  -2.117  1.00  0.00     0.156 C 
HETATM   27  N4  UNL     1      12.588  -3.530  -1.098  1.00  0.00    -0.374 N 
HETATM   28  N5  UNL     1      12.968  -2.113  -2.864  1.00  0.00    -0.064 NA
ATOM     29  H42 UNL     1      12.048  -3.753  -0.262  1.00  0.00     0.158 HD
ATOM     30  H41 UNL     1      13.352  -4.108  -1.448  1.00  0.00     0.158 HD
HETATM   31  C12 UNL     1       8.875  -1.238  -1.791  1.00  0.00     0.292 C 
ENDBRANCH  20  21
ENDBRANCH  19  20
ENDBRANCH  16  19
ENDBRANCH  11  15
ENDBRANCH   8  11
ENDBRANCH   1   7
BRANCH   4  32
HETATM   32  C18 UNL     1      -2.290   0.997  -0.801  1.00  0.00     0.277 C 
BRANCH  32  33
HETATM   33  C19 UNL     1      -3.719   0.462  -0.728  1.00  0.00     0.017 C 
HETATM   34  C20 UNL     1      -3.890  -0.604  -1.750  1.00  0.00     0.026 C 
HETATM   35  C21 UNL     1      -5.352  -1.093  -1.706  1.00  0.00     0.127 C 
HETATM   36  N8  UNL     1      -6.201  -0.016  -2.075  1.00  0.00    -0.347 N 
HETATM   37  C31 UNL     1      -5.507   1.298  -2.193  1.00  0.00     0.127 C 
HETATM   38  C32 UNL     1      -4.720   1.549  -0.929  1.00  0.00     0.026 C 
BRANCH  36  39
HETATM   39  C22 UNL     1      -7.582   0.023  -2.309  1.00  0.00     0.217 C 
BRANCH  39  40
HETATM   40  O3  UNL     1      -8.026   1.187  -2.709  1.00  0.00    -0.333 OA
ATOM     41  H3  UNL     1      -8.962   1.213  -2.868  1.00  0.00     0.220 HD
ENDBRANCH  39  40
BRANCH  39  42
HETATM   42  N9  UNL     1      -8.570  -0.972  -2.186  1.00  0.00    -0.348 N 
HETATM   43  C23 UNL     1      -9.941  -0.583  -2.582  1.00  0.00     0.126 C 
HETATM   44  C24 UNL     1     -11.005  -1.163  -1.698  1.00  0.00     0.020 C 
HETATM   45  C25 UNL     1     -11.571  -0.153  -0.741  1.00  0.00     0.002 C 
HETATM   46  C26 UNL     1     -11.051  -0.160   0.633  1.00  0.00     0.000 C 
HETATM   47  C27 UNL     1     -10.258  -1.379   1.022  1.00  0.00     0.000 C 
HETATM   48  C28 UNL     1      -8.808  -1.260   0.566  1.00  0.00     0.002 C 
HETATM   49  C29 UNL     1      -8.340  -2.444  -0.202  1.00  0.00     0.020 C 
HETATM   50  C30 UNL     1      -8.318  -2.293  -1.696  1.00  0.00     0.126 C 
ENDBRANCH  39  42
ENDBRANCH  36  39
ENDBRANCH  32  33
ENDBRANCH   4  32
TORSDOF 12
