REMARK  11 active torsions:
REMARK  status: ('A' for Active; 'I' for Inactive)
REMARK    1  A    between atoms: C2_2  and  N1_4 
REMARK       I    between atoms: N1_4  and  C4_6 
REMARK       I    between atoms: C4_6  and  N2_8 
REMARK       I    between atoms: N3_11  and  C7_12 
REMARK    2  A    between atoms: C7_12  and  C8_14 
REMARK    3  A    between atoms: C8_14  and  N4_15 
REMARK    4  A    between atoms: C8_14  and  C29_42 
REMARK    5  A    between atoms: N4_15  and  C9_17 
REMARK    6  A    between atoms: C9_17  and  O3_18 
REMARK    7  A    between atoms: C9_17  and  C10_20 
REMARK    8  A    between atoms: C10_20  and  C11_21 
REMARK    9  A    between atoms: C10_20  and  N5_28 
REMARK   10  A    between atoms: C11_21  and  C12_22 
REMARK       I    between atoms: N5_28  and  C18_30 
REMARK   11  A    between atoms: C18_30  and  C19_32 
REMARK       I    between atoms: C29_42  and  N6_44 
ROOT
HETATM    1  N4  UNL     1      -0.337  -1.426  -0.192  1.00  0.00    -0.352 N 
ATOM      2  H4  UNL     1      -0.410  -2.443  -0.214  1.00  0.00     0.162 HD
ENDROOT
BRANCH   1   3
HETATM    3  C8  UNL     1       0.981  -0.743  -0.468  1.00  0.00     0.269 C 
BRANCH   3   4
HETATM    4  C7  UNL     1       1.871  -0.973   0.668  1.00  0.00     0.252 C 
HETATM    5  N3  UNL     1       3.172  -0.489   0.855  1.00  0.00    -0.347 N 
HETATM    6  C6  UNL     1       3.909  -0.833   2.109  1.00  0.00     0.146 C 
HETATM    7  C34 UNL     1       3.878   0.335  -0.086  1.00  0.00     0.146 C 
HETATM    8  C5  UNL     1       5.276  -1.309   1.637  1.00  0.00     0.147 C 
HETATM    9  N2  UNL     1       5.935  -0.144   1.072  1.00  0.00    -0.331 N 
HETATM   10  C4  UNL     1       7.345  -0.068   1.196  1.00  0.00     0.318 C 
HETATM   11  C35 UNL     1       5.174   0.885   0.428  1.00  0.00     0.147 C 
HETATM   12  N1  UNL     1       8.030   1.037   0.658  1.00  0.00    -0.339 N 
HETATM   13  O1  UNL     1       8.010  -0.970   1.781  1.00  0.00    -0.247 OA
ATOM     14  H1  UNL     1       7.518   1.779   0.180  1.00  0.00     0.164 HD
HETATM   15  O2  UNL     1       1.431  -1.705   1.631  1.00  0.00    -0.270 OA
BRANCH  12  16
HETATM   16  C2  UNL     1       9.471   1.109   0.791  1.00  0.00     0.078 C 
HETATM   17  C1  UNL     1      10.042   0.774  -0.581  1.00  0.00     0.032 C 
HETATM   18  C3  UNL     1       9.941   2.426   1.307  1.00  0.00     0.032 C 
ENDBRANCH  12  16
ENDBRANCH   3   4
BRANCH   3  19
HETATM   19  C29 UNL     1       1.416  -1.379  -1.745  1.00  0.00     0.252 C 
HETATM   20  O5  UNL     1       1.345  -2.671  -1.755  1.00  0.00    -0.270 OA
HETATM   21  N6  UNL     1       1.870  -0.771  -2.906  1.00  0.00    -0.346 N 
HETATM   22  C30 UNL     1       2.321  -1.636  -4.013  1.00  0.00     0.152 C 
HETATM   23  C33 UNL     1       1.914   0.630  -3.233  1.00  0.00     0.152 C 
HETATM   24  C31 UNL     1       3.834  -1.390  -4.094  1.00  0.00     0.187 C 
HETATM   25  O6  UNL     1       4.143  -0.083  -3.829  1.00  0.00    -0.388 OA
HETATM   26  C32 UNL     1       3.164   0.840  -4.080  1.00  0.00     0.187 C 
ENDBRANCH   3  19
ENDBRANCH   1   3
BRANCH   1  27
HETATM   27  C9  UNL     1      -1.441  -0.649   0.091  1.00  0.00     0.135 C 
BRANCH  27  28
HETATM   28  O3  UNL     1      -1.177   0.666   0.116  1.00  0.00    -0.348 OA
ATOM     29  H3  UNL     1      -1.937   1.201   0.311  1.00  0.00     0.219 HD
ENDBRANCH  27  28
BRANCH  27  30
HETATM   30  C10 UNL     1      -2.829  -0.921   0.355  1.00  0.00     0.159 C 
BRANCH  30  31
HETATM   31  C11 UNL     1      -3.337  -1.663   1.514  1.00  0.00     0.038 C 
BRANCH  31  32
HETATM   32  C12 UNL     1      -3.032  -3.058   1.823  1.00  0.00    -0.012 C 
HETATM   33  C13 UNL     1      -3.908  -3.362   3.101  1.00  0.00     0.005 C 
HETATM   34  C14 UNL     1      -4.088  -4.844   3.170  1.00  0.00     0.000 C 
HETATM   35  C15 UNL     1      -2.712  -5.493   3.080  1.00  0.00     0.000 C 
HETATM   36  C16 UNL     1      -1.620  -4.471   3.327  1.00  0.00     0.000 C 
HETATM   37  C17 UNL     1      -1.629  -3.419   2.221  1.00  0.00     0.005 C 
ENDBRANCH  31  32
ENDBRANCH  30  31
BRANCH  30  38
HETATM   38  N5  UNL     1      -3.591   0.380   0.386  1.00  0.00    -0.348 N 
HETATM   39  C18 UNL     1      -4.560   0.617  -0.565  1.00  0.00     0.227 C 
HETATM   40  O4  UNL     1      -4.784  -0.267  -1.458  1.00  0.00    -0.273 OA
ATOM     41  H5  UNL     1      -3.391   1.077   1.103  1.00  0.00     0.163 HD
BRANCH  39  42
HETATM   42  C19 UNL     1      -5.390   1.847  -0.637  1.00  0.00     0.042 C 
HETATM   43  C20 UNL     1      -4.503   3.024  -0.853  1.00  0.00     0.024 C 
HETATM   44  C21 UNL     1      -5.347   4.294  -1.023  1.00  0.00    -0.013 C 
HETATM   45  C22 UNL     1      -6.264   4.061  -2.192  1.00  0.00     0.009 C 
HETATM   46  C26 UNL     1      -6.097   4.533   0.258  1.00  0.00     0.009 C 
HETATM   47  C23 UNL     1      -7.233   2.949  -1.865  1.00  0.00    -0.013 C 
HETATM   48  C24 UNL     1      -7.970   3.209  -0.579  1.00  0.00     0.009 C 
HETATM   49  C28 UNL     1      -6.434   1.677  -1.697  1.00  0.00     0.024 C 
HETATM   50  C25 UNL     1      -6.961   3.318   0.530  1.00  0.00    -0.013 C 
HETATM   51  C27 UNL     1      -6.125   2.075   0.674  1.00  0.00     0.024 C 
ENDBRANCH  39  42
ENDBRANCH  30  38
ENDBRANCH  27  30
ENDBRANCH   1  27
TORSDOF 11
