REMARK  7 active torsions:
REMARK  status: ('A' for Active; 'I' for Inactive)
REMARK    1  A    between atoms: C4_6  and  C5_7 
REMARK    2  A    between atoms: C5_7  and  S1_8 
REMARK    3  A    between atoms: S1_8  and  C6_9 
REMARK    4  A    between atoms: C6_9  and  C7_10 
REMARK    5  A    between atoms: C7_10  and  C8_11 
REMARK    6  A    between atoms: C8_11  and  C9_12 
REMARK    7  A    between atoms: C9_12  and  C10_13 
ROOT
HETATM    1  C6  UNL     1       0.284  -2.259  -0.810  1.00  0.00     0.074 C 
ENDROOT
BRANCH   1   2
HETATM    2  S1  UNL     1       1.884  -2.532  -0.168  1.00  0.00    -0.164 SA
BRANCH   2   3
HETATM    3  C5  UNL     1       2.467  -1.553   1.172  1.00  0.00     0.113 C 
BRANCH   3   4
HETATM    4  C4  UNL     1       2.760  -0.153   0.839  1.00  0.00    -0.034 A 
HETATM    5  C3  UNL     1       3.948   0.097   0.170  1.00  0.00     0.095 A 
HETATM    6  N1  UNL     1       4.316   1.336  -0.114  1.00  0.00    -0.375 N 
HETATM    7  C2  UNL     1       3.516   2.347   0.257  1.00  0.00     0.087 A 
ATOM      8  H1  UNL     1       5.191   1.519  -0.605  1.00  0.00     0.164 HD
HETATM    9  C1  UNL     1       2.330   2.156   0.921  1.00  0.00     0.018 A 
HETATM   10  C15 UNL     1       1.941   0.848   1.223  1.00  0.00     0.011 A 
ENDBRANCH   3   4
ENDBRANCH   2   3
ENDBRANCH   1   2
BRANCH   1  11
HETATM   11  C7  UNL     1       0.007  -0.983  -1.564  1.00  0.00     0.010 C 
BRANCH  11  12
HETATM   12  C8  UNL     1      -1.418  -1.025  -2.061  1.00  0.00     0.005 C 
BRANCH  12  13
HETATM   13  C9  UNL     1      -2.479  -1.103  -1.037  1.00  0.00     0.038 C 
BRANCH  13  14
HETATM   14  C10 UNL     1      -2.578   0.036  -0.107  1.00  0.00    -0.056 A 
HETATM   15  C11 UNL     1      -1.974   0.145   1.118  1.00  0.00     0.024 A 
HETATM   16  C12 UNL     1      -2.121   1.267   1.929  1.00  0.00     0.088 A 
HETATM   17  N2  UNL     1      -2.877   2.300   1.522  1.00  0.00    -0.375 N 
HETATM   18  C13 UNL     1      -3.491   2.246   0.330  1.00  0.00     0.088 A 
ATOM     19  H2  UNL     1      -2.984   3.122   2.116  1.00  0.00     0.164 HD
HETATM   20  C14 UNL     1      -3.355   1.140  -0.484  1.00  0.00     0.024 A 
ENDBRANCH  13  14
ENDBRANCH  12  13
ENDBRANCH  11  12
ENDBRANCH   1  11
TORSDOF 7
