REMARK  7 active torsions:
REMARK  status: ('A' for Active; 'I' for Inactive)
REMARK    1  A    between atoms: C3_3  and  O1_4 
REMARK    2  A    between atoms: O1_4  and  C4_5 
REMARK    3  A    between atoms: C7_8  and  O2_9 
REMARK    4  A    between atoms: O2_9  and  C8_10 
REMARK    5  A    between atoms: C8_10  and  C9_11 
REMARK    6  A    between atoms: C9_11  and  O3_12 
REMARK    7  A    between atoms: O3_12  and  C10_13 
ROOT
HETATM    1  C1  UNL     1       4.893   3.382  -0.843  1.00  0.00     0.014 C 
HETATM    2  C2  UNL     1       5.323   2.293  -0.555  1.00  0.00    -0.091 C 
HETATM    3  C3  UNL     1       5.823   0.971  -0.222  1.00  0.00     0.268 C 
ENDROOT
BRANCH   3   4
HETATM    4  O1  UNL     1       4.964  -0.079  -0.539  1.00  0.00    -0.340 OA
BRANCH   4   5
HETATM    5  C4  UNL     1       3.701  -0.324  -0.081  1.00  0.00     0.070 A 
HETATM    6  C5  UNL     1       3.033  -1.433  -0.546  1.00  0.00     0.039 A 
HETATM    7  C6  UNL     1       1.738  -1.732  -0.109  1.00  0.00     0.039 A 
HETATM    8  C7  UNL     1       1.081  -0.945   0.787  1.00  0.00     0.069 A 
HETATM    9  C16 UNL     1       1.788   0.183   1.246  1.00  0.00     0.039 A 
HETATM   10  C17 UNL     1       3.066   0.484   0.822  1.00  0.00     0.039 A 
BRANCH   8  11
HETATM   11  O2  UNL     1      -0.157  -1.101   1.295  1.00  0.00    -0.349 OA
BRANCH  11  12
HETATM   12  C8  UNL     1      -1.177  -1.995   1.143  1.00  0.00     0.202 C 
BRANCH  12  13
HETATM   13  C9  UNL     1      -1.793  -2.119  -0.220  1.00  0.00     0.202 C 
BRANCH  13  14
HETATM   14  O3  UNL     1      -2.360  -1.006  -0.764  1.00  0.00    -0.349 OA
BRANCH  14  15
HETATM   15  C10 UNL     1      -3.362  -0.172  -0.501  1.00  0.00     0.068 A 
HETATM   16  C11 UNL     1      -4.213  -0.275   0.562  1.00  0.00     0.037 A 
HETATM   17  C12 UNL     1      -5.245   0.629   0.790  1.00  0.00     0.003 A 
HETATM   18  C13 UNL     1      -5.442   1.678  -0.070  1.00  0.00     0.000 A 
HETATM   19  C14 UNL     1      -4.608   1.816  -1.152  1.00  0.00     0.003 A 
HETATM   20  C15 UNL     1      -3.614   0.923  -1.348  1.00  0.00     0.037 A 
ENDBRANCH  14  15
ENDBRANCH  13  14
ENDBRANCH  12  13
ENDBRANCH  11  12
ENDBRANCH   8  11
ENDBRANCH   4   5
ENDBRANCH   3   4
TORSDOF 7
