REMARK  7 active torsions:
REMARK  status: ('A' for Active; 'I' for Inactive)
REMARK    1  A    between atoms: C6_6  and  O1_7 
REMARK    2  A    between atoms: O1_7  and  C7_8 
REMARK    3  A    between atoms: C7_8  and  C8_9 
REMARK    4  A    between atoms: C8_9  and  C9_10 
REMARK    5  A    between atoms: C9_10  and  C10_11 
REMARK    6  A    between atoms: C10_11  and  C11_12 
REMARK    7  A    between atoms: C11_12  and  N1_13 
ROOT
HETATM    1  O1  UNL     1       1.251  -0.708   1.209  1.00  0.00    -0.351 OA
ENDROOT
BRANCH   1   2
HETATM    2  C6  UNL     1       2.334  -0.117   0.619  1.00  0.00     0.070 A 
HETATM    3  C5  UNL     1       2.414   1.234   0.329  1.00  0.00     0.037 A 
HETATM    4  C4  UNL     1       3.484   1.820  -0.254  1.00  0.00     0.015 A 
HETATM    5  C3  UNL     1       4.617   1.071  -0.614  1.00  0.00    -0.018 A 
HETATM    6  C2  UNL     1       5.743   1.542  -1.200  1.00  0.00     0.020 A 
HETATM    7  C16 UNL     1       4.564  -0.259  -0.339  1.00  0.00     0.017 A 
HETATM    8  C1  UNL     1       6.734   0.635  -1.466  1.00  0.00     0.051 A 
HETATM    9  S1  UNL     1       6.072  -0.830  -0.897  1.00  0.00    -0.101 SA
HETATM   10  C15 UNL     1       3.448  -0.857   0.267  1.00  0.00     0.056 A 
ENDBRANCH   1   2
BRANCH   1  11
HETATM   11  C7  UNL     1       0.077  -0.073   1.609  1.00  0.00     0.175 C 
BRANCH  11  12
HETATM   12  C8  UNL     1      -0.858  -1.102   2.213  1.00  0.00     0.027 C 
BRANCH  12  13
HETATM   13  C9  UNL     1      -1.217  -2.184   1.241  1.00  0.00     0.004 C 
BRANCH  13  14
HETATM   14  C10 UNL     1      -1.908  -1.687  -0.001  1.00  0.00     0.030 C 
BRANCH  14  15
HETATM   15  C11 UNL     1      -3.187  -0.999   0.363  1.00  0.00     0.272 C 
BRANCH  15  16
HETATM   16  N1  UNL     1      -3.894  -0.502  -0.806  1.00  0.00     0.088 N 
HETATM   17  C12 UNL     1      -3.274   0.582  -1.505  1.00  0.00     0.274 C 
HETATM   18  C13 UNL     1      -4.028   1.555  -0.618  1.00  0.00     0.060 C 
HETATM   19  C14 UNL     1      -4.957   0.389  -0.406  1.00  0.00     0.274 C 
ENDBRANCH  15  16
ENDBRANCH  14  15
ENDBRANCH  13  14
ENDBRANCH  12  13
ENDBRANCH  11  12
ENDBRANCH   1  11
TORSDOF 7
