REMARK  2 active torsions:
REMARK  status: ('A' for Active; 'I' for Inactive)
REMARK    1  A    between atoms: C2_2  and  O2_4 
REMARK    2  A    between atoms: O2_4  and  C3_5 
ROOT
HETATM    1  C3  UNL     1      -0.111  -0.580  -0.323  1.00  0.00     0.118 C 
HETATM    2  C4  UNL     1      -0.687  -0.507  -1.728  1.00  0.00     0.054 C 
HETATM    3  C5  UNL     1       0.094  -1.951   0.092  1.00  0.00     0.081 C 
HETATM    4  S1  UNL     1       1.163  -2.877   0.130  1.00  0.00    -0.074 SA
HETATM    5  S2  UNL     1      -1.541  -2.496   0.717  1.00  0.00    -0.119 SA
HETATM    6  C6  UNL     1      -2.228  -0.821   0.870  1.00  0.00     0.092 C 
HETATM    7  C7  UNL     1      -1.061   0.071   0.665  1.00  0.00    -0.002 C 
HETATM    8  C8  UNL     1      -1.579   1.390   0.134  1.00  0.00     0.019 C 
HETATM    9  C9  UNL     1      -0.333   0.369   1.958  1.00  0.00     0.019 C 
ENDROOT
BRANCH   1  10
HETATM   10  O2  UNL     1       1.068   0.162  -0.204  1.00  0.00    -0.304 OA
BRANCH  10  11
HETATM   11  C2  UNL     1       2.216   0.038  -0.927  1.00  0.00     0.256 C 
HETATM   12  C1  UNL     1       3.409   0.919  -0.658  1.00  0.00     0.126 C 
HETATM   13  O1  UNL     1       2.259  -0.829  -1.825  1.00  0.00    -0.266 OA
ENDBRANCH  10  11
ENDBRANCH   1  10
TORSDOF 2
