REMARK  2 active torsions:
REMARK  status: ('A' for Active; 'I' for Inactive)
REMARK    1  A    between atoms: O1_2  and  C2_3 
REMARK    2  A    between atoms: C2_3  and  C3_5 
ROOT
HETATM    1  C3  UNL     1       1.453   0.022  -0.378  1.00  0.00     0.183 C 
HETATM    2  C4  UNL     1       0.725  -0.978  -0.824  1.00  0.00    -0.038 C 
HETATM    3  C5  UNL     1       1.336  -2.323  -0.934  1.00  0.00     0.046 C 
HETATM    4  C6  UNL     1      -0.693  -0.731  -1.205  1.00  0.00     0.079 C 
HETATM    5  C7  UNL     1      -1.235   0.286  -0.227  1.00  0.00     0.108 C 
HETATM    6  O3  UNL     1      -0.480   1.446  -0.213  1.00  0.00    -0.223 OA
HETATM    7  O4  UNL     1       0.820   1.259  -0.298  1.00  0.00    -0.190 OA
HETATM    8  C8  UNL     1      -2.705   0.609  -0.465  1.00  0.00     0.025 C 
HETATM    9  C9  UNL     1      -2.895   1.971  -1.041  1.00  0.00     0.014 C 
HETATM   10  C10 UNL     1      -2.894   0.488   1.035  1.00  0.00    -0.000 A 
HETATM   11  C11 UNL     1      -2.725  -0.881   1.565  1.00  0.00     0.013 A 
HETATM   12  C12 UNL     1      -1.500  -0.201   1.156  1.00  0.00     0.029 A 
ENDROOT
BRANCH   1  13
HETATM   13  C2  UNL     1       2.847  -0.105   0.022  1.00  0.00     0.319 C 
HETATM   14  O2  UNL     1       3.483  -1.166  -0.017  1.00  0.00    -0.257 OA
BRANCH  13  15
HETATM   15  O1  UNL     1       3.536   1.017   0.482  1.00  0.00    -0.321 OA
HETATM   16  C1  UNL     1       4.888   0.967   0.887  1.00  0.00     0.213 C 
ENDBRANCH  13  15
ENDBRANCH   1  13
TORSDOF 2
