REMARK  3 active torsions:
REMARK  status: ('A' for Active; 'I' for Inactive)
REMARK    1  A    between atoms: O1_2  and  C2_3 
REMARK    2  A    between atoms: C2_3  and  O3_5 
REMARK    3  A    between atoms: O3_5  and  C3_6 
ROOT
HETATM    1  C3  UNL     1       0.574  -0.271  -0.414  1.00  0.00     0.141 C 
HETATM    2  C4  UNL     1      -0.236   0.879  -0.952  1.00  0.00     0.037 C 
HETATM    3  C5  UNL     1      -1.186   1.412   0.092  1.00  0.00    -0.012 C 
HETATM    4  C6  UNL     1      -0.607   1.316   1.474  1.00  0.00     0.005 C 
HETATM    5  C7  UNL     1      -0.365  -0.109   1.839  1.00  0.00     0.010 C 
HETATM    6  C8  UNL     1      -0.256  -1.000   0.595  1.00  0.00     0.045 C 
HETATM    7  C9  UNL     1      -1.567  -1.463   0.148  1.00  0.00     0.134 C 
HETATM    8  O4  UNL     1      -1.861  -1.451  -1.208  1.00  0.00    -0.384 OA
HETATM    9  C10 UNL     1      -3.220  -1.391  -0.814  1.00  0.00     0.175 C 
HETATM   10  C11 UNL     1      -2.723  -0.560   0.379  1.00  0.00     0.039 C 
HETATM   11  C12 UNL     1      -2.559   0.846  -0.007  1.00  0.00     0.014 C 
ENDROOT
BRANCH   1  12
HETATM   12  O3  UNL     1       1.704   0.249   0.305  1.00  0.00    -0.292 OA
BRANCH  12  13
HETATM   13  C2  UNL     1       2.998  -0.056  -0.001  1.00  0.00     0.406 C 
HETATM   14  O2  UNL     1       3.250  -0.818  -0.943  1.00  0.00    -0.230 OA
BRANCH  13  15
HETATM   15  O1  UNL     1       4.002   0.526   0.789  1.00  0.00    -0.303 OA
HETATM   16  C1  UNL     1       5.347   0.235   0.503  1.00  0.00     0.215 C 
ENDBRANCH  13  15
ENDBRANCH  12  13
ENDBRANCH   1  12
TORSDOF 3
