REMARK  5 active torsions:
REMARK  status: ('A' for Active; 'I' for Inactive)
REMARK    1  A    between atoms: C4_4  and  C5_5 
REMARK    2  A    between atoms: C5_5  and  C6_6 
REMARK    3  A    between atoms: C6_6  and  O1_7 
REMARK    4  A    between atoms: C8_10  and  C9_11 
REMARK    5  A    between atoms: C13_19  and  C14_20 
ROOT
HETATM    1  C6  UNL     1       1.459  -0.931  -0.049  1.00  0.00     0.117 C 
HETATM    2  C7  UNL     1       1.204  -1.750  -1.252  1.00  0.00     0.088 C 
HETATM    3  C8  UNL     1       2.118  -1.982  -2.145  1.00  0.00     0.119 C 
HETATM    4  O4  UNL     1      -0.074  -2.245  -1.346  1.00  0.00    -0.351 OA
HETATM    5  C10 UNL     1      -1.071  -1.786  -0.408  1.00  0.00     0.189 C 
HETATM    6  C11 UNL     1      -0.914  -0.281  -0.330  1.00  0.00     0.023 C 
HETATM    7  C12 UNL     1      -1.614   0.199  -1.516  1.00  0.00     0.181 C 
HETATM    8  O5  UNL     1      -2.906  -0.354  -1.253  1.00  0.00    -0.384 OA
HETATM    9  C13 UNL     1      -3.081  -0.321   0.144  1.00  0.00     0.133 C 
HETATM   10  C17 UNL     1      -1.906   0.317   0.693  1.00  0.00    -0.005 C 
HETATM   11  C18 UNL     1      -1.964   1.775   0.763  1.00  0.00     0.019 C 
HETATM   12  C19 UNL     1      -1.242  -0.170   1.916  1.00  0.00     0.013 C 
HETATM   13  C20 UNL     1       0.204   0.263   1.630  1.00  0.00     0.014 C 
HETATM   14  C21 UNL     1       0.408   0.136   0.127  1.00  0.00     0.006 C 
HETATM   15  C22 UNL     1       0.808   1.442  -0.511  1.00  0.00     0.020 C 
ENDROOT
BRANCH   1  16
HETATM   16  C5  UNL     1       2.884  -0.574  -0.008  1.00  0.00     0.073 C 
BRANCH  16  17
HETATM   17  C4  UNL     1       3.391  -0.015   1.270  1.00  0.00    -0.021 C 
HETATM   18  C2  UNL     1       4.100   1.086   1.263  1.00  0.00    -0.091 C 
HETATM   19  C1  UNL     1       4.584   1.605   2.613  1.00  0.00     0.042 C 
HETATM   20  C3  UNL     1       4.532   1.887   0.107  1.00  0.00     0.042 C 
ENDBRANCH  16  17
ENDBRANCH   1  16
BRANCH   1  21
HETATM   21  O1  UNL     1       1.332  -1.913   0.996  1.00  0.00    -0.382 OA
ATOM     22  H1  UNL     1       0.411  -2.144   0.969  1.00  0.00     0.211 HD
ENDBRANCH   1  21
BRANCH   3  23
HETATM   23  C9  UNL     1       1.874  -2.795  -3.343  1.00  0.00     0.201 C 
HETATM   24  O2  UNL     1       0.726  -3.283  -3.500  1.00  0.00    -0.644 OA
HETATM   25  O3  UNL     1       2.823  -3.058  -4.308  1.00  0.00    -0.644 OA
ENDBRANCH   3  23
BRANCH   9  26
HETATM   26  C14 UNL     1      -4.446   0.201   0.401  1.00  0.00     0.007 C 
HETATM   27  C15 UNL     1      -5.427  -0.805  -0.263  1.00  0.00     0.012 C 
HETATM   28  C16 UNL     1      -4.768   1.491  -0.374  1.00  0.00     0.012 C 
ENDBRANCH   9  26
TORSDOF 5
