REMARK  5 active torsions:
REMARK  status: ('A' for Active; 'I' for Inactive)
REMARK       I    between atoms: N1_1  and  C1_4 
REMARK    1  A    between atoms: N3_6  and  C2_8 
REMARK    2  A    between atoms: C3_11  and  C4_12 
REMARK    3  A    between atoms: N7_17  and  C5_18 
REMARK    4  A    between atoms: C5_18  and  C6_19 
REMARK    5  A    between atoms: C12_25  and  C13_26 
ROOT
HETATM    1  C4  UNL     1       1.779   0.384   0.140  1.00  0.00     0.101 A 
HETATM    2  N5  UNL     1       1.653   1.447  -0.703  1.00  0.00    -0.282 N 
ATOM      3  H5  UNL     1       2.364   2.171  -0.809  1.00  0.00     0.188 HD
HETATM    4  N6  UNL     1       0.561   1.440  -1.339  1.00  0.00    -0.240 N 
ATOM      5  H6  UNL     1       0.265   2.141  -2.018  1.00  0.00     0.208 HD
HETATM    6  N7  UNL     1      -0.149   0.353  -0.972  1.00  0.00    -0.279 N 
HETATM    7  C12 UNL     1       0.608  -0.295  -0.059  1.00  0.00     0.064 A 
ENDROOT
BRANCH   1   8
HETATM    8  C3  UNL     1       2.982   0.175   1.018  1.00  0.00     0.071 A 
HETATM    9  N4  UNL     1       3.971   1.078   0.958  1.00  0.00    -0.334 N 
HETATM   10  C2  UNL     1       5.039   0.964   1.702  1.00  0.00     0.151 A 
ATOM     11  H4  UNL     1       3.888   1.869   0.319  1.00  0.00     0.168 HD
HETATM   12  S1  UNL     1       4.738  -0.481   2.592  1.00  0.00    -0.063 SA
HETATM   13  C19 UNL     1       3.206  -0.839   1.910  1.00  0.00     0.085 A 
BRANCH  10  14
HETATM   14  N3  UNL     1       6.102   1.675   1.815  1.00  0.00    -0.311 N 
HETATM   15  C1  UNL     1       6.562   2.818   1.226  1.00  0.00     0.187 C 
HETATM   16  N1  UNL     1       7.772   3.238   1.534  1.00  0.00    -0.373 N 
HETATM   17  N2  UNL     1       5.795   3.564   0.298  1.00  0.00    -0.064 NA
ATOM     18  H12 UNL     1       8.116   4.092   1.094  1.00  0.00     0.158 HD
ATOM     19  H11 UNL     1       8.324   2.701   2.202  1.00  0.00     0.158 HD
ATOM     20  H3  UNL     1       6.754   1.299   2.504  1.00  0.00     0.170 HD
ENDBRANCH  10  14
ENDBRANCH   1   8
BRANCH   7  21
HETATM   21  C13 UNL     1       0.329  -1.593   0.604  1.00  0.00     0.040 C 
HETATM   22  C14 UNL     1      -1.106  -2.027   0.711  1.00  0.00     0.011 C 
HETATM   23  C15 UNL     1      -1.203  -3.281   1.620  1.00  0.00     0.001 C 
HETATM   24  C16 UNL     1      -0.582  -4.400   0.874  1.00  0.00     0.000 C 
HETATM   25  C17 UNL     1       0.084  -3.923  -0.384  1.00  0.00     0.001 C 
HETATM   26  C18 UNL     1       0.967  -2.748  -0.139  1.00  0.00     0.011 C 
ENDBRANCH   7  21
BRANCH   6  27
HETATM   27  C5  UNL     1      -1.440   0.056  -1.496  1.00  0.00     0.155 C 
BRANCH  27  28
HETATM   28  C6  UNL     1      -2.629   0.702  -0.877  1.00  0.00     0.005 C 
HETATM   29  C7  UNL     1      -3.899   0.239  -1.557  1.00  0.00     0.006 C 
HETATM   30  C8  UNL     1      -4.720   1.367  -2.120  1.00  0.00     0.000 C 
HETATM   31  C9  UNL     1      -5.056   2.308  -0.964  1.00  0.00     0.000 C 
HETATM   32  C10 UNL     1      -3.812   2.708  -0.211  1.00  0.00     0.000 C 
HETATM   33  C11 UNL     1      -2.617   2.217  -0.994  1.00  0.00     0.006 C 
ENDBRANCH  27  28
ENDBRANCH   6  27
TORSDOF 5
