REMARK  7 active torsions:
REMARK  status: ('A' for Active; 'I' for Inactive)
REMARK    1  A    between atoms: C9_10  and  C11_12 
REMARK    2  A    between atoms: C11_12  and  O1_13 
REMARK    3  A    between atoms: C11_12  and  C12_15 
REMARK    4  A    between atoms: C12_15  and  C13_16 
REMARK    5  A    between atoms: C13_16  and  C14_17 
REMARK    6  A    between atoms: C14_17  and  O2_18 
REMARK    7  A    between atoms: C18_24  and  O3_25 
ROOT
HETATM    1  C1  UNL     1       0.613   2.643   1.973  1.00  0.00     0.015 C 
HETATM    2  C2  UNL     1       0.336   2.340   0.470  1.00  0.00     0.017 A 
HETATM    3  C3  UNL     1      -0.221   3.627  -0.017  1.00  0.00     0.058 A 
HETATM    4  C4  UNL     1      -1.537   3.557  -0.594  1.00  0.00     0.023 A 
HETATM    5  C5  UNL     1      -2.160   4.803  -1.027  1.00  0.00     0.095 C 
HETATM    6  N1  UNL     1      -2.638   5.793  -1.384  1.00  0.00    -0.192 NA
HETATM    7  C6  UNL     1      -2.165   2.441  -0.733  1.00  0.00     0.026 A 
HETATM    8  C7  UNL     1      -1.608   1.158  -0.313  1.00  0.00    -0.048 A 
HETATM    9  C8  UNL     1      -0.414   1.116   0.254  1.00  0.00    -0.058 A 
HETATM   10  C9  UNL     1       0.107  -0.264   0.606  1.00  0.00     0.011 C 
HETATM   11  C10 UNL     1      -0.105  -0.349   2.104  1.00  0.00     0.023 C 
HETATM   12  C16 UNL     1      -0.522  -1.358  -0.164  1.00  0.00     0.011 C 
HETATM   13  C17 UNL     1      -1.333  -2.354   0.635  1.00  0.00     0.038 C 
HETATM   14  C18 UNL     1      -2.678  -1.929   1.072  1.00  0.00     0.119 C 
HETATM   15  C19 UNL     1      -3.159  -0.615   0.521  1.00  0.00     0.042 C 
HETATM   16  C20 UNL     1      -2.441  -0.062  -0.616  1.00  0.00     0.029 C 
HETATM   17  C21 UNL     1      -1.445  -0.970  -1.306  1.00  0.00    -0.035 C 
HETATM   18  C22 UNL     1      -2.091  -2.188  -1.937  1.00  0.00     0.016 C 
HETATM   19  C23 UNL     1      -0.785  -0.296  -2.460  1.00  0.00     0.016 C 
ENDROOT
BRANCH  10  20
HETATM   20  C11 UNL     1       1.640  -0.345   0.514  1.00  0.00     0.134 C 
BRANCH  20  21
HETATM   21  O1  UNL     1       1.829  -1.710   0.952  1.00  0.00    -0.394 OA
ATOM     22  H1  UNL     1       2.776  -1.760   0.895  1.00  0.00     0.210 HD
ENDBRANCH  20  21
BRANCH  20  23
HETATM   23  C12 UNL     1       2.275  -0.209  -0.776  1.00  0.00     0.063 C 
BRANCH  23  24
HETATM   24  C13 UNL     1       3.766  -0.199  -0.815  1.00  0.00     0.024 C 
BRANCH  24  25
HETATM   25  C14 UNL     1       4.574  -1.318  -0.344  1.00  0.00     0.143 C 
HETATM   26  C15 UNL     1       4.813  -1.375   1.082  1.00  0.00     0.124 C 
HETATM   27  N2  UNL     1       5.034  -1.421   2.236  1.00  0.00    -0.189 NA
BRANCH  25  28
HETATM   28  O2  UNL     1       4.375  -2.550  -0.957  1.00  0.00    -0.351 OA
ATOM     29  H2  UNL     1       4.901  -3.279  -0.650  1.00  0.00     0.218 HD
ENDBRANCH  25  28
ENDBRANCH  24  25
ENDBRANCH  23  24
ENDBRANCH  20  23
ENDBRANCH  10  20
BRANCH  14  30
HETATM   30  O3  UNL     1      -2.802  -2.012   2.471  1.00  0.00    -0.396 OA
ATOM     31  H3  UNL     1      -3.667  -1.739   2.752  1.00  0.00     0.210 HD
ENDBRANCH  14  30
TORSDOF 7
