REMARK  6 active torsions:
REMARK  status: ('A' for Active; 'I' for Inactive)
REMARK    1  A    between atoms: C3_3  and  C4_4 
REMARK    2  A    between atoms: C4_4  and  C5_5 
REMARK    3  A    between atoms: C6_6  and  C7_7 
REMARK    4  A    between atoms: C9_10  and  O2_11 
REMARK    5  A    between atoms: C16_20  and  O4_21 
REMARK    6  A    between atoms: C19_25  and  C20_26 
ROOT
HETATM    1  C1  UNL     1       1.618  -0.839   0.592  1.00  0.00     0.015 C 
HETATM    2  C2  UNL     1       0.947  -0.008  -0.486  1.00  0.00     0.016 C 
HETATM    3  C3  UNL     1       1.364   1.371  -0.356  1.00  0.00    -0.076 C 
HETATM    4  C10 UNL     1       0.472   2.300  -0.137  1.00  0.00    -0.022 C 
HETATM    5  C11 UNL     1      -0.931   2.035  -0.016  1.00  0.00     0.041 C 
HETATM    6  C12 UNL     1      -1.361   0.634   0.387  1.00  0.00    -0.012 C 
HETATM    7  C13 UNL     1      -0.981   0.522   1.815  1.00  0.00     0.021 C 
HETATM    8  C14 UNL     1      -0.526  -0.246  -0.548  1.00  0.00     0.009 C 
HETATM    9  C15 UNL     1      -0.757  -1.709  -0.369  1.00  0.00     0.042 C 
HETATM   10  C16 UNL     1      -1.910  -2.216  -1.160  1.00  0.00     0.141 C 
HETATM   11  C17 UNL     1      -2.709  -1.220  -1.885  1.00  0.00     0.005 C 
HETATM   12  C18 UNL     1      -3.081   0.046  -1.327  1.00  0.00     0.003 C 
HETATM   13  C19 UNL     1      -2.827   0.462   0.094  1.00  0.00    -0.064 C 
ENDROOT
BRANCH   3  14
HETATM   14  C4  UNL     1       2.792   1.767  -0.490  1.00  0.00     0.061 C 
BRANCH  14  15
HETATM   15  C5  UNL     1       3.385   1.446  -1.801  1.00  0.00    -0.024 C 
HETATM   16  C6  UNL     1       4.439   0.749  -2.114  1.00  0.00     0.003 C 
BRANCH  16  17
HETATM   17  C7  UNL     1       5.402   0.048  -1.263  1.00  0.00     0.173 C 
HETATM   18  C8  UNL     1       6.097   0.925  -0.244  1.00  0.00     0.209 C 
HETATM   19  O1  UNL     1       5.995   0.193   0.943  1.00  0.00    -0.336 OA
HETATM   20  C9  UNL     1       5.719  -1.116   0.548  1.00  0.00     0.411 C 
HETATM   21  O3  UNL     1       4.932  -1.032  -0.582  1.00  0.00    -0.328 OA
BRANCH  20  22
HETATM   22  O2  UNL     1       5.030  -1.833   1.516  1.00  0.00    -0.349 OA
ATOM     23  H2  UNL     1       4.842  -2.725   1.247  1.00  0.00     0.215 HD
ENDBRANCH  20  22
ENDBRANCH  16  17
ENDBRANCH  14  15
ENDBRANCH   3  14
BRANCH  13  24
HETATM   24  C20 UNL     1      -3.791   0.071   1.133  1.00  0.00    -0.027 C 
HETATM   25  C21 UNL     1      -5.156  -0.015   0.395  1.00  0.00     0.019 C 
HETATM   26  C22 UNL     1      -4.098   1.204   2.153  1.00  0.00     0.019 C 
HETATM   27  C23 UNL     1      -3.690  -1.119   1.958  1.00  0.00     0.019 C 
ENDBRANCH  13  24
BRANCH  10  28
HETATM   28  O4  UNL     1      -1.419  -3.159  -2.083  1.00  0.00    -0.392 OA
ATOM     29  H4  UNL     1      -2.155  -3.483  -2.588  1.00  0.00     0.210 HD
ENDBRANCH  10  28
TORSDOF 6
