REMARK  7 active torsions:
REMARK  status: ('A' for Active; 'I' for Inactive)
REMARK    1  A    between atoms: C2_2  and  C3_3 
REMARK    2  A    between atoms: C3_3  and  O1_4 
REMARK    3  A    between atoms: C3_3  and  C4_6 
REMARK    4  A    between atoms: C6_8  and  O2_9 
REMARK    5  A    between atoms: O2_9  and  C7_10 
REMARK       I    between atoms: C7_10  and  N1_12 
REMARK    6  A    between atoms: C9_15  and  C10_16 
REMARK    7  A    between atoms: C10_16  and  O4_17 
ROOT
HETATM    1  C4  UNL     1       1.819  -0.288  -0.049  1.00  0.00     0.217 C 
HETATM    2  C5  UNL     1       0.999   0.463  -1.058  1.00  0.00     0.069 C 
HETATM    3  C6  UNL     1      -0.310   0.864  -0.475  1.00  0.00     0.145 C 
HETATM    4  C9  UNL     1      -0.990  -0.146   0.391  1.00  0.00     0.082 C 
HETATM    5  C15 UNL     1      -0.063  -1.143   1.020  1.00  0.00     0.192 C 
HETATM    6  C16 UNL     1       0.526  -0.620   2.340  1.00  0.00     0.040 C 
HETATM    7  N2  UNL     1       1.063  -1.521   0.214  1.00  0.00    -0.064 N 
ATOM      8  H21 UNL     1       1.628  -2.261   0.631  1.00  0.00     0.278 HD
ATOM      9  H22 UNL     1       0.802  -2.024  -0.634  1.00  0.00     0.278 HD
ENDROOT
BRANCH   4  10
HETATM   10  C10 UNL     1      -2.129  -0.858  -0.232  1.00  0.00     0.091 C 
HETATM   11  C12 UNL     1      -1.798  -1.649  -1.483  1.00  0.00     0.067 C 
HETATM   12  C13 UNL     1      -3.219  -1.865  -1.997  1.00  0.00     0.170 C 
HETATM   13  O5  UNL     1      -4.041  -0.962  -1.392  1.00  0.00    -0.388 OA
HETATM   14  C14 UNL     1      -3.221   0.014  -0.777  1.00  0.00     0.206 C 
BRANCH  10  15
HETATM   15  O4  UNL     1      -2.690  -1.747   0.644  1.00  0.00    -0.382 OA
HETATM   16  C11 UNL     1      -3.223  -1.260   1.794  1.00  0.00     0.202 C 
ENDBRANCH  10  15
ENDBRANCH   4  10
BRANCH   3  17
HETATM   17  O2  UNL     1      -0.079   2.090   0.241  1.00  0.00    -0.298 OA
BRANCH  17  18
HETATM   18  C7  UNL     1      -0.596   3.305  -0.153  1.00  0.00     0.360 C 
HETATM   19  O3  UNL     1      -1.306   3.305  -1.205  1.00  0.00    -0.239 OA
HETATM   20  N1  UNL     1      -0.352   4.511   0.576  1.00  0.00    -0.341 N 
HETATM   21  C8  UNL     1      -0.906   5.783   0.144  1.00  0.00     0.151 C 
ATOM     22  H1  UNL     1       0.223   4.478   1.418  1.00  0.00     0.164 HD
ENDBRANCH  17  18
ENDBRANCH   3  17
BRANCH   1  23
HETATM   23  C3  UNL     1       3.156  -0.727  -0.604  1.00  0.00     0.148 C 
BRANCH  23  24
HETATM   24  C2  UNL     1       3.829  -1.582   0.449  1.00  0.00     0.029 C 
HETATM   25  C1  UNL     1       5.193  -2.060  -0.036  1.00  0.00     0.007 C 
ENDBRANCH  23  24
BRANCH  23  26
HETATM   26  O1  UNL     1       2.976  -1.449  -1.764  1.00  0.00    -0.393 OA
ATOM     27  H1  UNL     1       2.554  -0.913  -2.425  1.00  0.00     0.210 HD
ENDBRANCH  23  26
ENDBRANCH   1  23
TORSDOF 7
