REMARK  7 active torsions:
REMARK  status: ('A' for Active; 'I' for Inactive)
REMARK    1  A    between atoms: C8_10  and  O3_11 
REMARK    2  A    between atoms: C8_10  and  C9_13 
REMARK    3  A    between atoms: C9_13  and  C10_14 
REMARK    4  A    between atoms: C10_14  and  C11_15 
REMARK    5  A    between atoms: C11_15  and  O4_16 
REMARK    6  A    between atoms: C15_21  and  C16_22 
REMARK    7  A    between atoms: C16_22  and  O5_23 
ROOT
HETATM    1  O1  UNL     1       1.146   3.253  -1.335  1.00  0.00    -0.298 OA
HETATM    2  C1  UNL     1       0.701   2.479  -0.515  1.00  0.00     0.128 C 
HETATM    3  C2  UNL     1      -0.763   2.243  -0.386  1.00  0.00     0.086 C 
HETATM    4  C3  UNL     1      -0.924   1.035   0.549  1.00  0.00     0.040 C 
HETATM    5  C4  UNL     1      -0.091  -0.078   0.043  1.00  0.00     0.005 C 
HETATM    6  C5  UNL     1      -0.497  -1.464   0.429  1.00  0.00     0.013 C 
HETATM    7  C6  UNL     1      -1.721  -1.550   1.304  1.00  0.00     0.082 C 
HETATM    8  C7  UNL     1      -2.764  -0.582   0.929  1.00  0.00     0.162 C 
HETATM    9  O2  UNL     1      -3.901  -1.014   0.894  1.00  0.00    -0.295 OA
HETATM   10  C8  UNL     1      -2.392   0.782   0.635  1.00  0.00     0.131 C 
HETATM   11  C12 UNL     1       1.357   0.220   0.283  1.00  0.00    -0.008 C 
HETATM   12  C13 UNL     1       1.984  -0.355   1.492  1.00  0.00     0.015 C 
HETATM   13  C14 UNL     1       2.996  -1.405   1.138  1.00  0.00     0.035 C 
HETATM   14  C15 UNL     1       4.040  -0.859   0.234  1.00  0.00     0.145 C 
HETATM   15  O6  UNL     1       3.525   0.130  -0.604  1.00  0.00    -0.383 OA
HETATM   16  C17 UNL     1       2.202  -0.157  -0.950  1.00  0.00     0.178 C 
HETATM   17  C18 UNL     1       1.590   1.750   0.372  1.00  0.00     0.090 C 
ENDROOT
BRANCH  10  18
HETATM   18  O3  UNL     1      -2.847   1.562   1.740  1.00  0.00    -0.381 OA
ATOM     19  H3  UNL     1      -3.782   1.401   1.795  1.00  0.00     0.211 HD
ENDBRANCH  10  18
BRANCH  10  20
HETATM   20  C9  UNL     1      -3.182   1.332  -0.517  1.00  0.00     0.128 C 
BRANCH  20  21
HETATM   21  C10 UNL     1      -4.034   0.720  -1.262  1.00  0.00    -0.154 C 
BRANCH  21  22
HETATM   22  C11 UNL     1      -4.970   0.047  -2.081  1.00  0.00     0.244 C 
BRANCH  22  23
HETATM   23  O4  UNL     1      -6.098  -0.480  -1.390  1.00  0.00    -0.390 OA
ATOM     24  H4  UNL     1      -6.727  -0.932  -1.940  1.00  0.00     0.210 HD
ENDBRANCH  22  23
ENDBRANCH  21  22
ENDBRANCH  20  21
ENDBRANCH  10  20
BRANCH  14  25
HETATM   25  C16 UNL     1       4.592  -1.921  -0.710  1.00  0.00     0.196 C 
BRANCH  25  26
HETATM   26  O5  UNL     1       5.591  -1.393  -1.519  1.00  0.00    -0.398 OA
ATOM     27  H5  UNL     1       5.935  -2.055  -2.107  1.00  0.00     0.209 HD
ENDBRANCH  25  26
ENDBRANCH  14  25
TORSDOF 7
