REMARK  4 active torsions:
REMARK  status: ('A' for Active; 'I' for Inactive)
REMARK    1  A    between atoms: S1_2  and  O4_5 
REMARK    2  A    between atoms: O4_5  and  C1_6 
REMARK    3  A    between atoms: C2_7  and  O5_8 
REMARK    4  A    between atoms: C7_15  and  O7_16 
ROOT
HETATM    1  C1  UNL     1       0.666  -0.019  -0.211  1.00  0.00     0.238 C 
HETATM    2  C2  UNL     1       0.266   1.338  -0.691  1.00  0.00     0.290 C 
HETATM    3  O6  UNL     1      -0.813   1.893  -0.102  1.00  0.00    -0.358 OA
HETATM    4  C3  UNL     1      -1.158   1.413   1.141  1.00  0.00     0.179 C 
HETATM    5  C4  UNL     1      -1.969   0.135   1.070  1.00  0.00     0.035 C 
HETATM    6  C5  UNL     1      -2.464   0.012  -0.343  1.00  0.00    -0.021 C 
HETATM    7  C6  UNL     1      -1.580  -0.653  -1.074  1.00  0.00     0.010 C 
HETATM    8  C7  UNL     1      -0.431  -1.035  -0.253  1.00  0.00     0.108 C 
HETATM    9  C8  UNL     1      -1.052  -1.091   1.149  1.00  0.00     0.055 C 
ENDROOT
BRANCH   1  10
HETATM   10  O4  UNL     1       1.686  -0.479  -1.059  1.00  0.00    -0.243 OA
BRANCH  10  11
HETATM   11  S1  UNL     1       3.107  -0.762  -0.235  1.00  0.00     0.252 S 
HETATM   12  O1  UNL     1       4.185  -0.992  -1.270  1.00  0.00    -0.572 OA
HETATM   13  O2  UNL     1       2.979  -2.017   0.590  1.00  0.00    -0.572 OA
HETATM   14  O3  UNL     1       3.588   0.546   0.694  1.00  0.00    -0.572 OA
ENDBRANCH  10  11
ENDBRANCH   1  10
BRANCH   2  15
HETATM   15  O5  UNL     1       0.065   1.276  -2.087  1.00  0.00    -0.368 OA
ATOM     16  H5  UNL     1      -0.189   2.139  -2.392  1.00  0.00     0.212 HD
ENDBRANCH   2  15
BRANCH   8  17
HETATM   17  O7  UNL     1       0.039  -2.325  -0.543  1.00  0.00    -0.383 OA
ATOM     18  H7  UNL     1      -0.658  -2.970  -0.570  1.00  0.00     0.211 HD
ENDBRANCH   8  17
TORSDOF 4
