REMARK  6 active torsions:
REMARK  status: ('A' for Active; 'I' for Inactive)
REMARK    1  A    between atoms: C2_2  and  O1_3 
REMARK    2  A    between atoms: C2_2  and  C3_5 
REMARK    3  A    between atoms: C3_5  and  O2_6 
REMARK    4  A    between atoms: O2_6  and  C4_7 
REMARK    5  A    between atoms: C11_16  and  O5_17 
REMARK    6  A    between atoms: C12_19  and  O6_20 
ROOT
HETATM    1  C4  UNL     1       0.756   0.327   0.028  1.00  0.00     0.294 C 
HETATM    2  O3  UNL     1      -0.201   1.300   0.391  1.00  0.00    -0.328 OA
HETATM    3  C5  UNL     1      -1.487   0.944   0.175  1.00  0.00     0.270 C 
HETATM    4  O4  UNL     1      -2.095   0.715   1.421  1.00  0.00    -0.357 OA
HETATM    5  C6  UNL     1      -3.188   1.544   1.639  1.00  0.00     0.198 C 
HETATM    6  C7  UNL     1      -4.128   1.387   0.481  1.00  0.00    -0.005 C 
HETATM    7  C8  UNL     1      -4.144   0.447  -0.474  1.00  0.00    -0.028 C 
HETATM    8  C9  UNL     1      -3.175  -0.675  -0.563  1.00  0.00     0.039 C 
HETATM    9  C10 UNL     1      -1.747  -0.156  -0.784  1.00  0.00     0.076 C 
HETATM   10  C11 UNL     1      -0.842  -1.333  -0.696  1.00  0.00     0.160 C 
HETATM   11  C12 UNL     1       0.188  -1.020   0.383  1.00  0.00     0.202 C 
ENDROOT
BRANCH   1  12
HETATM   12  O2  UNL     1       1.840   0.579   0.738  1.00  0.00    -0.356 OA
BRANCH  12  13
HETATM   13  C3  UNL     1       3.002   0.993   0.305  1.00  0.00     0.202 C 
BRANCH  13  14
HETATM   14  C2  UNL     1       3.875   0.299  -0.637  1.00  0.00     0.138 C 
HETATM   15  C1  UNL     1       4.488  -0.986  -0.040  1.00  0.00     0.041 C 
BRANCH  14  16
HETATM   16  O1  UNL     1       5.041   1.081  -0.892  1.00  0.00    -0.394 OA
ATOM     17  H1  UNL     1       4.664   1.872  -1.259  1.00  0.00     0.210 HD
ENDBRANCH  14  16
ENDBRANCH  13  14
ENDBRANCH  12  13
ENDBRANCH   1  12
BRANCH  11  18
HETATM   18  O6  UNL     1       1.082  -2.054   0.400  1.00  0.00    -0.388 OA
ATOM     19  H6  UNL     1       0.723  -2.905   0.624  1.00  0.00     0.210 HD
ENDBRANCH  11  18
BRANCH  10  20
HETATM   20  O5  UNL     1      -1.514  -2.517  -0.379  1.00  0.00    -0.392 OA
ATOM     21  H5  UNL     1      -0.936  -3.269  -0.323  1.00  0.00     0.210 HD
ENDBRANCH  10  20
TORSDOF 6
