REMARK  5 active torsions:
REMARK  status: ('A' for Active; 'I' for Inactive)
REMARK    1  A    between atoms: C2_2  and  C5_5 
REMARK    2  A    between atoms: N1_7  and  C7_8 
REMARK    3  A    between atoms: C10_12  and  C11_13 
REMARK    4  A    between atoms: C11_13  and  O1_14 
REMARK    5  A    between atoms: O1_14  and  C12_15 
ROOT
HETATM    1  C5  UNL     1      -2.326  -0.120   0.425  1.00  0.00     0.033 A 
HETATM    2  C6  UNL     1      -1.152  -0.012  -0.298  1.00  0.00     0.112 A 
HETATM    3  N1  UNL     1       0.029  -0.022   0.355  1.00  0.00    -0.282 N 
HETATM    4  C13 UNL     1       0.097  -0.134   1.694  1.00  0.00     0.331 A 
HETATM    5  O4  UNL     1       1.227  -0.141   2.289  1.00  0.00    -0.246 OA
HETATM    6  N2  UNL     1      -1.048  -0.239   2.391  1.00  0.00    -0.275 N 
ATOM      7  H2  UNL     1      -0.999  -0.324   3.406  1.00  0.00     0.173 HD
HETATM    8  C14 UNL     1      -2.255  -0.236   1.799  1.00  0.00     0.257 A 
HETATM    9  O5  UNL     1      -3.282  -0.339   2.532  1.00  0.00    -0.267 OA
ENDROOT
BRANCH   3  10
HETATM   10  C7  UNL     1       1.239   0.091  -0.412  1.00  0.00     0.233 C 
HETATM   11  C8  UNL     1       1.800   1.497  -0.335  1.00  0.00     0.073 C 
HETATM   12  C9  UNL     1       3.260   1.225  -0.616  1.00  0.00     0.093 C 
HETATM   13 BR1  UNL     1       4.407   2.491   0.281  1.00  0.00    -0.088 Br
HETATM   14  C10 UNL     1       3.443  -0.170  -0.127  1.00  0.00     0.163 C 
HETATM   15  O3  UNL     1       2.204  -0.722   0.165  1.00  0.00    -0.358 OA
BRANCH  14  16
HETATM   16  C11 UNL     1       4.139  -1.016  -1.166  1.00  0.00     0.213 C 
BRANCH  16  17
HETATM   17  O1  UNL     1       5.393  -0.578  -1.550  1.00  0.00    -0.306 OA
BRANCH  17  18
HETATM   18  C12 UNL     1       6.459  -0.472  -0.685  1.00  0.00     0.357 C 
HETATM   19  O2  UNL     1       6.293  -0.790   0.516  1.00  0.00    -0.246 OA
HETATM   20 CL1  UNL     1       8.039   0.101  -1.243  1.00  0.00    -0.012 Cl
ENDBRANCH  17  18
ENDBRANCH  16  17
ENDBRANCH  14  16
ENDBRANCH   3  10
BRANCH   1  21
HETATM   21  C2  UNL     1      -3.666  -0.120  -0.186  1.00  0.00    -0.017 C 
HETATM   22  C1  UNL     1      -3.610   0.012  -1.693  1.00  0.00     0.019 C 
HETATM   23  C3  UNL     1      -4.331  -1.447   0.117  1.00  0.00     0.019 C 
HETATM   24  C4  UNL     1      -4.547   0.972   0.380  1.00  0.00     0.019 C 
ENDBRANCH   1  21
TORSDOF 5
