REMARK  3 active torsions:
REMARK  status: ('A' for Active; 'I' for Inactive)
REMARK    1  A    between atoms: C1_2  and  C2_3 
REMARK       I    between atoms: C1_2  and  N2_13 
REMARK    2  A    between atoms: C3_4  and  S1_5 
REMARK    3  A    between atoms: S1_5  and  C4_6 
ROOT
HETATM    1  O1  UNL     1      -0.785   0.410  -2.222  1.00  0.00    -0.268 OA
HETATM    2  C1  UNL     1      -0.788  -0.385  -1.257  1.00  0.00     0.247 C 
HETATM    3  N2  UNL     1      -2.004  -0.908  -0.762  1.00  0.00    -0.302 N 
ATOM      4  H2  UNL     1      -2.155  -1.912  -0.664  1.00  0.00     0.171 HD
HETATM    5  C7  UNL     1      -2.930  -0.036  -0.435  1.00  0.00     0.168 A 
HETATM    6  N3  UNL     1      -4.151  -0.280   0.051  1.00  0.00    -0.278 N 
ATOM      7  H3  UNL     1      -4.464  -1.238   0.211  1.00  0.00     0.189 HD
HETATM    8  N4  UNL     1      -4.913   0.699   0.310  1.00  0.00    -0.286 N 
ATOM      9  H4  UNL     1      -5.848   0.531   0.682  1.00  0.00     0.188 HD
HETATM   10  C8  UNL     1      -4.500   1.939   0.099  1.00  0.00     0.139 A 
HETATM   11 BR2  UNL     1      -5.471   3.577   0.413  1.00  0.00    -0.021 Br
HETATM   12  S2  UNL     1      -2.923   1.676  -0.505  1.00  0.00    -0.026 SA
ENDROOT
BRANCH   2  13
HETATM   13  C2  UNL     1       0.451  -0.796  -0.615  1.00  0.00     0.081 C 
HETATM   14  C3  UNL     1       0.443  -1.634   0.402  1.00  0.00     0.057 C 
BRANCH  14  15
HETATM   15  S1  UNL     1       1.984  -2.107   1.155  1.00  0.00    -0.082 SA
BRANCH  15  16
HETATM   16  C4  UNL     1       3.085  -0.705   1.060  1.00  0.00     0.098 A 
HETATM   17  C5  UNL     1       3.948  -0.440   0.030  1.00  0.00     0.086 A 
HETATM   18  C6  UNL     1       4.599   0.724   0.358  1.00  0.00     0.147 A 
HETATM   19 BR1  UNL     1       5.930   1.658  -0.631  1.00  0.00    -0.021 Br
HETATM   20  O2  UNL     1       4.141   1.106   1.505  1.00  0.00    -0.229 OA
HETATM   21  N1  UNL     1       3.242   0.278   1.944  1.00  0.00    -0.253 N 
ATOM     22  H1  UNL     1       2.737   0.367   2.826  1.00  0.00     0.195 HD
ENDBRANCH  15  16
ENDBRANCH  14  15
ENDBRANCH   2  13
TORSDOF 3
