REMARK  5 active torsions:
REMARK  status: ('A' for Active; 'I' for Inactive)
REMARK    1  A    between atoms: C2_2  and  N1_3 
REMARK       I    between atoms: N1_3  and  C3_5 
REMARK       I    between atoms: C3_5  and  N5_18 
REMARK    2  A    between atoms: N2_6  and  C4_8 
REMARK    3  A    between atoms: C4_8  and  N3_10 
REMARK    4  A    between atoms: N3_10  and  C5_12 
REMARK    5  A    between atoms: C5_12  and  C6_13 
ROOT
HETATM    1  N1  UNL     1       3.029  -0.571  -0.904  1.00  0.00    -0.226 N 
ATOM      2  H1  UNL     1       3.796  -0.147  -1.425  1.00  0.00     0.177 HD
HETATM    3  C3  UNL     1       1.890   0.216  -0.545  1.00  0.00     0.677 C 
HETATM    4  N2  UNL     1       0.766  -0.329  -0.669  1.00  0.00    -0.166 N 
ATOM      5  H2  UNL     1       0.810  -1.287  -1.017  1.00  0.00     0.186 HD
HETATM    6  N5  UNL     1       2.188   1.524  -0.091  1.00  0.00    -0.227 N 
HETATM    7  C9  UNL     1       2.311   1.892   1.299  1.00  0.00     0.168 C 
HETATM    8  C10 UNL     1       2.383   2.554  -1.090  1.00  0.00     0.168 C 
ENDROOT
BRANCH   4   9
HETATM    9  C4  UNL     1      -0.522   0.117  -0.425  1.00  0.00     0.191 C 
HETATM   10  S1  UNL     1      -0.890   1.700  -0.520  1.00  0.00    -0.040 SA
BRANCH   9  11
HETATM   11  N3  UNL     1      -1.559  -0.792  -0.084  1.00  0.00    -0.323 N 
ATOM     12  H3  UNL     1      -1.316  -1.781  -0.023  1.00  0.00     0.169 HD
BRANCH  11  13
HETATM   13  C5  UNL     1      -2.903  -0.433   0.178  1.00  0.00     0.078 C 
HETATM   14  N4  UNL     1      -3.703  -0.381  -0.836  1.00  0.00    -0.384 N 
HETATM   15  C8  UNL     1      -3.258  -0.672  -2.189  1.00  0.00     0.147 C 
ATOM     16  H4  UNL     1      -4.679  -0.127  -0.682  1.00  0.00     0.160 HD
BRANCH  13  17
HETATM   17  C6  UNL     1      -3.345  -0.137   1.555  1.00  0.00     0.072 C 
HETATM   18  C7  UNL     1      -4.827   0.181   1.578  1.00  0.00     0.013 C 
ENDBRANCH  13  17
ENDBRANCH  11  13
ENDBRANCH   9  11
ENDBRANCH   4   9
BRANCH   1  19
HETATM   19  C2  UNL     1       3.096  -1.963  -0.531  1.00  0.00     0.133 C 
HETATM   20  C1  UNL     1       3.241  -2.168   0.950  1.00  0.00     0.027 C 
ENDBRANCH   1  19
TORSDOF 5
