REMARK  5 active torsions:
REMARK  status: ('A' for Active; 'I' for Inactive)
REMARK    1  A    between atoms: C2_2  and  C3_3 
REMARK    2  A    between atoms: C3_3  and  C4_4 
REMARK    3  A    between atoms: C4_4  and  C5_5 
REMARK       I    between atoms: C5_5  and  N1_7 
REMARK       I    between atoms: C6_9  and  N3_11 
REMARK    4  A    between atoms: N3_11  and  C7_13 
REMARK    5  A    between atoms: C7_13  and  N4_15 
ROOT
HETATM    1  C5  UNL     1       1.887  -0.077  -1.923  1.00  0.00     0.224 C 
HETATM    2  O1  UNL     1       1.457  -0.476  -3.027  1.00  0.00    -0.273 OA
HETATM    3  N1  UNL     1       1.051   0.068  -0.784  1.00  0.00    -0.301 N 
ATOM      4  H1  UNL     1       1.487   0.071   0.138  1.00  0.00     0.171 HD
HETATM    5  C6  UNL     1      -0.222   0.195  -0.854  1.00  0.00     0.197 C 
HETATM    6  N2  UNL     1      -0.841   0.192  -2.136  1.00  0.00    -0.063 NA
HETATM    7  N3  UNL     1      -0.974   0.334   0.331  1.00  0.00    -0.307 N 
ATOM      8  H3  UNL     1      -0.872   1.180   0.891  1.00  0.00     0.171 HD
ENDROOT
BRANCH   7   9
HETATM    9  C7  UNL     1      -1.867  -0.676   0.759  1.00  0.00     0.176 C 
HETATM   10  S1  UNL     1      -2.030  -2.025  -0.134  1.00  0.00    -0.041 SA
BRANCH   9  11
HETATM   11  N4  UNL     1      -2.622  -0.530   1.954  1.00  0.00    -0.358 N 
HETATM   12  C8  UNL     1      -2.598   0.593   2.856  1.00  0.00     0.125 C 
HETATM   13  C9  UNL     1      -3.891   0.541   3.643  1.00  0.00     0.021 C 
HETATM   14  C10 UNL     1      -4.685  -0.552   2.957  1.00  0.00     0.021 C 
HETATM   15  C11 UNL     1      -3.567  -1.483   2.502  1.00  0.00     0.125 C 
ENDBRANCH   9  11
ENDBRANCH   7   9
BRANCH   1  16
HETATM   16  C4  UNL     1       3.346   0.251  -1.831  1.00  0.00     0.107 C 
BRANCH  16  17
HETATM   17  C3  UNL     1       4.021   0.023  -3.140  1.00  0.00     0.035 C 
BRANCH  17  18
HETATM   18  C2  UNL     1       5.468   0.335  -3.050  1.00  0.00    -0.036 C 
HETATM   19  C1  UNL     1       5.971   0.725  -1.889  1.00  0.00     0.007 C 
ENDBRANCH  17  18
ENDBRANCH  16  17
ENDBRANCH   1  16
TORSDOF 5
