REMARK  4 active torsions:
REMARK  status: ('A' for Active; 'I' for Inactive)
REMARK    1  A    between atoms: C2_2  and  N1_3 
REMARK    2  A    between atoms: N1_3  and  C3_4 
REMARK       I    between atoms: N1_3  and  C5_6 
REMARK       I    between atoms: N3_8  and  C6_10 
REMARK    3  A    between atoms: C6_10  and  C7_12 
REMARK       I    between atoms: C7_12  and  N4_14 
REMARK    4  A    between atoms: N4_14  and  C8_16 
ROOT
HETATM    1  N1  UNL     1      -3.157   0.178   0.586  1.00  0.00    -0.356 N 
HETATM    2  C5  UNL     1      -1.903   0.452  -0.010  1.00  0.00     0.193 C 
HETATM    3  N2  UNL     1      -1.755   0.198  -1.391  1.00  0.00    -0.063 NA
HETATM    4  N3  UNL     1      -0.943   0.928   0.743  1.00  0.00    -0.293 N 
ATOM      5  H3  UNL     1      -1.070   1.106   1.739  1.00  0.00     0.172 HD
HETATM    6  C6  UNL     1       0.292   1.181   0.075  1.00  0.00     0.315 C 
HETATM    7  O1  UNL     1       0.310   2.147  -0.728  1.00  0.00    -0.262 OA
ENDROOT
BRANCH   6   8
HETATM    8  C7  UNL     1       1.490   0.395   0.279  1.00  0.00     0.310 C 
HETATM    9  O2  UNL     1       1.467  -0.563   1.088  1.00  0.00    -0.262 OA
HETATM   10  N4  UNL     1       2.687   0.677  -0.410  1.00  0.00    -0.345 N 
ATOM     11  H4  UNL     1       2.706   1.457  -1.067  1.00  0.00     0.163 HD
BRANCH  10  12
HETATM   12  C8  UNL     1       3.888  -0.104  -0.215  1.00  0.00     0.022 C 
HETATM   13  C9  UNL     1       4.985   0.454  -1.093  1.00  0.00     0.037 C 
HETATM   14  C10 UNL     1       4.391  -0.065   1.208  1.00  0.00     0.037 C 
HETATM   15  C11 UNL     1       3.616  -1.520  -0.616  1.00  0.00     0.037 C 
ENDBRANCH  10  12
ENDBRANCH   6   8
BRANCH   1  16
HETATM   16  C2  UNL     1      -3.905   1.312   1.113  1.00  0.00     0.121 C 
HETATM   17  C1  UNL     1      -5.127   1.539   0.253  1.00  0.00     0.026 C 
ENDBRANCH   1  16
BRANCH   1  18
HETATM   18  C3  UNL     1      -3.656  -1.165   0.646  1.00  0.00     0.121 C 
HETATM   19  C4  UNL     1      -2.648  -2.110   0.044  1.00  0.00     0.026 C 
ENDBRANCH   1  18
TORSDOF 4
