REMARK  12 active torsions:
REMARK  status: ('A' for Active; 'I' for Inactive)
REMARK       I    between atoms: C2_2  and  N1_4 
REMARK    1  A    between atoms: N1_4  and  C3_6 
REMARK    2  A    between atoms: C3_6  and  C4_7 
REMARK    3  A    between atoms: C5_9  and  C6_10 
REMARK    4  A    between atoms: C6_10  and  C7_11 
REMARK    5  A    between atoms: C8_12  and  C10_14 
REMARK    6  A    between atoms: C10_14  and  C11_15 
REMARK    7  A    between atoms: C11_15  and  C12_16 
REMARK    8  A    between atoms: C12_16  and  C13_17 
REMARK    9  A    between atoms: C13_17  and  C14_18 
REMARK   10  A    between atoms: C14_18  and  C15_19 
REMARK   11  A    between atoms: C20_25  and  N2_26 
REMARK       I    between atoms: N2_26  and  C21_28 
REMARK   12  A    between atoms: C21_28  and  C22_30 
ROOT
HETATM    1  C15 UNL     1      -1.656   0.711   1.362  1.00  0.00     0.122 C 
HETATM    2  C16 UNL     1      -2.618   0.568   2.541  1.00  0.00     0.038 C 
HETATM    3  C17 UNL     1      -3.687   1.596   2.451  1.00  0.00     0.016 C 
HETATM    4  C18 UNL     1      -3.208   2.756   1.561  1.00  0.00     0.041 C 
HETATM    5  C19 UNL     1      -3.480   1.788   0.396  1.00  0.00     0.145 C 
HETATM    6  O2  UNL     1      -2.446   0.898   0.235  1.00  0.00    -0.379 OA
HETATM    7  C20 UNL     1      -4.612   1.287   1.255  1.00  0.00     0.117 C 
ENDROOT
BRANCH   1   8
HETATM    8  C14 UNL     1      -0.910  -0.599   1.255  1.00  0.00     0.032 C 
BRANCH   8   9
HETATM    9  C13 UNL     1       0.095  -0.649   0.151  1.00  0.00     0.002 C 
BRANCH   9  10
HETATM   10  C12 UNL     1       1.172   0.403   0.290  1.00  0.00     0.000 C 
BRANCH  10  11
HETATM   11  C11 UNL     1       2.191   0.328  -0.829  1.00  0.00     0.004 C 
BRANCH  11  12
HETATM   12  C10 UNL     1       3.203   1.430  -0.570  1.00  0.00     0.033 C 
BRANCH  12  13
HETATM   13  C8  UNL     1       4.276   1.471  -1.594  1.00  0.00    -0.087 C 
HETATM   14  C7  UNL     1       5.518   1.307  -1.209  1.00  0.00    -0.020 C 
HETATM   15  C9  UNL     1       3.948   1.691  -3.017  1.00  0.00     0.043 C 
BRANCH  14  16
HETATM   16  C6  UNL     1       6.613   1.346  -2.239  1.00  0.00     0.055 C 
BRANCH  16  17
HETATM   17  C5  UNL     1       7.307   0.065  -2.172  1.00  0.00    -0.007 C 
HETATM   18  C4  UNL     1       8.582  -0.085  -1.891  1.00  0.00     0.003 C 
HETATM   19 BR1  UNL     1       9.240  -1.879  -1.928  1.00  0.00    -0.054 Br
BRANCH  18  20
HETATM   20  C3  UNL     1       9.456   1.050  -1.610  1.00  0.00     0.168 C 
BRANCH  20  21
HETATM   21  N1  UNL     1      10.034   1.113  -0.314  1.00  0.00    -0.357 N 
HETATM   22  C2  UNL     1      10.972   0.250   0.251  1.00  0.00     0.213 C 
HETATM   23  C1  UNL     1      11.443   0.493   1.675  1.00  0.00     0.117 C 
HETATM   24  O1  UNL     1      11.453  -0.719  -0.350  1.00  0.00    -0.274 OA
ATOM     25  H1  UNL     1       9.725   1.885   0.276  1.00  0.00     0.162 HD
ENDBRANCH  20  21
ENDBRANCH  18  20
ENDBRANCH  16  17
ENDBRANCH  14  16
ENDBRANCH  12  13
ENDBRANCH  11  12
ENDBRANCH  10  11
ENDBRANCH   9  10
ENDBRANCH   8   9
ENDBRANCH   1   8
BRANCH   7  26
HETATM   26  N2  UNL     1      -4.999  -0.074   1.146  1.00  0.00    -0.353 N 
HETATM   27  C21 UNL     1      -6.370  -0.421   1.272  1.00  0.00     0.225 C 
HETATM   28  O3  UNL     1      -7.225   0.476   1.482  1.00  0.00    -0.273 OA
ATOM     29  H2  UNL     1      -4.299  -0.796   0.979  1.00  0.00     0.163 HD
BRANCH  27  30
HETATM   30  C22 UNL     1      -6.874  -1.823   1.169  1.00  0.00     0.100 C 
HETATM   31  C23 UNL     1      -8.304  -1.905   1.541  1.00  0.00    -0.017 C 
HETATM   32  C24 UNL     1      -9.342  -2.040   0.736  1.00  0.00    -0.030 C 
HETATM   33  C25 UNL     1      -9.474  -2.155  -0.754  1.00  0.00     0.027 C 
HETATM   34  C26 UNL     1      -8.727  -3.373  -1.259  1.00  0.00     0.004 C 
HETATM   35  C27 UNL     1      -7.474  -3.625  -0.447  1.00  0.00     0.001 C 
HETATM   36  C28 UNL     1      -6.685  -2.387  -0.198  1.00  0.00     0.018 C 
ENDBRANCH  27  30
ENDBRANCH   7  26
TORSDOF 12
