REMARK  8 active torsions:
REMARK  status: ('A' for Active; 'I' for Inactive)
REMARK    1  A    between atoms: C2_2  and  C3_3 
REMARK    2  A    between atoms: C2_2  and  C6_8 
REMARK    3  A    between atoms: C3_3  and  C4_4 
REMARK    4  A    between atoms: C4_4  and  C5_5 
REMARK    5  A    between atoms: C27_29  and  C28_30 
REMARK    6  A    between atoms: C29_32  and  N2_33 
REMARK    7  A    between atoms: N2_33  and  N3_35 
REMARK    8  A    between atoms: N3_35  and  N4_36 
ROOT
HETATM    1  C6  UNL     1       3.627   0.122  -0.216  1.00  0.00    -0.006 C 
HETATM    2  C7  UNL     1       3.163   1.106  -1.232  1.00  0.00     0.006 C 
HETATM    3  C8  UNL     1       1.689   0.749  -1.493  1.00  0.00     0.010 C 
HETATM    4  C9  UNL     1       1.652  -0.719  -1.229  1.00  0.00    -0.035 C 
HETATM    5  C10 UNL     1       2.454  -1.343  -2.402  1.00  0.00     0.016 C 
HETATM    6  C11 UNL     1       2.518  -0.927  -0.057  1.00  0.00    -0.002 C 
HETATM    7  C12 UNL     1       1.809  -0.595   1.199  1.00  0.00     0.006 C 
HETATM    8  C13 UNL     1       0.536  -1.286   1.345  1.00  0.00     0.011 C 
HETATM    9  C14 UNL     1      -0.383  -1.422   0.160  1.00  0.00    -0.026 C 
HETATM   10  C15 UNL     1      -0.691  -2.972   0.194  1.00  0.00     0.016 C 
HETATM   11  C16 UNL     1       0.290  -1.346  -1.168  1.00  0.00     0.007 C 
HETATM   12  C17 UNL     1      -0.475  -1.005  -2.374  1.00  0.00     0.033 C 
HETATM   13  C18 UNL     1      -1.715  -0.310  -2.019  1.00  0.00    -0.022 C 
HETATM   14  C19 UNL     1      -2.287  -0.174  -0.849  1.00  0.00    -0.067 C 
HETATM   15  C20 UNL     1      -3.545   0.528  -0.468  1.00  0.00     0.033 C 
HETATM   16  C21 UNL     1      -4.780  -0.258  -0.606  1.00  0.00     0.019 C 
HETATM   17  C22 UNL     1      -5.918   0.190   0.267  1.00  0.00    -0.047 C 
HETATM   18  C23 UNL     1      -7.051   0.836  -0.552  1.00  0.00     0.015 C 
HETATM   19  C24 UNL     1      -6.574  -1.082   0.832  1.00  0.00     0.015 C 
HETATM   20  C25 UNL     1      -5.617   1.091   1.375  1.00  0.00     0.010 C 
HETATM   21  C26 UNL     1      -4.216   1.149   1.900  1.00  0.00     0.020 C 
HETATM   22  C27 UNL     1      -3.167   1.091   0.853  1.00  0.00     0.044 C 
HETATM   23  C29 UNL     1      -1.861   0.398   1.303  1.00  0.00     0.143 C 
HETATM   24  C30 UNL     1      -1.665  -0.752   0.378  1.00  0.00     0.011 C 
HETATM   25  C31 UNL     1      -2.584  -1.791   1.065  1.00  0.00     0.023 C 
ENDROOT
BRANCH   1  26
HETATM   26  C2  UNL     1       4.947  -0.484  -0.535  1.00  0.00    -0.014 C 
HETATM   27  C1  UNL     1       5.350  -1.471   0.549  1.00  0.00     0.010 C 
BRANCH  26  28
HETATM   28  C3  UNL     1       5.976   0.606  -0.695  1.00  0.00     0.013 C 
BRANCH  28  29
HETATM   29  C4  UNL     1       6.222   1.427   0.523  1.00  0.00     0.100 C 
BRANCH  29  30
HETATM   30  C5  UNL     1       7.277   2.454   0.198  1.00  0.00     0.231 C 
HETATM   31  N1  UNL     1       7.655   3.341   1.235  1.00  0.00    -0.062 NA
HETATM   32  O1  UNL     1       7.789   2.513  -0.938  1.00  0.00    -0.277 OA
ENDBRANCH  29  30
ENDBRANCH  28  29
ENDBRANCH  26  28
ENDBRANCH   1  26
BRANCH  23  33
HETATM   33  N2  UNL     1      -0.886   1.406   1.389  1.00  0.00    -0.246 N 
ATOM     34  H2  UNL     1      -0.261   1.536   0.593  1.00  0.00     0.197 HD
BRANCH  33  35
HETATM   35  N3  UNL     1      -0.741   2.126   2.342  1.00  0.00    -0.248 NA
BRANCH  35  36
HETATM   36  N4  UNL     1      -0.439   2.905   3.256  1.00  0.00    -0.261 N 
ATOM     37  H42 UNL     1       0.437   3.040   2.751  1.00  0.00     0.193 HD
ATOM     38  H41 UNL     1      -0.316   3.515   4.064  1.00  0.00     0.193 HD
ENDBRANCH  35  36
ENDBRANCH  33  35
ENDBRANCH  23  33
BRANCH  22  39
HETATM   39  C28 UNL     1      -2.820   2.564   0.617  1.00  0.00     0.243 C 
HETATM   40  O2  UNL     1      -2.486   2.949  -0.489  1.00  0.00    -0.306 OA
ENDBRANCH  22  39
TORSDOF 8
