REMARK  7 active torsions:
REMARK  status: ('A' for Active; 'I' for Inactive)
REMARK    1  A    between atoms: C2_2  and  C3_3 
REMARK    2  A    between atoms: N1_8  and  C8_9 
REMARK    3  A    between atoms: C8_9  and  C9_10 
REMARK    4  A    between atoms: C9_10  and  C10_11 
REMARK    5  A    between atoms: C10_11  and  O1_12 
REMARK    6  A    between atoms: C10_11  and  C31_33 
REMARK    7  A    between atoms: O1_12  and  C11_13 
ROOT
HETATM    1  C11 UNL     1      -0.836  -1.444   1.328  1.00  0.00     0.123 C 
HETATM    2  C12 UNL     1       0.305  -2.267   1.924  1.00  0.00     0.037 C 
HETATM    3  C13 UNL     1       1.567  -1.492   1.667  1.00  0.00    -0.008 C 
HETATM    4  C14 UNL     1       2.743  -2.318   1.284  1.00  0.00     0.005 C 
HETATM    5  C15 UNL     1       3.883  -1.385   0.941  1.00  0.00     0.006 C 
HETATM    6  C16 UNL     1       3.487  -0.515  -0.220  1.00  0.00    -0.001 C 
HETATM    7  C17 UNL     1       2.207   0.256   0.027  1.00  0.00    -0.005 C 
HETATM    8  C18 UNL     1       2.392   1.415   0.941  1.00  0.00     0.006 C 
HETATM    9  C19 UNL     1       3.778   1.894   1.101  1.00  0.00     0.010 C 
HETATM   10  C20 UNL     1       4.645   1.725  -0.152  1.00  0.00    -0.036 C 
HETATM   11  C21 UNL     1       4.128   2.799  -1.123  1.00  0.00     0.016 C 
HETATM   12  C22 UNL     1       6.011   2.148   0.271  1.00  0.00     0.014 C 
HETATM   13  C23 UNL     1       7.140   1.733  -0.580  1.00  0.00    -0.018 C 
HETATM   14  C24 UNL     1       7.463   2.727  -1.698  1.00  0.00     0.010 C 
HETATM   15  C25 UNL     1       7.049   0.357  -1.156  1.00  0.00     0.005 C 
HETATM   16  C26 UNL     1       5.880  -0.357  -0.570  1.00  0.00     0.010 C 
HETATM   17  C27 UNL     1       4.567   0.358  -0.743  1.00  0.00    -0.033 C 
HETATM   18  C28 UNL     1       4.280   0.543  -2.242  1.00  0.00     0.016 C 
HETATM   19  C29 UNL     1       1.163  -0.712   0.408  1.00  0.00    -0.004 C 
HETATM   20  C30 UNL     1      -0.152  -0.147   0.855  1.00  0.00     0.037 C 
ENDROOT
BRANCH   1  21
HETATM   21  O1  UNL     1      -1.835  -1.228   2.222  1.00  0.00    -0.371 OA
BRANCH  21  22
HETATM   22  C10 UNL     1      -3.089  -1.692   1.812  1.00  0.00     0.212 C 
BRANCH  22  23
HETATM   23  C9  UNL     1      -3.955  -0.483   1.680  1.00  0.00     0.071 C 
BRANCH  23  24
HETATM   24  C8  UNL     1      -5.355  -0.696   1.237  1.00  0.00     0.276 C 
BRANCH  24  25
HETATM   25  N1  UNL     1      -5.525  -1.310  -0.036  1.00  0.00     0.097 N 
HETATM   26  C6  UNL     1      -6.892  -1.417  -0.407  1.00  0.00     0.223 C 
HETATM   27  C5  UNL     1      -7.546  -0.112  -0.751  1.00  0.00     0.062 C 
HETATM   28  C7  UNL     1      -7.784  -2.118   0.574  1.00  0.00     0.043 C 
HETATM   29  C4  UNL     1      -6.589   0.841  -1.336  1.00  0.00    -0.020 C 
HETATM   30  C3  UNL     1      -5.299   0.595  -1.521  1.00  0.00    -0.056 C 
HETATM   31  C32 UNL     1      -4.780  -0.738  -1.111  1.00  0.00     0.306 C 
BRANCH  30  32
HETATM   32  C2  UNL     1      -4.396   1.629  -2.126  1.00  0.00     0.031 C 
HETATM   33  C1  UNL     1      -5.160   2.885  -2.453  1.00  0.00     0.010 C 
ENDBRANCH  30  32
ENDBRANCH  24  25
ENDBRANCH  23  24
ENDBRANCH  22  23
BRANCH  22  34
HETATM   34  C31 UNL     1      -3.612  -2.719   2.728  1.00  0.00     0.260 C 
HETATM   35  N2  UNL     1      -4.835  -3.401   2.547  1.00  0.00    -0.060 NA
HETATM   36  O2  UNL     1      -2.958  -3.060   3.773  1.00  0.00    -0.274 OA
ENDBRANCH  22  34
ENDBRANCH  21  22
ENDBRANCH   1  21
TORSDOF 7
