REMARK  7 active torsions:
REMARK  status: ('A' for Active; 'I' for Inactive)
REMARK    1  A    between atoms: C2_2  and  C3_3 
REMARK    2  A    between atoms: C3_3  and  C4_4 
REMARK    3  A    between atoms: C4_4  and  C5_5 
REMARK    4  A    between atoms: C5_5  and  C6_6 
REMARK    5  A    between atoms: C6_6  and  C7_7 
REMARK    6  A    between atoms: C7_7  and  N1_8 
REMARK    7  A    between atoms: N1_8  and  C8_11 
ROOT
HETATM    1  C8  UNL     1       2.636  -0.590   0.538  1.00  0.00     0.197 C 
HETATM    2  C9  UNL     1       1.485  -0.193   1.376  1.00  0.00     0.039 C 
HETATM    3  C10 UNL     1       0.194   0.129   0.723  1.00  0.00    -0.007 C 
HETATM    4  C11 UNL     1      -0.737   0.428   1.915  1.00  0.00     0.006 C 
HETATM    5  C12 UNL     1      -2.165   0.255   1.605  1.00  0.00     0.010 C 
HETATM    6  C13 UNL     1      -2.775   1.121   0.565  1.00  0.00    -0.036 C 
HETATM    7  C14 UNL     1      -2.617   2.556   1.024  1.00  0.00     0.016 C 
HETATM    8  C15 UNL     1      -2.293   1.013  -0.811  1.00  0.00    -0.006 C 
HETATM    9  C16 UNL     1      -2.636  -0.289  -1.522  1.00  0.00     0.006 C 
HETATM   10  C17 UNL     1      -3.595  -1.160  -0.854  1.00  0.00     0.006 C 
HETATM   11  C18 UNL     1      -4.560  -0.567   0.130  1.00  0.00    -0.001 C 
HETATM   12  C19 UNL     1      -5.968  -0.803  -0.298  1.00  0.00     0.019 C 
HETATM   13  C20 UNL     1      -6.789  -1.612   0.694  1.00  0.00     0.017 C 
HETATM   14  C21 UNL     1      -8.116  -0.963   1.020  1.00  0.00     0.079 C 
HETATM   15  C22 UNL     1      -8.871  -0.643  -0.218  1.00  0.00     0.130 C 
HETATM   16  O1  UNL     1     -10.055  -0.887  -0.270  1.00  0.00    -0.298 OA
HETATM   17  C23 UNL     1      -8.098  -0.025  -1.347  1.00  0.00     0.112 C 
HETATM   18  C24 UNL     1      -6.761   0.332  -0.711  1.00  0.00    -0.072 C 
HETATM   19  C25 UNL     1      -6.395   1.556  -0.557  1.00  0.00    -0.023 C 
HETATM   20  C26 UNL     1      -5.119   1.911   0.065  1.00  0.00     0.033 C 
HETATM   21  C27 UNL     1      -4.277   0.822   0.597  1.00  0.00     0.002 C 
HETATM   22  C28 UNL     1      -0.920   1.439  -1.128  1.00  0.00     0.011 C 
HETATM   23  C29 UNL     1       0.158   1.341  -0.120  1.00  0.00     0.006 C 
HETATM   24  C30 UNL     1       1.441   1.542  -0.890  1.00  0.00     0.030 A 
HETATM   25  C31 UNL     1       2.140   2.812  -0.991  1.00  0.00     0.025 A 
HETATM   26  C32 UNL     1       2.628   1.786  -0.068  1.00  0.00     0.016 A 
HETATM   27  C33 UNL     1       3.062   0.404  -0.492  1.00  0.00     0.092 C 
HETATM   28  C34 UNL     1       2.059   0.399  -1.596  1.00  0.00     0.142 C 
HETATM   29  O2  UNL     1       1.883  -0.259  -2.583  1.00  0.00    -0.297 OA
ENDROOT
BRANCH   1  30
HETATM   30  N1  UNL     1       3.677  -1.009   1.441  1.00  0.00    -0.070 N 
ATOM     31  H12 UNL     1       3.462  -1.923   1.840  1.00  0.00     0.277 HD
ATOM     32  H11 UNL     1       3.665  -0.446   2.291  1.00  0.00     0.277 HD
BRANCH  30  33
HETATM   33  C7  UNL     1       5.002  -1.008   0.842  1.00  0.00     0.232 C 
BRANCH  33  34
HETATM   34  C6  UNL     1       5.050  -2.082  -0.184  1.00  0.00     0.027 C 
BRANCH  34  35
HETATM   35  C5  UNL     1       6.281  -2.212  -0.964  1.00  0.00     0.002 C 
BRANCH  35  36
HETATM   36  C4  UNL     1       7.565  -2.514  -0.334  1.00  0.00     0.000 C 
BRANCH  36  37
HETATM   37  C3  UNL     1       8.194  -1.583   0.620  1.00  0.00    -0.000 C 
BRANCH  37  38
HETATM   38  C2  UNL     1       8.480  -0.195   0.057  1.00  0.00    -0.005 C 
HETATM   39  C1  UNL     1       9.111   0.599   1.182  1.00  0.00     0.005 C 
ENDBRANCH  37  38
ENDBRANCH  36  37
ENDBRANCH  35  36
ENDBRANCH  34  35
ENDBRANCH  33  34
ENDBRANCH  30  33
ENDBRANCH   1  30
TORSDOF 7
