REMARK  9 active torsions:
REMARK  status: ('A' for Active; 'I' for Inactive)
REMARK    1  A    between atoms: C2_2  and  C3_3 
REMARK    2  A    between atoms: C3_3  and  C5_5 
REMARK    3  A    between atoms: C5_5  and  C6_6 
REMARK    4  A    between atoms: C5_5  and  C12_12 
REMARK    5  A    between atoms: C7_7  and  C8_8 
REMARK    6  A    between atoms: C12_12  and  C13_13 
REMARK    7  A    between atoms: C13_13  and  C14_14 
REMARK    8  A    between atoms: C14_14  and  N1_15 
REMARK    9  A    between atoms: C19_20  and  C20_21 
ROOT
HETATM    1  N1  UNL     1      -0.082  -1.101   0.485  1.00  0.00    -0.346 N 
HETATM    2  C15 UNL     1       0.677  -0.214  -0.340  1.00  0.00     0.183 C 
HETATM    3  C16 UNL     1       2.107  -0.208  -0.021  1.00  0.00     0.037 A 
HETATM    4  C17 UNL     1       2.756  -1.148   0.731  1.00  0.00    -0.014 A 
HETATM    5  C18 UNL     1       4.068  -0.811   0.817  1.00  0.00     0.041 A 
HETATM    6  C19 UNL     1       4.248   0.392   0.089  1.00  0.00     0.047 A 
HETATM    7  N3  UNL     1       3.057   0.723  -0.402  1.00  0.00    -0.352 N 
HETATM    8  C29 UNL     1       2.745   1.821  -1.296  1.00  0.00     0.156 C 
HETATM    9  C30 UNL     1       2.004  -2.283   1.283  1.00  0.00     0.063 C 
HETATM   10  C31 UNL     1       2.591  -2.792   2.581  1.00  0.00     0.030 C 
HETATM   11  C32 UNL     1       2.025  -3.414   0.274  1.00  0.00     0.030 C 
HETATM   12  C33 UNL     1       0.591  -1.881   1.464  1.00  0.00     0.232 C 
HETATM   13  O1  UNL     1      -0.014  -2.237   2.496  1.00  0.00    -0.272 OA
ENDROOT
BRANCH   1  14
HETATM   14  C14 UNL     1      -1.505  -1.223   0.340  1.00  0.00     0.126 C 
BRANCH  14  15
HETATM   15  C13 UNL     1      -2.289  -0.266   1.219  1.00  0.00     0.021 C 
BRANCH  15  16
HETATM   16  C12 UNL     1      -3.749  -0.392   1.075  1.00  0.00     0.019 C 
BRANCH  16  17
HETATM   17  C5  UNL     1      -4.397  -0.168  -0.224  1.00  0.00     0.069 C 
BRANCH  17  18
HETATM   18  C3  UNL     1      -4.328   1.156  -0.889  1.00  0.00    -0.003 C 
HETATM   19  C4  UNL     1      -5.400   2.129  -0.401  1.00  0.00     0.011 C 
BRANCH  18  20
HETATM   20  C2  UNL     1      -3.027   1.817  -1.106  1.00  0.00     0.001 C 
HETATM   21  C1  UNL     1      -3.245   2.900  -2.205  1.00  0.00     0.005 C 
ENDBRANCH  18  20
ENDBRANCH  17  18
BRANCH  17  22
HETATM   22  C6  UNL     1      -5.845  -0.583  -0.149  1.00  0.00    -0.101 C 
HETATM   23  C7  UNL     1      -7.008  -0.895  -0.098  1.00  0.00    -0.097 C 
BRANCH  23  24
HETATM   24  C8  UNL     1      -8.425  -1.256  -0.053  1.00  0.00     0.013 C 
HETATM   25  C9  UNL     1      -9.291  -0.250  -0.791  1.00  0.00     0.028 C 
HETATM   26  C10 UNL     1      -8.946  -1.306   1.384  1.00  0.00     0.028 C 
HETATM   27  C11 UNL     1      -8.582  -2.650  -0.625  1.00  0.00     0.028 C 
ENDBRANCH  23  24
ENDBRANCH  17  22
ENDBRANCH  16  17
ENDBRANCH  15  16
ENDBRANCH  14  15
ENDBRANCH   1  14
BRANCH   6  28
HETATM   28  C20 UNL     1       5.607   0.911  -0.042  1.00  0.00     0.015 A 
HETATM   29  C21 UNL     1       6.670  -0.029  -0.072  1.00  0.00     0.023 A 
HETATM   30  C22 UNL     1       7.983   0.337  -0.107  1.00  0.00    -0.051 A 
HETATM   31  C23 UNL     1       8.324   1.662  -0.116  1.00  0.00    -0.050 A 
HETATM   32  C28 UNL     1       9.254  -0.464  -0.140  1.00  0.00     0.039 C 
HETATM   33  C24 UNL     1       7.315   2.583  -0.085  1.00  0.00     0.035 A 
HETATM   34  C26 UNL     1       9.823   1.798  -0.161  1.00  0.00     0.039 C 
HETATM   35  C25 UNL     1       5.948   2.231  -0.047  1.00  0.00     0.059 A 
HETATM   36  N2  UNL     1       5.014   3.306   0.088  1.00  0.00    -0.102 NA
HETATM   37  C27 UNL     1      10.236   0.465  -0.771  1.00  0.00     0.009 C 
ENDBRANCH   6  28
TORSDOF 9
