REMARK  8 active torsions:
REMARK  status: ('A' for Active; 'I' for Inactive)
REMARK    1  A    between atoms: C2_2  and  C3_3 
REMARK    2  A    between atoms: C5_5  and  N1_6 
REMARK    3  A    between atoms: C5_5  and  C23_30 
REMARK       I    between atoms: N1_6  and  C6_8 
REMARK    4  A    between atoms: C6_8  and  C7_10 
REMARK    5  A    between atoms: C14_17  and  C15_18 
REMARK    6  A    between atoms: C21_26  and  C22_27 
REMARK       I    between atoms: C23_30  and  N2_32 
REMARK    7  A    between atoms: N2_32  and  S1_34 
REMARK    8  A    between atoms: S1_34  and  C24_37 
ROOT
HETATM    1  C7  UNL     1      -1.210  -0.725  -0.034  1.00  0.00     0.002 C 
HETATM    2  C8  UNL     1      -0.330  -0.990   1.172  1.00  0.00     0.041 C 
HETATM    3  C9  UNL     1      -0.960  -1.371   2.443  1.00  0.00     0.010 C 
HETATM    4  C10 UNL     1      -2.391  -1.058   2.593  1.00  0.00     0.001 C 
HETATM    5  C11 UNL     1      -3.216  -2.275   2.485  1.00  0.00     0.005 C 
HETATM    6  C12 UNL     1      -4.172  -2.011   1.347  1.00  0.00     0.002 C 
HETATM    7  C13 UNL     1      -3.464  -1.578   0.121  1.00  0.00     0.020 C 
HETATM    8  C14 UNL     1      -2.575  -0.285   0.268  1.00  0.00     0.029 C 
HETATM    9  C21 UNL     1      -2.823   0.107   1.675  1.00  0.00     0.108 C 
ENDROOT
BRANCH   1  10
HETATM   10  C6  UNL     1      -0.385  -0.176  -1.117  1.00  0.00     0.245 C 
HETATM   11  N1  UNL     1       0.998  -0.000  -0.913  1.00  0.00    -0.339 N 
ATOM     12  H1  UNL     1       1.351  -0.242   0.013  1.00  0.00     0.164 HD
HETATM   13  O1  UNL     1      -0.771   0.155  -2.251  1.00  0.00    -0.268 OA
BRANCH  11  14
HETATM   14  C5  UNL     1       2.002   0.496  -1.888  1.00  0.00     0.122 A 
HETATM   15  C3  UNL     1       1.685   1.830  -2.501  1.00  0.00     0.048 A 
HETATM   16  C4  UNL     1       1.723   0.522  -3.313  1.00  0.00     0.053 A 
BRANCH  15  17
HETATM   17  C2  UNL     1       2.417   2.861  -3.204  1.00  0.00    -0.029 C 
HETATM   18  C1  UNL     1       3.600   2.990  -3.701  1.00  0.00     0.007 C 
ENDBRANCH  15  17
BRANCH  14  19
HETATM   19  C23 UNL     1       3.393   0.463  -1.347  1.00  0.00     0.260 C 
HETATM   20  O4  UNL     1       4.370   0.426  -2.096  1.00  0.00    -0.270 OA
HETATM   21  N2  UNL     1       3.616   0.486   0.039  1.00  0.00    -0.252 N 
ATOM     22  H2  UNL     1       2.807   0.521   0.660  1.00  0.00     0.181 HD
BRANCH  21  23
HETATM   23  S1  UNL     1       5.173   0.459   0.737  1.00  0.00     0.237 S 
HETATM   24  O5  UNL     1       5.500   1.843   1.273  1.00  0.00    -0.205 OA
HETATM   25  O6  UNL     1       6.179   0.035  -0.281  1.00  0.00    -0.205 OA
BRANCH  23  26
HETATM   26  C24 UNL     1       5.183  -0.690   2.100  1.00  0.00     0.130 A 
HETATM   27  C25 UNL     1       6.618  -0.936   2.594  1.00  0.00     0.023 A 
HETATM   28  C26 UNL     1       5.796  -2.007   1.966  1.00  0.00     0.023 A 
ENDBRANCH  23  26
ENDBRANCH  21  23
ENDBRANCH  14  19
ENDBRANCH  11  14
ENDBRANCH   1  10
BRANCH   8  29
HETATM   29  C15 UNL     1      -3.190   0.554  -0.791  1.00  0.00    -0.041 A 
HETATM   30  C16 UNL     1      -3.503   1.865  -0.658  1.00  0.00     0.011 A 
HETATM   31  C17 UNL     1      -4.145   2.628  -1.655  1.00  0.00     0.046 A 
HETATM   32  C18 UNL     1      -4.479   2.010  -2.829  1.00  0.00     0.154 A 
HETATM   33  F1  UNL     1      -5.106   2.764  -3.782  1.00  0.00    -0.203 F 
HETATM   34  C19 UNL     1      -4.194   0.678  -3.031  1.00  0.00     0.155 A 
HETATM   35  F2  UNL     1      -4.554   0.130  -4.211  1.00  0.00    -0.203 F 
HETATM   36  C20 UNL     1      -3.559  -0.035  -2.028  1.00  0.00     0.053 A 
ENDBRANCH   8  29
BRANCH   9  37
HETATM   37  C22 UNL     1      -2.149   1.213   2.323  1.00  0.00     0.178 C 
HETATM   38  O2  UNL     1      -1.316   2.045   1.980  1.00  0.00    -0.648 OA
HETATM   39  O3  UNL     1      -2.511   1.417   3.705  1.00  0.00    -0.648 OA
ENDBRANCH   9  37
TORSDOF 8
