REMARK  11 active torsions:
REMARK  status: ('A' for Active; 'I' for Inactive)
REMARK    1  A    between atoms: N1_8  and  C7_9 
REMARK    2  A    between atoms: C8_11  and  C9_12 
REMARK    3  A    between atoms: C9_12  and  N2_13 
REMARK    4  A    between atoms: C9_12  and  C17_24 
REMARK    5  A    between atoms: N2_13  and  C10_15 
REMARK    6  A    between atoms: C10_15  and  O3_16 
REMARK    7  A    between atoms: C10_15  and  C11_18 
REMARK       I    between atoms: C17_24  and  N3_26 
REMARK    8  A    between atoms: N3_26  and  C18_28 
REMARK    9  A    between atoms: C18_28  and  C19_29 
REMARK   10  A    between atoms: C18_28  and  C21_34 
REMARK   11  A    between atoms: C19_29  and  C20_31 
ROOT
HETATM    1  C9  UNL     1      -0.923   0.510  -0.770  1.00  0.00     0.208 C 
ENDROOT
BRANCH   1   2
HETATM    2  C8  UNL     1      -1.955  -0.585  -0.899  1.00  0.00     0.194 C 
HETATM    3  O2  UNL     1      -2.213  -1.213   0.314  1.00  0.00    -0.352 OA
HETATM    4  C7  UNL     1      -3.580  -1.096   0.303  1.00  0.00     0.268 C 
HETATM    5  C27 UNL     1      -3.397  -0.049  -0.773  1.00  0.00     0.250 C 
HETATM    6  F1  UNL     1      -4.060  -0.258  -1.957  1.00  0.00    -0.242 F 
BRANCH   4   7
HETATM    7  N1  UNL     1      -4.424  -2.204   0.029  1.00  0.00    -0.288 N 
HETATM    8  C2  UNL     1      -4.077  -3.488  -0.069  1.00  0.00     0.013 A 
HETATM    9  C1  UNL     1      -2.670  -3.879   0.074  1.00  0.00     0.068 C 
HETATM   10  C3  UNL     1      -5.007  -4.515  -0.331  1.00  0.00     0.025 A 
HETATM   11  C4  UNL     1      -6.316  -4.192  -0.493  1.00  0.00     0.007 A 
HETATM   12  C5  UNL     1      -6.697  -2.880  -0.400  1.00  0.00     0.075 A 
HETATM   13  C6  UNL     1      -5.746  -1.885  -0.139  1.00  0.00     0.249 A 
HETATM   14  O1  UNL     1      -6.179  -0.706  -0.063  1.00  0.00    -0.268 OA
ENDBRANCH   4   7
ENDBRANCH   1   2
BRANCH   1  15
HETATM   15  N2  UNL     1      -1.401   1.548   0.120  1.00  0.00    -0.355 N 
ATOM     16  H2  UNL     1      -1.690   1.351   1.078  1.00  0.00     0.162 HD
BRANCH  15  17
HETATM   17  C10 UNL     1      -1.442   2.876  -0.434  1.00  0.00     0.147 C 
BRANCH  17  18
HETATM   18  O3  UNL     1      -0.990   2.943  -1.661  1.00  0.00    -0.346 OA
ATOM     19  H3  UNL     1      -1.017   3.819  -2.027  1.00  0.00     0.219 HD
ENDBRANCH  17  18
BRANCH  17  20
HETATM   20  C11 UNL     1      -1.890   4.121   0.116  1.00  0.00     0.014 A 
HETATM   21  C12 UNL     1      -3.120   4.328   0.690  1.00  0.00     0.016 A 
HETATM   22  C13 UNL     1      -3.529   5.598   1.058  1.00  0.00     0.001 A 
HETATM   23  C14 UNL     1      -2.708   6.703   0.870  1.00  0.00     0.000 A 
HETATM   24  C15 UNL     1      -1.456   6.516   0.293  1.00  0.00     0.001 A 
HETATM   25  C16 UNL     1      -1.088   5.235  -0.065  1.00  0.00     0.016 A 
ENDBRANCH  17  20
ENDBRANCH  15  17
ENDBRANCH   1  15
BRANCH   1  26
HETATM   26  C17 UNL     1       0.392  -0.081  -0.494  1.00  0.00     0.247 C 
HETATM   27  O4  UNL     1       0.519  -1.283  -0.086  1.00  0.00    -0.271 OA
HETATM   28  N3  UNL     1       1.593   0.656  -0.666  1.00  0.00    -0.322 N 
ATOM     29  H3  UNL     1       1.458   1.630  -0.938  1.00  0.00     0.169 HD
BRANCH  28  30
HETATM   30  C18 UNL     1       2.926   0.272  -0.526  1.00  0.00     0.093 C 
BRANCH  30  31
HETATM   31  C19 UNL     1       3.784   1.445  -0.098  1.00  0.00     0.263 C 
HETATM   32  O5  UNL     1       4.076   2.422  -0.758  1.00  0.00    -0.280 OA
BRANCH  31  33
HETATM   33  C20 UNL     1       4.285   1.339   1.286  1.00  0.00     0.307 C 
HETATM   34  N4  UNL     1       5.446   1.993   1.731  1.00  0.00    -0.054 NA
HETATM   35  O6  UNL     1       3.675   0.634   2.138  1.00  0.00    -0.267 OA
ENDBRANCH  31  33
ENDBRANCH  30  31
BRANCH  30  36
HETATM   36  C21 UNL     1       3.507  -1.047  -0.378  1.00  0.00    -0.049 C 
HETATM   37  C22 UNL     1       3.473  -2.041   0.666  1.00  0.00     0.036 C 
HETATM   38  C23 UNL     1       4.849  -2.395   1.248  1.00  0.00     0.004 C 
HETATM   39  C24 UNL     1       5.927  -2.585   0.232  1.00  0.00     0.001 C 
HETATM   40  C25 UNL     1       5.996  -1.344  -0.630  1.00  0.00     0.004 C 
HETATM   41  C26 UNL     1       4.708  -1.200  -1.332  1.00  0.00     0.036 C 
ENDBRANCH  30  36
ENDBRANCH  28  30
ENDBRANCH   1  26
TORSDOF 11
