REMARK  11 active torsions:
REMARK  status: ('A' for Active; 'I' for Inactive)
REMARK    1  A    between atoms: C2_2  and  C3_3 
REMARK    2  A    between atoms: C3_3  and  C4_4 
REMARK    3  A    between atoms: C5_7  and  N2_8 
REMARK    4  A    between atoms: N2_8  and  C6_9 
REMARK    5  A    between atoms: C6_9  and  C7_10 
REMARK    6  A    between atoms: C6_9  and  C10_13 
REMARK    7  A    between atoms: C7_10  and  C8_11 
REMARK       I    between atoms: C10_13  and  N3_15 
REMARK    8  A    between atoms: N3_15  and  C11_17 
REMARK    9  A    between atoms: C11_17  and  C12_18 
REMARK       I    between atoms: C12_18  and  N4_20 
REMARK   10  A    between atoms: C16_24  and  C17_25 
REMARK   11  A    between atoms: C24_34  and  C25_35 
ROOT
HETATM    1  C11 UNL     1      -1.590   0.535  -0.944  1.00  0.00     0.122 C 
HETATM    2  C21 UNL     1      -1.218   1.554  -2.116  1.00  0.00     0.034 C 
HETATM    3  C22 UNL     1      -2.661   1.763  -2.182  1.00  0.00     0.016 C 
HETATM    4  C23 UNL     1      -2.535   0.295  -2.035  1.00  0.00     0.034 C 
HETATM    5  C24 UNL     1      -1.344   0.358  -2.956  1.00  0.00     0.071 C 
ENDROOT
BRANCH   1   6
HETATM    6  N3  UNL     1      -0.417  -0.292  -0.756  1.00  0.00    -0.340 N 
HETATM    7  C10 UNL     1       0.886   0.148  -0.514  1.00  0.00     0.254 C 
HETATM    8  O1  UNL     1       1.236   1.340  -0.439  1.00  0.00    -0.270 OA
ATOM      9  H3  UNL     1      -0.557  -1.301  -0.805  1.00  0.00     0.163 HD
BRANCH   7  10
HETATM   10  C6  UNL     1       2.014  -0.863  -0.319  1.00  0.00     0.258 C 
BRANCH  10  11
HETATM   11  N2  UNL     1       3.254  -0.427  -0.360  1.00  0.00    -0.399 NA
BRANCH  11  12
HETATM   12  C5  UNL     1       4.372   0.012  -0.438  1.00  0.00     0.277 A 
HETATM   13  N1  UNL     1       5.516  -0.381   0.221  1.00  0.00    -0.297 N 
HETATM   14  C4  UNL     1       6.515   0.383  -0.186  1.00  0.00     0.150 A 
ATOM     15  H1  UNL     1       5.581  -1.134   0.906  1.00  0.00     0.172 HD
HETATM   16  O5  UNL     1       6.042   1.212  -1.050  1.00  0.00    -0.221 OA
HETATM   17  N5  UNL     1       4.788   1.042  -1.239  1.00  0.00    -0.217 N 
ATOM     18  H5  UNL     1       4.200   1.580  -1.876  1.00  0.00     0.199 HD
BRANCH  14  19
HETATM   19  C3  UNL     1       7.962   0.332   0.248  1.00  0.00     0.086 C 
BRANCH  19  20
HETATM   20  C2  UNL     1       8.704  -0.635  -0.684  1.00  0.00     0.004 C 
HETATM   21  C1  UNL     1      10.140  -0.721  -0.287  1.00  0.00     0.005 C 
ENDBRANCH  19  20
ENDBRANCH  14  19
ENDBRANCH  11  12
ENDBRANCH  10  11
BRANCH  10  22
HETATM   22  C7  UNL     1       1.694  -1.602   1.017  1.00  0.00     0.049 C 
BRANCH  22  23
HETATM   23  C8  UNL     1       2.585  -2.786   1.177  1.00  0.00    -0.001 C 
HETATM   24  C9  UNL     1       2.239  -3.461   2.507  1.00  0.00     0.005 C 
ENDBRANCH  22  23
ENDBRANCH  10  22
ENDBRANCH   7  10
ENDBRANCH   1   6
BRANCH   1  25
HETATM   25  C12 UNL     1      -1.976   1.217   0.285  1.00  0.00     0.249 C 
HETATM   26  O2  UNL     1      -1.078   1.895   0.908  1.00  0.00    -0.270 OA
HETATM   27  N4  UNL     1      -3.244   1.224   0.910  1.00  0.00    -0.334 N 
HETATM   28  C13 UNL     1      -3.535   2.028   2.105  1.00  0.00     0.132 C 
HETATM   29  C16 UNL     1      -4.412   0.438   0.599  1.00  0.00     0.193 C 
HETATM   30  C14 UNL     1      -4.621   1.189   2.693  1.00  0.00     0.019 A 
HETATM   31  C15 UNL     1      -5.453   1.190   1.359  1.00  0.00     0.034 A 
HETATM   32  C18 UNL     1      -6.016   1.150   2.637  1.00  0.00    -0.036 A 
HETATM   33  C19 UNL     1      -6.792   2.378   3.135  1.00  0.00     0.016 C 
HETATM   34  C20 UNL     1      -6.772  -0.129   3.024  1.00  0.00     0.016 C 
BRANCH  29  35
HETATM   35  C17 UNL     1      -4.266  -0.983   0.987  1.00  0.00     0.197 C 
HETATM   36  O3  UNL     1      -5.237  -1.742   0.730  1.00  0.00    -0.646 OA
HETATM   37  O4  UNL     1      -3.170  -1.544   1.600  1.00  0.00    -0.646 OA
ENDBRANCH  29  35
ENDBRANCH   1  25
BRANCH   5  38
HETATM   38  C25 UNL     1      -1.548   0.396  -4.412  1.00  0.00     0.244 C 
HETATM   39  C26 UNL     1      -1.599  -1.076  -4.917  1.00  0.00     0.090 C 
HETATM   40  F1  UNL     1      -0.449   0.943  -5.089  1.00  0.00    -0.206 F 
HETATM   41  F2  UNL     1      -2.726   0.923  -4.874  1.00  0.00    -0.206 F 
ENDBRANCH   5  38
TORSDOF 11
