REMARK  9 active torsions:
REMARK  status: ('A' for Active; 'I' for Inactive)
REMARK    1  A    between atoms: C1_2  and  C2_3 
REMARK       I    between atoms: C1_2  and  N2_16 
REMARK    2  A    between atoms: C2_3  and  C3_4 
REMARK    3  A    between atoms: C3_4  and  N1_5 
REMARK       I    between atoms: N1_5  and  C4_7 
REMARK    4  A    between atoms: C4_7  and  C5_9 
REMARK    5  A    between atoms: N2_16  and  C10_18 
REMARK    6  A    between atoms: C17_26  and  C18_27 
REMARK    7  A    between atoms: C18_27  and  N4_28 
REMARK    8  A    between atoms: N4_28  and  S1_30 
REMARK    9  A    between atoms: S1_30  and  C19_33 
ROOT
HETATM    1  C10 UNL     1      -0.386  -0.125  -1.437  1.00  0.00     0.086 C 
HETATM    2  C11 UNL     1      -0.530  -0.903  -2.706  1.00  0.00     0.027 C 
HETATM    3  C12 UNL     1      -0.893  -2.325  -2.609  1.00  0.00     0.038 C 
HETATM    4  C13 UNL     1      -1.446  -2.683  -1.282  1.00  0.00     0.223 C 
HETATM    5  C14 UNL     1      -1.707  -4.176  -1.138  1.00  0.00     0.037 C 
HETATM    6  C15 UNL     1      -3.172  -4.310  -1.399  1.00  0.00     0.032 C 
HETATM    7  C16 UNL     1      -3.719  -2.912  -1.372  1.00  0.00     0.273 C 
HETATM    8  N3  UNL     1      -2.677  -2.049  -0.908  1.00  0.00     0.099 N 
HETATM    9  C17 UNL     1      -2.818  -0.674  -1.210  1.00  0.00     0.243 C 
HETATM   10  C23 UNL     1      -1.664   0.137  -0.715  1.00  0.00     0.062 C 
ENDROOT
BRANCH   1  11
HETATM   11  N2  UNL     1       0.362   1.111  -1.687  1.00  0.00    -0.356 N 
HETATM   12  C1  UNL     1       1.714   1.292  -1.329  1.00  0.00     0.219 C 
HETATM   13  O1  UNL     1       2.299   0.329  -0.768  1.00  0.00    -0.274 OA
ATOM     14  H2  UNL     1      -0.122   1.883  -2.145  1.00  0.00     0.162 HD
BRANCH  12  15
HETATM   15  C2  UNL     1       2.459   2.534  -1.580  1.00  0.00     0.122 C 
BRANCH  15  16
HETATM   16  C3  UNL     1       3.923   2.365  -1.248  1.00  0.00     0.132 C 
BRANCH  16  17
HETATM   17  N1  UNL     1       4.083   2.024   0.136  1.00  0.00    -0.360 N 
HETATM   18  C4  UNL     1       5.364   1.793   0.705  1.00  0.00     0.222 C 
HETATM   19  O2  UNL     1       6.372   1.898  -0.044  1.00  0.00    -0.273 OA
ATOM     20  H1  UNL     1       3.255   1.945   0.727  1.00  0.00     0.162 HD
BRANCH  18  21
HETATM   21  C5  UNL     1       5.490   1.441   2.130  1.00  0.00     0.084 C 
HETATM   22  C6  UNL     1       6.959   1.246   2.423  1.00  0.00     0.020 C 
HETATM   23  C7  UNL     1       7.237  -0.213   2.501  1.00  0.00     0.080 C 
HETATM   24  C8  UNL     1       5.973  -0.884   2.060  1.00  0.00     0.244 C 
HETATM   25  F1  UNL     1       6.020  -0.979   0.661  1.00  0.00    -0.206 F 
HETATM   26  F2  UNL     1       5.791  -2.134   2.608  1.00  0.00    -0.206 F 
HETATM   27  C9  UNL     1       4.860   0.084   2.431  1.00  0.00     0.093 C 
ENDBRANCH  18  21
ENDBRANCH  16  17
ENDBRANCH  15  16
ENDBRANCH  12  15
ENDBRANCH   1  11
BRANCH   9  28
HETATM   28  C18 UNL     1      -4.072  -0.177  -0.488  1.00  0.00     0.168 C 
BRANCH  28  29
HETATM   29  N4  UNL     1      -4.318   1.198  -0.713  1.00  0.00    -0.313 N 
ATOM     30  H4  UNL     1      -3.691   1.749  -1.299  1.00  0.00     0.172 HD
BRANCH  29  31
HETATM   31  S1  UNL     1      -5.656   1.901  -0.001  1.00  0.00     0.265 S 
HETATM   32  O3  UNL     1      -5.695   3.376  -0.388  1.00  0.00    -0.200 OA
HETATM   33  O4  UNL     1      -6.973   1.310  -0.436  1.00  0.00    -0.200 OA
BRANCH  31  34
HETATM   34  C19 UNL     1      -5.659   1.883   1.750  1.00  0.00     0.119 A 
HETATM   35  C20 UNL     1      -4.758   1.462   2.674  1.00  0.00     0.033 A 
HETATM   36  C21 UNL     1      -5.068   1.602   3.976  1.00  0.00     0.009 A 
HETATM   37  C22 UNL     1      -6.281   2.162   4.277  1.00  0.00     0.051 A 
HETATM   38  S2  UNL     1      -6.949   2.477   2.742  1.00  0.00    -0.088 SA
ENDBRANCH  31  34
ENDBRANCH  29  31
ENDBRANCH  28  29
ENDBRANCH   9  28
TORSDOF 9
