REMARK  11 active torsions:
REMARK  status: ('A' for Active; 'I' for Inactive)
REMARK    1  A    between atoms: C2_2  and  C4_4 
REMARK    2  A    between atoms: C4_4  and  N1_5 
REMARK    3  A    between atoms: C4_4  and  C5_9 
REMARK       I    between atoms: C5_9  and  N2_11 
REMARK    4  A    between atoms: C6_12  and  C7_13 
REMARK       I    between atoms: C7_13  and  N3_15 
REMARK    5  A    between atoms: N3_15  and  C8_17 
REMARK    6  A    between atoms: C8_17  and  C9_18 
REMARK    7  A    between atoms: C8_17  and  C16_29 
REMARK       I    between atoms: C9_18  and  N4_20 
REMARK    8  A    between atoms: N4_20  and  C10_22 
REMARK    9  A    between atoms: C10_22  and  C11_23 
REMARK   10  A    between atoms: C11_23  and  C12_25 
REMARK   11  A    between atoms: C20_35  and  C21_36 
ROOT
HETATM    1  C5  UNL     1       3.258  -0.783   0.402  1.00  0.00     0.254 C 
HETATM    2  O1  UNL     1       4.170  -0.678  -0.499  1.00  0.00    -0.271 OA
HETATM    3  N2  UNL     1       3.162   0.186   1.435  1.00  0.00    -0.296 N 
HETATM    4  C6  UNL     1       2.223   0.294   2.490  1.00  0.00     0.282 C 
HETATM    5  C19 UNL     1       2.802   1.370   3.369  1.00  0.00     0.293 C 
HETATM    6  O5  UNL     1       2.601   1.414   4.603  1.00  0.00    -0.262 OA
HETATM    7  O6  UNL     1       3.519   2.175   2.507  1.00  0.00    -0.289 OA
HETATM    8  C20 UNL     1       4.111   1.269   1.580  1.00  0.00     0.274 C 
ENDROOT
BRANCH   4   9
HETATM    9  C7  UNL     1       0.864   0.738   2.123  1.00  0.00     0.251 C 
HETATM   10  O2  UNL     1       0.059   0.929   3.106  1.00  0.00    -0.271 OA
HETATM   11  N3  UNL     1       0.364   0.970   0.840  1.00  0.00    -0.345 N 
ATOM     12  H3  UNL     1       0.964   0.828   0.027  1.00  0.00     0.163 HD
BRANCH  11  13
HETATM   13  C8  UNL     1      -1.036   1.422   0.656  1.00  0.00     0.180 C 
BRANCH  13  14
HETATM   14  C9  UNL     1      -1.811   0.321   0.019  1.00  0.00     0.241 C 
HETATM   15  O3  UNL     1      -1.196  -0.737  -0.364  1.00  0.00    -0.271 OA
HETATM   16  N4  UNL     1      -3.194   0.371  -0.189  1.00  0.00    -0.352 N 
ATOM     17  H4  UNL     1      -3.724   1.191   0.105  1.00  0.00     0.162 HD
BRANCH  16  18
HETATM   18  C10 UNL     1      -3.883  -0.757  -0.831  1.00  0.00     0.201 C 
BRANCH  18  19
HETATM   19  C11 UNL     1      -5.324  -0.495  -0.946  1.00  0.00     0.151 C 
HETATM   20  O4  UNL     1      -5.776   0.560  -0.520  1.00  0.00    -0.295 OA
BRANCH  19  21
HETATM   21  C12 UNL     1      -6.268  -1.444  -1.553  1.00  0.00     0.011 C 
HETATM   22  C13 UNL     1      -5.854  -1.679  -2.998  1.00  0.00     0.022 C 
HETATM   23  C14 UNL     1      -6.220  -2.809  -0.874  1.00  0.00     0.022 C 
HETATM   24  C15 UNL     1      -7.684  -0.972  -1.549  1.00  0.00     0.022 C 
ENDBRANCH  19  21
ENDBRANCH  18  19
ENDBRANCH  16  18
ENDBRANCH  13  14
BRANCH  13  25
HETATM   25  C16 UNL     1      -1.021   2.690  -0.176  1.00  0.00     0.009 C 
HETATM   26  C17 UNL     1      -0.191   3.731   0.590  1.00  0.00     0.012 C 
HETATM   27  C18 UNL     1      -2.377   3.318  -0.358  1.00  0.00     0.012 C 
ENDBRANCH  13  25
ENDBRANCH  11  13
ENDBRANCH   4   9
BRANCH   1  28
HETATM   28  C4  UNL     1       2.380  -1.964   0.235  1.00  0.00     0.278 C 
BRANCH  28  29
HETATM   29  C2  UNL     1       3.070  -3.233   0.728  1.00  0.00     0.017 C 
HETATM   30  C1  UNL     1       3.285  -3.281   2.203  1.00  0.00     0.012 C 
HETATM   31  C3  UNL     1       2.358  -4.470   0.285  1.00  0.00     0.012 C 
ENDBRANCH  28  29
BRANCH  28  32
HETATM   32  N1  UNL     1       2.304  -2.201  -1.235  1.00  0.00    -0.066 N 
ATOM     33  H13 UNL     1       3.195  -2.410  -1.685  1.00  0.00     0.275 HD
ATOM     34  H12 UNL     1       1.851  -3.073  -1.509  1.00  0.00     0.275 HD
ATOM     35  H11 UNL     1       1.843  -1.353  -1.564  1.00  0.00     0.275 HD
ENDBRANCH  28  32
ENDBRANCH   1  28
BRANCH   8  36
HETATM   36  C21 UNL     1       4.575   1.912   0.368  1.00  0.00     0.029 A 
HETATM   37  C22 UNL     1       3.794   2.344  -0.675  1.00  0.00     0.018 A 
HETATM   38  C23 UNL     1       4.325   2.977  -1.809  1.00  0.00     0.043 A 
HETATM   39  C24 UNL     1       5.664   3.187  -1.915  1.00  0.00     0.119 A 
HETATM   40  F1  UNL     1       6.174   3.798  -3.010  1.00  0.00    -0.206 F 
HETATM   41  C25 UNL     1       6.480   2.767  -0.888  1.00  0.00     0.085 A 
HETATM   42  C26 UNL     1       5.951   2.147   0.221  1.00  0.00     0.130 A 
HETATM   43  F2  UNL     1       6.769   1.753   1.197  1.00  0.00    -0.205 F 
ENDBRANCH   8  36
TORSDOF 11
