REMARK  10 active torsions:
REMARK  status: ('A' for Active; 'I' for Inactive)
REMARK    1  A    between atoms: N1_2  and  C1_4 
REMARK    2  A    between atoms: C4_11  and  O3_12 
REMARK    3  A    between atoms: C4_11  and  C5_14 
REMARK    4  A    between atoms: C6_15  and  C7_16 
REMARK    5  A    between atoms: C7_16  and  O4_17 
REMARK    6  A    between atoms: C8_20  and  C9_21 
REMARK    7  A    between atoms: C12_24  and  C13_25 
REMARK    8  A    between atoms: C13_25  and  C14_26 
REMARK    9  A    between atoms: C14_26  and  C15_27 
REMARK   10  A    between atoms: C23_36  and  O6_37 
ROOT
HETATM    1  C5  UNL     1      -2.518   0.850   0.128  1.00  0.00     0.086 C 
HETATM    2  C6  UNL     1      -1.803   2.005  -0.404  1.00  0.00     0.155 C 
HETATM    3  O5  UNL     1      -0.448   1.608  -0.606  1.00  0.00    -0.371 OA
HETATM    4  C8  UNL     1      -0.209   0.631   0.363  1.00  0.00     0.184 C 
HETATM    5  C23 UNL     1      -1.434  -0.238   0.074  1.00  0.00     0.161 C 
ENDROOT
BRANCH   4   6
HETATM    6  C9  UNL     1       1.039  -0.068  -0.051  1.00  0.00    -0.027 A 
HETATM    7  C10 UNL     1       2.151   0.622  -0.486  1.00  0.00     0.010 A 
HETATM    8  C11 UNL     1       3.317  -0.001  -0.874  1.00  0.00     0.007 A 
HETATM    9  C12 UNL     1       3.416  -1.360  -0.841  1.00  0.00    -0.058 A 
HETATM   10  C21 UNL     1       2.304  -2.071  -0.404  1.00  0.00     0.007 A 
HETATM   11  C22 UNL     1       1.132  -1.444  -0.015  1.00  0.00     0.010 A 
BRANCH   9  12
HETATM   12  C13 UNL     1       4.650  -2.076  -1.248  1.00  0.00     0.043 C 
BRANCH  12  13
HETATM   13  C14 UNL     1       5.616  -2.313  -0.131  1.00  0.00     0.043 C 
BRANCH  13  14
HETATM   14  C15 UNL     1       6.101  -1.075   0.517  1.00  0.00    -0.058 A 
HETATM   15  C16 UNL     1       5.446  -0.528   1.599  1.00  0.00     0.010 A 
HETATM   16  C17 UNL     1       5.892   0.627   2.210  1.00  0.00     0.043 A 
HETATM   17  C18 UNL     1       7.018   1.276   1.751  1.00  0.00     0.116 A 
HETATM   18  F1  UNL     1       7.472   2.418   2.342  1.00  0.00    -0.206 F 
HETATM   19  C19 UNL     1       7.690   0.754   0.674  1.00  0.00     0.043 A 
HETATM   20  C20 UNL     1       7.229  -0.411   0.069  1.00  0.00     0.010 A 
ENDBRANCH  13  14
ENDBRANCH  12  13
ENDBRANCH   9  12
ENDBRANCH   4   6
BRANCH   5  21
HETATM   21  O6  UNL     1      -1.200  -0.709  -1.198  1.00  0.00    -0.392 OA
ATOM     22  H6  UNL     1      -0.530  -1.382  -1.231  1.00  0.00     0.210 HD
ENDBRANCH   5  21
BRANCH   2  23
HETATM   23  C7  UNL     1      -1.640   3.153   0.608  1.00  0.00     0.196 C 
BRANCH  23  24
HETATM   24  O4  UNL     1      -0.841   4.169   0.038  1.00  0.00    -0.398 OA
ATOM     25  H4  UNL     1      -0.740   4.878   0.663  1.00  0.00     0.209 HD
ENDBRANCH  23  24
ENDBRANCH   2  23
BRANCH   1  26
HETATM   26  C4  UNL     1      -3.738   0.325  -0.434  1.00  0.00     0.106 C 
HETATM   27  C3  UNL     1      -4.971   1.088  -0.561  1.00  0.00     0.292 C 
HETATM   28  N2  UNL     1      -5.786   1.110   0.665  1.00  0.00    -0.056 N 
HETATM   29  S1  UNL     1      -4.900   2.794  -1.052  1.00  0.00    -0.059 SA
HETATM   30  C2  UNL     1      -6.351  -0.159   0.961  1.00  0.00     0.265 C 
ATOM     31  H22 UNL     1      -6.506   1.831   0.615  1.00  0.00     0.278 HD
ATOM     32  H21 UNL     1      -5.251   1.468   1.456  1.00  0.00     0.278 HD
HETATM   33  C1  UNL     1      -5.556  -1.260   0.292  1.00  0.00     0.184 C 
HETATM   34  C24 UNL     1      -4.098  -0.928   0.404  1.00  0.00     0.074 C 
BRANCH  33  35
HETATM   35  N1  UNL     1      -5.773  -2.509   0.958  1.00  0.00    -0.149 N 
HETATM   36  O1  UNL     1      -6.255  -3.464   0.323  1.00  0.00    -0.536 OA
HETATM   37  O2  UNL     1      -5.480  -2.737   2.281  1.00  0.00    -0.536 OA
ENDBRANCH  33  35
BRANCH  26  38
HETATM   38  O3  UNL     1      -3.461  -0.245  -1.705  1.00  0.00    -0.386 OA
ATOM     39  H3  UNL     1      -2.656  -0.743  -1.622  1.00  0.00     0.210 HD
ENDBRANCH  26  38
ENDBRANCH   1  26
TORSDOF 10
