REMARK  11 active torsions:
REMARK  status: ('A' for Active; 'I' for Inactive)
REMARK    1  A    between atoms: C2_2  and  C3_3 
REMARK    2  A    between atoms: C3_3  and  N1_4 
REMARK    3  A    between atoms: N1_4  and  C4_6 
REMARK    4  A    between atoms: C7_12  and  N3_13 
REMARK    5  A    between atoms: N3_13  and  C8_15 
REMARK    6  A    between atoms: C8_15  and  C9_16 
REMARK    7  A    between atoms: C9_16  and  O1_17 
REMARK    8  A    between atoms: O1_17  and  C10_18 
REMARK    9  A    between atoms: C16_26  and  N5_27 
REMARK   10  A    between atoms: C17_31  and  O3_32 
REMARK   11  A    between atoms: C19_34  and  O4_35 
ROOT
HETATM    1  C10 UNL     1      -2.603   3.030   0.321  1.00  0.00     0.120 A 
HETATM    2  C11 UNL     1      -3.913   3.308   0.694  1.00  0.00     0.102 A 
HETATM    3  C12 UNL     1      -4.870   2.415   1.256  1.00  0.00     0.104 C 
HETATM    4  N4  UNL     1      -5.647   1.718   1.706  1.00  0.00    -0.191 NA
HETATM    5  C13 UNL     1      -4.102   4.645   0.406  1.00  0.00     0.167 A 
HETATM    6  O2  UNL     1      -3.015   5.131  -0.091  1.00  0.00    -0.323 OA
HETATM    7  C14 UNL     1      -2.070   4.206  -0.170  1.00  0.00     0.083 A 
HETATM    8  C15 UNL     1      -0.713   4.479  -0.703  1.00  0.00     0.079 C 
ENDROOT
BRANCH   1   9
HETATM    9  O1  UNL     1      -1.939   1.821   0.413  1.00  0.00    -0.344 OA
BRANCH   9  10
HETATM   10  C9  UNL     1      -1.957   0.863  -0.635  1.00  0.00     0.210 C 
BRANCH  10  11
HETATM   11  C8  UNL     1      -1.169  -0.382  -0.328  1.00  0.00     0.091 C 
HETATM   12  C16 UNL     1      -1.849  -0.928   0.962  1.00  0.00     0.245 C 
HETATM   13  C17 UNL     1      -1.273  -2.255   1.345  1.00  0.00     0.182 C 
HETATM   14  C19 UNL     1      -0.620  -3.017   0.244  1.00  0.00     0.150 C 
HETATM   15  C20 UNL     1      -1.353  -2.789  -1.025  1.00  0.00     0.045 C 
HETATM   16  C21 UNL     1      -1.422  -1.354  -1.463  1.00  0.00    -0.016 C 
HETATM   17  C22 UNL     1      -2.719  -1.102  -2.196  1.00  0.00     0.018 C 
HETATM   18  C23 UNL     1      -0.324  -1.146  -2.483  1.00  0.00     0.018 C 
BRANCH  11  19
HETATM   19  N3  UNL     1       0.150  -0.299  -0.081  1.00  0.00    -0.361 N 
ATOM     20  H3  UNL     1       0.322  -1.104   0.522  1.00  0.00     0.162 HD
BRANCH  19  21
HETATM   21  C7  UNL     1       1.251   0.208  -0.181  1.00  0.00     0.120 A 
HETATM   22  C6  UNL     1       1.592   1.348  -0.897  1.00  0.00     0.091 A 
HETATM   23  C5  UNL     1       2.875   1.827  -0.930  1.00  0.00     0.122 A 
HETATM   24  N2  UNL     1       3.874   1.202  -0.258  1.00  0.00    -0.181 N 
HETATM   25 CL1  UNL     1       3.268   3.261  -1.840  1.00  0.00    -0.064 Cl
HETATM   26  C4  UNL     1       3.566   0.104   0.437  1.00  0.00     0.684 A 
ATOM     27  H2  UNL     1       4.829   1.559  -0.283  1.00  0.00     0.185 HD
HETATM   28  N6  UNL     1       2.276  -0.373   0.467  1.00  0.00    -0.177 N 
ATOM     29  H6  UNL     1       2.086  -1.215   1.011  1.00  0.00     0.186 HD
BRANCH  26  30
HETATM   30  N1  UNL     1       4.470  -0.521   1.090  1.00  0.00    -0.202 N 
ATOM     31  H1  UNL     1       4.168  -1.351   1.600  1.00  0.00     0.183 HD
BRANCH  30  32
HETATM   32  C3  UNL     1       5.830  -0.193   1.184  1.00  0.00     0.105 C 
BRANCH  32  33
HETATM   33  C2  UNL     1       6.661  -0.890   0.172  1.00  0.00     0.007 C 
HETATM   34  C1  UNL     1       7.361  -0.197  -0.695  1.00  0.00     0.012 C 
ENDBRANCH  32  33
ENDBRANCH  30  32
ENDBRANCH  26  30
ENDBRANCH  19  21
ENDBRANCH  11  19
BRANCH  12  35
HETATM   35  N5  UNL     1      -3.264  -0.979   0.854  1.00  0.00    -0.070 N 
ATOM     36  H53 UNL     1      -3.645  -0.068   0.596  1.00  0.00     0.274 HD
ATOM     37  H52 UNL     1      -3.550  -1.515   0.034  1.00  0.00     0.274 HD
ATOM     38  H51 UNL     1      -3.709  -1.337   1.699  1.00  0.00     0.274 HD
ENDBRANCH  12  35
BRANCH  13  39
HETATM   39  O3  UNL     1      -0.360  -2.125   2.380  1.00  0.00    -0.386 OA
HETATM   40  C18 UNL     1      -0.787  -2.793   3.530  1.00  0.00     0.202 C 
ENDBRANCH  13  39
BRANCH  14  41
HETATM   41  O4  UNL     1      -0.755  -4.392   0.553  1.00  0.00    -0.393 OA
ATOM     42  H4  UNL     1      -0.339  -4.878  -0.149  1.00  0.00     0.210 HD
ENDBRANCH  14  41
ENDBRANCH  10  11
ENDBRANCH   9  10
ENDBRANCH   1   9
TORSDOF 11
