REMARK  11 active torsions:
REMARK  status: ('A' for Active; 'I' for Inactive)
REMARK    1  A    between atoms: C5_6  and  C6_7 
REMARK    2  A    between atoms: C7_8  and  C8_9 
REMARK    3  A    between atoms: C8_9  and  O1_10 
REMARK    4  A    between atoms: C8_9  and  C9_12 
REMARK    5  A    between atoms: C9_12  and  O2_13 
REMARK    6  A    between atoms: C11_16  and  O3_17 
REMARK    7  A    between atoms: O3_17  and  C12_18 
REMARK    8  A    between atoms: C12_18  and  C13_20 
REMARK    9  A    between atoms: C13_20  and  C14_21 
REMARK   10  A    between atoms: C18_25  and  C19_26 
REMARK   11  A    between atoms: C19_26  and  O5_27 
ROOT
HETATM    1  C1  UNL     1      -3.924  -2.553   0.781  1.00  0.00     0.017 C 
HETATM    2  C2  UNL     1      -2.709  -2.440   1.265  1.00  0.00    -0.052 C 
HETATM    3  C3  UNL     1      -2.515  -1.238   2.087  1.00  0.00     0.112 C 
HETATM    4 CL1  UNL     1      -3.961  -0.287   2.383  1.00  0.00    -0.120 Cl
HETATM    5  C4  UNL     1      -1.389  -0.341   1.582  1.00  0.00     0.033 C 
HETATM    6  C5  UNL     1      -1.410  -0.231   0.115  1.00  0.00     0.017 C 
HETATM    7  C10 UNL     1      -0.332  -0.878  -0.652  1.00  0.00     0.039 C 
HETATM    8  C11 UNL     1       1.070  -0.704  -0.166  1.00  0.00     0.160 C 
HETATM    9  C17 UNL     1       1.763  -1.707  -1.041  1.00  0.00     0.011 C 
HETATM   10  C18 UNL     1       0.932  -2.623  -1.450  1.00  0.00    -0.049 C 
HETATM   11  C20 UNL     1      -0.413  -2.340  -0.870  1.00  0.00    -0.010 C 
HETATM   12  C21 UNL     1      -1.391  -2.701  -1.973  1.00  0.00     0.021 C 
HETATM   13  C22 UNL     1      -0.505  -3.206   0.319  1.00  0.00     0.039 C 
HETATM   14  C23 UNL     1      -1.827  -3.538   0.892  1.00  0.00     0.113 C 
HETATM   15 CL2  UNL     1      -2.655  -4.834  -0.035  1.00  0.00    -0.120 Cl
ENDROOT
BRANCH   6  16
HETATM   16  C6  UNL     1      -1.496   1.193  -0.292  1.00  0.00    -0.023 C 
HETATM   17  C7  UNL     1      -2.570   1.759  -0.823  1.00  0.00     0.003 C 
BRANCH  17  18
HETATM   18  C8  UNL     1      -2.603   3.188  -1.213  1.00  0.00     0.164 C 
BRANCH  18  19
HETATM   19  O1  UNL     1      -1.785   3.981  -0.384  1.00  0.00    -0.390 OA
ATOM     20  H1  UNL     1      -1.806   4.897  -0.634  1.00  0.00     0.210 HD
ENDBRANCH  18  19
BRANCH  18  21
HETATM   21  C9  UNL     1      -2.106   3.414  -2.622  1.00  0.00     0.199 C 
BRANCH  21  22
HETATM   22  O2  UNL     1      -2.809   2.699  -3.562  1.00  0.00    -0.398 OA
ATOM     23  H2  UNL     1      -2.497   2.841  -4.448  1.00  0.00     0.209 HD
ENDBRANCH  21  22
ENDBRANCH  18  21
ENDBRANCH  17  18
ENDBRANCH   6  16
BRANCH   8  24
HETATM   24  O3  UNL     1       1.633   0.550  -0.235  1.00  0.00    -0.312 OA
BRANCH  24  25
HETATM   25  C12 UNL     1       2.257   1.131   0.844  1.00  0.00     0.259 C 
HETATM   26  O4  UNL     1       2.276   0.439   1.887  1.00  0.00    -0.265 OA
BRANCH  25  27
HETATM   27  C13 UNL     1       2.883   2.454   0.872  1.00  0.00     0.115 C 
BRANCH  27  28
HETATM   28  C14 UNL     1       3.482   2.789   2.221  1.00  0.00    -0.013 C 
HETATM   29  C15 UNL     1       4.555   1.798   2.623  1.00  0.00     0.010 C 
HETATM   30  C16 UNL     1       4.155   4.150   2.176  1.00  0.00     0.010 C 
ENDBRANCH  27  28
ENDBRANCH  25  27
ENDBRANCH  24  25
ENDBRANCH   8  24
BRANCH  10  31
HETATM   31  C19 UNL     1       1.300  -3.773  -2.343  1.00  0.00     0.199 C 
BRANCH  31  32
HETATM   32  O5  UNL     1       2.649  -3.704  -2.657  1.00  0.00    -0.397 OA
ATOM     33  H5  UNL     1       2.882  -4.431  -3.222  1.00  0.00     0.209 HD
ENDBRANCH  31  32
ENDBRANCH  10  31
TORSDOF 11
