REMARK  9 active torsions:
REMARK  status: ('A' for Active; 'I' for Inactive)
REMARK    1  A    between atoms: C2_2  and  C4_4 
REMARK    2  A    between atoms: C4_4  and  C5_5 
REMARK    3  A    between atoms: C4_4  and  C23_30 
REMARK       I    between atoms: C5_5  and  N1_7 
REMARK    4  A    between atoms: N1_7  and  C6_9 
REMARK    5  A    between atoms: C6_9  and  C7_10 
REMARK    6  A    between atoms: C9_12  and  C10_13 
REMARK    7  A    between atoms: C10_13  and  C11_14 
REMARK    8  A    between atoms: C11_14  and  C12_15 
REMARK    9  A    between atoms: C12_15  and  O2_18 
ROOT
HETATM    1  C7  UNL     1      -0.187  -0.788  -0.054  1.00  0.00    -0.004 C 
HETATM    2  C8  UNL     1      -1.164   0.083   0.185  1.00  0.00    -0.072 C 
HETATM    3  C9  UNL     1      -2.178   0.041   1.316  1.00  0.00     0.023 C 
HETATM    4  C15 UNL     1      -2.284   1.538   1.155  1.00  0.00    -0.029 C 
HETATM    5  C16 UNL     1      -3.690   2.089   1.216  1.00  0.00     0.016 C 
HETATM    6  C17 UNL     1      -1.319   2.244   2.020  1.00  0.00     0.016 C 
HETATM    7  C18 UNL     1      -0.003   2.577   1.428  1.00  0.00     0.080 C 
HETATM    8  C19 UNL     1      -0.077   3.086   0.031  1.00  0.00     0.247 C 
HETATM    9  F1  UNL     1       1.204   2.987  -0.534  1.00  0.00    -0.206 F 
HETATM   10  F2  UNL     1      -0.299   4.469   0.108  1.00  0.00    -0.206 F 
HETATM   11  C20 UNL     1      -1.075   2.422  -0.853  1.00  0.00     0.063 C 
HETATM   12  C21 UNL     1      -2.132   3.490  -1.207  1.00  0.00     0.017 C 
HETATM   13  C22 UNL     1      -1.821   1.300  -0.254  1.00  0.00     0.033 C 
ENDROOT
BRANCH   1  14
HETATM   14  C6  UNL     1       0.780  -0.697  -1.179  1.00  0.00     0.150 C 
BRANCH  14  15
HETATM   15  N1  UNL     1       2.153  -0.616  -0.684  1.00  0.00    -0.357 N 
HETATM   16  C5  UNL     1       3.226  -0.530  -1.598  1.00  0.00     0.230 C 
HETATM   17  O1  UNL     1       2.966  -0.523  -2.836  1.00  0.00    -0.273 OA
ATOM     18  H1  UNL     1       2.336  -0.622   0.319  1.00  0.00     0.162 HD
BRANCH  16  19
HETATM   19  C4  UNL     1       4.633  -0.449  -1.181  1.00  0.00     0.158 C 
BRANCH  19  20
HETATM   20  C2  UNL     1       4.966   0.742  -0.336  1.00  0.00    -0.002 C 
HETATM   21  C1  UNL     1       6.459   0.634  -0.012  1.00  0.00     0.011 C 
HETATM   22  C3  UNL     1       4.709   2.048  -1.071  1.00  0.00     0.011 C 
ENDBRANCH  19  20
BRANCH  19  23
HETATM   23  C23 UNL     1       4.988  -1.668  -0.368  1.00  0.00     0.157 A 
HETATM   24  N2  UNL     1       4.409  -2.052   0.781  1.00  0.00    -0.278 N 
HETATM   25  N3  UNL     1       4.983  -3.166   1.203  1.00  0.00    -0.243 N 
ATOM     26  H2  UNL     1       3.648  -1.563   1.253  1.00  0.00     0.189 HD
HETATM   27  C24 UNL     1       5.919  -3.436   0.277  1.00  0.00     0.385 A 
ATOM     28  H3  UNL     1       4.764  -3.701   2.044  1.00  0.00     0.192 HD
HETATM   29  O3  UNL     1       6.673  -4.444   0.357  1.00  0.00    -0.236 OA
HETATM   30  O4  UNL     1       5.907  -2.523  -0.660  1.00  0.00    -0.245 OA
ENDBRANCH  19  23
ENDBRANCH  16  19
ENDBRANCH  14  15
ENDBRANCH   1  14
BRANCH   3  31
HETATM   31  C10 UNL     1      -3.460  -0.656   0.919  1.00  0.00     0.013 C 
BRANCH  31  32
HETATM   32  C11 UNL     1      -3.207  -2.095   0.503  1.00  0.00     0.038 C 
BRANCH  32  33
HETATM   33  C12 UNL     1      -4.580  -2.667   0.132  1.00  0.00     0.051 C 
HETATM   34  C13 UNL     1      -4.397  -4.122  -0.300  1.00  0.00     0.045 C 
HETATM   35  C14 UNL     1      -5.200  -1.933  -1.017  1.00  0.00     0.045 C 
BRANCH  33  36
HETATM   36  O2  UNL     1      -5.445  -2.598   1.222  1.00  0.00    -0.391 OA
ATOM     37  H2  UNL     1      -6.296  -2.952   0.992  1.00  0.00     0.210 HD
ENDBRANCH  33  36
ENDBRANCH  32  33
ENDBRANCH  31  32
ENDBRANCH   3  31
TORSDOF 9
