REMARK  15 active torsions:
REMARK  status: ('A' for Active; 'I' for Inactive)
REMARK    1  A    between atoms: C5_5  and  C6_6 
REMARK    2  A    between atoms: C5_5  and  C9_15 
REMARK    3  A    between atoms: C6_6  and  C7_7 
REMARK    4  A    between atoms: C6_6  and  N1_9 
REMARK    5  A    between atoms: N1_9  and  S1_11 
REMARK    6  A    between atoms: C9_15  and  O3_16 
REMARK    7  A    between atoms: C9_15  and  C15_23 
REMARK    8  A    between atoms: O3_16  and  C10_17 
REMARK    9  A    between atoms: C10_17  and  C11_19 
REMARK   10  A    between atoms: C15_23  and  N2_25 
REMARK   11  A    between atoms: N2_25  and  C17_26 
REMARK   12  A    between atoms: C17_26  and  O5_27 
REMARK   13  A    between atoms: C17_26  and  C18_29 
REMARK   14  A    between atoms: C18_29  and  C20_32 
REMARK       I    between atoms: C20_32  and  N3_34 
REMARK   15  A    between atoms: N3_34  and  C21_36 
ROOT
HETATM    1  C1  UNL     1      -2.485  -1.892   3.327  1.00  0.00     0.102 C 
HETATM    2  C2  UNL     1      -3.052  -1.112   2.569  1.00  0.00    -0.153 C 
HETATM    3  C3  UNL     1      -3.767  -0.183   1.685  1.00  0.00    -0.011 C 
HETATM    4  C4  UNL     1      -5.226  -0.106   1.873  1.00  0.00     0.058 C 
HETATM    5  C5  UNL     1      -3.081   0.483   0.783  1.00  0.00     0.014 C 
ENDROOT
BRANCH   5   6
HETATM    6  C6  UNL     1      -3.788   1.433  -0.116  1.00  0.00     0.158 C 
BRANCH   6   7
HETATM    7  C7  UNL     1      -4.063   0.906  -1.472  1.00  0.00     0.252 C 
HETATM    8  F1  UNL     1      -4.723   1.844  -2.226  1.00  0.00    -0.253 F 
ENDBRANCH   6   7
BRANCH   6   9
HETATM    9  N1  UNL     1      -4.927   2.075   0.437  1.00  0.00    -0.308 N 
ATOM     10  H1  UNL     1      -5.824   1.606   0.565  1.00  0.00     0.172 HD
BRANCH   9  11
HETATM   11  S1  UNL     1      -4.656   3.712   0.869  1.00  0.00     0.223 S 
HETATM   12  C8  UNL     1      -4.220   4.647  -0.570  1.00  0.00     0.185 C 
HETATM   13  O1  UNL     1      -3.580   3.821   1.914  1.00  0.00    -0.206 OA
HETATM   14  O2  UNL     1      -5.900   4.320   1.455  1.00  0.00    -0.206 OA
ENDBRANCH   9  11
ENDBRANCH   6   9
ENDBRANCH   5   6
BRANCH   5  15
HETATM   15  C9  UNL     1      -1.623   0.250   0.644  1.00  0.00     0.101 C 
BRANCH  15  16
HETATM   16  O3  UNL     1      -1.179  -0.312  -0.524  1.00  0.00    -0.279 OA
BRANCH  16  17
HETATM   17  C10 UNL     1      -0.569  -1.520  -0.762  1.00  0.00     0.271 C 
HETATM   18  O4  UNL     1      -0.351  -2.253   0.246  1.00  0.00    -0.264 OA
BRANCH  17  19
HETATM   19  C11 UNL     1      -0.210  -1.902  -2.151  1.00  0.00     0.037 C 
HETATM   20  C12 UNL     1       0.398  -3.285  -2.102  1.00  0.00     0.025 C 
HETATM   21  C13 UNL     1      -1.499  -1.903  -2.966  1.00  0.00     0.025 C 
HETATM   22  C14 UNL     1       0.751  -0.875  -2.691  1.00  0.00     0.025 C 
ENDBRANCH  17  19
ENDBRANCH  16  17
ENDBRANCH  15  16
BRANCH  15  23
HETATM   23  C15 UNL     1      -0.737   1.400   1.132  1.00  0.00     0.219 C 
HETATM   24  C16 UNL     1      -0.523   2.443   0.081  1.00  0.00     0.055 C 
BRANCH  23  25
HETATM   25  N2  UNL     1       0.502   0.908   1.562  1.00  0.00    -0.413 NA
BRANCH  25  26
HETATM   26  C17 UNL     1       1.689   0.430   1.981  1.00  0.00     0.235 C 
BRANCH  26  27
HETATM   27  O5  UNL     1       1.883  -0.563   2.821  1.00  0.00    -0.336 OA
ATOM     28  H5  UNL     1       2.720  -0.900   3.117  1.00  0.00     0.220 HD
ENDBRANCH  26  27
BRANCH  26  29
HETATM   29  C18 UNL     1       3.005   0.991   1.550  1.00  0.00     0.256 C 
HETATM   30  C19 UNL     1       3.933   1.013   2.812  1.00  0.00     0.073 C 
HETATM   31  F2  UNL     1       2.849   2.310   1.243  1.00  0.00    -0.223 F 
BRANCH  29  32
HETATM   32  C20 UNL     1       3.722   0.256   0.504  1.00  0.00     0.267 C 
HETATM   33  O6  UNL     1       3.856   0.780  -0.656  1.00  0.00    -0.269 OA
HETATM   34  N3  UNL     1       4.289  -1.017   0.722  1.00  0.00    -0.350 N 
ATOM     35  H3  UNL     1       4.175  -1.461   1.633  1.00  0.00     0.163 HD
BRANCH  34  36
HETATM   36  C21 UNL     1       5.021  -1.705  -0.300  1.00  0.00     0.022 C 
HETATM   37  C22 UNL     1       6.199  -0.820  -0.699  1.00  0.00     0.037 C 
HETATM   38  C23 UNL     1       4.264  -2.031  -1.538  1.00  0.00     0.037 C 
HETATM   39  C24 UNL     1       5.590  -3.010   0.241  1.00  0.00     0.037 C 
ENDBRANCH  34  36
ENDBRANCH  29  32
ENDBRANCH  26  29
ENDBRANCH  25  26
ENDBRANCH  23  25
ENDBRANCH  15  23
ENDBRANCH   5  15
TORSDOF 15
