REMARK  13 active torsions:
REMARK  status: ('A' for Active; 'I' for Inactive)
REMARK    1  A    between atoms: C2_2  and  C3_3 
REMARK    2  A    between atoms: C2_2  and  N3_33 
REMARK    3  A    between atoms: C3_3  and  O1_4 
REMARK    4  A    between atoms: C3_3  and  C4_6 
REMARK    5  A    between atoms: C4_6  and  C5_8 
REMARK    6  A    between atoms: C5_8  and  C6_9 
REMARK    7  A    between atoms: C6_9  and  C7_10 
REMARK    8  A    between atoms: C6_9  and  C20_29 
REMARK    9  A    between atoms: C7_10  and  C8_12 
REMARK   10  A    between atoms: C8_12  and  N1_13 
REMARK   11  A    between atoms: C8_12  and  C16_25 
REMARK   12  A    between atoms: C10_15  and  C11_16 
REMARK       I    between atoms: C11_16  and  N2_18 
REMARK   13  A    between atoms: N2_18  and  C12_20 
ROOT
HETATM    1  C6  UNL     1       0.402  -1.084  -0.744  1.00  0.00     0.075 C 
ENDROOT
BRANCH   1   2
HETATM    2  C5  UNL     1       1.044  -0.054   0.113  1.00  0.00     0.094 C 
BRANCH   2   3
HETATM    3  C4  UNL     1       1.843   1.023  -0.472  1.00  0.00     0.158 C 
HETATM    4  O2  UNL     1       1.184   1.938  -1.020  1.00  0.00    -0.295 OA
BRANCH   3   5
HETATM    5  C3  UNL     1       3.310   1.166  -0.491  1.00  0.00     0.209 C 
BRANCH   5   6
HETATM    6  C2  UNL     1       3.850   1.406   0.871  1.00  0.00     0.111 C 
HETATM    7  C1  UNL     1       3.112   2.553   1.536  1.00  0.00     0.035 C 
BRANCH   6   8
HETATM    8  N3  UNL     1       5.237   1.622   0.956  1.00  0.00    -0.400 N 
HETATM    9  C24 UNL     1       6.089   0.521   1.203  1.00  0.00     0.123 C 
HETATM   10  C25 UNL     1       7.483   1.037   0.870  1.00  0.00     0.100 C 
HETATM   11  C26 UNL     1       7.297   2.538   0.646  1.00  0.00     0.260 C 
HETATM   12  F1  UNL     1       7.306   3.233   1.816  1.00  0.00    -0.204 F 
HETATM   13  F2  UNL     1       8.163   3.067  -0.250  1.00  0.00    -0.204 F 
HETATM   14  C27 UNL     1       5.869   2.497   0.038  1.00  0.00     0.196 C 
ENDBRANCH   6   8
ENDBRANCH   5   6
BRANCH   5  15
HETATM   15  O1  UNL     1       3.609   2.319  -1.269  1.00  0.00    -0.386 OA
ATOM     16  H1  UNL     1       3.263   2.165  -2.141  1.00  0.00     0.210 HD
ENDBRANCH   5  15
ENDBRANCH   3   5
ENDBRANCH   2   3
ENDBRANCH   1   2
BRANCH   1  17
HETATM   17  C7  UNL     1      -0.357  -2.010   0.158  1.00  0.00     0.172 C 
HETATM   18  O3  UNL     1       0.260  -3.039   0.393  1.00  0.00    -0.291 OA
BRANCH  17  19
HETATM   19  C8  UNL     1      -1.677  -1.817   0.759  1.00  0.00     0.043 C 
BRANCH  19  20
HETATM   20  N1  UNL     1      -2.491  -0.854   0.089  1.00  0.00    -0.266 NA
HETATM   21  C9  UNL     1      -2.856  -0.954  -1.275  1.00  0.00     0.126 A 
HETATM   22  C10 UNL     1      -3.865  -0.925  -0.134  1.00  0.00     0.168 A 
BRANCH  22  23
HETATM   23  C11 UNL     1      -4.743   0.282  -0.253  1.00  0.00     0.237 C 
HETATM   24  O4  UNL     1      -5.930   0.178  -0.754  1.00  0.00    -0.272 OA
HETATM   25  N2  UNL     1      -4.373   1.580   0.141  1.00  0.00    -0.353 N 
ATOM     26  H2  UNL     1      -3.459   1.704   0.577  1.00  0.00     0.163 HD
BRANCH  25  27
HETATM   27  C12 UNL     1      -5.192   2.734  -0.029  1.00  0.00     0.110 C 
HETATM   28  C13 UNL     1      -6.440   2.747   0.869  1.00  0.00     0.053 C 
HETATM   29  C14 UNL     1      -6.854   4.212   0.579  1.00  0.00     0.169 C 
HETATM   30  O5  UNL     1      -5.649   4.849   0.816  1.00  0.00    -0.389 OA
HETATM   31  C15 UNL     1      -4.615   4.057   0.290  1.00  0.00     0.192 C 
ENDBRANCH  25  27
ENDBRANCH  22  23
ENDBRANCH  19  20
BRANCH  19  32
HETATM   32  C16 UNL     1      -2.375  -3.064   1.238  1.00  0.00    -0.010 C 
HETATM   33  C17 UNL     1      -2.701  -4.082   0.199  1.00  0.00     0.021 C 
HETATM   34  C18 UNL     1      -1.399  -3.829   2.195  1.00  0.00     0.021 C 
HETATM   35  C19 UNL     1      -3.540  -2.676   2.136  1.00  0.00     0.021 C 
ENDBRANCH  19  32
ENDBRANCH  17  19
ENDBRANCH   1  17
BRANCH   1  36
HETATM   36  C20 UNL     1       1.219  -1.807  -1.734  1.00  0.00    -0.040 C 
HETATM   37  C21 UNL     1       0.329  -2.850  -2.459  1.00  0.00     0.015 C 
HETATM   38  C22 UNL     1       1.625  -0.876  -2.874  1.00  0.00     0.015 C 
HETATM   39  C23 UNL     1       2.404  -2.538  -1.250  1.00  0.00     0.015 C 
ENDBRANCH   1  36
TORSDOF 13
