REMARK  10 active torsions:
REMARK  status: ('A' for Active; 'I' for Inactive)
REMARK    1  A    between atoms: C2_2  and  C4_4 
REMARK    2  A    between atoms: C4_4  and  N1_5 
REMARK    3  A    between atoms: C4_4  and  C13_15 
REMARK    4  A    between atoms: N1_5  and  C5_7 
REMARK       I    between atoms: C13_15  and  N2_17 
REMARK    5  A    between atoms: C16_21  and  O3_22 
REMARK    6  A    between atoms: C19_26  and  C20_27 
REMARK       I    between atoms: C20_27  and  N3_29 
REMARK    7  A    between atoms: N3_29  and  C21_31 
REMARK    8  A    between atoms: C21_31  and  C22_32 
REMARK    9  A    between atoms: C21_31  and  C25_38 
REMARK   10  A    between atoms: C22_32  and  C23_34 
ROOT
HETATM    1  C13 UNL     1      -0.787  -0.469   0.125  1.00  0.00     0.267 C 
HETATM    2  O1  UNL     1      -0.531   0.689   0.608  1.00  0.00    -0.269 OA
HETATM    3  N2  UNL     1       0.212  -1.426   0.172  1.00  0.00    -0.210 N 
HETATM    4  O2  UNL     1       0.041  -2.678  -0.296  1.00  0.00    -0.269 OA
HETATM    5  C14 UNL     1       0.099  -3.583   0.743  1.00  0.00     0.161 A 
HETATM    6  C15 UNL     1       0.418  -4.982   0.251  1.00  0.00     0.067 A 
HETATM    7  C16 UNL     1       1.747  -4.892   0.926  1.00  0.00     0.127 A 
HETATM    8  C17 UNL     1       1.427  -3.523   1.475  1.00  0.00     0.048 A 
HETATM    9  C18 UNL     1       2.306  -2.432   0.892  1.00  0.00     0.047 C 
HETATM   10  C19 UNL     1       1.523  -1.135   0.742  1.00  0.00     0.210 C 
ENDROOT
BRANCH   1  11
HETATM   11  C4  UNL     1      -2.189  -0.639  -0.444  1.00  0.00     0.175 C 
BRANCH  11  12
HETATM   12  C2  UNL     1      -2.162  -0.390  -1.906  1.00  0.00     0.009 C 
HETATM   13  C1  UNL     1      -1.711   1.007  -2.281  1.00  0.00     0.012 C 
HETATM   14  C3  UNL     1      -1.328  -1.344  -2.726  1.00  0.00     0.012 C 
ENDBRANCH  11  12
BRANCH  11  15
HETATM   15  N1  UNL     1      -3.054   0.165   0.320  1.00  0.00    -0.404 N 
ATOM     16  H1  UNL     1      -2.602   0.826   0.951  1.00  0.00     0.154 HD
BRANCH  15  17
HETATM   17  C5  UNL     1      -4.430   0.176   0.327  1.00  0.00     0.085 C 
HETATM   18  C6  UNL     1      -5.135   0.569  -0.906  1.00  0.00     0.025 C 
HETATM   19  C7  UNL     1      -6.577   1.011  -0.746  1.00  0.00     0.002 C 
HETATM   20  C8  UNL     1      -6.833   1.949   0.374  1.00  0.00     0.001 C 
HETATM   21  C9  UNL     1      -6.297   1.280   1.627  1.00  0.00     0.011 C 
HETATM   22  C10 UNL     1      -4.830   1.067   1.547  1.00  0.00    -0.028 C 
HETATM   23  C11 UNL     1      -4.143   2.399   1.462  1.00  0.00     0.017 C 
HETATM   24  C12 UNL     1      -4.376   0.368   2.810  1.00  0.00     0.017 C 
ENDBRANCH  15  17
ENDBRANCH  11  15
ENDBRANCH   1  11
BRANCH  10  25
HETATM   25  C20 UNL     1       2.338  -0.233  -0.109  1.00  0.00     0.243 C 
HETATM   26  O4  UNL     1       1.724   0.180  -1.154  1.00  0.00    -0.271 OA
HETATM   27  N3  UNL     1       3.655   0.144   0.183  1.00  0.00    -0.347 N 
ATOM     28  H3  UNL     1       4.079  -0.225   1.034  1.00  0.00     0.163 HD
BRANCH  27  29
HETATM   29  C21 UNL     1       4.463   1.035  -0.655  1.00  0.00     0.164 C 
BRANCH  29  30
HETATM   30  C22 UNL     1       4.744   2.203   0.204  1.00  0.00     0.220 C 
HETATM   31  O5  UNL     1       5.053   1.956   1.388  1.00  0.00    -0.289 OA
BRANCH  30  32
HETATM   32  C23 UNL     1       4.692   3.622  -0.178  1.00  0.00     0.301 C 
HETATM   33  C24 UNL     1       5.066   4.527   0.986  1.00  0.00     0.099 C 
HETATM   34  F1  UNL     1       5.348   3.949  -1.308  1.00  0.00    -0.198 F 
HETATM   35  F2  UNL     1       3.333   3.927  -0.424  1.00  0.00    -0.198 F 
ENDBRANCH  30  32
ENDBRANCH  29  30
BRANCH  29  36
HETATM   36  C25 UNL     1       5.652   0.326  -1.200  1.00  0.00     0.008 C 
HETATM   37  C26 UNL     1       6.556   1.120  -2.091  1.00  0.00     0.012 C 
HETATM   38  C27 UNL     1       6.517  -0.118  -0.011  1.00  0.00     0.012 C 
ENDBRANCH  29  36
ENDBRANCH  27  29
ENDBRANCH  10  25
BRANCH   7  39
HETATM   39  O3  UNL     1       2.792  -4.882  -0.011  1.00  0.00    -0.395 OA
ATOM     40  H3  UNL     1       3.637  -4.825   0.418  1.00  0.00     0.210 HD
ENDBRANCH   7  39
TORSDOF 10
