REMARK  8 active torsions:
REMARK  status: ('A' for Active; 'I' for Inactive)
REMARK    1  A    between atoms: C9_9  and  O1_10 
REMARK    2  A    between atoms: C12_14  and  O2_15 
REMARK    3  A    between atoms: O2_15  and  C13_16 
REMARK    4  A    between atoms: C13_16  and  C14_18 
REMARK    5  A    between atoms: C14_18  and  S1_19 
REMARK    6  A    between atoms: C16_23  and  C17_24 
REMARK    7  A    between atoms: C17_24  and  C18_25 
REMARK    8  A    between atoms: C21_30  and  O8_31 
ROOT
HETATM    1  C1  UNL     1       6.438  -1.992  -0.742  1.00  0.00     0.014 C 
HETATM    2  C2  UNL     1       5.361  -1.263  -0.507  1.00  0.00    -0.084 A 
HETATM    3  C3  UNL     1       4.585  -0.298  -1.292  1.00  0.00     0.039 A 
HETATM    4  C4  UNL     1       3.692   0.035  -0.092  1.00  0.00     0.005 A 
HETATM    5  C5  UNL     1       4.456  -1.084   0.628  1.00  0.00     0.019 A 
HETATM    6  C6  UNL     1       3.425  -2.203   0.839  1.00  0.00     0.014 C 
HETATM    7  C7  UNL     1       2.180  -1.323   1.057  1.00  0.00    -0.004 C 
HETATM    8  C8  UNL     1       0.907  -2.071   0.988  1.00  0.00     0.037 C 
HETATM    9  C9  UNL     1      -0.194  -1.378   0.189  1.00  0.00     0.132 C 
HETATM   10  C10 UNL     1      -0.034   0.136   0.344  1.00  0.00     0.040 C 
HETATM   11  C11 UNL     1       0.007   0.410   1.798  1.00  0.00     0.024 C 
HETATM   12  C12 UNL     1      -1.193   0.846  -0.332  1.00  0.00     0.150 C 
HETATM   13  C16 UNL     1      -0.918   2.274  -0.675  1.00  0.00     0.026 C 
HETATM   14  C19 UNL     1       0.337   2.798   0.017  1.00  0.00     0.011 C 
HETATM   15  C20 UNL     1       1.522   1.924  -0.165  1.00  0.00     0.040 C 
HETATM   16  C21 UNL     1       1.216   0.481  -0.428  1.00  0.00     0.074 C 
HETATM   17  C22 UNL     1       2.297  -0.473  -0.197  1.00  0.00     0.030 C 
ENDROOT
BRANCH  12  18
HETATM   18  O2  UNL     1      -2.403   0.657   0.372  1.00  0.00    -0.314 OA
BRANCH  18  19
HETATM   19  C13 UNL     1      -3.467  -0.096  -0.061  1.00  0.00     0.273 C 
HETATM   20  O3  UNL     1      -3.353  -0.672  -1.195  1.00  0.00    -0.264 OA
BRANCH  19  21
HETATM   21  C14 UNL     1      -4.719  -0.281   0.687  1.00  0.00     0.250 C 
BRANCH  21  22
HETATM   22  S1  UNL     1      -5.847  -1.317  -0.200  1.00  0.00     0.149 S 
HETATM   23  C15 UNL     1      -5.098  -2.907  -0.464  1.00  0.00     0.161 C 
HETATM   24  O4  UNL     1      -6.250  -0.699  -1.508  1.00  0.00    -0.228 OA
HETATM   25  O5  UNL     1      -7.098  -1.532   0.592  1.00  0.00    -0.228 OA
ENDBRANCH  21  22
ENDBRANCH  19  21
ENDBRANCH  18  19
ENDBRANCH  12  18
BRANCH  13  26
HETATM   26  C17 UNL     1      -2.040   3.217  -0.637  1.00  0.00     0.120 C 
BRANCH  26  27
HETATM   27  C18 UNL     1      -2.785   3.494   0.553  1.00  0.00     0.172 C 
HETATM   28  O6  UNL     1      -2.672   3.117   1.726  1.00  0.00    -0.648 OA
HETATM   29  O7  UNL     1      -3.881   4.379   0.374  1.00  0.00    -0.648 OA
ENDBRANCH  26  27
ENDBRANCH  13  26
BRANCH   9  30
HETATM   30  O1  UNL     1      -0.111  -1.681  -1.157  1.00  0.00    -0.395 OA
ATOM     31  H1  UNL     1      -0.796  -1.250  -1.654  1.00  0.00     0.210 HD
ENDBRANCH   9  30
BRANCH  16  32
HETATM   32  O8  UNL     1       0.872   0.384  -1.803  1.00  0.00    -0.388 OA
ATOM     33  H8  UNL     1       1.659   0.601  -2.289  1.00  0.00     0.210 HD
ENDBRANCH  16  32
TORSDOF 8
