REMARK  4 active torsions:
REMARK  status: ('A' for Active; 'I' for Inactive)
REMARK    1  A    between atoms: C1_2  and  C2_3 
REMARK       I    between atoms: C1_2  and  N5_28 
REMARK    2  A    between atoms: C2_3  and  S1_4 
REMARK    3  A    between atoms: S1_4  and  C3_5 
REMARK       I    between atoms: N3_11  and  C5_13 
REMARK    4  A    between atoms: C5_13  and  C6_15 
ROOT
HETATM    1  C3  UNL     1       0.376  -1.171  -0.073  1.00  0.00     0.134 A 
HETATM    2  N1  UNL     1       0.546  -1.749   1.107  1.00  0.00    -0.286 N 
ATOM      3  H1  UNL     1       1.464  -2.015   1.464  1.00  0.00     0.188 HD
HETATM    4  N2  UNL     1      -0.529  -1.945   1.759  1.00  0.00    -0.278 N 
ATOM      5  H2  UNL     1      -0.357  -2.402   2.654  1.00  0.00     0.189 HD
HETATM    6  C4  UNL     1      -1.690  -1.726   1.582  1.00  0.00     0.168 A 
HETATM    7  N3  UNL     1      -2.988  -1.506   1.843  1.00  0.00    -0.304 N 
ATOM      8  H3  UNL     1      -3.405  -1.467   2.773  1.00  0.00     0.171 HD
HETATM    9  C5  UNL     1      -3.712  -1.331   0.579  1.00  0.00     0.260 C 
HETATM   10  O2  UNL     1      -3.259  -1.911  -0.423  1.00  0.00    -0.270 OA
HETATM   11  S2  UNL     1      -1.316  -0.964  -0.119  1.00  0.00    -0.026 SA
ENDROOT
BRANCH   9  12
HETATM   12  C6  UNL     1      -4.917  -0.524   0.430  1.00  0.00     0.206 C 
HETATM   13  C7  UNL     1      -5.199  -0.633  -1.174  1.00  0.00     0.053 C 
HETATM   14  C8  UNL     1      -6.337   0.244  -1.460  1.00  0.00    -0.009 C 
HETATM   15  C9  UNL     1      -7.600  -0.272  -0.759  1.00  0.00     0.009 C 
HETATM   16  C13 UNL     1      -6.179   1.695  -1.054  1.00  0.00     0.037 C 
HETATM   17  C10 UNL     1      -7.336  -0.211   0.709  1.00  0.00    -0.009 C 
HETATM   18  C11 UNL     1      -6.964   1.174   1.181  1.00  0.00     0.037 C 
HETATM   19  C14 UNL     1      -6.120  -1.101   1.010  1.00  0.00     0.053 C 
HETATM   20  C12 UNL     1      -5.787   1.688   0.428  1.00  0.00     0.188 C 
HETATM   21  N4  UNL     1      -4.625   0.864   0.541  1.00  0.00    -0.053 N 
ATOM     22  H42 UNL     1      -4.120   1.062   1.405  1.00  0.00     0.279 HD
ATOM     23  H41 UNL     1      -3.914   1.142  -0.135  1.00  0.00     0.279 HD
ENDBRANCH   9  12
BRANCH   1  24
HETATM   24  S1  UNL     1       1.468  -0.814  -1.461  1.00  0.00    -0.070 SA
BRANCH  24  25
HETATM   25  C2  UNL     1       2.956  -1.715  -1.444  1.00  0.00     0.126 C 
BRANCH  25  26
HETATM   26  C1  UNL     1       3.968  -1.553  -0.425  1.00  0.00     0.250 C 
HETATM   27  O1  UNL     1       4.454  -2.621   0.079  1.00  0.00    -0.268 OA
HETATM   28  N5  UNL     1       4.451  -0.339   0.037  1.00  0.00    -0.347 N 
HETATM   29  C15 UNL     1       4.161   1.039  -0.225  1.00  0.00     0.127 C 
HETATM   30  C21 UNL     1       5.591  -0.236   1.012  1.00  0.00     0.137 C 
HETATM   31  C16 UNL     1       5.552   1.513  -0.650  1.00  0.00     0.033 C 
HETATM   32  C17 UNL     1       6.500   0.699   0.208  1.00  0.00     0.003 C 
HETATM   33  C18 UNL     1       7.450  -0.100  -0.665  1.00  0.00     0.040 C 
HETATM   34  C20 UNL     1       7.337   1.525   1.099  1.00  0.00     0.243 C 
HETATM   35  C19 UNL     1       8.676   0.766  -0.641  1.00  0.00     0.233 C 
HETATM   36  N6  UNL     1       8.701   1.491   0.599  1.00  0.00    -0.074 N 
ATOM     37  H62 UNL     1       9.365   1.110   1.273  1.00  0.00     0.277 HD
ATOM     38  H61 UNL     1       9.120   2.417   0.513  1.00  0.00     0.277 HD
ENDBRANCH  25  26
ENDBRANCH  24  25
ENDBRANCH   1  24
TORSDOF 4
