REMARK  9 active torsions:
REMARK  status: ('A' for Active; 'I' for Inactive)
REMARK    1  A    between atoms: O1_2  and  C2_3 
REMARK    2  A    between atoms: C7_8  and  N1_9 
REMARK    3  A    between atoms: N1_9  and  C8_11 
REMARK    4  A    between atoms: C9_14  and  N3_15 
REMARK    5  A    between atoms: N3_15  and  C11_17 
REMARK    6  A    between atoms: C11_17  and  C12_18 
REMARK    7  A    between atoms: C12_18  and  O2_19 
REMARK    8  A    between atoms: C14_23  and  N4_24 
REMARK    9  A    between atoms: N4_24  and  C15_26 
ROOT
HETATM    1  C8  UNL     1      -0.066  -0.888  -0.389  1.00  0.00     0.686 A 
HETATM    2  N2  UNL     1      -0.390   0.346  -0.792  1.00  0.00    -0.175 N 
ATOM      3  H2  UNL     1      -1.322   0.498  -1.178  1.00  0.00     0.186 HD
HETATM    4  C9  UNL     1       0.457   1.410  -0.715  1.00  0.00     0.144 A 
HETATM    5  C13 UNL     1       1.699   1.149  -0.190  1.00  0.00     0.122 A 
HETATM    6 CL1  UNL     1       2.899   2.412  -0.038  1.00  0.00    -0.076 Cl
HETATM    7  C14 UNL     1       2.069  -0.120   0.238  1.00  0.00     0.147 A 
HETATM    8  N5  UNL     1       1.165  -1.106   0.124  1.00  0.00    -0.174 N 
ATOM      9  H5  UNL     1       1.414  -2.046   0.433  1.00  0.00     0.186 HD
ENDROOT
BRANCH   1  10
HETATM   10  N1  UNL     1      -0.897  -1.848  -0.489  1.00  0.00    -0.189 N 
ATOM     11  H1  UNL     1      -0.579  -2.759  -0.159  1.00  0.00     0.184 HD
BRANCH  10  12
HETATM   12  C7  UNL     1      -2.197  -1.791  -1.001  1.00  0.00     0.082 A 
HETATM   13  C2  UNL     1      -3.198  -1.252  -0.164  1.00  0.00     0.095 A 
HETATM   14  C3  UNL     1      -4.495  -1.172  -0.611  1.00  0.00     0.039 A 
HETATM   15  C4  UNL     1      -4.851  -1.615  -1.889  1.00  0.00     0.003 A 
HETATM   16  C5  UNL     1      -3.872  -2.138  -2.698  1.00  0.00     0.002 A 
HETATM   17  C6  UNL     1      -2.577  -2.214  -2.242  1.00  0.00     0.033 A 
BRANCH  13  18
HETATM   18  O1  UNL     1      -2.871  -0.811   1.089  1.00  0.00    -0.354 OA
HETATM   19  C1  UNL     1      -3.743  -0.267   1.998  1.00  0.00     0.210 C 
ENDBRANCH  13  18
ENDBRANCH  10  12
ENDBRANCH   1  10
BRANCH   4  20
HETATM   20  N3  UNL     1       0.036   2.687  -1.164  1.00  0.00    -0.368 N 
HETATM   21  C10 UNL     1       0.803   3.352  -2.193  1.00  0.00     0.151 C 
BRANCH  20  22
HETATM   22  C11 UNL     1      -1.140   3.375  -0.675  1.00  0.00     0.150 C 
BRANCH  22  23
HETATM   23  C12 UNL     1      -0.730   4.607   0.090  1.00  0.00     0.183 C 
BRANCH  23  24
HETATM   24  O2  UNL     1       0.055   4.299   1.168  1.00  0.00    -0.399 OA
ATOM     25  H2  UNL     1       0.313   5.076   1.650  1.00  0.00     0.209 HD
ENDBRANCH  23  24
ENDBRANCH  22  23
ENDBRANCH  20  22
ENDBRANCH   4  20
BRANCH   7  26
HETATM   26  N4  UNL     1       3.217  -0.297   0.709  1.00  0.00    -0.339 N 
ATOM     27  H4  UNL     1       3.794   0.544   0.734  1.00  0.00     0.167 HD
BRANCH  26  28
HETATM   28  C15 UNL     1       3.843  -1.436   1.203  1.00  0.00     0.057 A 
HETATM   29  C16 UNL     1       4.074  -2.544   0.421  1.00  0.00     0.055 A 
HETATM   30  C17 UNL     1       4.693  -3.686   0.885  1.00  0.00     0.036 A 
HETATM   31 CL2  UNL     1       4.976  -5.080  -0.125  1.00  0.00    -0.084 Cl
HETATM   32  C18 UNL     1       5.116  -3.737   2.218  1.00  0.00     0.026 A 
HETATM   33  C19 UNL     1       4.876  -2.620   2.979  1.00  0.00     0.028 A 
HETATM   34  C20 UNL     1       4.256  -1.479   2.514  1.00  0.00     0.060 A 
HETATM   35 CL3  UNL     1       4.008  -0.106   3.604  1.00  0.00    -0.082 Cl
ENDBRANCH  26  28
ENDBRANCH   7  26
TORSDOF 9
