REMARK  7 active torsions:
REMARK  status: ('A' for Active; 'I' for Inactive)
REMARK    1  A    between atoms: C2_2  and  C3_3 
REMARK    2  A    between atoms: C3_3  and  C5_5 
REMARK    3  A    between atoms: C5_5  and  N1_6 
REMARK    4  A    between atoms: C7_9  and  C8_10 
REMARK    5  A    between atoms: N4_17  and  C13_19 
REMARK    6  A    between atoms: C15_21  and  O1_22 
REMARK    7  A    between atoms: N5_31  and  C21_32 
ROOT
HETATM    1  C8  UNL     1      -0.714  -2.549  -0.172  1.00  0.00     0.027 A 
HETATM    2  C9  UNL     1      -0.956  -3.852   0.217  1.00  0.00     0.018 A 
HETATM    3  C10 UNL     1      -2.241  -4.356   0.197  1.00  0.00     0.018 A 
HETATM    4  C11 UNL     1      -3.301  -3.573  -0.210  1.00  0.00     0.090 A 
HETATM    5  N3  UNL     1      -3.064  -2.304  -0.588  1.00  0.00    -0.352 N 
ATOM      6  H3  UNL     1      -3.839  -1.713  -0.891  1.00  0.00     0.166 HD
HETATM    7  C12 UNL     1      -1.813  -1.807  -0.570  1.00  0.00     0.117 A 
HETATM    8  N4  UNL     1      -1.559  -0.579  -0.933  1.00  0.00    -0.340 N 
ATOM      9  H4  UNL     1      -0.595  -0.247  -0.903  1.00  0.00     0.167 HD
ENDROOT
BRANCH   1  10
HETATM   10  C7  UNL     1       0.625  -1.967  -0.169  1.00  0.00     0.090 A 
HETATM   11  C6  UNL     1       1.281  -1.288   0.850  1.00  0.00     0.150 A 
HETATM   12  N1  UNL     1       2.495  -0.939   0.391  1.00  0.00    -0.272 N 
HETATM   13  N2  UNL     1       0.662  -1.079   2.110  1.00  0.00    -0.080 NA
HETATM   14  N5  UNL     1       2.670  -1.348  -0.862  1.00  0.00    -0.239 N 
HETATM   15  C20 UNL     1       1.534  -1.974  -1.206  1.00  0.00     0.277 A 
HETATM   16  O2  UNL     1       1.280  -2.517  -2.323  1.00  0.00    -0.265 OA
BRANCH  12  17
HETATM   17  C5  UNL     1       3.490  -0.208   1.130  1.00  0.00     0.155 C 
BRANCH  17  18
HETATM   18  C3  UNL     1       3.454   1.270   0.960  1.00  0.00     0.001 C 
HETATM   19  C4  UNL     1       2.143   1.848   1.447  1.00  0.00     0.011 C 
BRANCH  18  20
HETATM   20  C2  UNL     1       4.541   1.963   1.775  1.00  0.00     0.001 C 
HETATM   21  C1  UNL     1       4.520   3.448   1.572  1.00  0.00     0.005 C 
ENDBRANCH  18  20
ENDBRANCH  17  18
ENDBRANCH  12  17
BRANCH  14  22
HETATM   22  C21 UNL     1       3.856  -1.160  -1.703  1.00  0.00     0.267 C 
HETATM   23 CL3  UNL     1       4.934  -2.575  -1.436  1.00  0.00    -0.107 Cl
ENDBRANCH  14  22
ENDBRANCH   1  10
BRANCH   8  24
HETATM   24  C13 UNL     1      -2.571   0.308  -1.366  1.00  0.00     0.058 A 
HETATM   25  C14 UNL     1      -3.483   0.908  -0.526  1.00  0.00     0.069 A 
HETATM   26  C15 UNL     1      -4.456   1.768  -0.989  1.00  0.00     0.092 A 
HETATM   27  C17 UNL     1      -4.547   2.059  -2.332  1.00  0.00     0.069 A 
HETATM   28 CL1  UNL     1      -5.784   3.152  -2.917  1.00  0.00    -0.081 Cl
HETATM   29  C18 UNL     1      -3.630   1.459  -3.201  1.00  0.00     0.052 A 
HETATM   30  C19 UNL     1      -2.662   0.600  -2.723  1.00  0.00     0.062 A 
HETATM   31 CL2  UNL     1      -1.529  -0.134  -3.838  1.00  0.00    -0.082 Cl
BRANCH  26  32
HETATM   32  O1  UNL     1      -5.344   2.341  -0.095  1.00  0.00    -0.354 OA
HETATM   33  C16 UNL     1      -5.311   2.093   1.278  1.00  0.00     0.210 C 
ENDBRANCH  26  32
ENDBRANCH   8  24
TORSDOF 7
