REMARK  10 active torsions:
REMARK  status: ('A' for Active; 'I' for Inactive)
REMARK    1  A    between atoms: C2_2  and  S1_4 
REMARK    2  A    between atoms: S1_4  and  C3_5 
REMARK       I    between atoms: N1_9  and  C6_10 
REMARK    3  A    between atoms: C6_10  and  C7_12 
REMARK    4  A    between atoms: C7_12  and  N2_13 
REMARK    5  A    between atoms: C7_12  and  C13_24 
REMARK       I    between atoms: N2_13  and  C8_15 
REMARK    6  A    between atoms: C8_15  and  C9_17 
REMARK    7  A    between atoms: C17_28  and  C18_29 
REMARK       I    between atoms: C18_29  and  N5_31 
REMARK    8  A    between atoms: N5_31  and  C19_33 
REMARK    9  A    between atoms: C19_33  and  C20_34 
REMARK   10  A    between atoms: C19_33  and  C21_37 
ROOT
HETATM    1  C3  UNL     1      -1.688   3.781  -1.680  1.00  0.00     0.061 C 
HETATM    2  C4  UNL     1      -0.659   3.041  -1.310  1.00  0.00    -0.004 A 
HETATM    3  C5  UNL     1       0.693   3.215  -0.785  1.00  0.00     0.218 A 
HETATM    4 CL1  UNL     1       0.823   3.952   0.822  1.00  0.00    -0.097 Cl
HETATM    5  N1  UNL     1       0.926   1.762  -0.779  1.00  0.00    -0.311 N 
HETATM    6  C6  UNL     1       2.075   1.030  -0.364  1.00  0.00     0.245 C 
HETATM    7  O2  UNL     1       3.058   1.702   0.120  1.00  0.00    -0.271 OA
HETATM    8  C17 UNL     1      -0.415   1.572  -1.272  1.00  0.00     0.214 A 
ENDROOT
BRANCH   6   9
HETATM    9  C7  UNL     1       2.230  -0.417  -0.437  1.00  0.00     0.184 C 
BRANCH   9  10
HETATM   10  N2  UNL     1       3.279  -0.784   0.557  1.00  0.00    -0.340 N 
HETATM   11  C8  UNL     1       2.974  -1.768   1.518  1.00  0.00     0.286 C 
HETATM   12  O3  UNL     1       1.783  -2.278   1.450  1.00  0.00    -0.264 OA
ATOM     13  H2  UNL     1       4.194  -0.334   0.542  1.00  0.00     0.163 HD
BRANCH  11  14
HETATM   14  C9  UNL     1       3.829  -2.265   2.554  1.00  0.00     0.176 A 
HETATM   15  N3  UNL     1       3.435  -3.272   3.401  1.00  0.00    -0.346 N 
HETATM   16  C10 UNL     1       4.410  -3.536   4.263  1.00  0.00     0.107 A 
ATOM     17  H3  UNL     1       2.532  -3.745   3.372  1.00  0.00     0.167 HD
HETATM   18  C11 UNL     1       5.450  -2.703   3.988  1.00  0.00     0.109 A 
HETATM   19  N4  UNL     1       5.058  -1.935   2.931  1.00  0.00    -0.342 N 
HETATM   20  C12 UNL     1       5.898  -0.919   2.349  1.00  0.00     0.157 C 
ENDBRANCH  11  14
ENDBRANCH   9  10
BRANCH   9  21
HETATM   21  C13 UNL     1       2.830  -0.853  -1.758  1.00  0.00    -0.022 C 
HETATM   22  C14 UNL     1       2.916  -2.391  -1.662  1.00  0.00     0.017 C 
HETATM   23  C15 UNL     1       4.219  -0.352  -1.994  1.00  0.00     0.017 C 
HETATM   24  C16 UNL     1       2.009  -0.564  -2.960  1.00  0.00     0.017 C 
ENDBRANCH   9  21
ENDBRANCH   6   9
BRANCH   8  25
HETATM   25  C18 UNL     1      -1.323   0.873  -0.287  1.00  0.00     0.245 C 
HETATM   26  O4  UNL     1      -0.809   0.634   0.833  1.00  0.00    -0.271 OA
HETATM   27  N5  UNL     1      -2.653   0.522  -0.619  1.00  0.00    -0.345 N 
ATOM     28  H5  UNL     1      -2.999   0.750  -1.551  1.00  0.00     0.163 HD
BRANCH  27  29
HETATM   29  C19 UNL     1      -3.547  -0.149   0.310  1.00  0.00     0.181 C 
BRANCH  29  30
HETATM   30  C20 UNL     1      -4.785   0.610   0.516  1.00  0.00     0.254 C 
HETATM   31  N6  UNL     1      -5.835   0.243   1.384  1.00  0.00    -0.060 NA
HETATM   32  O5  UNL     1      -4.983   1.706  -0.117  1.00  0.00    -0.275 OA
ENDBRANCH  29  30
BRANCH  29  33
HETATM   33  C21 UNL     1      -3.819  -1.574  -0.128  1.00  0.00    -0.022 C 
HETATM   34  C22 UNL     1      -4.472  -1.591  -1.480  1.00  0.00     0.017 C 
HETATM   35  C23 UNL     1      -4.735  -2.245   0.860  1.00  0.00     0.017 C 
HETATM   36  C24 UNL     1      -2.530  -2.387  -0.121  1.00  0.00     0.017 C 
ENDBRANCH  29  33
ENDBRANCH  27  29
ENDBRANCH   8  25
BRANCH   1  37
HETATM   37  S1  UNL     1      -1.618   5.570  -1.595  1.00  0.00    -0.065 SA
BRANCH  37  38
HETATM   38  C2  UNL     1      -2.809   6.160  -0.404  1.00  0.00     0.186 C 
HETATM   39  C1  UNL     1      -3.665   5.185   0.330  1.00  0.00     0.104 C 
HETATM   40  O1  UNL     1      -2.883   7.363  -0.230  1.00  0.00    -0.286 OA
ENDBRANCH  37  38
ENDBRANCH   1  37
TORSDOF 10
