REMARK  11 active torsions:
REMARK  status: ('A' for Active; 'I' for Inactive)
REMARK    1  A    between atoms: C2_2  and  C3_3 
REMARK    2  A    between atoms: C3_3  and  C5_5 
REMARK    3  A    between atoms: N3_17  and  C11_18 
REMARK    4  A    between atoms: C11_18  and  C12_19 
REMARK    5  A    between atoms: C12_19  and  O4_20 
REMARK    6  A    between atoms: C12_19  and  C13_22 
REMARK    7  A    between atoms: C13_22  and  C14_23 
REMARK    8  A    between atoms: C13_22  and  N4_27 
REMARK    9  A    between atoms: C14_23  and  C15_24 
REMARK       I    between atoms: N4_27  and  C18_29 
REMARK   10  A    between atoms: C18_29  and  O6_31 
REMARK   11  A    between atoms: O6_31  and  C19_32 
ROOT
HETATM    1  C5  UNL     1      -4.094   0.772   0.783  1.00  0.00     0.182 C 
HETATM    2  C6  UNL     1      -5.180  -0.192   0.602  1.00  0.00     0.243 C 
HETATM    3  O1  UNL     1      -6.199  -0.014   1.369  1.00  0.00    -0.271 OA
HETATM    4  N1  UNL     1      -5.256  -1.270  -0.285  1.00  0.00    -0.321 N 
ATOM      5  H1  UNL     1      -6.115  -1.362  -0.828  1.00  0.00     0.166 HD
HETATM    6  C7  UNL     1      -4.222  -2.276  -0.507  1.00  0.00     0.333 C 
HETATM    7  C8  UNL     1      -4.754  -3.307  -1.437  1.00  0.00     0.113 C 
HETATM    8  N2  UNL     1      -5.187  -4.105  -2.161  1.00  0.00    -0.193 NA
HETATM    9  O2  UNL     1      -3.857  -2.950   0.620  1.00  0.00    -0.345 OA
HETATM   10  C9  UNL     1      -2.613  -2.699   1.125  1.00  0.00     0.274 C 
HETATM   11  C10 UNL     1      -1.591  -2.466   0.080  1.00  0.00     0.244 C 
HETATM   12  O3  UNL     1      -1.492  -3.367  -0.789  1.00  0.00    -0.271 OA
HETATM   13  N3  UNL     1      -0.762  -1.336   0.017  1.00  0.00    -0.339 N 
HETATM   14  C23 UNL     1      -1.079  -0.088   0.722  1.00  0.00     0.228 C 
HETATM   15  C24 UNL     1      -1.788   0.853  -0.182  1.00  0.00     0.238 C 
HETATM   16  O7  UNL     1      -1.056   1.634  -0.878  1.00  0.00    -0.272 OA
HETATM   17  N5  UNL     1      -3.203   0.943  -0.326  1.00  0.00    -0.341 N 
HETATM   18  C25 UNL     1      -3.695   1.230  -1.681  1.00  0.00     0.153 C 
ENDROOT
BRANCH   1  19
HETATM   19  C3  UNL     1      -4.625   2.074   1.329  1.00  0.00     0.013 C 
HETATM   20  C4  UNL     1      -5.777   2.644   0.565  1.00  0.00     0.012 C 
BRANCH  19  21
HETATM   21  C2  UNL     1      -3.514   3.079   1.525  1.00  0.00     0.002 C 
HETATM   22  C1  UNL     1      -3.964   4.297   2.291  1.00  0.00     0.005 C 
ENDBRANCH  19  21
ENDBRANCH   1  19
BRANCH  13  23
HETATM   23  C11 UNL     1       0.430  -1.348  -0.775  1.00  0.00     0.164 C 
BRANCH  23  24
HETATM   24  C12 UNL     1       1.661  -1.894   0.035  1.00  0.00     0.181 C 
BRANCH  24  25
HETATM   25  O4  UNL     1       1.176  -3.214   0.254  1.00  0.00    -0.388 OA
ATOM     26  H4  UNL     1       1.920  -3.544   0.744  1.00  0.00     0.210 HD
ENDBRANCH  24  25
BRANCH  24  27
HETATM   27  C13 UNL     1       2.871  -1.866  -0.811  1.00  0.00     0.022 C 
BRANCH  27  28
HETATM   28  C14 UNL     1       3.630  -3.119  -0.966  1.00  0.00     0.059 C 
BRANCH  28  29
HETATM   29  C15 UNL     1       4.193  -3.771   0.242  1.00  0.00    -0.017 C 
HETATM   30  C16 UNL     1       5.154  -2.984   1.046  1.00  0.00     0.010 C 
HETATM   31  C17 UNL     1       5.009  -4.969  -0.298  1.00  0.00     0.010 C 
ENDBRANCH  28  29
ENDBRANCH  27  28
BRANCH  27  32
HETATM   32  N4  UNL     1       3.596  -0.653  -0.729  1.00  0.00    -0.307 N 
HETATM   33  C18 UNL     1       3.414   0.697  -0.707  1.00  0.00     0.365 C 
HETATM   34  O5  UNL     1       2.315   1.266  -0.739  1.00  0.00    -0.238 OA
ATOM     35  H4  UNL     1       4.593  -0.860  -0.665  1.00  0.00     0.170 HD
BRANCH  33  36
HETATM   36  O6  UNL     1       4.507   1.617  -0.640  1.00  0.00    -0.294 OA
BRANCH  36  37
HETATM   37  C19 UNL     1       4.291   2.998  -0.587  1.00  0.00     0.061 C 
HETATM   38  C20 UNL     1       5.632   3.697  -0.575  1.00  0.00     0.046 C 
HETATM   39  C21 UNL     1       3.584   3.386   0.712  1.00  0.00     0.046 C 
HETATM   40  C22 UNL     1       3.430   3.417  -1.750  1.00  0.00     0.046 C 
ENDBRANCH  36  37
ENDBRANCH  33  36
ENDBRANCH  27  32
ENDBRANCH  24  27
ENDBRANCH  23  24
ENDBRANCH  13  23
TORSDOF 11
