REMARK  7 active torsions:
REMARK  status: ('A' for Active; 'I' for Inactive)
REMARK    1  A    between atoms: O1_1  and  C1_3 
REMARK    2  A    between atoms: C1_3  and  C2_4 
REMARK    3  A    between atoms: C1_3  and  N2_15 
REMARK    4  A    between atoms: C2_4  and  O2_5 
REMARK    5  A    between atoms: O2_5  and  C3_6 
REMARK    6  A    between atoms: C3_6  and  C4_8 
REMARK       I    between atoms: N2_15  and  C8_16 
REMARK       I    between atoms: C8_16  and  N3_18 
REMARK    7  A    between atoms: N3_18  and  C9_20 
ROOT
HETATM    1  C1  UNL     1      -0.554   0.055  -0.705  1.00  0.00     0.220 C 
ENDROOT
BRANCH   1   2
HETATM    2  O1  UNL     1      -1.397  -0.989  -0.922  1.00  0.00    -0.337 OA
ATOM      3  H1  UNL     1      -0.890  -1.792  -0.900  1.00  0.00     0.220 HD
ENDBRANCH   1   2
BRANCH   1   4
HETATM    4  C2  UNL     1      -1.345   1.307  -0.739  1.00  0.00     0.279 C 
BRANCH   4   5
HETATM    5  O2  UNL     1      -2.753   0.799  -0.634  1.00  0.00    -0.311 OA
BRANCH   5   6
HETATM    6  C3  UNL     1      -3.175   0.561   0.690  1.00  0.00     0.290 C 
HETATM    7  O3  UNL     1      -2.400   0.888   1.647  1.00  0.00    -0.263 OA
BRANCH   6   8
HETATM    8  C4  UNL     1      -4.460  -0.035   0.966  1.00  0.00     0.284 C 
HETATM    9  C5  UNL     1      -4.757  -1.297   0.249  1.00  0.00     0.045 C 
HETATM   10  C6  UNL     1      -6.208  -1.031  -0.232  1.00  0.00     0.030 C 
HETATM   11  C7  UNL     1      -6.119   0.448  -0.507  1.00  0.00     0.233 C 
HETATM   12  N1  UNL     1      -5.547   0.922   0.803  1.00  0.00    -0.062 N 
ATOM     13  H12 UNL     1      -6.206   0.983   1.579  1.00  0.00     0.278 HD
ATOM     14  H11 UNL     1      -5.282   1.906   0.842  1.00  0.00     0.278 HD
ENDBRANCH   6   8
ENDBRANCH   5   6
ENDBRANCH   4   5
ENDBRANCH   1   4
BRANCH   1  15
HETATM   15  N2  UNL     1       0.700  -0.305  -0.527  1.00  0.00    -0.329 NA
HETATM   16  C8  UNL     1       2.049  -0.249  -0.242  1.00  0.00     0.396 C 
HETATM   17  O4  UNL     1       2.668  -1.365  -0.218  1.00  0.00    -0.230 OA
HETATM   18  N3  UNL     1       2.869   0.862   0.028  1.00  0.00    -0.326 N 
ATOM     19  H3  UNL     1       2.428   1.781   0.011  1.00  0.00     0.165 HD
BRANCH  18  20
HETATM   20  C9  UNL     1       4.268   0.814   0.324  1.00  0.00     0.087 C 
HETATM   21  C10 UNL     1       5.137   0.929  -0.877  1.00  0.00     0.025 C 
HETATM   22  C11 UNL     1       5.741  -0.450  -1.110  1.00  0.00     0.002 C 
HETATM   23  C12 UNL     1       5.690  -1.173   0.207  1.00  0.00     0.002 C 
HETATM   24  C13 UNL     1       4.782  -0.356   1.102  1.00  0.00     0.025 C 
ENDBRANCH  18  20
ENDBRANCH   1  15
TORSDOF 7
