REMARK  6 active torsions:
REMARK  status: ('A' for Active; 'I' for Inactive)
REMARK    1  A    between atoms: C3_3  and  S1_13 
REMARK    2  A    between atoms: N1_4  and  N2_6 
REMARK       I    between atoms: N2_6  and  C4_8 
REMARK    3  A    between atoms: C4_8  and  C5_10 
REMARK    4  A    between atoms: S1_13  and  C6_14 
REMARK    5  A    between atoms: C6_14  and  C7_15 
REMARK    6  A    between atoms: C7_15  and  O3_16 
ROOT
HETATM    1  C1  UNL     1       2.541   3.648  -0.643  1.00  0.00     0.020 C 
HETATM    2  C2  UNL     1       1.821   2.703  -0.418  1.00  0.00    -0.051 C 
HETATM    3  C3  UNL     1       0.940   1.576  -0.157  1.00  0.00     0.139 C 
HETATM    4  N1  UNL     1       1.381   0.403  -0.447  1.00  0.00    -0.284 N 
ATOM      5  H1  UNL     1       0.787  -0.408  -0.275  1.00  0.00     0.188 HD
ENDROOT
BRANCH   3   6
HETATM    6  S1  UNL     1      -0.684   1.820   0.526  1.00  0.00    -0.090 SA
BRANCH   6   7
HETATM    7  C6  UNL     1      -1.504   0.225   0.769  1.00  0.00     0.036 C 
HETATM    8  C8  UNL     1      -2.928   0.533   1.174  1.00  0.00     0.023 C 
HETATM    9  C9  UNL     1      -3.828   0.695  -0.027  1.00  0.00     0.002 C 
HETATM   10  C10 UNL     1      -3.921  -0.622  -0.767  1.00  0.00     0.000 C 
HETATM   11  C11 UNL     1      -2.604  -1.294  -0.933  1.00  0.00     0.002 C 
HETATM   12  C12 UNL     1      -1.406  -0.539  -0.503  1.00  0.00     0.023 C 
BRANCH   7  13
HETATM   13  C7  UNL     1      -0.782  -0.518   1.861  1.00  0.00     0.185 C 
BRANCH  13  14
HETATM   14  O3  UNL     1      -0.815   0.212   3.052  1.00  0.00    -0.399 OA
ATOM     15  H3  UNL     1      -0.359  -0.257   3.741  1.00  0.00     0.209 HD
ENDBRANCH  13  14
ENDBRANCH   7  13
ENDBRANCH   6   7
ENDBRANCH   3   6
BRANCH   4  16
HETATM   16  N2  UNL     1       2.653   0.212  -0.991  1.00  0.00    -0.261 N 
HETATM   17  C4  UNL     1       3.623  -0.633  -0.390  1.00  0.00     0.325 C 
HETATM   18  O1  UNL     1       3.342  -1.248   0.682  1.00  0.00    -0.261 OA
ATOM     19  H2  UNL     1       2.895   0.699  -1.854  1.00  0.00     0.190 HD
BRANCH  17  20
HETATM   20  C5  UNL     1       4.939  -0.809  -0.984  1.00  0.00     0.324 C 
HETATM   21  N3  UNL     1       5.917  -1.656  -0.388  1.00  0.00    -0.053 NA
HETATM   22  O2  UNL     1       5.199  -0.192  -2.043  1.00  0.00    -0.266 OA
ENDBRANCH  17  20
ENDBRANCH   4  16
TORSDOF 6
