REMARK  6 active torsions:
REMARK  status: ('A' for Active; 'I' for Inactive)
REMARK    1  A    between atoms: C2_4  and  C3_5 
REMARK    2  A    between atoms: C3_5  and  C4_6 
REMARK    3  A    between atoms: C10_12  and  O2_13 
REMARK    4  A    between atoms: C11_15  and  O3_16 
REMARK    5  A    between atoms: C12_18  and  C13_19 
REMARK    6  A    between atoms: C13_19  and  C14_20 
ROOT
HETATM    1  C1  UNL     1       1.809  -0.259   1.853  1.00  0.00     0.144 C 
HETATM    2  N1  UNL     1       1.988   0.614   0.746  1.00  0.00    -0.193 NA
HETATM    3  O1  UNL     1       0.866   1.107   0.207  1.00  0.00    -0.295 OA
HETATM    4  C2  UNL     1       0.174   0.092  -0.431  1.00  0.00     0.177 C 
HETATM    5  C10 UNL     1       0.943  -0.328  -1.649  1.00  0.00     0.179 C 
HETATM    6  C11 UNL     1       2.307  -0.826  -1.200  1.00  0.00     0.169 C 
HETATM    7  C12 UNL     1       2.920   0.147  -0.266  1.00  0.00     0.127 C 
ENDROOT
BRANCH   4   8
HETATM    8  C3  UNL     1      -1.188   0.553  -0.908  1.00  0.00     0.041 C 
BRANCH   8   9
HETATM    9  C4  UNL     1      -2.092   1.032   0.174  1.00  0.00    -0.012 C 
HETATM   10  C5  UNL     1      -2.414   0.019   1.220  1.00  0.00     0.005 C 
HETATM   11  C6  UNL     1      -3.875   0.039   1.621  1.00  0.00     0.000 C 
HETATM   12  C7  UNL     1      -4.711  -0.418   0.456  1.00  0.00     0.000 C 
HETATM   13  C8  UNL     1      -4.246   0.281  -0.800  1.00  0.00     0.000 C 
HETATM   14  C9  UNL     1      -3.399   1.489  -0.469  1.00  0.00     0.005 C 
ENDBRANCH   8   9
ENDBRANCH   4   8
BRANCH   5  15
HETATM   15  O2  UNL     1       1.173   0.784  -2.458  1.00  0.00    -0.390 OA
ATOM     16  H2  UNL     1       1.660   0.518  -3.229  1.00  0.00     0.210 HD
ENDBRANCH   5  15
BRANCH   6  17
HETATM   17  O3  UNL     1       2.254  -2.126  -0.742  1.00  0.00    -0.391 OA
ATOM     18  H3  UNL     1       3.107  -2.437  -0.461  1.00  0.00     0.210 HD
ENDBRANCH   6  17
BRANCH   7  19
HETATM   19  C13 UNL     1       4.153  -0.371   0.366  1.00  0.00     0.137 C 
BRANCH  19  20
HETATM   20  C14 UNL     1       5.168  -0.852  -0.582  1.00  0.00     0.174 C 
HETATM   21  O4  UNL     1       4.987  -1.731  -1.473  1.00  0.00    -0.648 OA
HETATM   22  O5  UNL     1       6.462  -0.269  -0.475  1.00  0.00    -0.648 OA
ENDBRANCH  19  20
ENDBRANCH   7  19
TORSDOF 6
