REMARK  6 active torsions:
REMARK  status: ('A' for Active; 'I' for Inactive)
REMARK    1  A    between atoms: C2_2  and  C3_3 
REMARK    2  A    between atoms: C3_3  and  O2_5 
REMARK    3  A    between atoms: O2_5  and  C4_6 
REMARK    4  A    between atoms: C4_6  and  C5_7 
REMARK    5  A    between atoms: C6_8  and  C7_9 
REMARK    6  A    between atoms: N1_12  and  O3_14 
ROOT
HETATM    1  C7  UNL     1      -1.634   0.315   0.091  1.00  0.00     0.201 C 
HETATM    2  C8  UNL     1      -2.164  -0.707   1.072  1.00  0.00     0.104 C 
HETATM    3  C9  UNL     1      -3.392  -1.230   0.442  1.00  0.00     0.041 C 
HETATM    4  N1  UNL     1      -4.012  -2.342   0.661  1.00  0.00    -0.276 N 
ATOM      5  H1  UNL     1      -3.643  -2.988   1.359  1.00  0.00     0.193 HD
HETATM    6  C10 UNL     1      -3.816  -0.205  -0.539  1.00  0.00     0.328 C 
HETATM    7  N2  UNL     1      -2.656   0.580  -0.866  1.00  0.00     0.114 N 
HETATM    8  C11 UNL     1      -2.998   1.965  -0.830  1.00  0.00     0.327 C 
HETATM    9  C12 UNL     1      -2.616   2.374   0.551  1.00  0.00     0.026 C 
HETATM   10  N3  UNL     1      -3.233   3.179   1.325  1.00  0.00    -0.403 N 
ATOM     11  H31 UNL     1      -2.972   3.459   2.270  1.00  0.00     0.155 HD
ATOM     12  H32 UNL     1      -4.098   3.689   1.144  1.00  0.00     0.155 HD
HETATM   13  C13 UNL     1      -1.336   1.619   0.819  1.00  0.00     0.147 C 
HETATM   14 BR1  UNL     1       0.101   2.549  -0.091  1.00  0.00    -0.082 Br
ENDROOT
BRANCH   1  15
HETATM   15  C6  UNL     1      -0.364  -0.148  -0.503  1.00  0.00     0.014 C 
HETATM   16  C5  UNL     1       0.582  -0.638   0.273  1.00  0.00    -0.002 C 
BRANCH  16  17
HETATM   17  C4  UNL     1       1.891  -1.126  -0.252  1.00  0.00     0.206 C 
BRANCH  17  18
HETATM   18  O2  UNL     1       2.926  -0.365   0.338  1.00  0.00    -0.318 OA
BRANCH  18  19
HETATM   19  C3  UNL     1       4.254  -0.658  -0.017  1.00  0.00     0.258 C 
HETATM   20  O1  UNL     1       4.462  -1.584  -0.845  1.00  0.00    -0.265 OA
BRANCH  19  21
HETATM   21  C2  UNL     1       5.354   0.122   0.586  1.00  0.00     0.106 C 
HETATM   22  C1  UNL     1       6.658  -0.394   0.036  1.00  0.00     0.015 C 
ENDBRANCH  19  21
ENDBRANCH  18  19
ENDBRANCH  17  18
ENDBRANCH  16  17
ENDBRANCH   1  15
BRANCH   4  23
HETATM   23  O3  UNL     1      -5.140  -2.672  -0.013  1.00  0.00    -0.290 OA
ATOM     24  H3  UNL     1      -5.596  -3.490   0.148  1.00  0.00     0.244 HD
ENDBRANCH   4  23
TORSDOF 6
