REMARK  5 active torsions:
REMARK  status: ('A' for Active; 'I' for Inactive)
REMARK    1  A    between atoms: C2_2  and  C3_3 
REMARK    2  A    between atoms: C5_6  and  N1_7 
REMARK    3  A    between atoms: N2_10  and  C6_11 
REMARK    4  A    between atoms: C6_11  and  C7_12 
REMARK    5  A    between atoms: N3_16  and  C9_17 
ROOT
HETATM    1  C3  UNL     1      -0.056  -1.639  -0.314  1.00  0.00     0.042 A 
HETATM    2  C4  UNL     1       1.077  -2.285  -0.818  1.00  0.00     0.100 A 
HETATM    3 CL1  UNL     1       1.062  -3.988  -1.229  1.00  0.00    -0.078 Cl
HETATM    4  C5  UNL     1       2.232  -1.554  -0.992  1.00  0.00     0.129 A 
HETATM    5  N2  UNL     1       2.242  -0.249  -0.676  1.00  0.00    -0.283 N 
HETATM    6  C8  UNL     1       1.146   0.359  -0.193  1.00  0.00     0.331 A 
HETATM    7  O1  UNL     1       1.240   1.580   0.076  1.00  0.00    -0.246 OA
HETATM    8  N3  UNL     1      -0.025  -0.309   0.002  1.00  0.00    -0.296 N 
ENDROOT
BRANCH   8   9
HETATM    9  C9  UNL     1      -1.190   0.317   0.519  1.00  0.00     0.103 C 
HETATM   10  C10 UNL     1      -1.967   0.968  -0.584  1.00  0.00     0.029 C 
HETATM   11  C11 UNL     1      -1.792   2.460  -0.411  1.00  0.00     0.034 C 
HETATM   12  C12 UNL     1      -1.466   2.664   1.057  1.00  0.00     0.130 C 
HETATM   13  O2  UNL     1      -2.613   2.660   1.805  1.00  0.00    -0.380 OA
HETATM   14  C15 UNL     1      -0.973   1.357   1.577  1.00  0.00     0.067 C 
HETATM   15  C13 UNL     1      -2.108   1.587   2.528  1.00  0.00     0.126 C 
HETATM   16  C14 UNL     1      -3.137   0.531   2.694  1.00  0.00     0.040 C 
ENDBRANCH   8   9
BRANCH   1  17
HETATM   17  C2  UNL     1      -1.241  -2.492  -0.164  1.00  0.00     0.055 C 
HETATM   18  C1  UNL     1      -1.125  -3.388   1.073  1.00  0.00     0.011 C 
ENDBRANCH   1  17
BRANCH   5  19
HETATM   19  C6  UNL     1       3.433   0.516  -0.854  1.00  0.00     0.146 C 
BRANCH  19  20
HETATM   20  C7  UNL     1       3.517   1.148  -2.232  1.00  0.00     0.106 C 
HETATM   21  S1  UNL     1       5.047   2.107  -2.402  1.00  0.00    -0.096 SA
ENDBRANCH  19  20
ENDBRANCH   5  19
BRANCH   4  22
HETATM   22  N1  UNL     1       3.302  -2.145  -1.463  1.00  0.00    -0.384 N 
ATOM     23  H12 UNL     1       3.294  -3.136  -1.703  1.00  0.00     0.157 HD
ATOM     24  H11 UNL     1       4.157  -1.604  -1.592  1.00  0.00     0.157 HD
ENDBRANCH   4  22
TORSDOF 5
