REMARK  7 active torsions:
REMARK  status: ('A' for Active; 'I' for Inactive)
REMARK    1  A    between atoms: C2_2  and  N1_3 
REMARK    2  A    between atoms: C8_11  and  C9_12 
REMARK    3  A    between atoms: C9_12  and  C10_13 
REMARK    4  A    between atoms: C10_13  and  O2_14 
REMARK    5  A    between atoms: C12_17  and  N2_18 
REMARK    6  A    between atoms: N2_18  and  N3_20 
REMARK    7  A    between atoms: N3_20  and  N4_21 
ROOT
HETATM    1  C9  UNL     1      -2.457   1.071   0.920  1.00  0.00     0.107 C 
ENDROOT
BRANCH   1   2
HETATM    2  C8  UNL     1      -1.013   0.751   1.005  1.00  0.00    -0.048 A 
HETATM    3  C7  UNL     1      -0.531   0.345   2.235  1.00  0.00     0.052 A 
HETATM    4  C6  UNL     1       0.806   0.035   2.381  1.00  0.00     0.153 A 
HETATM    5  C5  UNL     1       1.672   0.124   1.318  1.00  0.00     0.141 A 
HETATM    6  F1  UNL     1       1.326  -0.370   3.573  1.00  0.00    -0.203 F 
HETATM    7  O1  UNL     1       2.930  -0.246   1.768  1.00  0.00    -0.340 OA
HETATM    8  C15 UNL     1       1.168   0.535   0.090  1.00  0.00     0.113 A 
HETATM    9  C4  UNL     1       4.120  -0.812   1.259  1.00  0.00     0.221 C 
HETATM   10  C3  UNL     1       4.019  -1.121  -0.230  1.00  0.00     0.096 C 
HETATM   11  N1  UNL     1       3.973   0.022  -1.040  1.00  0.00    -0.329 N 
HETATM   12  C16 UNL     1       2.862   0.240  -1.853  1.00  0.00     0.240 C 
HETATM   13  O3  UNL     1       1.742   0.730  -1.156  1.00  0.00    -0.303 OA
HETATM   14  C14 UNL     1      -0.168   0.843  -0.049  1.00  0.00     0.047 A 
BRANCH  11  15
HETATM   15  C2  UNL     1       5.001   0.953  -0.980  1.00  0.00     0.066 C 
HETATM   16  C1  UNL     1       6.311   0.413  -1.533  1.00  0.00     0.055 C 
ENDBRANCH  11  15
ENDBRANCH   1   2
BRANCH   1  17
HETATM   17  C10 UNL     1      -3.316  -0.106   0.568  1.00  0.00     0.230 C 
HETATM   18  C11 UNL     1      -4.777   0.357   0.603  1.00  0.00     0.098 C 
HETATM   19  C12 UNL     1      -5.441  -0.610  -0.379  1.00  0.00     0.144 C 
HETATM   20  C13 UNL     1      -4.339  -0.917  -1.373  1.00  0.00     0.263 C 
HETATM   21  N5  UNL     1      -3.101  -0.458  -0.796  1.00  0.00    -0.041 N 
ATOM     22  H52 UNL     1      -2.686   0.305  -1.331  1.00  0.00     0.280 HD
ATOM     23  H51 UNL     1      -2.349  -1.138  -0.905  1.00  0.00     0.280 HD
BRANCH  17  24
HETATM   24  O2  UNL     1      -3.229  -1.140   1.474  1.00  0.00    -0.365 OA
ATOM     25  H2  UNL     1      -3.773  -1.886   1.251  1.00  0.00     0.212 HD
ENDBRANCH  17  24
BRANCH  19  26
HETATM   26  N2  UNL     1      -6.566   0.039  -0.979  1.00  0.00    -0.246 N 
ATOM     27  H2  UNL     1      -6.407   0.714  -1.727  1.00  0.00     0.197 HD
BRANCH  26  28
HETATM   28  N3  UNL     1      -7.715  -0.192  -0.620  1.00  0.00    -0.248 NA
BRANCH  28  29
HETATM   29  N4  UNL     1      -8.806  -0.506  -0.125  1.00  0.00    -0.261 N 
ATOM     30  H42 UNL     1      -8.258  -0.953   0.610  1.00  0.00     0.193 HD
ATOM     31  H41 UNL     1      -9.762  -0.698   0.174  1.00  0.00     0.193 HD
ENDBRANCH  28  29
ENDBRANCH  26  28
ENDBRANCH  19  26
ENDBRANCH   1  17
TORSDOF 7
