REMARK  4 active torsions:
REMARK  status: ('A' for Active; 'I' for Inactive)
REMARK    1  A    between atoms: C3_5  and  C4_6 
REMARK    2  A    between atoms: C10_12  and  C11_13 
REMARK    3  A    between atoms: C11_13  and  C14_16 
REMARK    4  A    between atoms: C15_20  and  C16_21 
ROOT
HETATM    1  C1  UNL     1      -1.595   2.660   2.364  1.00  0.00     0.069 C 
HETATM    2  C2  UNL     1      -1.131   1.651   1.388  1.00  0.00     0.023 A 
HETATM    3  N1  UNL     1       0.088   1.471   0.941  1.00  0.00    -0.361 N 
ATOM      4  H1  UNL     1       0.887   2.034   1.232  1.00  0.00     0.165 HD
HETATM    5  C3  UNL     1       0.169   0.449   0.044  1.00  0.00     0.022 A 
HETATM    6  C10 UNL     1      -1.124  -0.089  -0.106  1.00  0.00     0.001 A 
HETATM    7  C15 UNL     1      -1.923   0.683   0.748  1.00  0.00     0.072 A 
ENDROOT
BRANCH   6   8
HETATM    8  C11 UNL     1      -1.574  -1.245  -0.860  1.00  0.00     0.080 C 
HETATM    9  C12 UNL     1      -3.135  -1.263  -0.878  1.00  0.00     0.029 C 
HETATM   10  C13 UNL     1      -1.203  -1.280  -2.317  1.00  0.00     0.029 C 
BRANCH   8  11
HETATM   11  C14 UNL     1      -1.354  -2.617  -0.222  1.00  0.00     0.398 C 
HETATM   12  F1  UNL     1      -1.966  -2.712   1.027  1.00  0.00    -0.170 F 
HETATM   13  F2  UNL     1      -2.247  -3.522  -0.960  1.00  0.00    -0.170 F 
HETATM   14  F3  UNL     1      -0.205  -3.250  -0.350  1.00  0.00    -0.170 F 
ENDBRANCH   8  11
ENDBRANCH   6   8
BRANCH   5  15
HETATM   15  C4  UNL     1       1.394   0.106  -0.668  1.00  0.00     0.036 C 
HETATM   16  C5  UNL     1       2.360   1.333  -0.507  1.00  0.00     0.011 C 
HETATM   17  C6  UNL     1       3.184   1.170   0.731  1.00  0.00     0.001 C 
HETATM   18  C7  UNL     1       4.377   0.284   0.328  1.00  0.00     0.000 C 
HETATM   19  C8  UNL     1       3.760  -0.783  -0.531  1.00  0.00     0.001 C 
HETATM   20  C9  UNL     1       2.265  -1.001  -0.197  1.00  0.00     0.011 C 
ENDBRANCH   5  15
BRANCH   7  21
HETATM   21  C16 UNL     1      -3.327   0.680   1.109  1.00  0.00     0.212 C 
HETATM   22  O1  UNL     1      -3.731  -0.017   2.058  1.00  0.00    -0.644 OA
HETATM   23  O2  UNL     1      -4.226   1.448   0.420  1.00  0.00    -0.644 OA
ENDBRANCH   7  21
TORSDOF 4
