REMARK  3 active torsions:
REMARK  status: ('A' for Active; 'I' for Inactive)
REMARK    1  A    between atoms: C4_8  and  C5_9 
REMARK    2  A    between atoms: C5_9  and  C7_11 
REMARK    3  A    between atoms: C11_17  and  C12_18 
ROOT
HETATM    1  C7  UNL     1      -0.628  -0.397   0.669  1.00  0.00     0.025 A 
HETATM    2  N3  UNL     1      -0.193  -1.489   0.035  1.00  0.00    -0.358 N 
ATOM      3  H3  UNL     1      -0.755  -2.329  -0.102  1.00  0.00     0.166 HD
HETATM    4  C8  UNL     1       1.079  -1.351  -0.405  1.00  0.00     0.043 A 
HETATM    5  C9  UNL     1       1.939  -2.177  -1.093  1.00  0.00     0.031 A 
HETATM    6  C10 UNL     1       3.207  -1.778  -1.419  1.00  0.00     0.019 A 
HETATM    7  C11 UNL     1       3.610  -0.512  -1.040  1.00  0.00     0.054 A 
HETATM    8  C13 UNL     1       2.776   0.338  -0.351  1.00  0.00    -0.034 A 
HETATM    9  C14 UNL     1       3.178   1.688   0.067  1.00  0.00     0.050 C 
HETATM   10  C15 UNL     1       1.476  -0.066  -0.014  1.00  0.00     0.005 A 
HETATM   11  C16 UNL     1       0.433   0.523   0.646  1.00  0.00    -0.026 A 
HETATM   12  C17 UNL     1       0.394   1.876   1.253  1.00  0.00     0.051 C 
ENDROOT
BRANCH   1  13
HETATM   13  C5  UNL     1      -1.983  -0.208   1.267  1.00  0.00     0.068 C 
HETATM   14  C6  UNL     1      -2.573  -1.545   1.695  1.00  0.00     0.021 C 
BRANCH  13  15
HETATM   15  C4  UNL     1      -2.891   0.616   0.475  1.00  0.00    -0.008 A 
HETATM   16  C2  UNL     1      -3.535   0.300  -0.693  1.00  0.00     0.030 A 
HETATM   17  C1  UNL     1      -3.488  -0.958  -1.447  1.00  0.00     0.070 C 
HETATM   18  N1  UNL     1      -4.287   1.378  -1.085  1.00  0.00    -0.305 N 
HETATM   19  N2  UNL     1      -4.139   2.355  -0.211  1.00  0.00    -0.311 N 
ATOM     20  H1  UNL     1      -4.869   1.418  -1.921  1.00  0.00     0.186 HD
HETATM   21  C3  UNL     1      -3.300   1.929   0.748  1.00  0.00     0.117 A 
ATOM     22  H2  UNL     1      -4.583   3.272  -0.255  1.00  0.00     0.186 HD
ENDBRANCH  13  15
ENDBRANCH   1  13
BRANCH   7  23
HETATM   23  C12 UNL     1       4.986  -0.089  -1.399  1.00  0.00     0.418 C 
HETATM   24  F1  UNL     1       5.761   0.237  -0.294  1.00  0.00    -0.166 F 
HETATM   25  F2  UNL     1       5.032   0.845  -2.402  1.00  0.00    -0.166 F 
HETATM   26  F3  UNL     1       5.679  -1.203  -1.941  1.00  0.00    -0.166 F 
ENDBRANCH   7  23
TORSDOF 3
