REMARK  3 active torsions:
REMARK  status: ('A' for Active; 'I' for Inactive)
REMARK    1  A    between atoms: C5_7  and  C6_8 
REMARK    2  A    between atoms: C7_9  and  C8_10 
REMARK    3  A    between atoms: C11_13  and  C12_14 
ROOT
HETATM    1  C8  UNL     1       1.564  -0.190  -0.087  1.00  0.00    -0.007 A 
HETATM    2  C9  UNL     1       2.244   0.808   0.516  1.00  0.00     0.014 A 
HETATM    3  C10 UNL     1       3.644   0.801   0.537  1.00  0.00     0.018 A 
HETATM    4  C11 UNL     1       4.304  -0.236  -0.065  1.00  0.00     0.061 A 
HETATM    5  C13 UNL     1       3.640  -1.257  -0.682  1.00  0.00     0.025 A 
HETATM    6  C14 UNL     1       4.057  -2.403  -1.354  1.00  0.00     0.121 A 
HETATM    7  N2  UNL     1       2.942  -3.031  -1.746  1.00  0.00    -0.311 N 
ATOM      8  H2  UNL     1       2.916  -3.908  -2.266  1.00  0.00     0.186 HD
HETATM    9  N3  UNL     1       1.884  -2.348  -1.361  1.00  0.00    -0.299 N 
ATOM     10  H3  UNL     1       0.918  -2.620  -1.541  1.00  0.00     0.187 HD
HETATM   11  C15 UNL     1       2.262  -1.232  -0.692  1.00  0.00     0.070 A 
ENDROOT
BRANCH   1  12
HETATM   12  C7  UNL     1       0.089  -0.248  -0.148  1.00  0.00     0.014 C 
HETATM   13  C6  UNL     1      -0.659   0.659   0.375  1.00  0.00     0.015 C 
BRANCH  13  14
HETATM   14  C5  UNL     1      -2.096   0.784   0.424  1.00  0.00    -0.006 A 
HETATM   15  C3  UNL     1      -2.777   1.848   1.045  1.00  0.00     0.016 A 
HETATM   16  N1  UNL     1      -4.082   1.624   0.887  1.00  0.00    -0.362 N 
HETATM   17  C4  UNL     1      -2.119   2.991   1.739  1.00  0.00     0.069 C 
HETATM   18  C2  UNL     1      -4.274   0.506   0.216  1.00  0.00     0.012 A 
ATOM     19  H1  UNL     1      -4.825   2.230   1.235  1.00  0.00     0.165 HD
HETATM   20  C1  UNL     1      -5.591  -0.075  -0.155  1.00  0.00     0.068 C 
HETATM   21  C16 UNL     1      -3.033  -0.065  -0.101  1.00  0.00    -0.028 A 
HETATM   22  C17 UNL     1      -2.903  -1.338  -0.858  1.00  0.00     0.051 C 
ENDBRANCH  13  14
ENDBRANCH   1  12
BRANCH   4  23
HETATM   23  C12 UNL     1       5.786  -0.272  -0.060  1.00  0.00     0.418 C 
HETATM   24  F1  UNL     1       6.283   0.832   0.603  1.00  0.00    -0.166 F 
HETATM   25  F2  UNL     1       6.227  -1.425   0.588  1.00  0.00    -0.166 F 
HETATM   26  F3  UNL     1       6.289  -0.245  -1.348  1.00  0.00    -0.166 F 
ENDBRANCH   4  23
TORSDOF 3
