REMARK  6 active torsions:
REMARK  status: ('A' for Active; 'I' for Inactive)
REMARK    1  A    between atoms: C2_2  and  C3_3 
REMARK    2  A    between atoms: C3_3  and  C4_4 
REMARK    3  A    between atoms: C4_4  and  C5_5 
REMARK    4  A    between atoms: C5_5  and  C6_6 
REMARK    5  A    between atoms: C7_7  and  C8_8 
REMARK    6  A    between atoms: N1_27  and  C24_28 
ROOT
HETATM    1  C24 UNL     1      -5.337  -2.737   1.096  1.00  0.00     0.398 C 
HETATM    2  C25 UNL     1      -6.760  -2.601   0.794  1.00  0.00     0.089 C 
HETATM    3  N2  UNL     1      -7.887  -2.513   0.557  1.00  0.00    -0.195 NA
ENDROOT
BRANCH   1   4
HETATM    4  N1  UNL     1      -4.610  -2.020   0.070  1.00  0.00     0.134 N 
HETATM    5  C21 UNL     1      -4.797  -0.606   0.136  1.00  0.00     0.384 C 
HETATM    6  C20 UNL     1      -4.723   0.069  -1.212  1.00  0.00     0.232 C 
HETATM    7  O3  UNL     1      -3.833  -0.073   0.945  1.00  0.00    -0.348 OA
HETATM    8  O2  UNL     1      -3.837   1.114  -1.168  1.00  0.00    -0.380 OA
HETATM    9  C19 UNL     1      -2.604   0.819  -1.629  1.00  0.00     0.138 A 
HETATM   10  C16 UNL     1      -1.403   0.851  -0.891  1.00  0.00     0.026 A 
HETATM   11  C17 UNL     1      -1.594   1.910  -1.859  1.00  0.00     0.026 A 
HETATM   12  C11 UNL     1      -1.264   0.964   0.553  1.00  0.00    -0.025 C 
HETATM   13  C15 UNL     1      -0.441  -0.317  -1.184  1.00  0.00     0.136 C 
HETATM   14  C10 UNL     1       0.149   1.316   0.979  1.00  0.00     0.014 C 
HETATM   15  C12 UNL     1      -2.164   1.891   1.300  1.00  0.00     0.016 C 
HETATM   16  C13 UNL     1      -1.446  -0.501   0.997  1.00  0.00     0.028 C 
HETATM   17  C9  UNL     1       1.068   1.828  -0.055  1.00  0.00     0.045 C 
HETATM   18  C8  UNL     1       1.633   0.793  -0.987  1.00  0.00     0.200 C 
HETATM   19  O1  UNL     1       0.769   0.020  -1.634  1.00  0.00    -0.367 OA
HETATM   20  C14 UNL     1      -0.497  -1.184   0.052  1.00  0.00     0.041 C 
HETATM   21  C22 UNL     1      -2.803  -1.008   1.081  1.00  0.00     0.157 C 
HETATM   22  C23 UNL     1      -3.167  -2.180   0.203  1.00  0.00     0.309 C 
HETATM   23  C18 UNL     1      -2.130   3.263  -1.585  1.00  0.00     0.014 C 
BRANCH  18  24
HETATM   24  C7  UNL     1       2.695   0.065  -0.268  1.00  0.00    -0.074 C 
HETATM   25  C6  UNL     1       3.551  -0.527   0.338  1.00  0.00    -0.104 C 
BRANCH  25  26
HETATM   26  C5  UNL     1       4.595  -1.250   1.108  1.00  0.00     0.094 C 
BRANCH  26  27
HETATM   27  C4  UNL     1       5.602  -0.319   1.670  1.00  0.00     0.012 C 
BRANCH  27  28
HETATM   28  C3  UNL     1       6.409   0.495   0.740  1.00  0.00     0.000 C 
BRANCH  28  29
HETATM   29  C2  UNL     1       7.324  -0.184  -0.199  1.00  0.00    -0.005 C 
HETATM   30  C1  UNL     1       6.788  -1.125  -1.198  1.00  0.00     0.005 C 
ENDBRANCH  28  29
ENDBRANCH  27  28
ENDBRANCH  26  27
ENDBRANCH  25  26
ENDBRANCH  18  24
ENDBRANCH   1   4
TORSDOF 6
