REMARK  4 active torsions:
REMARK  status: ('A' for Active; 'I' for Inactive)
REMARK    1  A    between atoms: N1_2  and  C3_4 
REMARK    2  A    between atoms: C12_13  and  C13_14 
REMARK    3  A    between atoms: C13_14  and  S1_15 
REMARK    4  A    between atoms: C15_19  and  O3_20 
ROOT
HETATM    1  C3  UNL     1       3.570  -0.995  -0.591  1.00  0.00     0.294 C 
HETATM    2  C4  UNL     1       2.707  -1.316   0.592  1.00  0.00     0.078 C 
HETATM    3  C5  UNL     1       1.604  -0.346   0.823  1.00  0.00    -0.072 C 
HETATM    4  C6  UNL     1       0.799  -0.914   1.744  1.00  0.00    -0.023 C 
HETATM    5  C7  UNL     1      -0.432  -0.303   2.280  1.00  0.00     0.033 C 
HETATM    6  C8  UNL     1      -0.941   0.856   1.506  1.00  0.00    -0.001 C 
HETATM    7  C9  UNL     1      -0.277   1.011   0.156  1.00  0.00     0.003 C 
HETATM    8  C10 UNL     1      -0.689  -0.018  -0.834  1.00  0.00     0.007 C 
HETATM    9  C11 UNL     1      -1.982  -0.713  -0.472  1.00  0.00     0.014 C 
HETATM   10  C12 UNL     1      -2.987   0.214   0.145  1.00  0.00     0.003 C 
HETATM   11  C15 UNL     1      -4.038  -0.656   0.792  1.00  0.00     0.128 C 
HETATM   12  C16 UNL     1      -4.474   0.030   2.067  1.00  0.00     0.033 C 
HETATM   13  C17 UNL     1      -3.183   0.601   2.555  1.00  0.00     0.008 C 
HETATM   14  C18 UNL     1      -2.414   0.962   1.335  1.00  0.00     0.002 C 
HETATM   15  C19 UNL     1       1.227   0.970   0.334  1.00  0.00    -0.016 C 
HETATM   16  C20 UNL     1       1.584   2.052   1.359  1.00  0.00     0.020 C 
HETATM   17  C21 UNL     1       1.808   1.390  -0.985  1.00  0.00     0.021 C 
HETATM   18  C22 UNL     1       3.304   1.617  -0.933  1.00  0.00     0.081 C 
HETATM   19  C23 UNL     1       4.001   0.411  -0.440  1.00  0.00     0.160 C 
HETATM   20  O4  UNL     1       5.029   0.595   0.146  1.00  0.00    -0.296 OA
ENDROOT
BRANCH  10  21
HETATM   21  C13 UNL     1      -3.498   1.172  -0.831  1.00  0.00     0.152 C 
BRANCH  21  22
HETATM   22  S1  UNL     1      -4.341   0.739  -2.258  1.00  0.00     0.141 S 
HETATM   23  C14 UNL     1      -3.541  -0.231  -3.455  1.00  0.00     0.161 C 
HETATM   24  O1  UNL     1      -4.662   2.075  -2.957  1.00  0.00    -0.228 OA
HETATM   25  O2  UNL     1      -5.762   0.222  -1.974  1.00  0.00    -0.228 OA
ENDBRANCH  21  22
ENDBRANCH  10  21
BRANCH  11  26
HETATM   26  O3  UNL     1      -3.587  -1.946   1.059  1.00  0.00    -0.395 OA
ATOM     27  H3  UNL     1      -4.248  -2.493   1.466  1.00  0.00     0.210 HD
ENDBRANCH  11  26
BRANCH   1  28
HETATM   28  N1  UNL     1       4.598  -1.942  -0.802  1.00  0.00     0.092 N 
HETATM   29  C1  UNL     1       5.581  -2.103   0.209  1.00  0.00     0.310 C 
HETATM   30  C2  UNL     1       5.156  -1.784  -2.132  1.00  0.00     0.310 C 
ENDBRANCH   1  28
TORSDOF 4
