REMARK  4 active torsions:
REMARK  status: ('A' for Active; 'I' for Inactive)
REMARK    1  A    between atoms: C2_2  and  N1_3 
REMARK    2  A    between atoms: N2_6  and  C5_7 
REMARK    3  A    between atoms: C8_10  and  O1_11 
REMARK    4  A    between atoms: C22_27  and  C23_28 
ROOT
HETATM    1  C5  UNL     1       0.606   0.214  -0.397  1.00  0.00    -0.005 C 
HETATM    2  C6  UNL     1       0.739   1.558   0.017  1.00  0.00    -0.004 C 
HETATM    3  C7  UNL     1      -0.346   2.627   0.060  1.00  0.00     0.067 C 
HETATM    4  C8  UNL     1      -1.423   2.169  -0.763  1.00  0.00     0.069 C 
HETATM    5  C9  UNL     1      -2.448   2.875  -1.535  1.00  0.00     0.017 C 
HETATM    6  C10 UNL     1      -3.397   3.592  -0.578  1.00  0.00     0.013 C 
HETATM    7  C11 UNL     1      -3.177   1.691  -2.192  1.00  0.00     0.008 C 
HETATM    8  C12 UNL     1      -2.482   0.339  -2.169  1.00  0.00     0.012 C 
HETATM    9  C13 UNL     1      -1.904  -0.101  -0.840  1.00  0.00    -0.019 C 
HETATM   10  C14 UNL     1      -3.016  -1.034  -0.309  1.00  0.00     0.017 C 
HETATM   11  C15 UNL     1      -3.131  -1.200   1.131  1.00  0.00     0.015 C 
HETATM   12  C16 UNL     1      -2.848  -0.056   2.010  1.00  0.00     0.007 C 
HETATM   13  C17 UNL     1      -2.003   1.053   1.438  1.00  0.00     0.009 C 
HETATM   14  C18 UNL     1      -2.132   1.146  -0.023  1.00  0.00     0.030 C 
HETATM   15  C19 UNL     1      -2.432  -2.515   1.512  1.00  0.00     0.276 C 
HETATM   16  N3  UNL     1      -1.452  -2.709   0.421  1.00  0.00     0.085 N 
HETATM   17  C20 UNL     1      -0.902  -4.023   0.597  1.00  0.00     0.309 C 
HETATM   18  C21 UNL     1      -0.548  -1.623   0.522  1.00  0.00     0.288 C 
HETATM   19  C22 UNL     1      -0.557  -0.647  -0.709  1.00  0.00     0.031 C 
ENDROOT
BRANCH   1  20
HETATM   20  N2  UNL     1       1.732  -0.494   0.246  1.00  0.00    -0.283 NA
HETATM   21  C4  UNL     1       3.016  -0.042  -0.308  1.00  0.00     0.125 C 
HETATM   22  C3  UNL     1       4.052  -0.987   0.330  1.00  0.00     0.287 C 
HETATM   23  N1  UNL     1       4.384  -0.412   1.587  1.00  0.00     0.090 N 
HETATM   24  C26 UNL     1       3.235   0.321   2.061  1.00  0.00     0.287 C 
HETATM   25  C25 UNL     1       1.932  -0.326   1.624  1.00  0.00     0.125 C 
BRANCH  23  26
HETATM   26  C2  UNL     1       5.553   0.432   1.444  1.00  0.00     0.268 C 
HETATM   27  C1  UNL     1       6.820  -0.308   1.180  1.00  0.00     0.037 C 
ENDBRANCH  23  26
ENDBRANCH   1  20
BRANCH  19  28
HETATM   28  C23 UNL     1      -0.325  -1.689  -1.772  1.00  0.00     0.013 C 
HETATM   29  C24 UNL     1       0.097  -1.407  -3.124  1.00  0.00     0.006 C 
ENDBRANCH  19  28
BRANCH   4  30
HETATM   30  O1  UNL     1      -0.627   1.883  -1.908  1.00  0.00    -0.389 OA
ATOM     31  H1  UNL     1      -1.342   1.579  -2.454  1.00  0.00     0.210 HD
ENDBRANCH   4  30
TORSDOF 4
