REMARK  17 active torsions:
REMARK  status: ('A' for Active; 'I' for Inactive)
REMARK    1  A    between atoms: O1_2  and  C2_3 
REMARK    2  A    between atoms: C3_4  and  C4_5 
REMARK    3  A    between atoms: C4_5  and  O2_6 
REMARK    4  A    between atoms: C4_5  and  O3_8 
REMARK    5  A    between atoms: O3_8  and  C5_9 
REMARK    6  A    between atoms: C6_10  and  O4_11 
REMARK    7  A    between atoms: C7_13  and  C8_14 
REMARK    8  A    between atoms: C8_14  and  O5_15 
REMARK    9  A    between atoms: O5_15  and  C9_16 
REMARK   10  A    between atoms: C10_22  and  C11_23 
REMARK   11  A    between atoms: C11_23  and  O7_24 
REMARK   12  A    between atoms: C12_26  and  O8_27 
REMARK   13  A    between atoms: C13_29  and  C14_30 
REMARK   14  A    between atoms: C14_30  and  O9_31 
REMARK   15  A    between atoms: C14_30  and  C15_33 
REMARK   16  A    between atoms: C15_33  and  O10_34 
REMARK   17  A    between atoms: C18_42  and  O13_43 
ROOT
HETATM    1  C5  UNL     1      -1.008   0.151   0.741  1.00  0.00     0.199 C 
HETATM    2  C6  UNL     1      -2.054   0.596   1.790  1.00  0.00     0.215 C 
HETATM    3  C7  UNL     1      -3.401   0.234   1.141  1.00  0.00     0.216 C 
HETATM    4  O6  UNL     1      -3.623   1.192   0.192  1.00  0.00    -0.340 OA
HETATM    5  C10 UNL     1      -2.631   1.349  -0.725  1.00  0.00     0.188 C 
HETATM    6  C12 UNL     1      -1.685   0.134  -0.592  1.00  0.00     0.143 C 
HETATM    7  C13 UNL     1      -2.656  -1.041  -0.640  1.00  0.00     0.196 C 
HETATM    8  O11 UNL     1      -3.245  -1.048   0.627  1.00  0.00    -0.340 OA
ENDROOT
BRANCH   1   9
HETATM    9  O3  UNL     1       0.108   0.978   0.837  1.00  0.00    -0.344 OA
BRANCH   9  10
HETATM   10  C4  UNL     1       1.216   0.367   1.368  1.00  0.00     0.311 C 
BRANCH  10  11
HETATM   11  C3  UNL     1       2.419   0.332   0.551  1.00  0.00     0.103 A 
HETATM   12  C2  UNL     1       3.577  -0.269   0.945  1.00  0.00     0.125 A 
HETATM   13  C20 UNL     1       4.721  -0.282   0.141  1.00  0.00     0.103 A 
HETATM   14  C17 UNL     1       4.684   0.325  -1.080  1.00  0.00     0.115 A 
HETATM   15  N5  UNL     1       5.960  -0.790   0.282  1.00  0.00    -0.293 N 
HETATM   16  C16 UNL     1       3.522   0.923  -1.463  1.00  0.00     0.262 A 
HETATM   17  C18 UNL     1       5.947   0.153  -1.645  1.00  0.00     0.175 A 
HETATM   18  N3  UNL     1       2.429   0.928  -0.678  1.00  0.00    -0.320 N 
HETATM   19  O12 UNL     1       3.518   1.483  -2.608  1.00  0.00    -0.267 OA
ATOM     20  H3  UNL     1       1.583   1.391  -1.011  1.00  0.00     0.169 HD
HETATM   21  N4  UNL     1       6.700  -0.531  -0.786  1.00  0.00    -0.274 N 
HETATM   22  C19 UNL     1       8.087  -0.956  -0.922  1.00  0.00     0.180 C 
ATOM     23  H5  UNL     1       6.285  -1.305   1.100  1.00  0.00     0.187 HD
BRANCH  12  24
HETATM   24  O1  UNL     1       3.706  -0.900   2.153  1.00  0.00    -0.352 OA
HETATM   25  C1  UNL     1       4.202  -0.311   3.319  1.00  0.00     0.210 C 
ENDBRANCH  12  24
BRANCH  17  26
HETATM   26  O13 UNL     1       6.317   0.622  -2.878  1.00  0.00    -0.344 OA
ATOM     27  H13 UNL     1       7.178   0.505  -3.263  1.00  0.00     0.219 HD
ENDBRANCH  17  26
ENDBRANCH  10  11
BRANCH  10  28
HETATM   28  O2  UNL     1       1.463   0.786   2.689  1.00  0.00    -0.366 OA
ATOM     29  H2  UNL     1       0.677   0.809   3.223  1.00  0.00     0.213 HD
ENDBRANCH  10  28
ENDBRANCH   9  10
ENDBRANCH   1   9
BRANCH   2  30
HETATM   30  O4  UNL     1      -1.895  -0.092   2.987  1.00  0.00    -0.387 OA
ATOM     31  H4  UNL     1      -2.537   0.181   3.631  1.00  0.00     0.210 HD
ENDBRANCH   2  30
BRANCH   6  32
HETATM   32  O8  UNL     1      -0.852   0.103  -1.682  1.00  0.00    -0.382 OA
ATOM     33  H8  UNL     1      -1.282   0.092  -2.529  1.00  0.00     0.211 HD
ENDBRANCH   6  32
BRANCH   3  34
HETATM   34  C8  UNL     1      -4.470   0.181   2.170  1.00  0.00     0.249 C 
BRANCH  34  35
HETATM   35  O5  UNL     1      -5.718  -0.106   1.613  1.00  0.00    -0.319 OA
BRANCH  35  36
HETATM   36  C9  UNL     1      -6.335   0.711   0.692  1.00  0.00     0.225 C 
HETATM   37  N1  UNL     1      -6.359   1.979   0.972  1.00  0.00    -0.368 N 
ATOM     38  H12 UNL     1      -5.936   2.323   1.834  1.00  0.00     0.159 HD
ATOM     39  H11 UNL     1      -6.816   2.584   0.290  1.00  0.00     0.159 HD
HETATM   40  N2  UNL     1      -6.933   0.225  -0.526  1.00  0.00    -0.057 NA
ENDBRANCH  35  36
ENDBRANCH  34  35
ENDBRANCH   3  34
BRANCH   5  41
HETATM   41  C11 UNL     1      -1.932   2.640  -0.785  1.00  0.00     0.199 C 
BRANCH  41  42
HETATM   42  O7  UNL     1      -0.958   2.560  -1.804  1.00  0.00    -0.398 OA
ATOM     43  H7  UNL     1      -0.506   3.395  -1.843  1.00  0.00     0.209 HD
ENDBRANCH  41  42
ENDBRANCH   5  41
BRANCH   7  44
HETATM   44  C14 UNL     1      -2.081  -2.341  -1.024  1.00  0.00     0.173 C 
BRANCH  44  45
HETATM   45  O9  UNL     1      -1.070  -2.853  -0.259  1.00  0.00    -0.391 OA
ATOM     46  H9  UNL     1      -0.699  -3.692  -0.507  1.00  0.00     0.210 HD
ENDBRANCH  44  45
BRANCH  44  47
HETATM   47  C15 UNL     1      -1.706  -2.449  -2.480  1.00  0.00     0.198 C 
BRANCH  47  48
HETATM   48  O10 UNL     1      -1.536  -3.820  -2.831  1.00  0.00    -0.398 OA
ATOM     49  H10 UNL     1      -1.300  -3.888  -3.749  1.00  0.00     0.209 HD
ENDBRANCH  47  48
ENDBRANCH  44  47
ENDBRANCH   7  44
TORSDOF 17
