REMARK  6 active torsions:
REMARK  status: ('A' for Active; 'I' for Inactive)
REMARK    1  A    between atoms: C2_2  and  C3_3 
REMARK    2  A    between atoms: N1_4  and  N2_6 
REMARK       I    between atoms: C4_8  and  N3_9 
REMARK       I    between atoms: C4_8  and  N4_12 
REMARK    3  A    between atoms: N4_12  and  S1_14 
REMARK    4  A    between atoms: S1_14  and  C6_17 
REMARK    5  A    between atoms: C11_22  and  S2_23 
REMARK    6  A    between atoms: S2_23  and  C12_26 
ROOT
HETATM    1  S1  UNL     1       0.541  -0.997   0.325  1.00  0.00     0.278 S 
HETATM    2  O1  UNL     1       1.538  -1.927  -0.345  1.00  0.00    -0.200 OA
HETATM    3  O2  UNL     1       0.815  -0.818   1.783  1.00  0.00    -0.200 OA
ENDROOT
BRANCH   1   4
HETATM    4  N4  UNL     1      -0.955  -1.914   0.273  1.00  0.00    -0.111 N 
HETATM    5  C4  UNL     1      -2.167  -1.410   0.828  1.00  0.00     0.702 C 
HETATM    6  N2  UNL     1      -2.249  -0.333   1.523  1.00  0.00    -0.132 N 
HETATM    7  N3  UNL     1      -3.385  -2.130   0.649  1.00  0.00    -0.229 N 
ATOM      8  H2  UNL     1      -1.365   0.164   1.633  1.00  0.00     0.205 HD
HETATM    9  C5  UNL     1      -3.768  -2.621  -0.661  1.00  0.00     0.165 C 
ATOM     10  H3  UNL     1      -3.993  -2.301   1.450  1.00  0.00     0.177 HD
ATOM     11  H4  UNL     1      -0.957  -2.834  -0.167  1.00  0.00     0.197 HD
BRANCH   6  12
HETATM   12  N1  UNL     1      -3.250   0.230   2.106  1.00  0.00    -0.298 N 
HETATM   13  C3  UNL     1      -4.247   0.896   2.248  1.00  0.00     0.107 C 
ATOM     14  H1  UNL     1      -3.111  -0.097   3.062  1.00  0.00     0.186 HD
BRANCH  13  15
HETATM   15  C2  UNL     1      -4.947   1.629   1.227  1.00  0.00     0.008 C 
HETATM   16  C1  UNL     1      -4.527   1.629  -0.013  1.00  0.00     0.013 C 
ENDBRANCH  13  15
ENDBRANCH   6  12
ENDBRANCH   1   4
BRANCH   1  17
HETATM   17  C6  UNL     1       0.331   0.458  -0.570  1.00  0.00     0.102 A 
HETATM   18  C7  UNL     1      -0.806   0.568  -1.392  1.00  0.00     0.027 A 
HETATM   19  C8  UNL     1      -1.053   1.659  -2.182  1.00  0.00     0.002 A 
HETATM   20  C9  UNL     1      -0.141   2.679  -2.161  1.00  0.00     0.002 A 
HETATM   21  C10 UNL     1       0.966   2.582  -1.367  1.00  0.00     0.025 A 
HETATM   22  C11 UNL     1       1.245   1.464  -0.538  1.00  0.00     0.087 A 
BRANCH  22  23
HETATM   23  S2  UNL     1       2.656   1.471   0.423  1.00  0.00     0.208 S 
HETATM   24  O3  UNL     1       3.376   2.817   0.190  1.00  0.00    -0.217 OA
HETATM   25  O4  UNL     1       2.371   1.523   1.907  1.00  0.00    -0.217 OA
BRANCH  23  26
HETATM   26  C12 UNL     1       3.854   0.278   0.133  1.00  0.00     0.064 A 
HETATM   27  C13 UNL     1       4.444   0.133  -1.111  1.00  0.00     0.024 A 
HETATM   28  C14 UNL     1       5.451  -0.778  -1.296  1.00  0.00     0.002 A 
HETATM   29  C15 UNL     1       5.905  -1.569  -0.270  1.00  0.00     0.000 A 
HETATM   30  C16 UNL     1       5.330  -1.439   0.977  1.00  0.00     0.002 A 
HETATM   31  C17 UNL     1       4.317  -0.520   1.158  1.00  0.00     0.024 A 
ENDBRANCH  23  26
ENDBRANCH  22  23
ENDBRANCH   1  17
TORSDOF 6
