REMARK  7 active torsions:
REMARK  status: ('A' for Active; 'I' for Inactive)
REMARK    1  A    between atoms: C1_2  and  C2_3 
REMARK       I    between atoms: C1_2  and  N3_18 
REMARK    2  A    between atoms: C2_3  and  C3_4 
REMARK       I    between atoms: C3_4  and  N1_6 
REMARK    3  A    between atoms: N1_6  and  C4_8 
REMARK    4  A    between atoms: C4_8  and  C5_9 
REMARK    5  A    between atoms: C10_14  and  N2_15 
REMARK    6  A    between atoms: N3_18  and  C11_20 
REMARK    7  A    between atoms: C12_25  and  C13_26 
ROOT
HETATM    1  O1  UNL     1      -0.359  -0.348  -2.165  1.00  0.00    -0.273 OA
HETATM    2  C1  UNL     1       0.025   0.757  -1.692  1.00  0.00     0.232 C 
HETATM    3  N3  UNL     1       1.077   1.491  -2.306  1.00  0.00    -0.306 N 
ATOM      4  H3  UNL     1       0.888   2.211  -3.004  1.00  0.00     0.171 HD
ENDROOT
BRANCH   2   5
HETATM    5  C2  UNL     1      -0.655   1.264  -0.478  1.00  0.00     0.205 C 
BRANCH   5   6
HETATM    6  C3  UNL     1      -1.721   0.362   0.016  1.00  0.00     0.226 C 
HETATM    7  O2  UNL     1      -2.013  -0.740  -0.549  1.00  0.00    -0.273 OA
HETATM    8  N1  UNL     1      -2.478   0.705   1.175  1.00  0.00    -0.356 N 
ATOM      9  H1  UNL     1      -2.274   1.577   1.663  1.00  0.00     0.162 HD
BRANCH   8  10
HETATM   10  C4  UNL     1      -3.523  -0.151   1.671  1.00  0.00     0.163 C 
BRANCH  10  11
HETATM   11  C5  UNL     1      -4.687  -0.227   0.784  1.00  0.00    -0.007 A 
HETATM   12  C6  UNL     1      -4.786   0.583  -0.351  1.00  0.00     0.011 A 
HETATM   13  C7  UNL     1      -5.928   0.495  -1.116  1.00  0.00     0.001 A 
HETATM   14  C8  UNL     1      -6.948  -0.363  -0.781  1.00  0.00     0.002 A 
HETATM   15  C9  UNL     1      -6.878  -1.170   0.329  1.00  0.00     0.037 A 
HETATM   16  C10 UNL     1      -5.713  -1.086   1.115  1.00  0.00     0.110 A 
BRANCH  16  17
HETATM   17  N2  UNL     1      -5.630  -1.940   2.252  1.00  0.00    -0.115 N 
HETATM   18  O3  UNL     1      -5.048  -1.617   3.286  1.00  0.00    -0.532 OA
HETATM   19  O4  UNL     1      -6.230  -3.197   2.233  1.00  0.00    -0.532 OA
ENDBRANCH  16  17
ENDBRANCH  10  11
ENDBRANCH   8  10
ENDBRANCH   5   6
ENDBRANCH   2   5
BRANCH   3  20
HETATM   20  C11 UNL     1       2.304   1.201  -1.935  1.00  0.00     0.168 A 
HETATM   21  N4  UNL     1       3.437   1.757  -2.375  1.00  0.00    -0.279 N 
HETATM   22  N5  UNL     1       4.541   1.351  -1.904  1.00  0.00    -0.291 N 
ATOM     23  H4  UNL     1       3.413   2.496  -3.078  1.00  0.00     0.189 HD
HETATM   24  C12 UNL     1       4.568   0.389  -0.989  1.00  0.00     0.102 A 
ATOM     25  H5  UNL     1       5.414   1.766  -2.230  1.00  0.00     0.187 HD
HETATM   26  S1  UNL     1       2.901   0.059  -0.805  1.00  0.00    -0.033 SA
BRANCH  24  27
HETATM   27  C13 UNL     1       5.731  -0.219  -0.320  1.00  0.00    -0.001 A 
HETATM   28  C14 UNL     1       7.020   0.118  -0.544  1.00  0.00     0.014 A 
HETATM   29  C15 UNL     1       8.056  -0.498   0.123  1.00  0.00     0.001 A 
HETATM   30  C16 UNL     1       7.765  -1.490   1.047  1.00  0.00     0.000 A 
HETATM   31  C17 UNL     1       6.469  -1.852   1.293  1.00  0.00     0.001 A 
HETATM   32  C18 UNL     1       5.453  -1.223   0.616  1.00  0.00     0.014 A 
ENDBRANCH  24  27
ENDBRANCH   3  20
TORSDOF 7
