REMARK  8 active torsions:
REMARK  status: ('A' for Active; 'I' for Inactive)
REMARK       I    between atoms: C1_2  and  N1_3 
REMARK    1  A    between atoms: C1_2  and  C12_21 
REMARK    2  A    between atoms: N1_3  and  C2_5 
REMARK    3  A    between atoms: C3_10  and  S1_11 
REMARK    4  A    between atoms: S1_11  and  C4_12 
REMARK    5  A    between atoms: C4_12  and  C5_13 
REMARK    6  A    between atoms: C5_13  and  C6_14 
REMARK       I    between atoms: C12_21  and  N4_23 
REMARK    7  A    between atoms: N4_23  and  C13_25 
REMARK    8  A    between atoms: C13_25  and  C14_26 
ROOT
HETATM    1  C2  UNL     1       0.177   2.288   0.902  1.00  0.00     0.168 A 
HETATM    2  N2  UNL     1      -0.567   2.823   1.873  1.00  0.00    -0.278 N 
ATOM      3  H2  UNL     1      -0.529   3.824   2.063  1.00  0.00     0.189 HD
HETATM    4  N3  UNL     1      -1.321   2.066   2.554  1.00  0.00    -0.286 N 
ATOM      5  H3  UNL     1      -1.896   2.459   3.299  1.00  0.00     0.188 HD
HETATM    6  C3  UNL     1      -1.365   0.767   2.303  1.00  0.00     0.130 A 
HETATM    7  S2  UNL     1      -0.258   0.631   1.012  1.00  0.00    -0.026 SA
ENDROOT
BRANCH   1   8
HETATM    8  N1  UNL     1       1.010   2.909   0.095  1.00  0.00    -0.298 N 
HETATM    9  C1  UNL     1       1.700   2.112  -0.873  1.00  0.00     0.315 C 
HETATM   10  O1  UNL     1       1.494   2.287  -2.113  1.00  0.00    -0.262 OA
ATOM     11  H1  UNL     1       1.158   3.916   0.157  1.00  0.00     0.171 HD
BRANCH   9  12
HETATM   12  C12 UNL     1       2.649   1.085  -0.475  1.00  0.00     0.310 C 
HETATM   13  O2  UNL     1       2.861   0.902   0.758  1.00  0.00    -0.262 OA
HETATM   14  N4  UNL     1       3.316   0.314  -1.448  1.00  0.00    -0.349 N 
ATOM     15  H4  UNL     1       3.121   0.491  -2.433  1.00  0.00     0.163 HD
BRANCH  14  16
HETATM   16  C13 UNL     1       4.258  -0.710  -1.104  1.00  0.00     0.161 C 
BRANCH  16  17
HETATM   17  C14 UNL     1       5.581  -0.200  -0.681  1.00  0.00    -0.038 A 
HETATM   18  C15 UNL     1       6.526  -1.122  -0.294  1.00  0.00     0.025 A 
HETATM   19  C16 UNL     1       7.758  -0.650   0.101  1.00  0.00     0.088 A 
HETATM   20  N5  UNL     1       8.025   0.672   0.106  1.00  0.00    -0.375 N 
HETATM   21  C17 UNL     1       7.102   1.583  -0.272  1.00  0.00     0.088 A 
ATOM     22  H5  UNL     1       8.947   0.992   0.403  1.00  0.00     0.164 HD
HETATM   23  C18 UNL     1       5.860   1.146  -0.673  1.00  0.00     0.025 A 
ENDBRANCH  16  17
ENDBRANCH  14  16
ENDBRANCH   9  12
ENDBRANCH   1   8
BRANCH   6  24
HETATM   24  S1  UNL     1      -2.350  -0.507   3.124  1.00  0.00    -0.103 SA
BRANCH  24  25
HETATM   25  C4  UNL     1      -3.932  -0.572   2.201  1.00  0.00     0.086 C 
BRANCH  25  26
HETATM   26  C5  UNL     1      -3.621  -1.087   0.806  1.00  0.00     0.049 C 
BRANCH  26  27
HETATM   27  C6  UNL     1      -4.850  -1.172  -0.017  1.00  0.00    -0.057 A 
HETATM   28  C7  UNL     1      -5.246  -0.099  -0.775  1.00  0.00     0.007 A 
HETATM   29  C8  UNL     1      -6.388  -0.132  -1.559  1.00  0.00     0.001 A 
HETATM   30  C9  UNL     1      -7.164  -1.278  -1.586  1.00  0.00     0.000 A 
HETATM   31  C10 UNL     1      -6.746  -2.343  -0.816  1.00  0.00     0.001 A 
HETATM   32  C11 UNL     1      -5.612  -2.309  -0.039  1.00  0.00     0.007 A 
ENDBRANCH  26  27
ENDBRANCH  25  26
ENDBRANCH  24  25
ENDBRANCH   6  24
TORSDOF 8
