REMARK  7 active torsions:
REMARK  status: ('A' for Active; 'I' for Inactive)
REMARK       I    between atoms: C1_2  and  N1_3 
REMARK    1  A    between atoms: C1_2  and  C9_15 
REMARK    2  A    between atoms: N1_3  and  C2_5 
REMARK    3  A    between atoms: C2_5  and  S1_6 
REMARK    4  A    between atoms: S1_6  and  C3_9 
REMARK    5  A    between atoms: C11_18  and  N2_19 
REMARK    6  A    between atoms: N2_19  and  N3_21 
REMARK    7  A    between atoms: C12_23  and  C13_24 
ROOT
HETATM    1  C9  UNL     1      -0.221  -0.415  -0.447  1.00  0.00     0.109 A 
HETATM    2  C10 UNL     1      -0.576   0.537  -1.366  1.00  0.00     0.088 A 
HETATM    3  S2  UNL     1       0.909   1.337  -1.642  1.00  0.00    -0.062 SA
HETATM    4  C11 UNL     1       1.878   0.423  -0.584  1.00  0.00     0.164 A 
HETATM    5  N4  UNL     1       1.027  -0.455  -0.065  1.00  0.00    -0.331 N 
ATOM      6  H4  UNL     1       1.341  -1.145   0.617  1.00  0.00     0.168 HD
ENDROOT
BRANCH   1   7
HETATM    7  C1  UNL     1      -1.244  -1.359   0.081  1.00  0.00     0.269 C 
HETATM    8  O1  UNL     1      -0.933  -2.252   0.939  1.00  0.00    -0.266 OA
HETATM    9  N1  UNL     1      -2.584  -1.308  -0.337  1.00  0.00    -0.342 N 
ATOM     10  H1  UNL     1      -2.879  -0.611  -1.021  1.00  0.00     0.163 HD
BRANCH   9  11
HETATM   11  C2  UNL     1      -3.540  -2.238   0.198  1.00  0.00     0.269 C 
BRANCH  11  12
HETATM   12  S1  UNL     1      -5.151  -1.951  -0.499  1.00  0.00     0.192 S 
HETATM   13  O2  UNL     1      -5.137  -2.104  -1.983  1.00  0.00    -0.221 OA
HETATM   14  O3  UNL     1      -6.063  -3.001   0.057  1.00  0.00    -0.221 OA
BRANCH  12  15
HETATM   15  C3  UNL     1      -5.703  -0.333  -0.139  1.00  0.00     0.060 A 
HETATM   16  C4  UNL     1      -6.422  -0.125   1.012  1.00  0.00     0.023 A 
HETATM   17  C5  UNL     1      -6.871   1.136   1.326  1.00  0.00     0.002 A 
HETATM   18  C6  UNL     1      -6.589   2.166   0.475  1.00  0.00     0.000 A 
HETATM   19  C7  UNL     1      -5.869   1.954  -0.677  1.00  0.00     0.002 A 
HETATM   20  C8  UNL     1      -5.416   0.691  -0.996  1.00  0.00     0.023 A 
ENDBRANCH  12  15
ENDBRANCH  11  12
ENDBRANCH   9  11
ENDBRANCH   1   7
BRANCH   4  21
HETATM   21  N2  UNL     1       3.163   0.560  -0.344  1.00  0.00    -0.280 N 
ATOM     22  H2  UNL     1       3.700   1.285  -0.819  1.00  0.00     0.189 HD
BRANCH  21  23
HETATM   23  N3  UNL     1       3.764  -0.264   0.533  1.00  0.00    -0.309 N 
HETATM   24  C12 UNL     1       4.937  -0.477   0.845  1.00  0.00     0.118 C 
ATOM     25  H3  UNL     1       3.103  -0.839   1.055  1.00  0.00     0.186 HD
BRANCH  24  26
HETATM   26  C13 UNL     1       6.121   0.117   0.348  1.00  0.00    -0.019 A 
HETATM   27  C14 UNL     1       6.145   1.077  -0.615  1.00  0.00     0.013 A 
HETATM   28  C15 UNL     1       7.329   1.641  -1.084  1.00  0.00     0.001 A 
HETATM   29  C16 UNL     1       8.509   1.202  -0.544  1.00  0.00     0.000 A 
HETATM   30  C17 UNL     1       8.557   0.227   0.439  1.00  0.00     0.001 A 
HETATM   31  C18 UNL     1       7.356  -0.289   0.858  1.00  0.00     0.013 A 
ENDBRANCH  24  26
ENDBRANCH  21  23
ENDBRANCH   4  21
TORSDOF 7
