REMARK  13 active torsions:
REMARK  status: ('A' for Active; 'I' for Inactive)
REMARK       I    between atoms: C1_4  and  N2_5 
REMARK       I    between atoms: C1_4  and  N4_10 
REMARK    1  A    between atoms: N2_5  and  N3_7 
REMARK    2  A    between atoms: N4_10  and  N5_12 
REMARK       I    between atoms: N5_12  and  C2_14 
REMARK    3  A    between atoms: C2_14  and  C3_16 
REMARK    4  A    between atoms: C3_16  and  N6_17 
REMARK    5  A    between atoms: C3_16  and  C4_21 
REMARK    6  A    between atoms: C3_16  and  C5_24 
REMARK    7  A    between atoms: C4_21  and  O2_22 
REMARK    8  A    between atoms: C5_24  and  C6_26 
REMARK    9  A    between atoms: C6_26  and  C7_27 
REMARK   10  A    between atoms: C7_27  and  O4_28 
REMARK   11  A    between atoms: O4_28  and  C8_29 
REMARK   12  A    between atoms: C9_30  and  S1_31 
REMARK   13  A    between atoms: S1_31  and  N7_32 
ROOT
HETATM    1  C3  UNL     1       1.254  -1.827   0.005  1.00  0.00     0.284 C 
ENDROOT
BRANCH   1   2
HETATM    2  C2  UNL     1       2.649  -1.505  -0.416  1.00  0.00     0.282 C 
HETATM    3  N5  UNL     1       3.581  -0.787   0.370  1.00  0.00    -0.253 N 
ATOM      4  H5  UNL     1       3.294  -0.459   1.292  1.00  0.00     0.190 HD
HETATM    5  O1  UNL     1       3.094  -1.880  -1.563  1.00  0.00    -0.268 OA
BRANCH   3   6
HETATM    6  N4  UNL     1       4.878  -0.510  -0.066  1.00  0.00    -0.129 N 
HETATM    7  C1  UNL     1       5.708   0.433   0.578  1.00  0.00     0.704 C 
HETATM    8  N1  UNL     1       6.766   0.076   1.219  1.00  0.00    -0.232 N 
HETATM    9  N2  UNL     1       5.369   1.802   0.510  1.00  0.00    -0.138 N 
ATOM     10  H12 UNL     1       7.366   0.757   1.684  1.00  0.00     0.174 HD
ATOM     11  H11 UNL     1       7.011  -0.913   1.268  1.00  0.00     0.174 HD
ATOM     12  H2  UNL     1       4.390   2.085   0.556  1.00  0.00     0.205 HD
ATOM     13  H4  UNL     1       5.239  -1.007  -0.880  1.00  0.00     0.205 HD
BRANCH   9  14
HETATM   14  N3  UNL     1       6.360   2.765   0.381  1.00  0.00    -0.331 N 
ATOM     15  H32 UNL     1       7.334   2.465   0.336  1.00  0.00     0.177 HD
ATOM     16  H31 UNL     1       6.115   3.754   0.332  1.00  0.00     0.177 HD
ENDBRANCH   9  14
ENDBRANCH   3   6
ENDBRANCH   1   2
BRANCH   1  17
HETATM   17  N6  UNL     1       0.653  -2.474  -1.174  1.00  0.00    -0.052 N 
ATOM     18  H63 UNL     1       0.713  -1.920  -2.028  1.00  0.00     0.276 HD
ATOM     19  H62 UNL     1       1.178  -3.276  -1.522  1.00  0.00     0.276 HD
ATOM     20  H61 UNL     1      -0.300  -2.694  -0.886  1.00  0.00     0.276 HD
ENDBRANCH   1  17
BRANCH   1  21
HETATM   21  C4  UNL     1       1.269  -2.716   1.207  1.00  0.00     0.221 C 
BRANCH  21  22
HETATM   22  O2  UNL     1       1.991  -3.871   1.034  1.00  0.00    -0.397 OA
ATOM     23  H2  UNL     1       2.001  -4.436   1.798  1.00  0.00     0.209 HD
ENDBRANCH  21  22
ENDBRANCH   1  21
BRANCH   1  24
HETATM   24  C5  UNL     1       0.481  -0.574   0.264  1.00  0.00     0.176 C 
HETATM   25  O3  UNL     1       0.601  -0.092   1.388  1.00  0.00    -0.295 OA
BRANCH  24  26
HETATM   26  C6  UNL     1      -0.377   0.056  -0.761  1.00  0.00     0.108 C 
BRANCH  26  27
HETATM   27  C7  UNL     1      -1.157   1.197  -0.233  1.00  0.00     0.183 C 
BRANCH  27  28
HETATM   28  O4  UNL     1      -2.165   0.994   0.701  1.00  0.00    -0.343 OA
BRANCH  28  29
HETATM   29  C8  UNL     1      -3.349   0.338   0.308  1.00  0.00     0.177 A 
HETATM   30  C9  UNL     1      -4.377   1.157  -0.084  1.00  0.00     0.192 A 
HETATM   31  N8  UNL     1      -5.546   0.565  -0.499  1.00  0.00    -0.295 N 
HETATM   32  C10 UNL     1      -5.718  -0.759  -0.531  1.00  0.00     0.328 A 
ATOM     33  H8  UNL     1      -6.317   1.164  -0.796  1.00  0.00     0.171 HD
HETATM   34  O7  UNL     1      -6.832  -1.259  -0.928  1.00  0.00    -0.247 OA
HETATM   35  N9  UNL     1      -4.697  -1.515  -0.135  1.00  0.00    -0.273 N 
HETATM   36  C11 UNL     1      -3.497  -1.034   0.292  1.00  0.00     0.285 A 
ATOM     37  H9  UNL     1      -4.822  -2.527  -0.153  1.00  0.00     0.173 HD
HETATM   38  O8  UNL     1      -2.597  -1.801   0.650  1.00  0.00    -0.265 OA
BRANCH  30  39
HETATM   39  S1  UNL     1      -4.352   2.881   0.077  1.00  0.00     0.275 S 
HETATM   40  O5  UNL     1      -3.121   3.603  -0.180  1.00  0.00    -0.199 OA
HETATM   41  O6  UNL     1      -4.646   3.115   1.593  1.00  0.00    -0.199 OA
BRANCH  39  42
HETATM   42  N7  UNL     1      -5.769   3.582  -0.672  1.00  0.00    -0.323 N 
ATOM     43  H72 UNL     1      -6.498   3.039  -1.134  1.00  0.00     0.169 HD
ATOM     44  H71 UNL     1      -5.754   4.597  -0.577  1.00  0.00     0.169 HD
ENDBRANCH  39  42
ENDBRANCH  30  39
ENDBRANCH  28  29
ENDBRANCH  27  28
ENDBRANCH  26  27
ENDBRANCH  24  26
ENDBRANCH   1  24
TORSDOF 13
