REMARK  14 active torsions:
REMARK  status: ('A' for Active; 'I' for Inactive)
REMARK    1  A    between atoms: N1_1  and  N2_4 
REMARK       I    between atoms: N2_4  and  C1_6 
REMARK    2  A    between atoms: C1_6  and  C2_8 
REMARK    3  A    between atoms: C2_8  and  C3_9 
REMARK    4  A    between atoms: C3_9  and  C4_10 
REMARK    5  A    between atoms: C3_9  and  N12_41 
REMARK    6  A    between atoms: C4_10  and  C5_11 
REMARK    7  A    between atoms: C5_11  and  N3_12 
REMARK    8  A    between atoms: C5_11  and  C6_16 
REMARK    9  A    between atoms: C6_16  and  O2_17 
REMARK   10  A    between atoms: C6_16  and  N4_19 
REMARK   11  A    between atoms: N4_19  and  C7_21 
REMARK   12  A    between atoms: C8_24  and  C9_25 
REMARK   13  A    between atoms: C11_29  and  N7_30 
REMARK   14  A    between atoms: N7_30  and  C12_32 
REMARK       I    between atoms: N12_41  and  C14_43 
ROOT
HETATM    1  C6  UNL     1      -0.418  -0.613  -1.141  1.00  0.00     0.265 C 
ENDROOT
BRANCH   1   2
HETATM    2  C5  UNL     1      -1.815  -1.156  -0.915  1.00  0.00     0.234 C 
BRANCH   2   3
HETATM    3  C4  UNL     1      -2.467  -0.580   0.315  1.00  0.00     0.063 C 
BRANCH   3   4
HETATM    4  C3  UNL     1      -3.882  -1.053   0.367  1.00  0.00     0.096 C 
BRANCH   4   5
HETATM    5  C2  UNL     1      -4.720  -0.661  -0.802  1.00  0.00     0.129 C 
BRANCH   5   6
HETATM    6  C1  UNL     1      -4.858   0.782  -1.018  1.00  0.00     0.237 C 
HETATM    7  N2  UNL     1      -5.635   1.232  -2.119  1.00  0.00    -0.277 N 
ATOM      8  H2  UNL     1      -6.072   0.536  -2.724  1.00  0.00     0.189 HD
HETATM    9  O1  UNL     1      -4.335   1.676  -0.296  1.00  0.00    -0.272 OA
BRANCH   7  10
HETATM   10  N1  UNL     1      -5.828   2.587  -2.411  1.00  0.00    -0.343 N 
ATOM     11  H12 UNL     1      -5.384   3.269  -1.796  1.00  0.00     0.176 HD
ATOM     12  H11 UNL     1      -6.386   2.910  -3.201  1.00  0.00     0.176 HD
ENDBRANCH   7  10
ENDBRANCH   5   6
ENDBRANCH   4   5
BRANCH   4  13
HETATM   13  N12 UNL     1      -4.556  -0.713   1.588  1.00  0.00    -0.340 N 
HETATM   14  C14 UNL     1      -5.028  -1.664   2.517  1.00  0.00     0.329 C 
HETATM   15  N13 UNL     1      -5.686  -1.272   3.703  1.00  0.00    -0.040 NA
HETATM   16  O4  UNL     1      -4.866  -2.883   2.293  1.00  0.00    -0.251 OA
ATOM     17  H12 UNL     1      -4.702   0.275   1.796  1.00  0.00     0.164 HD
ENDBRANCH   4  13
ENDBRANCH   3   4
ENDBRANCH   2   3
BRANCH   2  18
HETATM   18  N3  UNL     1      -1.832  -2.600  -0.882  1.00  0.00    -0.071 N 
ATOM     19  H33 UNL     1      -1.409  -2.962  -0.027  1.00  0.00     0.274 HD
ATOM     20  H32 UNL     1      -2.777  -2.962  -0.752  1.00  0.00     0.274 HD
ATOM     21  H31 UNL     1      -1.391  -2.990  -1.715  1.00  0.00     0.274 HD
ENDBRANCH   2  18
ENDBRANCH   1   2
BRANCH   1  22
HETATM   22  O2  UNL     1      -0.022  -1.145  -2.386  1.00  0.00    -0.374 OA
ATOM     23  H2  UNL     1       0.854  -0.805  -2.528  1.00  0.00     0.212 HD
ENDBRANCH   1  22
BRANCH   1  24
HETATM   24  N4  UNL     1       0.504  -1.012  -0.132  1.00  0.00    -0.198 N 
ATOM     25  H4  UNL     1       0.236  -1.710   0.561  1.00  0.00     0.180 HD
BRANCH  24  26
HETATM   26  C7  UNL     1       1.678  -0.485  -0.101  1.00  0.00     0.682 A 
HETATM   27  N5  UNL     1       2.067   0.435  -0.995  1.00  0.00    -0.187 N 
HETATM   28  C8  UNL     1       3.300   0.995  -0.971  1.00  0.00     0.117 A 
ATOM     29  H5  UNL     1       1.410   0.724  -1.720  1.00  0.00     0.184 HD
HETATM   30  C10 UNL     1       4.195   0.622  -0.009  1.00  0.00     0.084 A 
HETATM   31  C11 UNL     1       3.812  -0.326   0.922  1.00  0.00     0.126 A 
HETATM   32  N11 UNL     1       2.569  -0.858   0.858  1.00  0.00    -0.177 N 
ATOM     33  H11 UNL     1       2.293  -1.557   1.547  1.00  0.00     0.186 HD
BRANCH  28  34
HETATM   34  C9  UNL     1       3.632   1.976  -1.971  1.00  0.00     0.282 C 
HETATM   35  N6  UNL     1       2.742   2.400  -2.993  1.00  0.00    -0.056 NA
HETATM   36  O3  UNL     1       4.772   2.504  -1.961  1.00  0.00    -0.269 OA
ENDBRANCH  28  34
BRANCH  31  37
HETATM   37  N7  UNL     1       4.651  -0.682   1.832  1.00  0.00    -0.313 N 
ATOM     38  H7  UNL     1       4.400  -1.379   2.533  1.00  0.00     0.170 HD
BRANCH  37  39
HETATM   39  C12 UNL     1       5.941  -0.074   1.831  1.00  0.00     0.194 C 
HETATM   40  N8  UNL     1       6.980  -0.403   1.144  1.00  0.00    -0.346 N 
HETATM   41  C13 UNL     1       8.093   0.474   1.438  1.00  0.00     0.259 C 
ATOM     42  H8  UNL     1       7.014  -1.178   0.482  1.00  0.00     0.163 HD
HETATM   43  N9  UNL     1       7.716   1.215   2.628  1.00  0.00    -0.119 NA
HETATM   44  N10 UNL     1       6.328   1.049   2.617  1.00  0.00    -0.274 N 
ATOM     45  H10 UNL     1       5.674   1.656   3.110  1.00  0.00     0.185 HD
ENDBRANCH  37  39
ENDBRANCH  31  37
ENDBRANCH  24  26
ENDBRANCH   1  24
TORSDOF 14
