REMARK  14 active torsions:
REMARK  status: ('A' for Active; 'I' for Inactive)
REMARK    1  A    between atoms: N1_1  and  N2_4 
REMARK    2  A    between atoms: N2_4  and  C1_5 
REMARK    3  A    between atoms: C1_5  and  C2_6 
REMARK    4  A    between atoms: C1_5  and  C14_38 
REMARK       I    between atoms: C2_6  and  N3_8 
REMARK       I    between atoms: N3_8  and  C3_10 
REMARK    5  A    between atoms: C3_10  and  C4_12 
REMARK    6  A    between atoms: C4_12  and  N4_13 
REMARK    7  A    between atoms: C4_12  and  C13_35 
REMARK       I    between atoms: N4_13  and  C5_15 
REMARK    8  A    between atoms: C5_15  and  C6_17 
REMARK    9  A    between atoms: C9_21  and  C10_22 
REMARK   10  A    between atoms: C10_22  and  O4_23 
REMARK   11  A    between atoms: C10_22  and  O5_25 
REMARK   12  A    between atoms: C11_27  and  N6_28 
REMARK   13  A    between atoms: C14_38  and  O8_39 
REMARK   14  A    between atoms: C14_38  and  O9_41 
ROOT
HETATM    1  N4  UNL     1       0.255   0.007   0.009  1.00  0.00    -0.337 N 
ATOM      2  H4  UNL     1       0.049   0.631   0.789  1.00  0.00     0.164 HD
HETATM    3  C5  UNL     1      -0.706  -0.127  -0.993  1.00  0.00     0.245 C 
HETATM    4  O3  UNL     1      -0.495  -0.899  -1.995  1.00  0.00    -0.271 OA
ENDROOT
BRANCH   1   5
HETATM    5  C4  UNL     1       1.535  -0.690   0.009  1.00  0.00     0.279 C 
BRANCH   5   6
HETATM    6  C3  UNL     1       2.668   0.237   0.084  1.00  0.00     0.257 C 
HETATM    7  N3  UNL     1       3.996  -0.241   0.043  1.00  0.00    -0.294 N 
HETATM    8  C2  UNL     1       5.133   0.575   0.115  1.00  0.00     0.250 C 
ATOM      9  H3  UNL     1       4.137  -1.247  -0.045  1.00  0.00     0.171 HD
HETATM   10  O1  UNL     1       4.997   1.815   0.224  1.00  0.00    -0.271 OA
HETATM   11  O2  UNL     1       2.482   1.468   0.186  1.00  0.00    -0.270 OA
BRANCH   8  12
HETATM   12  C1  UNL     1       6.495   0.010   0.065  1.00  0.00     0.245 C 
BRANCH  12  13
HETATM   13  N2  UNL     1       7.515   1.033   0.152  1.00  0.00    -0.129 NA
BRANCH  13  14
HETATM   14  N1  UNL     1       7.415   1.750   1.341  1.00  0.00    -0.347 N 
ATOM     15  H12 UNL     1       6.707   1.566   2.051  1.00  0.00     0.172 HD
ATOM     16  H11 UNL     1       8.134   2.471   1.402  1.00  0.00     0.172 HD
ENDBRANCH  13  14
ENDBRANCH  12  13
BRANCH  12  17
HETATM   17  C14 UNL     1       6.697  -0.872  -1.153  1.00  0.00     0.284 C 
BRANCH  17  18
HETATM   18  O8  UNL     1       6.648  -0.144  -2.338  1.00  0.00    -0.369 OA
ATOM     19  H8  UNL     1       6.774  -0.696  -3.101  1.00  0.00     0.212 HD
ENDBRANCH  17  18
BRANCH  17  20
HETATM   20  O9  UNL     1       7.927  -1.516  -1.089  1.00  0.00    -0.369 OA
ATOM     21  H9  UNL     1       8.053  -2.068  -1.852  1.00  0.00     0.212 HD
ENDBRANCH  17  20
ENDBRANCH  12  17
ENDBRANCH   8  12
ENDBRANCH   5   6
BRANCH   5  22
HETATM   22  C13 UNL     1       1.521  -1.530   1.251  1.00  0.00     0.206 C 
HETATM   23  O6  UNL     1       0.582  -1.559   2.064  1.00  0.00    -0.646 OA
HETATM   24  O7  UNL     1       2.625  -2.321   1.502  1.00  0.00    -0.646 OA
ENDBRANCH   5  22
ENDBRANCH   1   5
BRANCH   3  25
HETATM   25  C6  UNL     1      -1.970   0.613  -0.915  1.00  0.00     0.206 C 
HETATM   26  C7  UNL     1      -2.642   0.299   0.374  1.00  0.00     0.031 C 
HETATM   27  C8  UNL     1      -3.940   0.733   0.805  1.00  0.00     0.034 C 
HETATM   28  N5  UNL     1      -4.003   2.200   1.029  1.00  0.00    -0.107 NA
HETATM   29  C9  UNL     1      -5.255   0.182   0.357  1.00  0.00     0.131 C 
HETATM   30  C11 UNL     1      -5.371   0.014  -1.192  1.00  0.00     0.285 C 
HETATM   31  C12 UNL     1      -4.069   0.134  -1.697  1.00  0.00    -0.040 C 
HETATM   32  N7  UNL     1      -2.805   0.303  -2.121  1.00  0.00    -0.341 N 
ATOM     33  H7  UNL     1      -2.475   0.233  -3.084  1.00  0.00     0.170 HD
BRANCH  29  34
HETATM   34  C10 UNL     1      -5.607  -1.131   1.016  1.00  0.00     0.266 C 
BRANCH  34  35
HETATM   35  O4  UNL     1      -6.841  -1.588   0.555  1.00  0.00    -0.371 OA
ATOM     36  H4  UNL     1      -7.062  -2.414   0.969  1.00  0.00     0.212 HD
ENDBRANCH  34  35
BRANCH  34  37
HETATM   37  O5  UNL     1      -5.684  -1.041   2.383  1.00  0.00    -0.371 OA
ATOM     38  H5  UNL     1      -5.905  -1.867   2.797  1.00  0.00     0.212 HD
ENDBRANCH  34  37
ENDBRANCH  29  34
BRANCH  30  39
HETATM   39  N6  UNL     1      -6.353   0.996  -1.703  1.00  0.00    -0.063 N 
ATOM     40  H63 UNL     1      -7.256   0.925  -1.234  1.00  0.00     0.275 HD
ATOM     41  H62 UNL     1      -6.127   1.952  -1.430  1.00  0.00     0.275 HD
ATOM     42  H61 UNL     1      -6.429   0.886  -2.714  1.00  0.00     0.275 HD
ENDBRANCH  30  39
ENDBRANCH   3  25
TORSDOF 14
