REMARK  13 active torsions:
REMARK  status: ('A' for Active; 'I' for Inactive)
REMARK    1  A    between atoms: C2_2  and  C3_3 
REMARK    2  A    between atoms: C3_3  and  N1_4 
REMARK       I    between atoms: N1_4  and  C4_6 
REMARK       I    between atoms: C4_6  and  N2_8 
REMARK    3  A    between atoms: N2_8  and  C5_10 
REMARK    4  A    between atoms: C5_10  and  C6_11 
REMARK    5  A    between atoms: C5_10  and  N5_20 
REMARK    6  A    between atoms: C6_11  and  N3_12 
REMARK    7  A    between atoms: C6_11  and  N4_16 
REMARK    8  A    between atoms: C7_21  and  C8_22 
REMARK    9  A    between atoms: C8_22  and  O2_23 
REMARK   10  A    between atoms: C8_22  and  N6_25 
REMARK       I    between atoms: N6_25  and  C9_27 
REMARK       I    between atoms: C9_27  and  N7_28 
REMARK       I    between atoms: C9_27  and  N8_32 
REMARK   11  A    between atoms: C10_36  and  C11_37 
REMARK   12  A    between atoms: C12_40  and  O5_41 
REMARK   13  A    between atoms: C13_43  and  O6_44 
ROOT
HETATM    1  N5  UNL     1      -1.126  -1.325   1.008  1.00  0.00    -0.326 N 
HETATM    2  C7  UNL     1      -1.865  -0.373   0.142  1.00  0.00     0.101 C 
HETATM    3  C10 UNL     1      -2.280  -0.925  -0.980  1.00  0.00     0.081 C 
HETATM    4  C12 UNL     1      -1.917  -2.359  -1.302  1.00  0.00     0.208 C 
HETATM    5  C13 UNL     1      -1.901  -3.297  -0.167  1.00  0.00     0.207 C 
HETATM    6  C14 UNL     1      -3.234  -3.704   0.306  1.00  0.00     0.261 C 
HETATM    7  O7  UNL     1      -4.067  -4.626   0.130  1.00  0.00    -0.270 OA
HETATM    8  N9  UNL     1      -3.256  -2.556   1.127  1.00  0.00    -0.334 N 
ATOM      9  H9  UNL     1      -3.980  -1.952   1.516  1.00  0.00     0.164 HD
HETATM   10  C15 UNL     1      -1.817  -2.605   1.179  1.00  0.00     0.236 C 
ENDROOT
BRANCH   1  11
HETATM   11  C5  UNL     1       0.136  -0.985   1.552  1.00  0.00     0.248 C 
BRANCH  11  12
HETATM   12  N2  UNL     1       1.177  -0.875   0.526  1.00  0.00    -0.318 N 
HETATM   13  C4  UNL     1       1.996   0.260   0.396  1.00  0.00     0.317 C 
HETATM   14  N1  UNL     1       2.997   0.343  -0.605  1.00  0.00    -0.343 N 
HETATM   15  O1  UNL     1       1.852   1.233   1.174  1.00  0.00    -0.247 OA
ATOM     16  H1  UNL     1       3.121  -0.444  -1.242  1.00  0.00     0.164 HD
ATOM     17  H2  UNL     1       1.313  -1.653  -0.119  1.00  0.00     0.166 HD
BRANCH  14  18
HETATM   18  C3  UNL     1       3.850   1.503  -0.756  1.00  0.00     0.124 C 
BRANCH  18  19
HETATM   19  C2  UNL     1       4.808   1.294  -1.900  1.00  0.00     0.015 C 
HETATM   20  C1  UNL     1       5.724   2.478  -2.101  1.00  0.00     0.006 C 
ENDBRANCH  18  19
ENDBRANCH  14  18
ENDBRANCH  11  12
BRANCH  11  21
HETATM   21  C6  UNL     1       0.616  -2.061   2.552  1.00  0.00     0.419 C 
BRANCH  21  22
HETATM   22  N3  UNL     1       1.901  -1.579   3.066  1.00  0.00    -0.047 N 
ATOM     23  H33 UNL     1       2.580  -1.368   2.335  1.00  0.00     0.276 HD
ATOM     24  H32 UNL     1       1.856  -0.641   3.465  1.00  0.00     0.276 HD
ATOM     25  H31 UNL     1       2.218  -2.289   3.726  1.00  0.00     0.276 HD
ENDBRANCH  21  22
BRANCH  21  26
HETATM   26  N4  UNL     1      -0.259  -2.076   3.722  1.00  0.00    -0.047 N 
ATOM     27  H43 UNL     1      -0.335  -1.156   4.156  1.00  0.00     0.276 HD
ATOM     28  H42 UNL     1      -1.239  -2.200   3.466  1.00  0.00     0.276 HD
ATOM     29  H41 UNL     1       0.058  -2.786   4.382  1.00  0.00     0.276 HD
ENDBRANCH  21  26
ENDBRANCH  11  21
ENDBRANCH   1  11
BRANCH   2  30
HETATM   30  C8  UNL     1      -1.759   1.011   0.437  1.00  0.00     0.167 C 
BRANCH  30  31
HETATM   31  O2  UNL     1      -1.566   1.336   1.712  1.00  0.00    -0.345 OA
ATOM     32  H2  UNL     1      -1.495   2.263   1.909  1.00  0.00     0.219 HD
ENDBRANCH  30  31
BRANCH  30  33
HETATM   33  N6  UNL     1      -1.790   2.167  -0.336  1.00  0.00    -0.320 N 
HETATM   34  C9  UNL     1      -1.672   3.518   0.277  1.00  0.00     0.482 C 
HETATM   35  N7  UNL     1      -0.493   4.151  -0.282  1.00  0.00    -0.033 N 
HETATM   36  N8  UNL     1      -2.806   4.342  -0.077  1.00  0.00    -0.033 N 
ATOM     37  H73 UNL     1       0.351   3.589  -0.170  1.00  0.00     0.278 HD
ATOM     38  H72 UNL     1      -0.502   4.177  -1.302  1.00  0.00     0.278 HD
ATOM     39  H71 UNL     1      -0.412   5.077   0.138  1.00  0.00     0.278 HD
ATOM     40  H83 UNL     1      -2.933   4.396  -1.088  1.00  0.00     0.278 HD
ATOM     41  H82 UNL     1      -3.689   3.893   0.165  1.00  0.00     0.278 HD
ATOM     42  H81 UNL     1      -2.725   5.268   0.343  1.00  0.00     0.278 HD
ATOM     43  H6  UNL     1      -1.896   2.087  -1.347  1.00  0.00     0.165 HD
ENDBRANCH  30  33
ENDBRANCH   2  30
BRANCH   3  44
HETATM   44  C11 UNL     1      -3.055  -0.254  -1.991  1.00  0.00     0.210 C 
HETATM   45  O3  UNL     1      -3.309  -0.955  -3.042  1.00  0.00    -0.644 OA
HETATM   46  O4  UNL     1      -3.602   0.983  -2.071  1.00  0.00    -0.644 OA
ENDBRANCH   3  44
BRANCH   5  47
HETATM   47  O6  UNL     1      -1.028  -4.383  -0.294  1.00  0.00    -0.374 OA
ATOM     48  H6  UNL     1      -1.018  -4.988   0.438  1.00  0.00     0.211 HD
ENDBRANCH   5  47
BRANCH   4  49
HETATM   49  O5  UNL     1      -2.770  -2.897  -2.262  1.00  0.00    -0.387 OA
ATOM     50  H5  UNL     1      -2.542  -3.797  -2.464  1.00  0.00     0.210 HD
ENDBRANCH   4  49
TORSDOF 13
