REMARK  8 active torsions:
REMARK  status: ('A' for Active; 'I' for Inactive)
REMARK    1  A    between atoms: C2_2  and  O1_3 
REMARK    2  A    between atoms: O1_3  and  C3_4 
REMARK    3  A    between atoms: C3_4  and  C4_6 
REMARK    4  A    between atoms: C5_8  and  C6_9 
REMARK       I    between atoms: C6_9  and  N1_11 
REMARK    5  A    between atoms: N1_11  and  N2_13 
REMARK    6  A    between atoms: C12_22  and  C13_23 
REMARK    7  A    between atoms: C13_23  and  O5_25 
REMARK    8  A    between atoms: O5_25  and  C14_26 
ROOT
HETATM    1  C4  UNL     1      -2.558   1.801   1.638  1.00  0.00     0.088 A 
HETATM    2  S1  UNL     1      -1.598   2.608   0.495  1.00  0.00    -0.077 SA
HETATM    3  C5  UNL     1      -0.591   1.270  -0.014  1.00  0.00     0.092 A 
HETATM    4  C12 UNL     1      -1.067   0.255   0.747  1.00  0.00     0.069 A 
HETATM    5  C16 UNL     1      -2.092   0.522   1.611  1.00  0.00    -0.021 A 
HETATM    6  C17 UNL     1      -2.717  -0.543   2.525  1.00  0.00     0.051 C 
ENDROOT
BRANCH   3   7
HETATM    7  C6  UNL     1       0.455   1.393  -1.021  1.00  0.00     0.278 C 
HETATM    8  O3  UNL     1       0.627   2.566  -1.542  1.00  0.00    -0.265 OA
HETATM    9  N1  UNL     1       1.288   0.376  -1.481  1.00  0.00    -0.264 N 
ATOM     10  H1  UNL     1       1.199  -0.570  -1.109  1.00  0.00     0.190 HD
BRANCH   9  11
HETATM   11  N2  UNL     1       2.278   0.672  -2.489  1.00  0.00    -0.286 N 
HETATM   12  C7  UNL     1       3.407   0.068  -2.396  1.00  0.00     0.091 C 
HETATM   13  C8  UNL     1       3.636  -0.882  -1.285  1.00  0.00     0.077 C 
HETATM   14  N3  UNL     1       4.394   0.347  -3.380  1.00  0.00    -0.379 N 
HETATM   15  C9  UNL     1       5.058  -1.297  -1.122  1.00  0.00     0.009 C 
HETATM   16  C10 UNL     1       5.873  -1.235  -2.376  1.00  0.00     0.020 C 
HETATM   17  C11 UNL     1       5.770   0.073  -3.091  1.00  0.00     0.121 C 
ATOM     18  H3  UNL     1       4.125   0.738  -4.283  1.00  0.00     0.160 HD
ATOM     19  H2  UNL     1       2.089   1.333  -3.243  1.00  0.00     0.188 HD
ENDBRANCH   9  11
ENDBRANCH   3   7
BRANCH   4  20
HETATM   20  C13 UNL     1      -0.486  -1.140   0.661  1.00  0.00     0.295 C 
HETATM   21  O4  UNL     1       0.463  -1.481   1.399  1.00  0.00    -0.259 OA
BRANCH  20  22
HETATM   22  O5  UNL     1      -1.001  -2.060  -0.236  1.00  0.00    -0.318 OA
BRANCH  22  23
HETATM   23  C14 UNL     1      -0.544  -3.364  -0.393  1.00  0.00     0.174 C 
HETATM   24  C15 UNL     1      -1.353  -4.053  -1.463  1.00  0.00     0.034 C 
ENDBRANCH  22  23
ENDBRANCH  20  22
ENDBRANCH   4  20
BRANCH   1  25
HETATM   25  C3  UNL     1      -3.653   2.360   2.476  1.00  0.00     0.300 C 
HETATM   26  O2  UNL     1      -4.231   1.584   3.255  1.00  0.00    -0.259 OA
BRANCH  25  27
HETATM   27  O1  UNL     1      -4.015   3.672   2.396  1.00  0.00    -0.317 OA
BRANCH  27  28
HETATM   28  C2  UNL     1      -5.064   4.144   3.218  1.00  0.00     0.174 C 
HETATM   29  C1  UNL     1      -6.368   3.435   2.970  1.00  0.00     0.034 C 
ENDBRANCH  27  28
ENDBRANCH  25  27
ENDBRANCH   1  25
TORSDOF 8
