REMARK  2 active torsions:
REMARK  status: ('A' for Active; 'I' for Inactive)
REMARK    1  A    between atoms: N1_2  and  C2_4 
REMARK    2  A    between atoms: C6_8  and  N2_9 
ROOT
HETATM    1  C2  UNL     1       0.806  -0.467   0.215  1.00  0.00     0.078 C 
HETATM    2  C3  UNL     1       0.096  -1.587  -0.473  1.00  0.00     0.025 C 
HETATM    3  C4  UNL     1      -1.360  -1.405  -0.669  1.00  0.00     0.004 C 
HETATM    4  C5  UNL     1      -2.035  -0.507   0.320  1.00  0.00     0.033 C 
HETATM    5  C6  UNL     1      -1.311   0.777   0.563  1.00  0.00     0.185 C 
HETATM    6  C7  UNL     1       0.073   0.829   0.002  1.00  0.00     0.057 C 
ENDROOT
BRANCH   5   7
HETATM    7  N2  UNL     1      -2.060   1.892  -0.023  1.00  0.00    -0.075 N 
ATOM      8  H23 UNL     1      -2.254   1.744  -1.013  1.00  0.00     0.274 HD
ATOM      9  H22 UNL     1      -3.022   1.926   0.314  1.00  0.00     0.274 HD
ATOM     10  H21 UNL     1      -1.566   2.769   0.143  1.00  0.00     0.274 HD
ENDBRANCH   5   7
BRANCH   1  11
HETATM   11  N1  UNL     1       2.157  -0.431  -0.259  1.00  0.00    -0.421 N 
HETATM   12  C1  UNL     1       3.010   0.504   0.399  1.00  0.00     0.140 C 
ATOM     13  H1  UNL     1       2.486  -1.032  -1.014  1.00  0.00     0.153 HD
ENDBRANCH   1  11
TORSDOF 2
