REMARK  1 active torsions:
REMARK  status: ('A' for Active; 'I' for Inactive)
REMARK    1  A    between atoms: C5_8  and  C6_9 
ROOT
HETATM    1  C1  UNL     1      -2.636   0.682  -1.331  1.00  0.00     0.041 C 
HETATM    2  C2  UNL     1      -1.702   0.324  -0.215  1.00  0.00     0.208 C 
HETATM    3  C3  UNL     1      -2.139  -0.960   0.413  1.00  0.00     0.264 C 
HETATM    4  N1  UNL     1      -1.202  -1.496   1.366  1.00  0.00    -0.071 N 
ATOM      5  H11 UNL     1      -1.458  -2.445   1.639  1.00  0.00     0.277 HD
ATOM      6  H12 UNL     1      -1.295  -1.035   2.271  1.00  0.00     0.277 HD
HETATM    7  C4  UNL     1       0.175  -1.440   0.886  1.00  0.00     0.265 C 
HETATM    8  C5  UNL     1       0.457  -0.019   0.541  1.00  0.00     0.215 C 
HETATM    9  N2  UNL     1      -0.310   0.289  -0.653  1.00  0.00    -0.064 N 
ATOM     10  H21 UNL     1      -0.007   1.138  -1.130  1.00  0.00     0.278 HD
ATOM     11  H22 UNL     1      -0.138  -0.350  -1.429  1.00  0.00     0.278 HD
ENDROOT
BRANCH   8  12
HETATM   12  C6  UNL     1       1.909   0.309   0.399  1.00  0.00     0.010 C 
HETATM   13  C7  UNL     1       2.599  -0.481  -0.670  1.00  0.00     0.011 C 
HETATM   14  C8  UNL     1       2.062   1.776   0.094  1.00  0.00     0.011 C 
ENDBRANCH   8  12
TORSDOF 1
