REMARK  11 active torsions:
REMARK  status: ('A' for Active; 'I' for Inactive)
REMARK    1  A    between atoms: C2_2  and  N1_4 
REMARK    2  A    between atoms: C2_2  and  C4_8 
REMARK    3  A    between atoms: C5_9  and  C6_10 
REMARK    4  A    between atoms: C10_15  and  O1_16 
REMARK    5  A    between atoms: O1_16  and  C11_17 
REMARK    6  A    between atoms: N2_20  and  C14_21 
REMARK    7  A    between atoms: C14_21  and  C17_24 
REMARK    8  A    between atoms: C19_27  and  C20_28 
REMARK    9  A    between atoms: C20_28  and  N4_29 
REMARK   10  A    between atoms: C20_28  and  C21_33 
REMARK   11  A    between atoms: C21_33  and  N5_34 
ROOT
HETATM    1  C17 UNL     1      -4.623  -0.548   0.716  1.00  0.00     0.058 C 
HETATM    2  C18 UNL     1      -5.001   0.452   1.709  1.00  0.00     0.097 C 
HETATM    3  N3  UNL     1      -5.323   1.235   2.509  1.00  0.00    -0.192 NA
HETATM    4  C19 UNL     1      -5.580  -1.093   0.025  1.00  0.00     0.028 C 
ENDROOT
BRANCH   1   5
HETATM    5  C14 UNL     1      -3.226  -0.919   0.485  1.00  0.00     0.189 C 
HETATM    6  C15 UNL     1      -3.170  -2.063  -0.502  1.00  0.00     0.055 C 
HETATM    7  C16 UNL     1      -2.671  -1.412   1.804  1.00  0.00     0.055 C 
BRANCH   5   8
HETATM    8  N2  UNL     1      -2.438   0.147  -0.090  1.00  0.00     0.105 N 
HETATM    9  C13 UNL     1      -1.979   1.136   0.822  1.00  0.00     0.276 C 
HETATM   10  C12 UNL     1      -0.947   1.901   0.033  1.00  0.00     0.064 C 
HETATM   11  C11 UNL     1      -0.296   0.826  -0.808  1.00  0.00     0.159 C 
HETATM   12  C22 UNL     1      -1.187  -0.391  -0.596  1.00  0.00     0.306 C 
BRANCH  11  13
HETATM   13  O1  UNL     1       0.998   0.661  -0.328  1.00  0.00    -0.343 OA
BRANCH  13  14
HETATM   14  C10 UNL     1       2.188   0.797  -0.982  1.00  0.00     0.088 A 
HETATM   15  C9  UNL     1       2.227   1.136  -2.310  1.00  0.00     0.040 A 
HETATM   16  C8  UNL     1       3.444   1.267  -2.940  1.00  0.00     0.028 A 
HETATM   17  C7  UNL     1       4.613   1.060  -2.246  1.00  0.00     0.054 A 
HETATM   18  C6  UNL     1       4.588   0.716  -0.903  1.00  0.00     0.059 A 
HETATM   19 CL1  UNL     1       6.157   1.232  -3.071  1.00  0.00    -0.083 Cl
HETATM   20  C23 UNL     1       3.362   0.589  -0.288  1.00  0.00     0.064 A 
HETATM   21 BR1  UNL     1       3.348   0.107   1.565  1.00  0.00    -0.046 Br
BRANCH  18  22
HETATM   22  C5  UNL     1       5.841   0.512  -0.212  1.00  0.00    -0.061 C 
HETATM   23  C4  UNL     1       6.898   0.346   0.344  1.00  0.00    -0.062 C 
BRANCH  23  24
HETATM   24  C2  UNL     1       8.183   0.147   0.989  1.00  0.00     0.179 C 
HETATM   25  C1  UNL     1       8.338  -1.227   1.563  1.00  0.00     0.060 C 
HETATM   26  C3  UNL     1       9.326   0.364  -0.006  1.00  0.00     0.060 C 
BRANCH  24  27
HETATM   27  N1  UNL     1       8.347   1.159   2.006  1.00  0.00    -0.060 N 
ATOM     28  H13 UNL     1       7.714   1.007   2.792  1.00  0.00     0.276 HD
ATOM     29  H12 UNL     1       9.235   1.056   2.498  1.00  0.00     0.276 HD
ATOM     30  H11 UNL     1       8.241   2.095   1.615  1.00  0.00     0.276 HD
ENDBRANCH  24  27
ENDBRANCH  23  24
ENDBRANCH  18  22
ENDBRANCH  13  14
ENDBRANCH  11  13
ENDBRANCH   5   8
ENDBRANCH   1   5
BRANCH   4  31
HETATM   31  C20 UNL     1      -6.988  -0.713   0.265  1.00  0.00     0.232 C 
BRANCH  31  32
HETATM   32  N4  UNL     1      -7.908  -1.811   0.080  1.00  0.00    -0.070 N 
ATOM     33  H43 UNL     1      -7.796  -2.228  -0.844  1.00  0.00     0.275 HD
ATOM     34  H42 UNL     1      -7.643  -2.609   0.657  1.00  0.00     0.275 HD
ATOM     35  H41 UNL     1      -8.880  -1.549   0.246  1.00  0.00     0.275 HD
ENDBRANCH  31  32
BRANCH  31  36
HETATM   36  C21 UNL     1      -7.336   0.474  -0.608  1.00  0.00     0.266 C 
BRANCH  36  37
HETATM   37  N5  UNL     1      -8.722   0.840  -0.363  1.00  0.00    -0.077 N 
ATOM     38  H53 UNL     1      -9.362   0.057  -0.495  1.00  0.00     0.274 HD
ATOM     39  H52 UNL     1      -8.912   1.012   0.624  1.00  0.00     0.274 HD
ATOM     40  H51 UNL     1      -8.956   1.640  -0.951  1.00  0.00     0.274 HD
ENDBRANCH  36  37
ENDBRANCH  31  36
ENDBRANCH   4  31
TORSDOF 11
