REMARK  9 active torsions:
REMARK  status: ('A' for Active; 'I' for Inactive)
REMARK    1  A    between atoms: C2_2  and  C3_3 
REMARK    2  A    between atoms: C5_9  and  C6_10 
REMARK    3  A    between atoms: C8_14  and  N4_15 
REMARK    4  A    between atoms: N4_15  and  C9_17 
REMARK    5  A    between atoms: C9_17  and  C11_19 
REMARK    6  A    between atoms: C11_19  and  C12_20 
REMARK    7  A    between atoms: C20_31  and  C21_32 
REMARK    8  A    between atoms: C21_32  and  C22_33 
REMARK    9  A    between atoms: C22_33  and  C23_34 
ROOT
HETATM    1  C3  UNL     1      -4.544  -3.564   0.939  1.00  0.00     0.030 A 
HETATM    2  N1  UNL     1      -4.376  -4.856   1.196  1.00  0.00    -0.354 N 
ATOM      3  H1  UNL     1      -5.194  -5.466   1.213  1.00  0.00     0.166 HD
HETATM    4  C4  UNL     1      -3.169  -5.385   1.434  1.00  0.00     0.181 A 
HETATM    5  N2  UNL     1      -2.098  -4.580   1.411  1.00  0.00    -0.350 N 
ATOM      6  H2  UNL     1      -1.183  -4.992   1.593  1.00  0.00     0.166 HD
HETATM    7  C5  UNL     1      -2.161  -3.260   1.162  1.00  0.00     0.065 A 
HETATM    8  C20 UNL     1      -3.404  -2.748   0.922  1.00  0.00     0.068 A 
ENDROOT
BRANCH   7   9
HETATM    9  C6  UNL     1      -0.995  -2.407   1.124  1.00  0.00     0.011 A 
HETATM   10  C7  UNL     1       0.106  -2.747   0.349  1.00  0.00     0.103 A 
HETATM   11  N3  UNL     1       1.212  -1.981   0.316  1.00  0.00    -0.349 N 
HETATM   12  C8  UNL     1       1.364  -0.840   1.011  1.00  0.00     0.140 A 
ATOM     13  H3  UNL     1       1.986  -2.286  -0.275  1.00  0.00     0.167 HD
HETATM   14  C18 UNL     1       0.277  -0.464   1.804  1.00  0.00     0.160 A 
HETATM   15  F2  UNL     1       0.365   0.666   2.524  1.00  0.00    -0.202 F 
HETATM   16  C19 UNL     1      -0.873  -1.245   1.849  1.00  0.00     0.061 A 
BRANCH  12  17
HETATM   17  N4  UNL     1       2.412  -0.105   0.983  1.00  0.00    -0.366 N 
ATOM     18  H4  UNL     1       2.391   0.735   1.561  1.00  0.00     0.161 HD
BRANCH  17  19
HETATM   19  C9  UNL     1       3.603  -0.328   0.236  1.00  0.00     0.116 C 
HETATM   20  C10 UNL     1       4.654  -1.094   1.013  1.00  0.00     0.035 C 
BRANCH  19  21
HETATM   21  C11 UNL     1       4.213   1.006  -0.165  1.00  0.00     0.110 C 
HETATM   22  C13 UNL     1       5.336   0.768  -1.128  1.00  0.00     0.076 C 
HETATM   23  C14 UNL     1       5.986   2.084  -1.454  1.00  0.00    -0.083 C 
HETATM   24  C15 UNL     1       6.338   2.489  -2.822  1.00  0.00     0.043 C 
HETATM   25  C16 UNL     1       6.222   2.868  -0.393  1.00  0.00     0.002 C 
HETATM   26  C17 UNL     1       5.800   2.300   0.925  1.00  0.00     0.196 C 
HETATM   27  O1  UNL     1       4.534   1.780   0.916  1.00  0.00    -0.372 OA
BRANCH  21  28
HETATM   28  C12 UNL     1       3.126   1.764  -0.943  1.00  0.00     0.262 C 
HETATM   29  F1  UNL     1       2.768   1.021  -2.060  1.00  0.00    -0.252 F 
ENDBRANCH  21  28
ENDBRANCH  19  21
ENDBRANCH  17  19
ENDBRANCH  12  17
ENDBRANCH   7   9
BRANCH   8  30
HETATM   30  C21 UNL     1      -3.556  -1.358   0.615  1.00  0.00    -0.056 C 
BRANCH  30  31
HETATM   31  C22 UNL     1      -3.712  -0.171   0.329  1.00  0.00    -0.043 C 
BRANCH  31  32
HETATM   32  C23 UNL     1      -3.917   1.208   0.008  1.00  0.00     0.094 A 
HETATM   33  N5  UNL     1      -4.758   2.030   0.673  1.00  0.00    -0.335 N 
HETATM   34  C24 UNL     1      -4.915   3.318   0.331  1.00  0.00     0.099 A 
ATOM     35  H5  UNL     1      -5.291   1.660   1.460  1.00  0.00     0.168 HD
HETATM   36  N6  UNL     1      -5.724   4.073   0.984  1.00  0.00    -0.385 N 
HETATM   37  C25 UNL     1      -4.224   3.869  -0.721  1.00  0.00     0.048 A 
ATOM     38  H62 UNL     1      -6.237   3.664   1.765  1.00  0.00     0.157 HD
ATOM     39  H61 UNL     1      -5.843   5.052   0.724  1.00  0.00     0.157 HD
HETATM   40  C26 UNL     1      -3.360   3.070  -1.424  1.00  0.00     0.013 A 
HETATM   41  C27 UNL     1      -3.221   1.753  -1.048  1.00  0.00    -0.026 A 
HETATM   42  C28 UNL     1      -2.276   0.880  -1.819  1.00  0.00     0.051 C 
ENDBRANCH  31  32
ENDBRANCH  30  31
ENDBRANCH   8  30
BRANCH   1  43
HETATM   43  C2  UNL     1      -5.852  -2.932   0.668  1.00  0.00     0.054 C 
HETATM   44  C1  UNL     1      -6.055  -2.635  -0.798  1.00  0.00     0.011 C 
ENDBRANCH   1  43
TORSDOF 9
