REMARK  7 active torsions:
REMARK  status: ('A' for Active; 'I' for Inactive)
REMARK    1  A    between atoms: C2_2  and  C3_3 
REMARK    2  A    between atoms: C2_2  and  C4_5 
REMARK    3  A    between atoms: C4_5  and  C5_6 
REMARK    4  A    between atoms: N1_8  and  N2_10 
REMARK    5  A    between atoms: N2_10  and  C7_12 
REMARK    6  A    between atoms: C14_25  and  N6_26 
REMARK    7  A    between atoms: C18_31  and  C19_32 
ROOT
HETATM    1  C4  UNL     1       0.943   0.421  -0.855  1.00  0.00     0.067 C 
HETATM    2  C8  UNL     1       1.503   1.811  -0.472  1.00  0.00     0.029 C 
HETATM    3  C9  UNL     1       0.600   2.926  -0.281  1.00  0.00     0.032 C 
HETATM    4  C10 UNL     1      -0.853   2.776  -0.462  1.00  0.00     0.089 C 
HETATM    5  C11 UNL     1      -1.676   3.158   0.783  1.00  0.00     0.038 C 
HETATM    6  C12 UNL     1      -1.319   3.684  -1.502  1.00  0.00     0.075 C 
HETATM    7  N4  UNL     1      -1.688   4.395  -2.348  1.00  0.00    -0.196 NA
HETATM    8  C13 UNL     1      -1.246   1.339  -0.738  1.00  0.00     0.049 C 
HETATM    9  N5  UNL     1      -2.287   1.222  -1.430  1.00  0.00    -0.399 N 
ATOM     10  H51 UNL     1      -2.552   0.255  -1.616  1.00  0.00     0.156 HD
ATOM     11  H52 UNL     1      -2.913   1.917  -1.837  1.00  0.00     0.156 HD
HETATM   12  C14 UNL     1      -0.339   0.331  -0.148  1.00  0.00     0.050 C 
ENDROOT
BRANCH  12  13
HETATM   13  N6  UNL     1      -0.919  -0.829   0.336  1.00  0.00    -0.375 N 
HETATM   14  C15 UNL     1      -0.365  -1.574   1.366  1.00  0.00     0.125 C 
HETATM   15  C16 UNL     1      -1.165  -1.114   2.616  1.00  0.00     0.042 C 
HETATM   16  C17 UNL     1      -2.521  -1.353   2.038  1.00  0.00     0.106 C 
HETATM   17 CL1  UNL     1      -3.808  -0.546   2.910  1.00  0.00    -0.123 Cl
HETATM   18  C18 UNL     1      -2.309  -0.768   0.611  1.00  0.00     0.102 C 
BRANCH  18  19
HETATM   19  C19 UNL     1      -3.078  -1.735  -0.267  1.00  0.00     0.022 C 
HETATM   20  C20 UNL     1      -4.551  -1.646   0.044  1.00  0.00     0.007 C 
ENDBRANCH  18  19
ENDBRANCH  12  13
BRANCH   1  21
HETATM   21  C2  UNL     1       0.910   0.268  -2.351  1.00  0.00    -0.059 C 
HETATM   22  C1  UNL     1      -0.039  -0.534  -2.876  1.00  0.00     0.016 C 
BRANCH  21  23
HETATM   23  C3  UNL     1       1.876   0.777  -3.330  1.00  0.00     0.120 C 
HETATM   24 BR1  UNL     1       1.919   2.674  -3.604  1.00  0.00    -0.092 Br
ENDBRANCH  21  23
ENDBRANCH   1  21
BRANCH   1  25
HETATM   25  C5  UNL     1       2.075  -0.474  -0.386  1.00  0.00     0.019 C 
HETATM   26  C6  UNL     1       2.140  -1.899  -0.886  1.00  0.00     0.066 C 
HETATM   27  N1  UNL     1       3.007  -0.115   0.410  1.00  0.00    -0.306 N 
ATOM     28  H1  UNL     1       3.002   0.842   0.764  1.00  0.00     0.186 HD
BRANCH  27  29
HETATM   29  N2  UNL     1       4.029  -0.966   0.817  1.00  0.00    -0.279 N 
ATOM     30  H2  UNL     1       4.593  -1.432   0.106  1.00  0.00     0.189 HD
BRANCH  29  31
HETATM   31  C7  UNL     1       4.318  -1.212   2.198  1.00  0.00     0.199 C 
HETATM   32  N3  UNL     1       5.357  -2.078   2.598  1.00  0.00    -0.068 NA
HETATM   33  S1  UNL     1       3.440  -0.488   3.372  1.00  0.00    -0.043 SA
ENDBRANCH  29  31
ENDBRANCH  27  29
ENDBRANCH   1  25
TORSDOF 7
