REMARK  7 active torsions:
REMARK  status: ('A' for Active; 'I' for Inactive)
REMARK    1  A    between atoms: C2_2  and  C4_4 
REMARK    2  A    between atoms: C4_4  and  N1_5 
REMARK    3  A    between atoms: N1_5  and  S1_7 
REMARK    4  A    between atoms: S1_7  and  C5_10 
REMARK    5  A    between atoms: C18_26  and  O5_27 
REMARK    6  A    between atoms: C19_29  and  O6_30 
REMARK    7  A    between atoms: C20_32  and  C22_34 
ROOT
HETATM    1  C5  UNL     1       2.219   0.860   0.101  1.00  0.00     0.116 A 
HETATM    2  C6  UNL     1       2.552   1.000  -1.222  1.00  0.00     0.070 A 
HETATM    3  C7  UNL     1       1.573   1.239  -2.177  1.00  0.00     0.118 A 
HETATM    4  F1  UNL     1       1.903   1.377  -3.493  1.00  0.00    -0.206 F 
HETATM    5  C8  UNL     1       0.254   1.339  -1.803  1.00  0.00     0.053 A 
HETATM    6  C9  UNL     1      -0.115   1.203  -0.480  1.00  0.00    -0.011 A 
HETATM    7  C10 UNL     1       0.862   0.965   0.467  1.00  0.00     0.099 A 
HETATM    8  O3  UNL     1       0.413   0.841   1.760  1.00  0.00    -0.348 OA
HETATM    9  C11 UNL     1      -0.765   0.083   2.003  1.00  0.00     0.182 C 
HETATM   10  C12 UNL     1      -1.913   0.461   1.097  1.00  0.00     0.035 C 
HETATM   11  C13 UNL     1      -1.534   1.328  -0.044  1.00  0.00    -0.005 C 
HETATM   12  C14 UNL     1      -1.618   2.838   0.315  1.00  0.00     0.021 C 
HETATM   13  C15 UNL     1      -2.397   1.210  -1.263  1.00  0.00     0.049 C 
HETATM   14  C16 UNL     1      -3.782   0.933  -0.868  1.00  0.00     0.160 C 
HETATM   15  O4  UNL     1      -4.339   1.711   0.112  1.00  0.00    -0.380 OA
HETATM   16  C17 UNL     1      -5.580   1.055   0.307  1.00  0.00     0.203 C 
HETATM   17  C18 UNL     1      -5.273  -0.428   0.207  1.00  0.00     0.179 C 
HETATM   18  C19 UNL     1      -3.850  -0.454  -0.219  1.00  0.00     0.120 C 
HETATM   19  C20 UNL     1      -2.844  -0.680   0.851  1.00  0.00     0.015 C 
HETATM   20  C21 UNL     1      -3.638  -0.818   2.180  1.00  0.00     0.020 C 
ENDROOT
BRANCH   1  21
HETATM   21  S1  UNL     1       3.349   0.606   1.400  1.00  0.00     0.261 S 
HETATM   22  O1  UNL     1       2.775  -0.480   2.290  1.00  0.00    -0.200 OA
HETATM   23  O2  UNL     1       3.367   1.919   2.188  1.00  0.00    -0.200 OA
BRANCH  21  24
HETATM   24  N1  UNL     1       4.941   0.289   0.943  1.00  0.00    -0.315 N 
ATOM     25  H1  UNL     1       5.708   0.914   1.191  1.00  0.00     0.172 HD
BRANCH  24  26
HETATM   26  C4  UNL     1       5.151  -0.896   0.195  1.00  0.00     0.136 C 
BRANCH  26  27
HETATM   27  C2  UNL     1       6.658  -0.967  -0.105  1.00  0.00    -0.004 C 
HETATM   28  C1  UNL     1       7.038   0.266  -0.899  1.00  0.00     0.011 C 
HETATM   29  C3  UNL     1       6.857  -2.186  -0.976  1.00  0.00     0.011 C 
ENDBRANCH  26  27
ENDBRANCH  24  26
ENDBRANCH  21  24
ENDBRANCH   1  21
BRANCH  19  30
HETATM   30  C22 UNL     1      -2.265  -2.039   0.712  1.00  0.00     0.090 C 
HETATM   31  C23 UNL     1      -1.306  -2.364  -0.335  1.00  0.00     0.027 C 
HETATM   32 CL1  UNL     1      -3.660  -3.172   0.467  1.00  0.00    -0.124 Cl
ENDBRANCH  19  30
BRANCH  18  33
HETATM   33  O6  UNL     1      -3.701  -1.343  -1.303  1.00  0.00    -0.384 OA
ATOM     34  H6  UNL     1      -3.743  -2.203  -0.901  1.00  0.00     0.210 HD
ENDBRANCH  18  33
BRANCH  17  35
HETATM   35  O5  UNL     1      -6.067  -0.923  -0.853  1.00  0.00    -0.390 OA
ATOM     36  H5  UNL     1      -5.875  -1.851  -0.916  1.00  0.00     0.210 HD
ENDBRANCH  17  35
TORSDOF 7
