REMARK  7 active torsions:
REMARK  status: ('A' for Active; 'I' for Inactive)
REMARK    1  A    between atoms: C2_6  and  S1_7 
REMARK    2  A    between atoms: S1_7  and  C3_8 
REMARK    3  A    between atoms: C3_8  and  C4_9 
REMARK    4  A    between atoms: C4_9  and  N4_10 
REMARK       I    between atoms: N4_10  and  C5_12 
REMARK    5  A    between atoms: C5_12  and  C6_14 
REMARK    6  A    between atoms: N10_24  and  C7_25 
REMARK    7  A    between atoms: C12_30  and  N11_31 
ROOT
HETATM    1  N1  UNL     1      -3.648   5.582   2.374  1.00  0.00    -0.170 NA
HETATM    2  C1  UNL     1      -3.425   4.476   2.145  1.00  0.00     0.209 C 
HETATM    3  N2  UNL     1      -3.135   3.117   1.845  1.00  0.00    -0.134 N 
HETATM    4  N3  UNL     1      -2.153   2.392   2.335  1.00  0.00    -0.259 N 
ATOM      5  H3  UNL     1      -1.461   2.725   3.007  1.00  0.00     0.190 HD
HETATM    6  C2  UNL     1      -2.193   1.119   1.811  1.00  0.00     0.171 A 
HETATM    7  N10 UNL     1      -3.237   1.113   0.989  1.00  0.00    -0.238 N 
HETATM    8  C13 UNL     1      -3.830   2.338   1.000  1.00  0.00     0.364 A 
HETATM    9  O4  UNL     1      -4.858   2.693   0.339  1.00  0.00    -0.243 OA
ENDROOT
BRANCH   6  10
HETATM   10  S1  UNL     1      -1.068  -0.135   2.348  1.00  0.00    -0.090 SA
BRANCH  10  11
HETATM   11  C3  UNL     1       0.520  -0.138   1.541  1.00  0.00     0.102 C 
BRANCH  11  12
HETATM   12  C4  UNL     1       0.504  -0.533   0.096  1.00  0.00     0.133 C 
BRANCH  12  13
HETATM   13  N4  UNL     1       1.849  -0.467  -0.437  1.00  0.00    -0.357 N 
HETATM   14  C5  UNL     1       2.948  -1.205   0.015  1.00  0.00     0.259 C 
HETATM   15  O1  UNL     1       2.917  -2.023   0.941  1.00  0.00    -0.270 OA
ATOM     16  H4  UNL     1       2.009   0.176  -1.212  1.00  0.00     0.162 HD
BRANCH  14  17
HETATM   17  C6  UNL     1       4.272  -0.985  -0.684  1.00  0.00     0.306 C 
HETATM   18  N5  UNL     1       5.309  -1.768  -0.118  1.00  0.00    -0.087 NA
HETATM   19  N6  UNL     1       6.554  -1.447  -0.575  1.00  0.00    -0.228 N 
HETATM   20  N7  UNL     1       6.863  -0.111  -0.672  1.00  0.00    -0.217 N 
ATOM     21  H6  UNL     1       7.227  -2.168  -0.834  1.00  0.00     0.205 HD
HETATM   22  N8  UNL     1       5.867   0.761  -0.361  1.00  0.00    -0.230 N 
ATOM     23  H7  UNL     1       7.788   0.208  -0.961  1.00  0.00     0.211 HD
HETATM   24  N9  UNL     1       4.578   0.408  -0.606  1.00  0.00    -0.290 N 
ATOM     25  H8  UNL     1       6.085   1.668   0.051  1.00  0.00     0.209 HD
ATOM     26  H9  UNL     1       3.853   1.114  -0.730  1.00  0.00     0.184 HD
ENDBRANCH  14  17
ENDBRANCH  12  13
ENDBRANCH  11  12
ENDBRANCH  10  11
ENDBRANCH   6  10
BRANCH   7  27
HETATM   27  C7  UNL     1      -3.731   0.019   0.248  1.00  0.00     0.079 A 
HETATM   28  C8  UNL     1      -4.553  -0.906   0.939  1.00  0.00     0.033 A 
HETATM   29  C9  UNL     1      -5.089  -1.973   0.259  1.00  0.00     0.002 A 
HETATM   30  C10 UNL     1      -4.850  -2.175  -1.082  1.00  0.00     0.003 A 
HETATM   31  C11 UNL     1      -4.056  -1.279  -1.742  1.00  0.00     0.038 A 
HETATM   32  C12 UNL     1      -3.487  -0.170  -1.074  1.00  0.00     0.130 A 
BRANCH  32  33
HETATM   33  N11 UNL     1      -2.663   0.680  -1.848  1.00  0.00    -0.113 N 
HETATM   34  O2  UNL     1      -2.088   0.136  -2.849  1.00  0.00    -0.532 OA
HETATM   35  O3  UNL     1      -2.402   1.990  -1.674  1.00  0.00    -0.532 OA
ENDBRANCH  32  33
ENDBRANCH   7  27
TORSDOF 7
