REMARK  10 active torsions:
REMARK  status: ('A' for Active; 'I' for Inactive)
REMARK    1  A    between atoms: N1_1  and  C1_4 
REMARK    2  A    between atoms: C2_7  and  N3_8 
REMARK    3  A    between atoms: N3_8  and  C3_10 
REMARK    4  A    between atoms: C3_10  and  C4_11 
REMARK    5  A    between atoms: C4_11  and  S1_12 
REMARK    6  A    between atoms: S1_12  and  C5_13 
REMARK    7  A    between atoms: C7_25  and  C8_26 
REMARK    8  A    between atoms: C11_32  and  C12_33 
REMARK    9  A    between atoms: C12_33  and  O2_34 
REMARK   10  A    between atoms: C12_33  and  O3_36 
ROOT
HETATM    1  C1  UNL     1      -1.589  -3.224   2.484  1.00  0.00     0.679 A 
HETATM    2  N2  UNL     1      -2.155  -2.640   1.413  1.00  0.00    -0.175 N 
ATOM      3  H2  UNL     1      -3.121  -2.862   1.174  1.00  0.00     0.186 HD
HETATM    4  C2  UNL     1      -1.469  -1.769   0.652  1.00  0.00     0.147 A 
HETATM    5  C6  UNL     1      -0.157  -1.512   1.035  1.00  0.00     0.125 A 
HETATM    6  N8  UNL     1       0.576  -0.633   0.287  1.00  0.00    -0.332 N 
ATOM      7  H8  UNL     1       0.162  -0.182  -0.528  1.00  0.00     0.168 HD
HETATM    8  C7  UNL     1       1.844  -0.369   0.634  1.00  0.00     0.173 A 
HETATM    9  N10 UNL     1       2.346  -0.986   1.715  1.00  0.00    -0.280 N 
ATOM     10  H10 UNL     1       3.311  -0.773   1.966  1.00  0.00     0.188 HD
HETATM   11  N11 UNL     1       1.700  -1.842   2.479  1.00  0.00    -0.281 N 
ATOM     12  H11 UNL     1       2.144  -2.277   3.288  1.00  0.00     0.188 HD
HETATM   13  C13 UNL     1       0.406  -2.120   2.136  1.00  0.00     0.166 A 
HETATM   14  N12 UNL     1      -0.325  -2.982   2.860  1.00  0.00    -0.173 N 
ATOM     15  H12 UNL     1       0.072  -3.443   3.678  1.00  0.00     0.186 HD
ENDROOT
BRANCH   4  16
HETATM   16  N3  UNL     1      -1.953  -1.180  -0.384  1.00  0.00    -0.373 N 
ATOM     17  H3  UNL     1      -1.383  -0.527  -0.921  1.00  0.00     0.161 HD
BRANCH  16  18
HETATM   18  C3  UNL     1      -3.323  -1.458  -0.778  1.00  0.00     0.132 C 
BRANCH  18  19
HETATM   19  C4  UNL     1      -3.622  -0.907  -2.157  1.00  0.00     0.102 C 
BRANCH  19  20
HETATM   20  S1  UNL     1      -3.402   0.884  -2.233  1.00  0.00    -0.090 SA
BRANCH  20  21
HETATM   21  C5  UNL     1      -4.599   1.734  -1.231  1.00  0.00     0.176 A 
HETATM   22  N4  UNL     1      -5.580   1.176  -0.484  1.00  0.00    -0.263 N 
HETATM   23  N5  UNL     1      -6.268   2.128   0.118  1.00  0.00    -0.226 N 
ATOM     24  H4  UNL     1      -5.760   0.176  -0.399  1.00  0.00     0.190 HD
HETATM   25  N6  UNL     1      -5.730   3.277  -0.245  1.00  0.00    -0.226 N 
ATOM     26  H5  UNL     1      -7.063   2.000   0.744  1.00  0.00     0.210 HD
HETATM   27  N7  UNL     1      -4.714   3.060  -1.065  1.00  0.00    -0.263 N 
ATOM     28  H6  UNL     1      -6.050   4.196   0.061  1.00  0.00     0.210 HD
ATOM     29  H7  UNL     1      -4.124   3.773  -1.494  1.00  0.00     0.190 HD
ENDBRANCH  20  21
ENDBRANCH  19  20
ENDBRANCH  18  19
ENDBRANCH  16  18
ENDBRANCH   4  16
BRANCH   1  30
HETATM   30  N1  UNL     1      -2.271  -4.071   3.217  1.00  0.00    -0.234 N 
ATOM     31  H12 UNL     1      -3.233  -4.255   2.931  1.00  0.00     0.174 HD
ATOM     32  H11 UNL     1      -1.842  -4.514   4.029  1.00  0.00     0.174 HD
ENDBRANCH   1  30
BRANCH   8  33
HETATM   33  C8  UNL     1       2.670   0.577  -0.150  1.00  0.00     0.197 A 
HETATM   34  N9  UNL     1       2.186   1.202  -1.230  1.00  0.00    -0.300 N 
HETATM   35  C9  UNL     1       2.882   2.072  -1.987  1.00  0.00     0.249 A 
ATOM     36  H9  UNL     1       1.222   1.006  -1.499  1.00  0.00     0.171 HD
HETATM   37  O1  UNL     1       2.426   2.647  -2.986  1.00  0.00    -0.268 OA
HETATM   38  C10 UNL     1       4.188   2.327  -1.608  1.00  0.00     0.112 A 
HETATM   39  C11 UNL     1       4.664   1.674  -0.496  1.00  0.00     0.115 A 
HETATM   40  O4  UNL     1       3.906   0.825   0.200  1.00  0.00    -0.289 OA
BRANCH  39  41
HETATM   41  C12 UNL     1       6.066   1.943  -0.083  1.00  0.00     0.312 C 
BRANCH  41  42
HETATM   42  O2  UNL     1       6.873   1.913  -1.228  1.00  0.00    -0.365 OA
ATOM     43  H2  UNL     1       7.769   2.085  -0.964  1.00  0.00     0.213 HD
ENDBRANCH  41  42
BRANCH  41  44
HETATM   44  O3  UNL     1       6.456   0.901   0.748  1.00  0.00    -0.365 OA
ATOM     45  H3  UNL     1       7.352   1.073   1.012  1.00  0.00     0.213 HD
ENDBRANCH  41  44
ENDBRANCH  39  41
ENDBRANCH   8  33
TORSDOF 10
