REMARK  6 active torsions:
REMARK  status: ('A' for Active; 'I' for Inactive)
REMARK    1  A    between atoms: C5_5  and  N1_6 
REMARK    2  A    between atoms: N1_6  and  C6_8 
REMARK    3  A    between atoms: C6_8  and  N2_10 
REMARK    4  A    between atoms: N2_10  and  C7_12 
REMARK    5  A    between atoms: C10_15  and  O1_16 
REMARK    6  A    between atoms: O1_16  and  C11_17 
ROOT
HETATM    1  C6  UNL     1       0.756  -0.130   1.833  1.00  0.00     0.176 C 
HETATM    2  S1  UNL     1       1.762  -0.240   3.094  1.00  0.00    -0.041 SA
ENDROOT
BRANCH   1   3
HETATM    3  N1  UNL     1      -0.654  -0.028   2.117  1.00  0.00    -0.337 N 
ATOM      4  H1  UNL     1      -0.968   0.001   3.087  1.00  0.00     0.168 HD
BRANCH   3   5
HETATM    5  C5  UNL     1      -1.615   0.033   1.071  1.00  0.00     0.013 C 
HETATM    6  C4  UNL     1      -1.789   1.110   0.310  1.00  0.00     0.035 C 
HETATM    7  C2  UNL     1      -2.773   1.182  -0.766  1.00  0.00     0.074 C 
HETATM    8  C1  UNL     1      -3.242   2.618  -0.876  1.00  0.00     0.050 C 
HETATM    9  C3  UNL     1      -2.056   0.857  -2.072  1.00  0.00     0.050 C 
HETATM   10  O2  UNL     1      -3.848   0.361  -0.659  1.00  0.00    -0.366 OA
HETATM   11  C15 UNL     1      -3.859  -0.573   0.318  1.00  0.00     0.060 C 
HETATM   12  C14 UNL     1      -2.516  -1.105   0.731  1.00  0.00     0.094 C 
HETATM   13  C16 UNL     1      -4.540  -0.056   1.586  1.00  0.00     0.046 C 
HETATM   14  C17 UNL     1      -4.678  -1.760  -0.153  1.00  0.00     0.046 C 
ENDBRANCH   3   5
ENDBRANCH   1   3
BRANCH   1  15
HETATM   15  N2  UNL     1       1.232  -0.173   0.511  1.00  0.00    -0.333 N 
ATOM     16  H2  UNL     1       0.555  -0.146  -0.251  1.00  0.00     0.168 HD
BRANCH  15  17
HETATM   17  C7  UNL     1       2.600  -0.251   0.192  1.00  0.00     0.034 A 
HETATM   18  C8  UNL     1       3.640   0.355   0.834  1.00  0.00     0.032 A 
HETATM   19  C9  UNL     1       4.979   0.188   0.464  1.00  0.00     0.039 A 
HETATM   20  C10 UNL     1       5.335  -0.611  -0.591  1.00  0.00     0.075 A 
HETATM   21  C12 UNL     1       4.275  -1.244  -1.268  1.00  0.00     0.039 A 
HETATM   22  C13 UNL     1       2.974  -1.069  -0.891  1.00  0.00     0.032 A 
BRANCH  20  23
HETATM   23  O1  UNL     1       6.628  -0.831  -1.023  1.00  0.00    -0.290 OA
BRANCH  23  24
HETATM   24  C11 UNL     1       7.763  -0.281  -0.459  1.00  0.00     0.505 C 
HETATM   25  F1  UNL     1       8.405   0.513  -1.419  1.00  0.00    -0.184 F 
HETATM   26  F2  UNL     1       8.658  -1.261  -0.010  1.00  0.00    -0.184 F 
ENDBRANCH  23  24
ENDBRANCH  20  23
ENDBRANCH  15  17
ENDBRANCH   1  15
TORSDOF 6
