REMARK  4 active torsions:
REMARK  status: ('A' for Active; 'I' for Inactive)
REMARK    1  A    between atoms: C4_5  and  O2_6 
REMARK    2  A    between atoms: C5_8  and  C6_9 
REMARK    3  A    between atoms: C6_9  and  C7_10 
REMARK    4  A    between atoms: C9_13  and  C10_14 
ROOT
HETATM    1  C1  UNL     1       4.373  -0.610   1.050  1.00  0.00     0.078 C 
HETATM    2  C2  UNL     1       2.928  -0.486   0.670  1.00  0.00     0.072 A 
HETATM    3  O1  UNL     1       1.905  -1.124   1.095  1.00  0.00    -0.310 OA
HETATM    4  C3  UNL     1       0.798  -0.721   0.510  1.00  0.00     0.122 A 
HETATM    5  C4  UNL     1      -0.500  -1.141   0.670  1.00  0.00     0.106 A 
HETATM    6  C5  UNL     1      -1.468  -0.535  -0.089  1.00  0.00    -0.020 A 
HETATM    7  C8  UNL     1      -1.160   0.454  -0.977  1.00  0.00     0.029 A 
HETATM    8  C9  UNL     1       0.165   0.895  -1.151  1.00  0.00     0.056 A 
HETATM    9  C11 UNL     1       1.138   0.291  -0.394  1.00  0.00     0.042 A 
HETATM   10  C12 UNL     1       2.510   0.439  -0.291  1.00  0.00     0.077 A 
HETATM   11 CL1  UNL     1       3.554   1.512  -1.175  1.00  0.00    -0.081 Cl
ENDROOT
BRANCH   6  12
HETATM   12  C6  UNL     1      -2.882  -0.921   0.045  1.00  0.00     0.052 C 
BRANCH  12  13
HETATM   13  C7  UNL     1      -3.553  -0.330   1.253  1.00  0.00     0.089 C 
HETATM   14 BR1  UNL     1      -3.516   1.619   1.185  1.00  0.00    -0.096 Br
ENDBRANCH  12  13
ENDBRANCH   6  12
BRANCH   5  15
HETATM   15  O2  UNL     1      -0.794  -2.167   1.596  1.00  0.00    -0.357 OA
ATOM     16  H2  UNL     1      -1.692  -2.457   1.707  1.00  0.00     0.217 HD
ENDBRANCH   5  15
BRANCH   8  17
HETATM   17  C10 UNL     1       0.428   1.980  -2.054  1.00  0.00     0.210 C 
HETATM   18  O3  UNL     1       1.377   2.741  -2.096  1.00  0.00    -0.644 OA
HETATM   19  O4  UNL     1      -0.564   2.204  -3.052  1.00  0.00    -0.644 OA
ENDBRANCH   8  17
TORSDOF 4
