REMARK  6 active torsions:
REMARK  status: ('A' for Active; 'I' for Inactive)
REMARK    1  A    between atoms: C2_2  and  C5_5 
REMARK    2  A    between atoms: C8_9  and  N1_10 
REMARK    3  A    between atoms: N1_10  and  C9_12 
REMARK    4  A    between atoms: C11_14  and  C12_15 
REMARK    5  A    between atoms: C12_15  and  O1_16 
REMARK    6  A    between atoms: N3_20  and  C13_21 
ROOT
HETATM    1  C9  UNL     1      -1.839   0.199   0.246  1.00  0.00     0.130 A 
HETATM    2  C10 UNL     1      -1.505   1.437   0.744  1.00  0.00     0.079 A 
HETATM    3  C11 UNL     1      -2.693   2.038   1.075  1.00  0.00     0.053 A 
HETATM    4  N2  UNL     1      -3.663   1.167   0.773  1.00  0.00    -0.294 N 
ATOM      5  H2  UNL     1      -4.658   1.343   0.912  1.00  0.00     0.187 HD
HETATM    6  N3  UNL     1      -3.165   0.048   0.271  1.00  0.00    -0.240 N 
ENDROOT
BRANCH   1   7
HETATM    7  N1  UNL     1      -1.025  -0.700  -0.185  1.00  0.00    -0.336 N 
ATOM      8  H1  UNL     1      -1.408  -1.581  -0.529  1.00  0.00     0.168 HD
BRANCH   7   9
HETATM    9  C8  UNL     1       0.391  -0.517  -0.202  1.00  0.00     0.111 A 
HETATM   10  C7  UNL     1       1.006   0.244  -1.170  1.00  0.00     0.146 A 
HETATM   11  C6  UNL     1       2.385   0.413  -1.174  1.00  0.00     0.052 A 
HETATM   12  F1  UNL     1       0.291   0.853  -2.149  1.00  0.00    -0.204 F 
HETATM   13  C5  UNL     1       3.189  -0.170  -0.216  1.00  0.00    -0.045 A 
HETATM   14  C20 UNL     1       2.569  -0.932   0.753  1.00  0.00     0.052 A 
HETATM   15  C19 UNL     1       1.213  -1.096   0.754  1.00  0.00     0.146 A 
HETATM   16  F2  UNL     1       0.606  -1.841   1.701  1.00  0.00    -0.204 F 
BRANCH  13  17
HETATM   17  C2  UNL     1       4.654   0.030  -0.248  1.00  0.00    -0.024 C 
HETATM   18  C1  UNL     1       4.959   1.515  -0.123  1.00  0.00     0.019 C 
HETATM   19  C3  UNL     1       5.243  -0.452  -1.545  1.00  0.00     0.019 C 
HETATM   20  C4  UNL     1       5.275  -0.660   0.931  1.00  0.00     0.019 C 
ENDBRANCH  13  17
ENDBRANCH   7   9
ENDBRANCH   1   7
BRANCH   6  21
HETATM   21  C13 UNL     1      -3.903  -1.068  -0.149  1.00  0.00     0.058 A 
HETATM   22  C14 UNL     1      -4.926  -1.619   0.597  1.00  0.00     0.031 A 
HETATM   23  C15 UNL     1      -5.656  -2.714   0.194  1.00  0.00     0.002 A 
HETATM   24  C16 UNL     1      -5.368  -3.304  -1.010  1.00  0.00     0.000 A 
HETATM   25  C17 UNL     1      -4.348  -2.770  -1.775  1.00  0.00     0.002 A 
HETATM   26  C18 UNL     1      -3.619  -1.673  -1.367  1.00  0.00     0.031 A 
ENDBRANCH   6  21
BRANCH   3  27
HETATM   27  C12 UNL     1      -2.791   3.402   1.654  1.00  0.00     0.222 C 
BRANCH  27  28
HETATM   28  O1  UNL     1      -2.907   4.364   0.648  1.00  0.00    -0.395 OA
ATOM     29  H1  UNL     1      -2.970   5.237   1.018  1.00  0.00     0.209 HD
ENDBRANCH  27  28
ENDBRANCH   3  27
TORSDOF 6
