REMARK  5 active torsions:
REMARK  status: ('A' for Active; 'I' for Inactive)
REMARK    1  A    between atoms: C1_4  and  N2_5 
REMARK    2  A    between atoms: C1_4  and  C9_16 
REMARK    3  A    between atoms: N2_5  and  O1_7 
REMARK    4  A    between atoms: O1_7  and  C2_8 
REMARK    5  A    between atoms: C2_8  and  C3_10 
ROOT
HETATM    1  N1  UNL     1      -1.378   0.531   1.677  1.00  0.00    -0.383 N 
ATOM      2  H11 UNL     1      -2.051   1.131   2.154  1.00  0.00     0.157 HD
ATOM      3  H12 UNL     1      -0.445   0.367   2.054  1.00  0.00     0.157 HD
HETATM    4  C1  UNL     1      -1.806   0.008   0.576  1.00  0.00     0.130 C 
ENDROOT
BRANCH   4   5
HETATM    5  N2  UNL     1      -0.862  -0.834  -0.093  1.00  0.00    -0.241 N 
ATOM      6  H2  UNL     1      -1.144  -1.737  -0.473  1.00  0.00     0.196 HD
BRANCH   5   7
HETATM    7  O1  UNL     1       0.432  -0.395  -0.210  1.00  0.00    -0.193 OA
BRANCH   7   8
HETATM    8  C2  UNL     1       1.517  -1.088   0.285  1.00  0.00     0.315 C 
HETATM    9  O2  UNL     1       1.344  -2.177   0.875  1.00  0.00    -0.257 OA
BRANCH   8  10
HETATM   10  C3  UNL     1       2.867  -0.578   0.135  1.00  0.00     0.041 A 
HETATM   11  C4  UNL     1       3.069   0.631  -0.519  1.00  0.00     0.017 A 
HETATM   12  C5  UNL     1       4.337   1.148  -0.681  1.00  0.00     0.001 A 
HETATM   13  C6  UNL     1       5.428   0.459  -0.189  1.00  0.00     0.000 A 
HETATM   14  C7  UNL     1       5.262  -0.758   0.473  1.00  0.00     0.001 A 
HETATM   15  C8  UNL     1       3.979  -1.232   0.610  1.00  0.00     0.017 A 
ENDBRANCH   8  10
ENDBRANCH   7   8
ENDBRANCH   5   7
ENDBRANCH   4   5
BRANCH   4  16
HETATM   16  C9  UNL     1      -3.136   0.242   0.039  1.00  0.00     0.012 A 
HETATM   17  C10 UNL     1      -4.091   1.034   0.623  1.00  0.00     0.032 A 
HETATM   18  C11 UNL     1      -5.340   1.221   0.068  1.00  0.00     0.088 A 
HETATM   19  N3  UNL     1      -5.638   0.594  -1.107  1.00  0.00    -0.375 N 
HETATM   20  C12 UNL     1      -4.732  -0.197  -1.723  1.00  0.00     0.088 A 
ATOM     21  H3  UNL     1      -6.559   0.724  -1.527  1.00  0.00     0.164 HD
HETATM   22  C13 UNL     1      -3.473  -0.373  -1.145  1.00  0.00     0.032 A 
ENDBRANCH   4  16
TORSDOF 5
