REMARK  1 active torsions:
REMARK  status: ('A' for Active; 'I' for Inactive)
REMARK    1  A    between atoms: N1_8  and  C6_10 
ROOT
HETATM    1  C1  UNL     1      -4.325  -0.102   0.243  1.00  0.00     0.027 C 
HETATM    2  C2  UNL     1      -2.939   0.163  -0.262  1.00  0.00     0.136 C 
HETATM    3  C3  UNL     1      -2.198   1.125   0.593  1.00  0.00     0.212 C 
HETATM    4  O1  UNL     1      -2.723   1.986   1.338  1.00  0.00    -0.288 OA
HETATM    5  C4  UNL     1      -0.771   0.846   0.370  1.00  0.00     0.248 C 
HETATM    6  O2  UNL     1       0.162   1.666   0.578  1.00  0.00    -0.282 OA
HETATM    7  C5  UNL     1      -0.702  -0.525  -0.119  1.00  0.00     0.134 C 
HETATM    8  N1  UNL     1       0.366  -1.169  -0.440  1.00  0.00    -0.350 N 
ATOM      9  H1  UNL     1       0.262  -2.128  -0.770  1.00  0.00     0.166 HD
HETATM   10  C12 UNL     1      -2.063  -1.034  -0.180  1.00  0.00     0.191 C 
HETATM   11  O3  UNL     1      -2.433  -2.260  -0.167  1.00  0.00    -0.290 OA
ENDROOT
BRANCH   8  12
HETATM   12  C6  UNL     1       1.661  -0.640  -0.366  1.00  0.00     0.032 A 
HETATM   13  C7  UNL     1       2.145   0.226  -1.324  1.00  0.00     0.029 A 
HETATM   14  C8  UNL     1       3.434   0.731  -1.221  1.00  0.00     0.002 A 
HETATM   15  C9  UNL     1       4.228   0.348  -0.132  1.00  0.00     0.000 A 
HETATM   16  C10 UNL     1       3.744  -0.515   0.821  1.00  0.00     0.002 A 
HETATM   17  C11 UNL     1       2.475  -1.005   0.708  1.00  0.00     0.029 A 
ENDBRANCH   8  12
TORSDOF 1
