REMARK  2 active torsions:
REMARK  status: ('A' for Active; 'I' for Inactive)
REMARK    1  A    between atoms: C2_3  and  C3_4 
REMARK    2  A    between atoms: N3_12  and  O2_13 
ROOT
HETATM    1  O1  UNL     1      -0.080   2.085  -1.233  1.00  0.00    -0.285 OA
HETATM    2  C1  UNL     1      -0.424   1.042  -0.626  1.00  0.00     0.217 A 
HETATM    3  C2  UNL     1       0.438   0.023  -0.003  1.00  0.00     0.157 A 
HETATM    4  N3  UNL     1      -0.340  -0.887   0.515  1.00  0.00    -0.216 N 
HETATM    5  C7  UNL     1      -1.698  -0.575   0.296  1.00  0.00     0.077 A 
HETATM    6  C8  UNL     1      -2.869  -1.226   0.651  1.00  0.00     0.033 A 
HETATM    7  C9  UNL     1      -4.113  -0.711   0.315  1.00  0.00     0.002 A 
HETATM    8  C10 UNL     1      -4.206   0.470  -0.385  1.00  0.00     0.001 A 
HETATM    9  C11 UNL     1      -3.048   1.110  -0.733  1.00  0.00     0.018 A 
HETATM   10  C12 UNL     1      -1.802   0.614  -0.409  1.00  0.00     0.046 A 
ENDROOT
BRANCH   3  11
HETATM   11  C3  UNL     1       1.886   0.029   0.031  1.00  0.00     0.139 A 
HETATM   12  N1  UNL     1       2.573   1.024  -0.539  1.00  0.00    -0.350 N 
HETATM   13  C4  UNL     1       3.922   1.080  -0.537  1.00  0.00     0.091 A 
ATOM     14  H1  UNL     1       2.055   1.774  -0.996  1.00  0.00     0.166 HD
HETATM   15  C5  UNL     1       4.610   0.067   0.078  1.00  0.00     0.034 A 
HETATM   16  C6  UNL     1       3.922  -0.977   0.677  1.00  0.00     0.091 A 
HETATM   17  N2  UNL     1       2.556  -0.959   0.631  1.00  0.00    -0.350 N 
ATOM     18  H2  UNL     1       2.034  -1.720   1.066  1.00  0.00     0.166 HD
ENDBRANCH   3  11
BRANCH   4  19
HETATM   19  O2  UNL     1       0.151  -1.987   1.177  1.00  0.00    -0.282 OA
ATOM     20  H2  UNL     1      -0.416  -2.650   1.554  1.00  0.00     0.245 HD
ENDBRANCH   4  19
TORSDOF 2
