REMARK  2 active torsions:
REMARK  status: ('A' for Active; 'I' for Inactive)
REMARK    1  A    between atoms: C2_2  and  O2_4 
REMARK    2  A    between atoms: O2_4  and  C3_5 
ROOT
HETATM    1  C3  UNL     1       0.320   0.310  -0.027  1.00  0.00     0.229 C 
HETATM    2  C4  UNL     1       0.261   1.394  -0.999  1.00  0.00     0.048 C 
HETATM    3  C5  UNL     1       0.028   2.525  -0.369  1.00  0.00     0.054 C 
HETATM    4  C6  UNL     1      -0.088   2.299   1.064  1.00  0.00     0.183 C 
HETATM    5  O3  UNL     1       0.060   3.160   1.956  1.00  0.00    -0.290 OA
HETATM    6  C7  UNL     1      -0.413   0.849   1.177  1.00  0.00     0.265 C 
HETATM    7  O4  UNL     1      -1.740   0.600   0.829  1.00  0.00    -0.337 OA
HETATM    8  C8  UNL     1      -1.727  -0.592   0.126  1.00  0.00     0.162 C 
HETATM    9  C9  UNL     1      -2.040  -1.720   1.094  1.00  0.00     0.078 C 
HETATM   10  C10 UNL     1      -2.685  -0.583  -1.036  1.00  0.00     0.078 C 
HETATM   11  O5  UNL     1      -0.456  -0.792  -0.361  1.00  0.00    -0.313 OA
ENDROOT
BRANCH   1  12
HETATM   12  O2  UNL     1       1.646  -0.045   0.310  1.00  0.00    -0.276 OA
BRANCH  12  13
HETATM   13  C2  UNL     1       2.579  -0.496  -0.580  1.00  0.00     0.257 C 
HETATM   14  C1  UNL     1       3.975  -0.871  -0.230  1.00  0.00     0.126 C 
HETATM   15  O1  UNL     1       2.234  -0.603  -1.790  1.00  0.00    -0.266 OA
ENDBRANCH  12  13
ENDBRANCH   1  12
TORSDOF 2
