REMARK  10 active torsions:
REMARK  status: ('A' for Active; 'I' for Inactive)
REMARK    1  A    between atoms: C2_2  and  C3_3 
REMARK    2  A    between atoms: C3_3  and  C5_5 
REMARK    3  A    between atoms: C5_5  and  O1_6 
REMARK    4  A    between atoms: C5_5  and  N1_8 
REMARK    5  A    between atoms: C7_10  and  C8_11 
REMARK    6  A    between atoms: C11_15  and  C12_16 
REMARK       I    between atoms: C12_16  and  N2_18 
REMARK    7  A    between atoms: N2_18  and  N3_20 
REMARK    8  A    between atoms: C13_22  and  C14_23 
REMARK    9  A    between atoms: C17_27  and  N4_28 
REMARK       I    between atoms: N4_28  and  C18_29 
REMARK   10  A    between atoms: C20_33  and  O3_34 
ROOT
HETATM    1  C12 UNL     1       1.189   0.547   0.594  1.00  0.00     0.261 C 
HETATM    2  O2  UNL     1       1.522   1.184   1.586  1.00  0.00    -0.269 OA
HETATM    3  N2  UNL     1      -0.095   0.086   0.396  1.00  0.00    -0.269 N 
ATOM      4  H2  UNL     1      -0.183  -0.473  -0.453  1.00  0.00     0.190 HD
ENDROOT
BRANCH   3   5
HETATM    5  N3  UNL     1      -1.309   0.205   1.088  1.00  0.00    -0.308 N 
HETATM    6  C13 UNL     1      -2.358  -0.031   0.383  1.00  0.00     0.121 C 
ATOM      7  H3  UNL     1      -1.356   0.459   2.075  1.00  0.00     0.186 HD
BRANCH   6   8
HETATM    8  C14 UNL     1      -3.739  -0.047   0.580  1.00  0.00     0.016 A 
HETATM    9  C15 UNL     1      -4.569  -0.428  -0.515  1.00  0.00     0.043 A 
HETATM   10  C16 UNL     1      -5.916  -0.465  -0.427  1.00  0.00     0.075 A 
HETATM   11 CL2  UNL     1      -6.861  -0.941  -1.821  1.00  0.00    -0.081 Cl
HETATM   12  C17 UNL     1      -6.572  -0.124   0.777  1.00  0.00     0.134 A 
HETATM   13  C19 UNL     1      -5.729   0.239   1.820  1.00  0.00     0.084 A 
HETATM   14  C20 UNL     1      -4.349   0.289   1.758  1.00  0.00     0.080 A 
BRANCH  12  15
HETATM   15  N4  UNL     1      -7.911  -0.170   0.806  1.00  0.00    -0.375 NA
HETATM   16  C18 UNL     1      -9.069  -0.223   0.844  1.00  0.00     0.275 C 
HETATM   17  N5  UNL     1      -9.780  -1.118   1.749  1.00  0.00    -0.052 NA
HETATM   18  N6  UNL     1      -9.966   0.562  -0.019  1.00  0.00    -0.052 NA
ENDBRANCH  12  15
BRANCH  14  19
HETATM   19  O3  UNL     1      -3.698   0.674   2.887  1.00  0.00    -0.360 OA
ATOM     20  H3  UNL     1      -4.121   0.907   3.705  1.00  0.00     0.217 HD
ENDBRANCH  14  19
ENDBRANCH   6   8
ENDBRANCH   3   5
BRANCH   1  21
HETATM   21  C11 UNL     1       2.137   0.233  -0.497  1.00  0.00     0.210 C 
HETATM   22  N1  UNL     1       3.457   0.568  -0.709  1.00  0.00    -0.314 N 
HETATM   23  C6  UNL     1       3.021   0.776  -2.131  1.00  0.00     0.032 C 
HETATM   24  C7  UNL     1       3.387   0.367  -3.289  1.00  0.00    -0.000 C 
HETATM   25  C10 UNL     1       1.941   1.554  -1.485  1.00  0.00     0.164 C 
HETATM   26 CL1  UNL     1       2.558   2.973  -0.665  1.00  0.00    -0.116 Cl
BRANCH  22  27
HETATM   27  C5  UNL     1       4.786   0.813  -0.274  1.00  0.00     0.149 C 
BRANCH  27  28
HETATM   28  C3  UNL     1       5.420   0.442   0.964  1.00  0.00    -0.015 C 
HETATM   29  C4  UNL     1       4.744  -0.342   1.990  1.00  0.00     0.052 C 
BRANCH  28  30
HETATM   30  C2  UNL     1       6.704   0.756   1.172  1.00  0.00    -0.020 C 
HETATM   31  C1  UNL     1       7.464   0.347   2.371  1.00  0.00     0.036 C 
ENDBRANCH  28  30
ENDBRANCH  27  28
BRANCH  27  32
HETATM   32  O1  UNL     1       5.603   1.458  -1.083  1.00  0.00    -0.346 OA
ATOM     33  H1  UNL     1       5.185   1.703  -1.900  1.00  0.00     0.219 HD
ENDBRANCH  27  32
ENDBRANCH  22  27
BRANCH  24  34
HETATM   34  C8  UNL     1       4.407  -0.521  -3.754  1.00  0.00     0.025 C 
HETATM   35  C9  UNL     1       5.079  -1.439  -2.805  1.00  0.00     0.009 C 
ENDBRANCH  24  34
ENDBRANCH   1  21
TORSDOF 10
