REMARK  7 active torsions:
REMARK  status: ('A' for Active; 'I' for Inactive)
REMARK    1  A    between atoms: C2_2  and  O1_3 
REMARK    2  A    between atoms: O1_3  and  C3_4 
REMARK    3  A    between atoms: C3_4  and  C5_6 
REMARK       I    between atoms: N2_14  and  C10_16 
REMARK    4  A    between atoms: C10_16  and  C11_18 
REMARK    5  A    between atoms: C11_18  and  C12_19 
REMARK    6  A    between atoms: C12_19  and  O3_22 
REMARK    7  A    between atoms: C19_29  and  N3_30 
REMARK       I    between atoms: N3_30  and  C20_32 
ROOT
HETATM    1  C11 UNL     1      -0.752  -0.507  -0.091  1.00  0.00     0.095 C 
HETATM    2  C15 UNL     1      -1.333  -1.780  -0.662  1.00  0.00     0.191 C 
HETATM    3  O4  UNL     1      -2.197  -1.417  -1.724  1.00  0.00    -0.378 OA
HETATM    4  C16 UNL     1      -3.464  -1.147  -1.221  1.00  0.00     0.074 C 
HETATM    5  C17 UNL     1      -4.241  -2.416  -0.877  1.00  0.00     0.047 C 
HETATM    6  C18 UNL     1      -4.319  -0.355  -2.162  1.00  0.00     0.047 C 
HETATM    7  C19 UNL     1      -3.263  -0.291   0.016  1.00  0.00     0.119 C 
HETATM    8  C22 UNL     1      -1.949   0.462  -0.050  1.00  0.00     0.052 C 
ENDROOT
BRANCH   1   9
HETATM    9  C10 UNL     1       0.193   0.011  -1.112  1.00  0.00     0.237 C 
HETATM   10  N2  UNL     1       1.584   0.119  -1.001  1.00  0.00    -0.312 N 
HETATM   11  C9  UNL     1       2.240   1.223  -1.085  1.00  0.00     0.118 A 
ATOM     12  H2  UNL     1       2.115  -0.737  -0.842  1.00  0.00     0.170 HD
HETATM   13  C5  UNL     1       3.607   1.161  -0.953  1.00  0.00     0.036 A 
HETATM   14  N1  UNL     1       1.620   2.403  -1.266  1.00  0.00    -0.352 N 
HETATM   15  C6  UNL     1       4.303   2.351  -1.014  1.00  0.00     0.048 A 
HETATM   16 CL1  UNL     1       6.075   2.427  -0.920  1.00  0.00    -0.084 Cl
HETATM   17  C7  UNL     1       3.644   3.570  -1.202  1.00  0.00     0.041 A 
HETATM   18  C8  UNL     1       2.282   3.587  -1.329  1.00  0.00     0.091 A 
ATOM     19  H1  UNL     1       0.604   2.409  -1.360  1.00  0.00     0.166 HD
HETATM   20  O2  UNL     1      -0.324   0.399  -2.213  1.00  0.00    -0.272 OA
BRANCH  13  21
HETATM   21  C3  UNL     1       4.397  -0.050  -0.686  1.00  0.00     0.155 C 
HETATM   22  C4  UNL     1       3.759  -1.317  -1.217  1.00  0.00     0.045 C 
BRANCH  21  23
HETATM   23  O1  UNL     1       4.444  -0.220   0.674  1.00  0.00    -0.382 OA
BRANCH  23  24
HETATM   24  C2  UNL     1       5.584  -0.277   1.361  1.00  0.00     0.164 C 
HETATM   25  C1  UNL     1       6.501  -1.390   0.894  1.00  0.00     0.033 C 
ENDBRANCH  23  24
ENDBRANCH  21  23
ENDBRANCH  13  21
ENDBRANCH   1   9
BRANCH   1  26
HETATM   26  C12 UNL     1      -0.165  -0.648   1.273  1.00  0.00     0.069 C 
HETATM   27  C13 UNL     1       0.340   0.659   1.838  1.00  0.00     0.047 C 
HETATM   28  C14 UNL     1      -1.135  -1.192   2.309  1.00  0.00     0.047 C 
BRANCH  26  29
HETATM   29  O3  UNL     1       0.910  -1.551   1.294  1.00  0.00    -0.389 OA
ATOM     30  H3  UNL     1       1.284  -1.641   2.163  1.00  0.00     0.210 HD
ENDBRANCH  26  29
ENDBRANCH   1  26
BRANCH   7  31
HETATM   31  N3  UNL     1      -4.294   0.717   0.145  1.00  0.00    -0.354 N 
HETATM   32  C20 UNL     1      -5.145   0.698   1.289  1.00  0.00     0.214 C 
HETATM   33  C21 UNL     1      -6.206   1.714   1.455  1.00  0.00     0.117 C 
HETATM   34  O5  UNL     1      -4.998  -0.201   2.189  1.00  0.00    -0.274 OA
ATOM     35  H3  UNL     1      -4.410   1.432  -0.573  1.00  0.00     0.163 HD
ENDBRANCH   7  31
TORSDOF 7
