REMARK  10 active torsions:
REMARK  status: ('A' for Active; 'I' for Inactive)
REMARK       I    between atoms: C2_2  and  N1_4 
REMARK    1  A    between atoms: N1_4  and  C3_6 
REMARK    2  A    between atoms: C7_13  and  S1_14 
REMARK    3  A    between atoms: S1_14  and  N3_15 
REMARK    4  A    between atoms: N4_21  and  C10_22 
REMARK    5  A    between atoms: C10_22  and  C11_23 
REMARK    6  A    between atoms: C11_23  and  C12_24 
REMARK    7  A    between atoms: C12_24  and  C13_25 
REMARK    8  A    between atoms: C13_25  and  C14_26 
REMARK    9  A    between atoms: C14_26  and  O2_27 
REMARK   10  A    between atoms: O2_27  and  N5_28 
ROOT
HETATM    1  C3  UNL     1      -0.941  -1.382  -0.239  1.00  0.00     0.688 A 
HETATM    2  N2  UNL     1      -2.110  -1.786   0.241  1.00  0.00    -0.189 N 
ATOM      3  H2  UNL     1      -2.448  -2.748   0.246  1.00  0.00     0.184 HD
HETATM    4  C4  UNL     1      -2.773  -0.727   0.718  1.00  0.00     0.079 A 
HETATM    5  C5  UNL     1      -4.004  -0.572   1.313  1.00  0.00     0.053 A 
HETATM    6  C6  UNL     1      -4.432   0.687   1.710  1.00  0.00     0.033 A 
HETATM    7 BR1  UNL     1      -6.123   0.940   2.535  1.00  0.00    -0.050 Br
HETATM    8  C7  UNL     1      -3.636   1.794   1.516  1.00  0.00     0.058 A 
HETATM    9  C8  UNL     1      -2.408   1.608   0.917  1.00  0.00     0.060 A 
HETATM   10 BR2  UNL     1      -1.326   3.136   0.644  1.00  0.00    -0.047 Br
HETATM   11  C9  UNL     1      -1.934   0.373   0.503  1.00  0.00     0.098 A 
HETATM   12  N4  UNL     1      -0.794  -0.029  -0.091  1.00  0.00    -0.179 N 
ENDROOT
BRANCH  12  13
HETATM   13  C10 UNL     1       0.338   0.759  -0.496  1.00  0.00     0.148 C 
BRANCH  13  14
HETATM   14  C11 UNL     1       1.416   0.863   0.567  1.00  0.00     0.021 C 
BRANCH  14  15
HETATM   15  C12 UNL     1       2.532   1.707   0.057  1.00  0.00     0.004 C 
BRANCH  15  16
HETATM   16  C13 UNL     1       3.160   1.162  -1.194  1.00  0.00     0.029 C 
BRANCH  16  17
HETATM   17  C14 UNL     1       3.758  -0.204  -1.040  1.00  0.00     0.200 C 
BRANCH  17  18
HETATM   18  O2  UNL     1       4.760  -0.231  -0.062  1.00  0.00    -0.287 OA
BRANCH  18  19
HETATM   19  N5  UNL     1       5.274  -1.463   0.052  1.00  0.00    -0.311 N 
ATOM     20  H52 UNL     1       4.967  -2.261  -0.504  1.00  0.00     0.184 HD
ATOM     21  H51 UNL     1       6.004  -1.483   0.764  1.00  0.00     0.184 HD
ENDBRANCH  18  19
ENDBRANCH  17  18
ENDBRANCH  16  17
ENDBRANCH  15  16
ENDBRANCH  14  15
ENDBRANCH  13  14
ENDBRANCH  12  13
BRANCH   1  22
HETATM   22  N1  UNL     1      -0.037  -2.120  -0.776  1.00  0.00    -0.160 N 
HETATM   23  C2  UNL     1      -0.241  -3.520  -0.904  1.00  0.00     0.231 C 
HETATM   24  C1  UNL     1      -1.139  -3.970  -2.004  1.00  0.00     0.118 C 
HETATM   25  O1  UNL     1       0.311  -4.331  -0.125  1.00  0.00    -0.273 OA
ATOM     26  H1  UNL     1       0.830  -1.700  -1.111  1.00  0.00     0.187 HD
ENDBRANCH   1  22
BRANCH   8  27
HETATM   27  S1  UNL     1      -4.133   3.430   2.005  1.00  0.00    -0.019 SA
BRANCH  27  28
HETATM   28  N3  UNL     1      -2.939   4.638   1.641  1.00  0.00    -0.370 N 
ATOM     29  H32 UNL     1      -2.050   4.416   1.193  1.00  0.00     0.164 HD
ATOM     30  H31 UNL     1      -3.224   5.576   1.921  1.00  0.00     0.164 HD
ENDBRANCH  27  28
ENDBRANCH   8  27
TORSDOF 10
