REMARK  4 active torsions:
REMARK  status: ('A' for Active; 'I' for Inactive)
REMARK    1  A    between atoms: C2_2  and  C3_3 
REMARK    2  A    between atoms: C8_14  and  N3_15 
REMARK    3  A    between atoms: N3_15  and  C9_17 
REMARK    4  A    between atoms: C9_17  and  C11_19 
ROOT
HETATM    1  C3  UNL     1       2.114  -0.632  -0.671  1.00  0.00     0.011 A 
HETATM    2  C4  UNL     1       2.391   0.707  -0.834  1.00  0.00     0.046 A 
HETATM    3  C5  UNL     1       1.363   1.655  -0.684  1.00  0.00     0.040 A 
HETATM    4  S1  UNL     1       1.293   3.360  -0.799  1.00  0.00    -0.052 SA
HETATM    5  C6  UNL     1      -0.355   3.565  -0.457  1.00  0.00     0.143 A 
HETATM    6  N1  UNL     1      -1.077   4.667  -0.385  1.00  0.00    -0.380 N 
ATOM      7  H11 UNL     1      -2.068   4.790  -0.179  1.00  0.00     0.158 HD
ATOM      8  H12 UNL     1      -0.745   5.621  -0.530  1.00  0.00     0.158 HD
HETATM    9  N2  UNL     1      -0.789   2.318  -0.267  1.00  0.00    -0.333 N 
ATOM     10  H2  UNL     1      -1.767   2.137  -0.040  1.00  0.00     0.168 HD
HETATM   11  C7  UNL     1       0.072   1.321  -0.378  1.00  0.00     0.096 A 
HETATM   12  C8  UNL     1      -0.176  -0.071  -0.217  1.00  0.00     0.130 A 
HETATM   13  N4  UNL     1       0.853  -0.951  -0.373  1.00  0.00    -0.344 N 
ATOM     14  H4  UNL     1       0.640  -1.941  -0.251  1.00  0.00     0.167 HD
ENDROOT
BRANCH  12  15
HETATM   15  N3  UNL     1      -1.276  -0.581   0.061  1.00  0.00    -0.369 N 
ATOM     16  H3  UNL     1      -1.098  -1.585   0.099  1.00  0.00     0.161 HD
BRANCH  15  17
HETATM   17  C9  UNL     1      -2.588  -0.450   0.336  1.00  0.00     0.089 C 
HETATM   18  C10 UNL     1      -2.972  -0.107   1.766  1.00  0.00     0.033 C 
BRANCH  17  19
HETATM   19  C11 UNL     1      -3.330  -1.794   0.073  1.00  0.00     0.110 C 
HETATM   20 BR1  UNL     1      -3.126  -2.298  -1.771  1.00  0.00    -0.094 Br
ENDBRANCH  17  19
ENDBRANCH  15  17
ENDBRANCH  12  15
BRANCH   1  21
HETATM   21  C2  UNL     1       3.182  -1.649  -0.825  1.00  0.00     0.052 C 
HETATM   22  C1  UNL     1       3.861  -1.901   0.510  1.00  0.00     0.011 C 
ENDBRANCH   1  21
TORSDOF 4
