REMARK  1 active torsions:
REMARK  status: ('A' for Active; 'I' for Inactive)
REMARK    1  A    between atoms: O1_1  and  C1_3 
ROOT
HETATM    1  C1  UNL     1       1.576   0.173   0.367  1.00  0.00     0.205 C 
HETATM    2  C2  UNL     1       0.957   1.107  -0.596  1.00  0.00     0.291 C 
HETATM    3  O2  UNL     1      -0.028   1.913  -0.119  1.00  0.00    -0.358 OA
HETATM    4  C3  UNL     1      -1.015   1.317   0.600  1.00  0.00     0.173 C 
HETATM    5  C4  UNL     1      -1.845   0.318  -0.177  1.00  0.00     0.061 C 
HETATM    6  C5  UNL     1      -1.508  -1.092   0.079  1.00  0.00     0.155 A 
HETATM    7  O3  UNL     1      -0.743  -1.253   1.301  1.00  0.00    -0.373 OA
HETATM    8  C6  UNL     1      -0.205  -1.582   0.062  1.00  0.00     0.182 A 
HETATM    9  C7  UNL     1       0.930  -0.838  -0.519  1.00  0.00     0.189 C 
HETATM   10  O4  UNL     1       0.498   0.087  -1.431  1.00  0.00    -0.348 OA
ENDROOT
BRANCH   1  11
HETATM   11  O1  UNL     1       2.987   0.245   0.276  1.00  0.00    -0.388 OA
ATOM     12  H1  UNL     1       3.385  -0.356   0.895  1.00  0.00     0.210 HD
ENDBRANCH   1  11
TORSDOF 1
