REMARK  1 active torsions:
REMARK  status: ('A' for Active; 'I' for Inactive)
REMARK    1  A    between atoms: C3_3  and  O1_4 
ROOT
HETATM    1  C1  UNL     1      -2.396  -0.178   2.076  1.00  0.00     0.017 C 
HETATM    2  C2  UNL     1      -1.820  -0.100   1.037  1.00  0.00    -0.058 C 
HETATM    3  C3  UNL     1      -1.097   0.013  -0.235  1.00  0.00     0.206 C 
HETATM    4  C4  UNL     1      -0.824   1.454  -0.506  1.00  0.00     0.059 C 
HETATM    5  C5  UNL     1       0.473   1.833  -0.686  1.00  0.00     0.094 C 
HETATM    6  N1  UNL     1       1.301   0.697  -0.575  1.00  0.00    -0.340 N 
HETATM    7  C6  UNL     1       2.333   0.486   0.363  1.00  0.00     0.184 C 
HETATM    8  N2  UNL     1       2.010  -0.581   1.095  1.00  0.00    -0.352 N 
ATOM      9  H2  UNL     1       2.631  -0.912   1.834  1.00  0.00     0.166 HD
HETATM   10  C7  UNL     1       0.731  -1.277   0.814  1.00  0.00     0.157 C 
HETATM   11  N3  UNL     1      -0.054  -0.932  -0.286  1.00  0.00    -0.215 NA
HETATM   12  C8  UNL     1       0.910  -0.453  -1.373  1.00  0.00     0.231 C 
ENDROOT
BRANCH   3  13
HETATM   13  O1  UNL     1      -2.005  -0.356  -1.267  1.00  0.00    -0.361 OA
ATOM     14  H1  UNL     1      -1.537  -0.283  -2.090  1.00  0.00     0.213 HD
ENDBRANCH   3  13
TORSDOF 1
