REMARK  4 active torsions:
REMARK  status: ('A' for Active; 'I' for Inactive)
REMARK    1  A    between atoms: C4_6  and  C5_7 
REMARK    2  A    between atoms: C11_19  and  S1_20 
REMARK    3  A    between atoms: S1_20  and  C12_21 
REMARK    4  A    between atoms: C15_26  and  N6_27 
ROOT
HETATM    1  C5  UNL     1      -2.772  -0.520   0.369  1.00  0.00     0.021 A 
HETATM    2  C6  UNL     1      -3.915  -0.767   1.115  1.00  0.00     0.127 A 
HETATM    3 CL1  UNL     1      -5.528  -0.094   0.937  1.00  0.00    -0.062 Cl
HETATM    4  N2  UNL     1      -3.582  -1.704   2.048  1.00  0.00    -0.289 N 
ATOM      5  H2  UNL     1      -4.229  -2.084   2.740  1.00  0.00     0.188 HD
HETATM    6  N3  UNL     1      -2.336  -2.050   1.942  1.00  0.00    -0.298 N 
ATOM      7  H3  UNL     1      -1.847  -2.732   2.522  1.00  0.00     0.187 HD
HETATM    8  C7  UNL     1      -1.810  -1.344   0.928  1.00  0.00     0.071 A 
HETATM    9  C8  UNL     1      -0.435  -1.416   0.515  1.00  0.00     0.041 A 
HETATM   10  C9  UNL     1       0.311  -0.245   0.701  1.00  0.00     0.092 A 
HETATM   11  C10 UNL     1      -0.148   0.912   1.398  1.00  0.00     0.103 C 
HETATM   12  N4  UNL     1      -0.500   1.866   1.987  1.00  0.00    -0.191 NA
HETATM   13  C11 UNL     1       1.617  -0.241   0.250  1.00  0.00     0.093 A 
HETATM   14  N5  UNL     1       2.174  -1.317  -0.344  1.00  0.00    -0.335 N 
ATOM     15  H5  UNL     1       3.141  -1.290  -0.667  1.00  0.00     0.168 HD
HETATM   16  C15 UNL     1       1.419  -2.439  -0.503  1.00  0.00     0.121 A 
HETATM   17  C16 UNL     1       0.104  -2.523  -0.083  1.00  0.00     0.102 A 
HETATM   18  C17 UNL     1      -0.698  -3.716  -0.256  1.00  0.00     0.104 C 
HETATM   19  N7  UNL     1      -1.327  -4.682  -0.397  1.00  0.00    -0.191 NA
ENDROOT
BRANCH  13  20
HETATM   20  S1  UNL     1       2.600   1.244   0.417  1.00  0.00    -0.107 SA
BRANCH  20  21
HETATM   21  C12 UNL     1       4.252   1.133  -0.231  1.00  0.00     0.045 C 
HETATM   22  C13 UNL     1       5.169   0.226   0.530  1.00  0.00     0.021 C 
HETATM   23  C14 UNL     1       4.847   2.531  -0.253  1.00  0.00     0.021 C 
ENDBRANCH  20  21
ENDBRANCH  13  20
BRANCH   1  24
HETATM   24  C4  UNL     1      -2.664   0.469  -0.722  1.00  0.00     0.075 A 
HETATM   25  C2  UNL     1      -3.693   1.252  -1.301  1.00  0.00    -0.008 A 
HETATM   26  N1  UNL     1      -4.453   2.290  -1.257  1.00  0.00    -0.400 N 
HETATM   27  C3  UNL     1      -3.316   0.015  -2.055  1.00  0.00     0.068 A 
HETATM   28  C1  UNL     1      -4.340   3.231  -0.174  1.00  0.00     0.145 C 
ATOM     29  H1  UNL     1      -5.140   2.447  -1.995  1.00  0.00     0.158 HD
ENDBRANCH   1  24
BRANCH  16  30
HETATM   30  N6  UNL     1       1.912  -3.481  -1.061  1.00  0.00    -0.384 N 
ATOM     31  H62 UNL     1       2.882  -3.419  -1.371  1.00  0.00     0.157 HD
ATOM     32  H61 UNL     1       1.346  -4.321  -1.180  1.00  0.00     0.157 HD
ENDBRANCH  16  30
TORSDOF 4
