REMARK  7 active torsions:
REMARK  status: ('A' for Active; 'I' for Inactive)
REMARK    1  A    between atoms: N1_1  and  C1_4 
REMARK    2  A    between atoms: C2_9  and  S1_10 
REMARK    3  A    between atoms: S1_10  and  C3_11 
REMARK    4  A    between atoms: C3_11  and  C4_12 
REMARK    5  A    between atoms: C7_15  and  S2_16 
REMARK    6  A    between atoms: S2_16  and  N4_18 
REMARK    7  A    between atoms: N4_18  and  C8_20 
ROOT
HETATM    1  C4  UNL     1       1.811   0.017  -0.760  1.00  0.00    -0.033 A 
HETATM    2  C5  UNL     1       0.994   1.061  -0.378  1.00  0.00     0.012 A 
HETATM    3  C6  UNL     1      -0.361   0.941  -0.414  1.00  0.00     0.042 A 
HETATM    4  C7  UNL     1      -0.957  -0.241  -0.837  1.00  0.00     0.121 A 
HETATM    5  N5  UNL     1      -0.160  -1.255  -1.207  1.00  0.00    -0.357 N 
ATOM      6  H5  UNL     1      -0.580  -2.130  -1.520  1.00  0.00     0.166 HD
HETATM    7  C14 UNL     1       1.193  -1.142  -1.174  1.00  0.00     0.096 A 
ENDROOT
BRANCH   1   8
HETATM    8  C3  UNL     1       3.262   0.204  -0.700  1.00  0.00     0.121 C 
BRANCH   8   9
HETATM    9  S1  UNL     1       3.987  -0.259   0.876  1.00  0.00    -0.099 SA
BRANCH   9  10
HETATM   10  C2  UNL     1       5.768   0.042   0.752  1.00  0.00     0.130 A 
HETATM   11  N3  UNL     1       6.455   0.511  -0.277  1.00  0.00    -0.286 N 
HETATM   12  N2  UNL     1       7.713   0.662  -0.192  1.00  0.00    -0.279 N 
ATOM     13  H3  UNL     1       5.972   0.752  -1.142  1.00  0.00     0.188 HD
HETATM   14  C1  UNL     1       8.320   0.336   0.955  1.00  0.00     0.159 A 
ATOM     15  H2  UNL     1       8.249   1.024  -0.981  1.00  0.00     0.189 HD
HETATM   16  S3  UNL     1       7.005  -0.196   1.906  1.00  0.00    -0.027 SA
BRANCH  14  17
HETATM   17  N1  UNL     1       9.607   0.430   1.206  1.00  0.00    -0.379 N 
ATOM     18  H12 UNL     1      10.392   0.748   0.638  1.00  0.00     0.158 HD
ATOM     19  H11 UNL     1      10.070   0.181   2.080  1.00  0.00     0.158 HD
ENDBRANCH  14  17
ENDBRANCH   9  10
ENDBRANCH   8   9
ENDBRANCH   1   8
BRANCH   4  20
HETATM   20  S2  UNL     1      -2.757  -0.358  -0.869  1.00  0.00     0.168 S 
HETATM   21  O1  UNL     1      -3.547   0.119  -2.349  1.00  0.00    -0.228 OA
BRANCH  20  22
HETATM   22  N4  UNL     1      -3.577  -0.274   0.518  1.00  0.00    -0.298 N 
ATOM     23  H4  UNL     1      -3.066  -0.156   1.393  1.00  0.00     0.177 HD
BRANCH  22  24
HETATM   24  C8  UNL     1      -4.987  -0.361   0.547  1.00  0.00     0.079 A 
HETATM   25  C9  UNL     1      -5.615  -1.467   1.069  1.00  0.00     0.033 A 
HETATM   26  C10 UNL     1      -7.008  -1.500   1.073  1.00  0.00     0.002 A 
HETATM   27  C11 UNL     1      -7.771  -0.475   0.577  1.00  0.00     0.003 A 
HETATM   28  C12 UNL     1      -7.121   0.625   0.058  1.00  0.00     0.044 A 
HETATM   29  C13 UNL     1      -5.747   0.666   0.051  1.00  0.00     0.143 A 
HETATM   30  F1  UNL     1      -5.116   1.757  -0.464  1.00  0.00    -0.204 F 
ENDBRANCH  22  24
ENDBRANCH  20  22
ENDBRANCH   4  20
TORSDOF 7
