REMARK  14 active torsions:
REMARK  status: ('A' for Active; 'I' for Inactive)
REMARK    1  A    between atoms: O1_2  and  C2_3 
REMARK    2  A    between atoms: C2_3  and  C3_5 
REMARK    3  A    between atoms: C6_8  and  N1_9 
REMARK       I    between atoms: N1_9  and  C7_11 
REMARK    4  A    between atoms: C7_11  and  O4_13 
REMARK    5  A    between atoms: O4_13  and  C8_14 
REMARK    6  A    between atoms: C8_14  and  C9_15 
REMARK    7  A    between atoms: C9_15  and  O5_16 
REMARK    8  A    between atoms: C9_15  and  C10_18 
REMARK    9  A    between atoms: C10_18  and  C11_20 
REMARK   10  A    between atoms: C11_20  and  N2_21 
REMARK   11  A    between atoms: C11_20  and  C12_25 
REMARK       I    between atoms: C12_25  and  N3_27 
REMARK   12  A    between atoms: N3_27  and  N4_29 
REMARK   13  A    between atoms: N4_29  and  C13_30 
REMARK   14  A    between atoms: C13_30  and  O8_32 
ROOT
HETATM    1  C9  UNL     1       1.146  -2.629   2.157  1.00  0.00     0.214 C 
ENDROOT
BRANCH   1   2
HETATM    2  C8  UNL     1       0.712  -3.017   0.768  1.00  0.00     0.220 C 
BRANCH   2   3
HETATM    3  O4  UNL     1       0.425  -1.891   0.002  1.00  0.00    -0.301 OA
BRANCH   3   4
HETATM    4  C7  UNL     1      -0.779  -1.158   0.098  1.00  0.00     0.365 C 
HETATM    5  N1  UNL     1      -0.971  -0.004  -0.694  1.00  0.00    -0.303 N 
ATOM      6  H1  UNL     1      -0.220   0.320  -1.304  1.00  0.00     0.171 HD
HETATM    7  O3  UNL     1      -1.627  -1.571   0.885  1.00  0.00    -0.238 OA
BRANCH   5   8
HETATM    8  C6  UNL     1      -2.182   0.701  -0.651  1.00  0.00     0.036 A 
HETATM    9  C5  UNL     1      -2.183   2.058  -0.813  1.00  0.00     0.030 A 
HETATM   10  C4  UNL     1      -3.393   2.789  -0.830  1.00  0.00     0.020 A 
HETATM   11  C3  UNL     1      -4.581   2.110  -0.680  1.00  0.00     0.039 A 
HETATM   12  C16 UNL     1      -4.556   0.750  -0.518  1.00  0.00     0.020 A 
HETATM   13  C15 UNL     1      -3.361   0.009  -0.499  1.00  0.00     0.030 A 
BRANCH  11  14
HETATM   14  C2  UNL     1      -5.845   2.846  -0.726  1.00  0.00     0.292 C 
HETATM   15  O2  UNL     1      -5.934   4.071  -0.892  1.00  0.00    -0.259 OA
BRANCH  14  16
HETATM   16  O1  UNL     1      -7.026   2.106  -0.574  1.00  0.00    -0.323 OA
HETATM   17  C1  UNL     1      -8.315   2.713  -0.605  1.00  0.00     0.213 C 
ENDBRANCH  14  16
ENDBRANCH  11  14
ENDBRANCH   5   8
ENDBRANCH   3   4
ENDBRANCH   2   3
ENDBRANCH   1   2
BRANCH   1  18
HETATM   18  O5  UNL     1       0.209  -1.914   2.873  1.00  0.00    -0.386 OA
ATOM     19  H5  UNL     1       0.483  -1.669   3.749  1.00  0.00     0.210 HD
ENDBRANCH   1  18
BRANCH   1  20
HETATM   20  C10 UNL     1       2.384  -1.790   2.037  1.00  0.00     0.197 C 
HETATM   21  O6  UNL     1       2.377  -0.632   2.432  1.00  0.00    -0.292 OA
BRANCH  20  22
HETATM   22  C11 UNL     1       3.641  -2.322   1.450  1.00  0.00     0.348 C 
BRANCH  22  23
HETATM   23  N2  UNL     1       3.555  -3.662   0.965  1.00  0.00    -0.059 N 
ATOM     24  H23 UNL     1       3.218  -4.283   1.701  1.00  0.00     0.275 HD
ATOM     25  H22 UNL     1       2.789  -3.747   0.297  1.00  0.00     0.275 HD
ATOM     26  H21 UNL     1       4.418  -4.027   0.562  1.00  0.00     0.275 HD
ENDBRANCH  22  23
BRANCH  22  27
HETATM   27  C12 UNL     1       4.058  -1.473   0.315  1.00  0.00     0.284 C 
HETATM   28  O7  UNL     1       3.625  -1.719  -0.851  1.00  0.00    -0.268 OA
HETATM   29  N3  UNL     1       4.962  -0.378   0.565  1.00  0.00    -0.199 N 
ATOM     30  H3  UNL     1       5.290  -0.212   1.517  1.00  0.00     0.205 HD
BRANCH  29  31
HETATM   31  N4  UNL     1       5.394   0.448  -0.445  1.00  0.00    -0.302 NA
BRANCH  31  32
HETATM   32  C13 UNL     1       5.801   1.222  -1.391  1.00  0.00     0.210 C 
HETATM   33  C14 UNL     1       4.749   2.142  -2.094  1.00  0.00     0.117 C 
BRANCH  32  34
HETATM   34  O8  UNL     1       6.942   1.457  -1.970  1.00  0.00    -0.338 OA
ATOM     35  H8  UNL     1       7.242   2.028  -2.668  1.00  0.00     0.220 HD
ENDBRANCH  32  34
ENDBRANCH  31  32
ENDBRANCH  29  31
ENDBRANCH  22  27
ENDBRANCH  20  22
ENDBRANCH   1  20
TORSDOF 14
