REMARK  9 active torsions:
REMARK  status: ('A' for Active; 'I' for Inactive)
REMARK    1  A    between atoms: O1_2  and  C2_3 
REMARK    2  A    between atoms: C4_5  and  O2_6 
REMARK    3  A    between atoms: C9_11  and  N1_12 
REMARK    4  A    between atoms: N3_20  and  C16_21 
REMARK    5  A    between atoms: C16_21  and  C17_22 
REMARK    6  A    between atoms: C17_22  and  C18_23 
REMARK    7  A    between atoms: C18_23  and  O3_24 
REMARK    8  A    between atoms: O3_24  and  C19_25 
REMARK    9  A    between atoms: C19_25  and  C20_26 
ROOT
HETATM    1  C2  UNL     1      -4.954  -2.220   0.896  1.00  0.00     0.071 A 
HETATM    2  C3  UNL     1      -4.240  -3.350   0.555  1.00  0.00     0.074 A 
HETATM    3  C4  UNL     1      -3.001  -3.275  -0.069  1.00  0.00     0.079 A 
HETATM    4  C6  UNL     1      -2.496  -2.026  -0.342  1.00  0.00     0.012 A 
HETATM    5  C7  UNL     1      -3.193  -0.887  -0.009  1.00  0.00    -0.010 A 
HETATM    6  C8  UNL     1      -4.407  -0.980   0.602  1.00  0.00     0.047 A 
HETATM    7  C9  UNL     1      -2.502   0.374  -0.371  1.00  0.00     0.284 C 
HETATM    8  C15 UNL     1      -1.092   0.180   0.130  1.00  0.00     0.313 C 
HETATM    9  N3  UNL     1      -0.451  -0.740  -0.802  1.00  0.00     0.095 N 
HETATM   10  C27 UNL     1      -1.160  -1.961  -1.009  1.00  0.00     0.314 C 
ENDROOT
BRANCH   9  11
HETATM   11  C16 UNL     1       0.896  -0.929  -0.273  1.00  0.00     0.275 C 
BRANCH  11  12
HETATM   12  C17 UNL     1       1.725  -1.787  -1.169  1.00  0.00     0.056 C 
BRANCH  12  13
HETATM   13  C18 UNL     1       3.089  -1.921  -0.506  1.00  0.00     0.169 C 
BRANCH  13  14
HETATM   14  O3  UNL     1       3.612  -0.636  -0.377  1.00  0.00    -0.391 OA
BRANCH  14  15
HETATM   15  C19 UNL     1       4.873  -0.696   0.246  1.00  0.00     0.172 C 
BRANCH  15  16
HETATM   16  C20 UNL     1       5.378   0.711   0.369  1.00  0.00     0.014 C 
HETATM   17  C21 UNL     1       6.756   0.745   1.047  1.00  0.00     0.011 C 
HETATM   18  C22 UNL     1       7.587   1.485   0.050  1.00  0.00    -0.014 C 
HETATM   19  C23 UNL     1       7.084   2.911  -0.054  1.00  0.00     0.005 C 
HETATM   20  C26 UNL     1       7.024   0.917  -1.265  1.00  0.00     0.010 C 
HETATM   21  C24 UNL     1       5.746   2.818  -0.799  1.00  0.00     0.005 C 
HETATM   22  C25 UNL     1       5.572   1.344  -0.987  1.00  0.00    -0.008 C 
ENDBRANCH  15  16
ENDBRANCH  14  15
ENDBRANCH  13  14
ENDBRANCH  12  13
ENDBRANCH  11  12
ENDBRANCH   9  11
BRANCH   7  23
HETATM   23  N1  UNL     1      -3.083   1.569   0.093  1.00  0.00     0.102 N 
HETATM   24  C10 UNL     1      -4.194   2.033  -0.719  1.00  0.00     0.303 C 
HETATM   25  C11 UNL     1      -4.957   3.017   0.133  1.00  0.00     0.302 C 
HETATM   26  N2  UNL     1      -4.036   4.080   0.479  1.00  0.00     0.087 N 
HETATM   27  C12 UNL     1      -3.759   4.110   1.905  1.00  0.00     0.310 C 
HETATM   28  C13 UNL     1      -2.767   3.984  -0.199  1.00  0.00     0.302 C 
HETATM   29  C14 UNL     1      -2.093   2.637   0.010  1.00  0.00     0.303 C 
ENDBRANCH   7  23
BRANCH   3  30
HETATM   30  O2  UNL     1      -2.323  -4.440  -0.392  1.00  0.00    -0.355 OA
HETATM   31  C5  UNL     1      -2.758  -5.738  -0.153  1.00  0.00     0.210 C 
ENDBRANCH   3  30
BRANCH   1  32
HETATM   32  O1  UNL     1      -6.191  -2.293   1.519  1.00  0.00    -0.356 OA
HETATM   33  C1  UNL     1      -6.713  -3.576   1.802  1.00  0.00     0.210 C 
ENDBRANCH   1  32
TORSDOF 9
