REMARK  8 active torsions:
REMARK  status: ('A' for Active; 'I' for Inactive)
REMARK    1  A    between atoms: C2_2  and  N1_3 
REMARK    2  A    between atoms: N1_3  and  C3_4 
REMARK    3  A    between atoms: N1_3  and  N2_13 
REMARK    4  A    between atoms: C3_4  and  C4_5 
REMARK    5  A    between atoms: C6_7  and  O1_8 
REMARK    6  A    between atoms: N3_15  and  C9_17 
REMARK    7  A    between atoms: C15_23  and  O3_25 
REMARK    8  A    between atoms: C17_28  and  O5_29 
ROOT
HETATM    1  N2  UNL     1      -0.646   0.561  -0.194  1.00  0.00    -0.241 N 
ATOM      2  H2  UNL     1      -0.236   0.730   0.725  1.00  0.00     0.208 HD
HETATM    3  N3  UNL     1       0.109   0.385  -1.201  1.00  0.00    -0.286 N 
ATOM      4  H3  UNL     1      -0.318   0.218  -2.112  1.00  0.00     0.188 HD
ENDROOT
BRANCH   3   5
HETATM    5  C9  UNL     1       1.525   0.413  -1.103  1.00  0.00     0.050 A 
HETATM    6  C10 UNL     1       2.185   1.388  -1.831  1.00  0.00     0.031 A 
HETATM    7  C11 UNL     1       3.550   1.460  -1.772  1.00  0.00     0.015 A 
HETATM    8  C12 UNL     1       4.295   0.590  -1.009  1.00  0.00     0.008 A 
HETATM    9  C13 UNL     1       3.651  -0.388  -0.279  1.00  0.00     0.016 A 
HETATM   10  C17 UNL     1       5.755   0.440  -0.764  1.00  0.00     0.298 C 
HETATM   11  C14 UNL     1       2.271  -0.460  -0.338  1.00  0.00     0.044 A 
HETATM   12  C15 UNL     1       4.715  -1.147   0.422  1.00  0.00     0.191 C 
HETATM   13  C16 UNL     1       4.492  -2.640   0.305  1.00  0.00     0.085 C 
HETATM   14  O4  UNL     1       5.884  -0.815  -0.221  1.00  0.00    -0.317 OA
BRANCH  12  15
HETATM   15  O3  UNL     1       4.848  -0.760   1.759  1.00  0.00    -0.362 OA
ATOM     16  H3  UNL     1       5.530  -1.246   2.208  1.00  0.00     0.213 HD
ENDBRANCH  12  15
BRANCH  10  17
HETATM   17  O5  UNL     1       6.250   1.390   0.094  1.00  0.00    -0.362 OA
HETATM   18  C18 UNL     1       7.295   2.126  -0.461  1.00  0.00     0.205 C 
ENDBRANCH  10  17
ENDBRANCH   3   5
BRANCH   1  19
HETATM   19  N1  UNL     1      -2.063   0.524  -0.342  1.00  0.00    -0.291 N 
BRANCH  19  20
HETATM   20  C2  UNL     1      -2.722   1.785  -0.358  1.00  0.00     0.145 C 
HETATM   21  C1  UNL     1      -1.744   2.949  -0.213  1.00  0.00     0.028 C 
ENDBRANCH  19  20
BRANCH  19  22
HETATM   22  C3  UNL     1      -2.685  -0.725  -0.456  1.00  0.00     0.116 C 
BRANCH  22  23
HETATM   23  C4  UNL     1      -3.496  -1.304   0.631  1.00  0.00     0.163 C 
HETATM   24  C5  UNL     1      -4.593  -0.527   1.237  1.00  0.00     0.069 C 
HETATM   25  C6  UNL     1      -5.777  -0.338   0.304  1.00  0.00     0.123 C 
HETATM   26  C7  UNL     1      -5.998  -1.609  -0.502  1.00  0.00     0.058 C 
HETATM   27  C8  UNL     1      -5.295  -2.724   0.200  1.00  0.00     0.171 C 
HETATM   28  O2  UNL     1      -3.948  -2.557   0.174  1.00  0.00    -0.380 OA
BRANCH  25  29
HETATM   29  O1  UNL     1      -6.886  -0.065   1.079  1.00  0.00    -0.395 OA
ATOM     30  H1  UNL     1      -7.626   0.053   0.496  1.00  0.00     0.210 HD
ENDBRANCH  25  29
ENDBRANCH  22  23
ENDBRANCH  19  22
ENDBRANCH   1  19
TORSDOF 8
