REMARK  8 active torsions:
REMARK  status: ('A' for Active; 'I' for Inactive)
REMARK    1  A    between atoms: C2_2  and  C3_3 
REMARK    2  A    between atoms: C3_3  and  C4_4 
REMARK    3  A    between atoms: N1_7  and  C7_8 
REMARK    4  A    between atoms: C7_8  and  C8_13 
REMARK    5  A    between atoms: N2_9  and  O1_11 
REMARK    6  A    between atoms: C11_18  and  O2_19 
REMARK    7  A    between atoms: O2_19  and  C12_20 
REMARK    8  A    between atoms: C12_20  and  C13_21 
ROOT
HETATM    1  C8  UNL     1       1.060  -0.720   0.212  1.00  0.00     0.015 A 
HETATM    2  C9  UNL     1       1.285  -0.914  -1.141  1.00  0.00     0.032 A 
HETATM    3  C10 UNL     1       0.195  -1.023  -1.978  1.00  0.00     0.091 A 
HETATM    4  N3  UNL     1      -1.068  -0.947  -1.524  1.00  0.00    -0.347 N 
ATOM      5  H3  UNL     1      -1.845  -1.032  -2.179  1.00  0.00     0.167 HD
HETATM    6  C11 UNL     1      -1.315  -0.762  -0.232  1.00  0.00     0.142 A 
HETATM    7  C19 UNL     1      -0.244  -0.646   0.648  1.00  0.00     0.071 A 
ENDROOT
BRANCH   1   8
HETATM    8  C7  UNL     1       2.126  -0.584   1.184  1.00  0.00     0.133 C 
HETATM    9  N2  UNL     1       2.110  -1.040   2.370  1.00  0.00    -0.252 N 
ATOM     10  H2  UNL     1       2.936  -0.859   2.941  1.00  0.00     0.196 HD
BRANCH   8  11
HETATM   11  N1  UNL     1       3.280   0.147   0.715  1.00  0.00    -0.365 N 
HETATM   12  C6  UNL     1       3.351   1.556   0.395  1.00  0.00     0.125 C 
HETATM   13  C5  UNL     1       4.712   1.729  -0.240  1.00  0.00     0.026 C 
HETATM   14  C4  UNL     1       5.527   0.658   0.454  1.00  0.00     0.009 C 
HETATM   15  C20 UNL     1       4.557  -0.500   0.508  1.00  0.00     0.129 C 
BRANCH  14  16
HETATM   16  C3  UNL     1       6.768   0.296  -0.320  1.00  0.00     0.032 C 
BRANCH  16  17
HETATM   17  C2  UNL     1       7.637   1.468  -0.490  1.00  0.00    -0.036 C 
HETATM   18  C1  UNL     1       8.876   1.476  -0.016  1.00  0.00     0.007 C 
ENDBRANCH  16  17
ENDBRANCH  14  16
ENDBRANCH   8  11
BRANCH   9  19
HETATM   19  O1  UNL     1       1.110  -1.742   2.955  1.00  0.00    -0.288 OA
ATOM     20  H1  UNL     1       1.098  -2.083   3.842  1.00  0.00     0.244 HD
ENDBRANCH   9  19
ENDBRANCH   1   8
BRANCH   6  21
HETATM   21  O2  UNL     1      -2.616  -0.684   0.234  1.00  0.00    -0.335 OA
BRANCH  21  22
HETATM   22  C12 UNL     1      -3.693  -0.804  -0.676  1.00  0.00     0.182 C 
BRANCH  22  23
HETATM   23  C13 UNL     1      -5.031  -0.693   0.015  1.00  0.00     0.010 C 
HETATM   24  C14 UNL     1      -6.118  -0.833  -1.030  1.00  0.00     0.007 C 
HETATM   25  C15 UNL     1      -7.443  -0.850  -0.319  1.00  0.00     0.000 C 
HETATM   26  C16 UNL     1      -7.648   0.291   0.616  1.00  0.00     0.000 C 
HETATM   27  C17 UNL     1      -6.469   0.590   1.495  1.00  0.00     0.000 C 
HETATM   28  C18 UNL     1      -5.207   0.676   0.643  1.00  0.00     0.007 C 
ENDBRANCH  22  23
ENDBRANCH  21  22
ENDBRANCH   6  21
TORSDOF 8
