REMARK  7 active torsions:
REMARK  status: ('A' for Active; 'I' for Inactive)
REMARK    1  A    between atoms: C4_4  and  N1_5 
REMARK    2  A    between atoms: C6_7  and  C7_8 
REMARK    3  A    between atoms: C7_8  and  O1_9 
REMARK    4  A    between atoms: C11_16  and  O2_17 
REMARK    5  A    between atoms: O2_17  and  C12_18 
REMARK    6  A    between atoms: C16_22  and  O3_23 
REMARK    7  A    between atoms: O3_23  and  C17_24 
ROOT
HETATM    1  C1  UNL     1       0.011   3.227   0.060  1.00  0.00     0.049 C 
HETATM    2  C2  UNL     1       0.484   1.850  -0.103  1.00  0.00    -0.043 A 
HETATM    3  C3  UNL     1       1.840   1.555  -0.317  1.00  0.00     0.056 A 
HETATM    4  C4  UNL     1       2.319   0.275  -0.474  1.00  0.00     0.104 A 
HETATM    5  N2  UNL     1       1.447  -0.719  -0.418  1.00  0.00    -0.342 N 
ATOM      6  H2  UNL     1       1.783  -1.675  -0.532  1.00  0.00     0.167 HD
HETATM    7  C9  UNL     1       0.124  -0.511  -0.215  1.00  0.00     0.050 A 
HETATM    8  C10 UNL     1      -0.746  -1.599  -0.165  1.00  0.00     0.067 A 
HETATM    9  C11 UNL     1      -2.098  -1.469   0.037  1.00  0.00     0.074 A 
HETATM   10  C15 UNL     1      -2.567  -0.161   0.194  1.00  0.00     0.074 A 
HETATM   11  C16 UNL     1      -1.719   0.921   0.148  1.00  0.00     0.085 A 
HETATM   12  C20 UNL     1      -0.362   0.769  -0.057  1.00  0.00     0.030 A 
ENDROOT
BRANCH   4  13
HETATM   13  N1  UNL     1       3.722   0.050  -0.690  1.00  0.00    -0.366 N 
HETATM   14  C5  UNL     1       4.877   0.919  -0.795  1.00  0.00     0.132 A 
HETATM   15  C6  UNL     1       5.754  -0.278  -1.008  1.00  0.00     0.045 A 
HETATM   16  C8  UNL     1       4.527  -1.134  -0.887  1.00  0.00     0.132 A 
BRANCH  15  17
HETATM   17  C7  UNL     1       6.756  -0.411   0.113  1.00  0.00     0.172 C 
BRANCH  17  18
HETATM   18  O1  UNL     1       6.053  -0.558   1.327  1.00  0.00    -0.400 OA
ATOM     19  H1  UNL     1       6.684  -0.642   2.033  1.00  0.00     0.209 HD
ENDBRANCH  17  18
ENDBRANCH  15  17
ENDBRANCH   4  13
BRANCH  11  20
HETATM   20  O3  UNL     1      -2.215   2.179   0.306  1.00  0.00    -0.346 OA
BRANCH  20  21
HETATM   21  C17 UNL     1      -3.521   2.592   0.521  1.00  0.00     0.120 C 
HETATM   22  C18 UNL     1      -3.575   3.351   1.855  1.00  0.00     0.040 C 
HETATM   23  C19 UNL     1      -3.986   3.609  -0.526  1.00  0.00     0.040 C 
ENDBRANCH  20  21
ENDBRANCH  11  20
BRANCH   9  24
HETATM   24  O2  UNL     1      -2.981  -2.534   0.089  1.00  0.00    -0.346 OA
BRANCH  24  25
HETATM   25  C12 UNL     1      -2.722  -3.879  -0.041  1.00  0.00     0.120 C 
HETATM   26  C13 UNL     1      -3.056  -4.672   1.223  1.00  0.00     0.040 C 
HETATM   27  C14 UNL     1      -3.426  -4.509  -1.239  1.00  0.00     0.040 C 
ENDBRANCH  24  25
ENDBRANCH   9  24
TORSDOF 7
