REMARK  3 active torsions:
REMARK  status: ('A' for Active; 'I' for Inactive)
REMARK    1  A    between atoms: C3_3  and  O1_4 
REMARK    2  A    between atoms: O1_4  and  C4_5 
REMARK    3  A    between atoms: C12_13  and  O2_15 
ROOT
HETATM    1  C1  UNL     1       6.135   1.482   0.834  1.00  0.00     0.014 C 
HETATM    2  C2  UNL     1       5.382   0.574   0.557  1.00  0.00    -0.091 C 
HETATM    3  C3  UNL     1       4.470  -0.529   0.248  1.00  0.00     0.263 C 
ENDROOT
BRANCH   3   4
HETATM    4  O1  UNL     1       3.163  -0.062   0.364  1.00  0.00    -0.347 OA
BRANCH   4   5
HETATM    5  C4  UNL     1       2.219  -1.020   0.095  1.00  0.00     0.300 C 
HETATM    6  C5  UNL     1       1.304  -0.666  -1.053  1.00  0.00     0.067 C 
HETATM    7  C6  UNL     1      -0.139  -1.065  -0.718  1.00  0.00     0.049 C 
HETATM    8  C7  UNL     1      -0.749  -0.085   0.253  1.00  0.00     0.130 C 
HETATM    9  C8  UNL     1      -1.511  -0.783   1.324  1.00  0.00     0.044 C 
HETATM   10  C12 UNL     1      -1.557   0.983  -0.433  1.00  0.00     0.088 C 
HETATM   11  O3  UNL     1       0.337   0.578   0.871  1.00  0.00    -0.196 OA
HETATM   12  C9  UNL     1      -2.921  -1.114   0.989  1.00  0.00     0.003 C 
HETATM   13  C10 UNL     1      -3.651  -0.073   0.214  1.00  0.00     0.003 C 
HETATM   14  C11 UNL     1      -2.852   0.419  -0.980  1.00  0.00     0.041 C 
HETATM   15  C13 UNL     1      -1.929   2.031   0.591  1.00  0.00     0.049 C 
HETATM   16  O4  UNL     1       0.932  -0.195   1.739  1.00  0.00    -0.063 OA
HETATM   17  O5  UNL     1       1.417  -1.294   1.210  1.00  0.00    -0.178 OA
BRANCH  10  18
HETATM   18  O2  UNL     1      -0.846   1.587  -1.438  1.00  0.00    -0.387 OA
ATOM     19  H2  UNL     1      -1.356   2.261  -1.871  1.00  0.00     0.210 HD
ENDBRANCH  10  18
ENDBRANCH   4   5
ENDBRANCH   3   4
TORSDOF 3
