REMARK  10 active torsions:
REMARK  status: ('A' for Active; 'I' for Inactive)
REMARK    1  A    between atoms: C2_2  and  O1_3 
REMARK    2  A    between atoms: O1_3  and  C3_4 
REMARK    3  A    between atoms: C3_4  and  C4_5 
REMARK       I    between atoms: C4_5  and  N1_7 
REMARK    4  A    between atoms: N1_7  and  C5_9 
REMARK    5  A    between atoms: C5_9  and  C7_11 
REMARK    6  A    between atoms: C7_11  and  O3_12 
REMARK    7  A    between atoms: C7_11  and  N2_14 
REMARK       I    between atoms: N2_14  and  C8_16 
REMARK    8  A    between atoms: C8_16  and  C9_18 
REMARK    9  A    between atoms: C9_18  and  O5_19 
REMARK   10  A    between atoms: C9_18  and  C10_21 
ROOT
HETATM    1  C4  UNL     1      -1.189  -0.449  -0.199  1.00  0.00     0.292 C 
HETATM    2  O2  UNL     1      -0.824  -1.466  -0.887  1.00  0.00    -0.267 OA
HETATM    3  N1  UNL     1      -0.191   0.313   0.422  1.00  0.00    -0.347 N 
ATOM      4  H1  UNL     1      -0.443   1.127   0.982  1.00  0.00     0.163 HD
ENDROOT
BRANCH   3   5
HETATM    5  C5  UNL     1       1.228  -0.066   0.264  1.00  0.00     0.129 C 
HETATM    6  C6  UNL     1       1.650  -0.798   1.546  1.00  0.00     0.036 C 
BRANCH   5   7
HETATM    7  C7  UNL     1       2.080   1.147   0.132  1.00  0.00     0.242 C 
BRANCH   7   8
HETATM    8  O3  UNL     1       1.711   1.924  -0.973  1.00  0.00    -0.375 OA
ATOM      9  H3  UNL     1       2.255   2.698  -1.057  1.00  0.00     0.212 HD
ENDBRANCH   7   8
BRANCH   7  10
HETATM   10  N2  UNL     1       3.462   0.678  -0.055  1.00  0.00    -0.330 N 
HETATM   11  C8  UNL     1       4.436   0.964   0.926  1.00  0.00     0.256 C 
HETATM   12  O4  UNL     1       4.117   1.626   1.970  1.00  0.00    -0.270 OA
ATOM     13  H2  UNL     1       3.715   0.149  -0.889  1.00  0.00     0.165 HD
BRANCH  11  14
HETATM   14  C9  UNL     1       5.824   0.492   0.741  1.00  0.00     0.291 C 
BRANCH  14  15
HETATM   15  O5  UNL     1       6.530   0.898   1.897  1.00  0.00    -0.378 OA
ATOM     16  H5  UNL     1       7.422   0.595   1.778  1.00  0.00     0.211 HD
ENDBRANCH  14  15
BRANCH  14  17
HETATM   17  C10 UNL     1       5.863  -0.957   0.584  1.00  0.00     0.234 C 
HETATM   18  O6  UNL     1       6.318  -1.656   1.499  1.00  0.00    -0.281 OA
HETATM   19  S1  UNL     1       5.298  -1.867  -0.845  1.00  0.00    -0.009 SA
ENDBRANCH  14  17
ENDBRANCH  11  14
ENDBRANCH   7  10
ENDBRANCH   5   7
ENDBRANCH   3   5
BRANCH   1  20
HETATM   20  C3  UNL     1      -2.616  -0.135  -0.079  1.00  0.00     0.341 C 
HETATM   21  O7  UNL     1      -3.454  -0.612  -1.032  1.00  0.00    -0.303 OA
HETATM   22  C11 UNL     1      -4.208  -1.658  -0.596  1.00  0.00     0.170 C 
HETATM   23  C12 UNL     1      -5.621  -1.202  -0.290  1.00  0.00     0.079 C 
HETATM   24  C13 UNL     1      -4.193  -2.835  -1.548  1.00  0.00     0.079 C 
HETATM   25  O8  UNL     1      -3.638  -2.092   0.619  1.00  0.00    -0.279 OA
HETATM   26  C14 UNL     1      -2.998  -1.016   1.155  1.00  0.00     0.335 C 
HETATM   27  O9  UNL     1      -2.701  -0.656   2.297  1.00  0.00    -0.258 OA
BRANCH  20  28
HETATM   28  O1  UNL     1      -2.908   1.115   0.383  1.00  0.00    -0.340 OA
BRANCH  28  29
HETATM   29  C2  UNL     1      -2.986   2.155  -0.462  1.00  0.00     0.168 C 
HETATM   30  C1  UNL     1      -1.817   2.534  -1.293  1.00  0.00     0.033 C 
ENDBRANCH  28  29
ENDBRANCH  20  28
ENDBRANCH   1  20
TORSDOF 10
