REMARK  7 active torsions:
REMARK  status: ('A' for Active; 'I' for Inactive)
REMARK    1  A    between atoms: O1_2  and  C2_3 
REMARK    2  A    between atoms: C7_10  and  C8_11 
REMARK    3  A    between atoms: C8_11  and  N1_12 
REMARK    4  A    between atoms: N1_12  and  C9_14 
REMARK       I    between atoms: N2_17  and  C12_18 
REMARK       I    between atoms: C12_18  and  N3_20 
REMARK    5  A    between atoms: N3_20  and  C13_22 
REMARK    6  A    between atoms: C18_27  and  C19_28 
REMARK       I    between atoms: C19_28  and  N4_30 
REMARK    7  A    between atoms: N4_30  and  C20_32 
ROOT
HETATM    1  C9  UNL     1       3.469   0.372  -0.391  1.00  0.00     0.087 C 
HETATM    2  C10 UNL     1       2.755   0.866   0.853  1.00  0.00     0.045 C 
HETATM    3  C11 UNL     1       1.478   0.141   0.910  1.00  0.00     0.135 C 
HETATM    4  N2  UNL     1       0.686   0.298  -0.300  1.00  0.00    -0.314 N 
HETATM    5  C12 UNL     1      -0.688   0.720  -0.012  1.00  0.00     0.322 C 
HETATM    6  O2  UNL     1      -0.770   1.595   0.850  1.00  0.00    -0.247 OA
HETATM    7  N3  UNL     1      -1.661   0.035  -0.741  1.00  0.00    -0.337 N 
ATOM      8  H3  UNL     1      -1.365  -0.649  -1.437  1.00  0.00     0.164 HD
HETATM    9  C24 UNL     1       1.238   0.183  -1.585  1.00  0.00     0.070 C 
HETATM   10  C25 UNL     1       2.637   0.688  -1.649  1.00  0.00     0.070 C 
ENDROOT
BRANCH   7  11
HETATM   11  C13 UNL     1      -3.083   0.265  -0.541  1.00  0.00     0.099 C 
HETATM   12  C14 UNL     1      -3.297   0.529   1.005  1.00  0.00     0.026 C 
HETATM   13  C15 UNL     1      -2.764  -0.569   1.798  1.00  0.00     0.002 C 
HETATM   14  C16 UNL     1      -2.707  -1.922   1.191  1.00  0.00     0.001 C 
HETATM   15  C17 UNL     1      -3.117  -2.103  -0.208  1.00  0.00     0.016 C 
HETATM   16  C18 UNL     1      -3.873  -0.938  -0.839  1.00  0.00     0.100 C 
BRANCH  16  17
HETATM   17  C19 UNL     1      -5.205  -0.767  -0.202  1.00  0.00     0.224 C 
HETATM   18  O3  UNL     1      -5.585  -1.486   0.716  1.00  0.00    -0.273 OA
HETATM   19  N4  UNL     1      -6.049   0.259  -0.672  1.00  0.00    -0.353 N 
ATOM     20  H4  UNL     1      -5.686   0.827  -1.437  1.00  0.00     0.163 HD
BRANCH  19  21
HETATM   21  C20 UNL     1      -7.335   0.589  -0.206  1.00  0.00     0.022 C 
HETATM   22  C21 UNL     1      -7.430   1.088   1.207  1.00  0.00     0.037 C 
HETATM   23  C22 UNL     1      -8.278  -0.664  -0.336  1.00  0.00     0.037 C 
HETATM   24  C23 UNL     1      -7.952   1.616  -1.110  1.00  0.00     0.037 C 
ENDBRANCH  19  21
ENDBRANCH  16  17
ENDBRANCH   7  11
BRANCH   1  25
HETATM   25  N1  UNL     1       4.696   0.915  -0.593  1.00  0.00    -0.393 N 
ATOM     26  H1  UNL     1       4.843   1.342  -1.508  1.00  0.00     0.159 HD
BRANCH  25  27
HETATM   27  C8  UNL     1       5.777   0.970   0.272  1.00  0.00     0.097 C 
BRANCH  27  28
HETATM   28  C7  UNL     1       6.596  -0.229   0.076  1.00  0.00     0.015 A 
HETATM   29  C2  UNL     1       7.938  -0.105  -0.225  1.00  0.00     0.097 A 
HETATM   30  C3  UNL     1       8.733  -1.195  -0.157  1.00  0.00     0.046 A 
HETATM   31 BR1  UNL     1      10.584  -0.975  -0.655  1.00  0.00    -0.048 Br
HETATM   32  C4  UNL     1       8.259  -2.424   0.196  1.00  0.00     0.041 A 
HETATM   33  C5  UNL     1       6.948  -2.615   0.498  1.00  0.00     0.013 A 
HETATM   34 BR2  UNL     1       6.221  -4.247   1.045  1.00  0.00    -0.051 Br
HETATM   35  C6  UNL     1       6.108  -1.508   0.434  1.00  0.00     0.034 A 
BRANCH  29  36
HETATM   36  O1  UNL     1       8.458   1.108  -0.595  1.00  0.00    -0.354 OA
HETATM   37  C1  UNL     1       9.015   2.115   0.087  1.00  0.00     0.210 C 
ENDBRANCH  29  36
ENDBRANCH  27  28
ENDBRANCH  25  27
ENDBRANCH   1  25
TORSDOF 7
