REMARK  7 active torsions:
REMARK  status: ('A' for Active; 'I' for Inactive)
REMARK    1  A    between atoms: O1_2  and  C2_3 
REMARK       I    between atoms: C2_3  and  N1_5 
REMARK       I    between atoms: N2_8  and  C5_9 
REMARK    2  A    between atoms: C5_9  and  C6_11 
REMARK    3  A    between atoms: C6_11  and  C7_12 
REMARK    4  A    between atoms: C7_12  and  N3_13 
REMARK       I    between atoms: N3_13  and  C8_15 
REMARK    5  A    between atoms: C8_15  and  C9_17 
REMARK    6  A    between atoms: C11_19  and  N4_20 
REMARK       I    between atoms: N4_20  and  C12_22 
REMARK       I    between atoms: C12_22  and  N5_24 
REMARK    7  A    between atoms: N5_24  and  C13_26 
ROOT
HETATM    1  C9  UNL     1       0.545  -1.195   1.400  1.00  0.00     0.084 C 
HETATM    2  C10 UNL     1       1.558  -1.095   0.324  1.00  0.00     0.045 C 
HETATM    3  C11 UNL     1       2.876  -0.500   0.814  1.00  0.00     0.036 C 
HETATM    4  C19 UNL     1       3.775  -1.650   1.126  1.00  0.00     0.035 C 
HETATM    5  C20 UNL     1       3.458  -2.265   2.467  1.00  0.00    -0.012 C 
HETATM    6  C21 UNL     1       3.698  -1.221   3.515  1.00  0.00     0.009 C 
HETATM    7  C22 UNL     1       2.648  -0.158   3.313  1.00  0.00    -0.012 C 
HETATM    8  C23 UNL     1       1.311  -0.766   3.669  1.00  0.00     0.010 C 
HETATM    9  C24 UNL     1       0.994  -1.838   2.670  1.00  0.00    -0.001 C 
HETATM   10  C25 UNL     1       2.092  -2.850   2.495  1.00  0.00     0.010 C 
HETATM   11  C26 UNL     1       2.662   0.444   1.944  1.00  0.00     0.035 C 
ENDROOT
BRANCH   1  12
HETATM   12  C8  UNL     1      -0.638  -1.998   0.908  1.00  0.00     0.222 C 
HETATM   13  N3  UNL     1      -1.725  -2.132   1.800  1.00  0.00    -0.360 N 
ATOM     14  H3  UNL     1      -1.639  -1.680   2.710  1.00  0.00     0.162 HD
HETATM   15  O4  UNL     1      -0.651  -2.508  -0.209  1.00  0.00    -0.273 OA
BRANCH  13  16
HETATM   16  C7  UNL     1      -2.948  -2.853   1.536  1.00  0.00     0.132 C 
BRANCH  16  17
HETATM   17  C6  UNL     1      -3.653  -2.246   0.372  1.00  0.00     0.122 C 
BRANCH  17  18
HETATM   18  C5  UNL     1      -3.974  -0.840   0.657  1.00  0.00     0.221 C 
HETATM   19  N2  UNL     1      -4.674  -0.031  -0.274  1.00  0.00    -0.349 N 
HETATM   20  C4  UNL     1      -5.084  -0.629  -1.554  1.00  0.00     0.145 C 
HETATM   21  C27 UNL     1      -5.006   1.344  -0.027  1.00  0.00     0.145 C 
HETATM   22  C3  UNL     1      -6.611  -0.497  -1.565  1.00  0.00     0.148 C 
HETATM   23  N1  UNL     1      -6.897   0.907  -1.477  1.00  0.00    -0.325 N 
HETATM   24  C2  UNL     1      -7.610   1.542  -2.512  1.00  0.00     0.362 C 
HETATM   25  C28 UNL     1      -6.455   1.658  -0.338  1.00  0.00     0.148 C 
HETATM   26  O2  UNL     1      -7.872   2.773  -2.454  1.00  0.00    -0.238 OA
HETATM   27  O3  UNL     1      -3.631  -0.316   1.743  1.00  0.00    -0.273 OA
BRANCH  24  28
HETATM   28  O1  UNL     1      -8.052   0.850  -3.632  1.00  0.00    -0.309 OA
HETATM   29  C1  UNL     1      -8.762   1.481  -4.663  1.00  0.00     0.215 C 
ENDBRANCH  24  28
ENDBRANCH  17  18
ENDBRANCH  16  17
ENDBRANCH  13  16
ENDBRANCH   1  12
BRANCH   3  30
HETATM   30  N4  UNL     1       3.413   0.222  -0.311  1.00  0.00    -0.334 N 
HETATM   31  C12 UNL     1       4.675   0.920  -0.329  1.00  0.00     0.321 C 
HETATM   32  O5  UNL     1       5.376   0.914   0.686  1.00  0.00    -0.247 OA
HETATM   33  N5  UNL     1       5.084   1.595  -1.499  1.00  0.00    -0.307 N 
ATOM     34  H5  UNL     1       4.436   1.545  -2.285  1.00  0.00     0.170 HD
ATOM     35  H4  UNL     1       2.855   0.241  -1.165  1.00  0.00     0.165 HD
BRANCH  33  36
HETATM   36  C13 UNL     1       6.263   2.328  -1.731  1.00  0.00     0.058 A 
HETATM   37  C14 UNL     1       7.276   2.498  -0.801  1.00  0.00     0.033 A 
HETATM   38  C15 UNL     1       8.418   3.244  -1.124  1.00  0.00     0.026 A 
HETATM   39  C16 UNL     1       8.549   3.815  -2.366  1.00  0.00     0.035 A 
HETATM   40 CL1  UNL     1       9.992   4.742  -2.742  1.00  0.00    -0.084 Cl
HETATM   41  C17 UNL     1       7.550   3.652  -3.297  1.00  0.00     0.050 A 
HETATM   42  C18 UNL     1       6.428   2.923  -2.987  1.00  0.00     0.062 A 
HETATM   43 CL2  UNL     1       5.152   2.723  -4.191  1.00  0.00    -0.082 Cl
ENDBRANCH  33  36
ENDBRANCH   3  30
TORSDOF 7
