REMARK  0 active torsions:
REMARK  status: ('A' for Active; 'I' for Inactive)
ROOT
HETATM    1  C1  UNL     1       2.770  -0.525  -0.528  1.00  0.00     0.042 C 
HETATM    2  C2  UNL     1       1.289  -0.337  -0.688  1.00  0.00     0.212 C 
HETATM    3  N1  UNL     1       0.627  -1.458  -0.033  1.00  0.00    -0.067 N 
ATOM      4  H11 UNL     1       0.751  -1.468   0.979  1.00  0.00     0.277 HD
ATOM      5  H12 UNL     1       1.069  -2.358  -0.221  1.00  0.00     0.277 HD
HETATM    6  C3  UNL     1      -0.771  -1.399  -0.448  1.00  0.00     0.270 C 
HETATM    7  C4  UNL     1      -1.371  -0.170   0.163  1.00  0.00     0.142 C 
HETATM    8  C5  UNL     1      -2.232   0.579  -0.850  1.00  0.00     0.047 C 
HETATM    9  C6  UNL     1      -2.327  -0.555   1.300  1.00  0.00     0.047 C 
HETATM   10  N2  UNL     1      -0.422   0.744   0.712  1.00  0.00    -0.059 N 
ATOM     11  H21 UNL     1      -0.176   0.471   1.664  1.00  0.00     0.278 HD
ATOM     12  H22 UNL     1      -0.863   1.645   0.896  1.00  0.00     0.278 HD
HETATM   13  C7  UNL     1       0.764   0.920  -0.079  1.00  0.00     0.212 C 
HETATM   14  C8  UNL     1       1.788   1.590   0.845  1.00  0.00     0.042 C 
ENDROOT
TORSDOF 0
