REMARK  3 active torsions:
REMARK  status: ('A' for Active; 'I' for Inactive)
REMARK    1  A    between atoms: O1_2  and  C2_3 
REMARK    2  A    between atoms: C9_12  and  C10_13 
REMARK    3  A    between atoms: C11_14  and  C12_15 
ROOT
HETATM    1  C2  UNL     1      -3.706   1.669   0.319  1.00  0.00     0.103 A 
HETATM    2  C3  UNL     1      -4.920   1.962  -0.266  1.00  0.00     0.064 A 
HETATM    3  C4  UNL     1      -5.656   0.936  -0.808  1.00  0.00     0.043 A 
HETATM    4 CL1  UNL     1      -7.215   1.327  -1.557  1.00  0.00    -0.084 Cl
HETATM    5  C5  UNL     1      -5.186  -0.342  -0.764  1.00  0.00    -0.031 A 
HETATM    6  C6  UNL     1      -6.071  -1.391  -1.381  1.00  0.00     0.050 C 
HETATM    7  C7  UNL     1      -3.959  -0.707  -0.184  1.00  0.00    -0.013 A 
HETATM    8  C8  UNL     1      -3.254   0.354   0.348  1.00  0.00     0.111 A 
HETATM    9  O2  UNL     1      -1.999   0.385   1.005  1.00  0.00    -0.327 OA
HETATM   10  C9  UNL     1      -0.955  -0.656   0.913  1.00  0.00     0.218 C 
HETATM   11  C19 UNL     1      -1.603  -1.788   0.371  1.00  0.00    -0.147 C 
HETATM   12  C20 UNL     1      -2.441  -2.763  -0.193  1.00  0.00     0.087 C 
HETATM   13  C21 UNL     1      -3.840  -2.143  -0.348  1.00  0.00     0.053 C 
ENDROOT
BRANCH  10  14
HETATM   14  C10 UNL     1       0.132  -0.011   0.128  1.00  0.00     0.018 C 
HETATM   15  C11 UNL     1       0.960   0.837   0.701  1.00  0.00     0.038 C 
BRANCH  15  16
HETATM   16  C12 UNL     1       2.053   1.488  -0.080  1.00  0.00     0.356 C 
HETATM   17  O3  UNL     1       2.381   0.633  -1.128  1.00  0.00    -0.198 OA
HETATM   18  O4  UNL     1       2.816  -0.492  -0.602  1.00  0.00    -0.195 OA
HETATM   19  C13 UNL     1       4.036  -0.194   0.010  1.00  0.00     0.229 C 
HETATM   20  C14 UNL     1       4.865   0.574  -0.988  1.00  0.00     0.074 C 
HETATM   21  C18 UNL     1       4.800  -1.417   0.407  1.00  0.00     0.074 C 
HETATM   22  O5  UNL     1       3.720   0.608   1.121  1.00  0.00    -0.195 OA
HETATM   23  C15 UNL     1       6.196  -0.071  -1.260  1.00  0.00     0.006 C 
HETATM   24  C16 UNL     1       6.975  -0.400  -0.029  1.00  0.00     0.000 C 
HETATM   25  C17 UNL     1       6.099  -0.972   1.037  1.00  0.00     0.006 C 
HETATM   26  O6  UNL     1       3.149   1.718   0.770  1.00  0.00    -0.198 OA
ENDBRANCH  15  16
ENDBRANCH  10  14
BRANCH   1  27
HETATM   27  O1  UNL     1      -2.966   2.695   0.864  1.00  0.00    -0.353 OA
HETATM   28  C1  UNL     1      -3.395   4.022   0.849  1.00  0.00     0.210 C 
ENDBRANCH   1  27
TORSDOF 3
