REMARK  13 active torsions:
REMARK  status: ('A' for Active; 'I' for Inactive)
REMARK    1  A    between atoms: C2_2  and  C3_3 
REMARK    2  A    between atoms: C3_3  and  O1_4 
REMARK    3  A    between atoms: O1_4  and  C4_5 
REMARK    4  A    between atoms: C5_6  and  C6_7 
REMARK    5  A    between atoms: C9_12  and  O4_13 
REMARK    6  A    between atoms: O4_13  and  C10_14 
REMARK    7  A    between atoms: C13_17  and  O5_18 
REMARK    8  A    between atoms: O5_18  and  C14_19 
REMARK    9  A    between atoms: C16_22  and  O7_23 
REMARK   10  A    between atoms: C17_25  and  O8_26 
REMARK   11  A    between atoms: C18_28  and  O9_29 
REMARK   12  A    between atoms: C19_31  and  N1_32 
REMARK   13  A    between atoms: C21_37  and  O10_38 
ROOT
HETATM    1  C10 UNL     1      -0.281  -1.079  -0.725  1.00  0.00     0.124 C 
HETATM    2  C11 UNL     1       0.473  -2.017   0.176  1.00  0.00     0.034 C 
HETATM    3  C12 UNL     1       1.954  -2.019  -0.037  1.00  0.00     0.036 C 
HETATM    4  C13 UNL     1       2.541  -0.628  -0.056  1.00  0.00     0.155 C 
HETATM    5  C19 UNL     1       1.925   0.036  -1.266  1.00  0.00     0.214 C 
HETATM    6  C20 UNL     1       0.448   0.057  -1.276  1.00  0.00     0.067 C 
ENDROOT
BRANCH   1   7
HETATM    7  O4  UNL     1      -1.423  -0.712  -0.026  1.00  0.00    -0.378 OA
BRANCH   7   8
HETATM    8  C9  UNL     1      -2.594  -1.201  -0.494  1.00  0.00     0.153 C 
HETATM    9  C8  UNL     1      -3.231  -2.231   0.427  1.00  0.00     0.035 C 
HETATM   10  C7  UNL     1      -4.710  -2.258   0.113  1.00  0.00     0.020 C 
HETATM   11  C5  UNL     1      -5.304  -1.001   0.674  1.00  0.00     0.118 C 
HETATM   12  C4  UNL     1      -4.564   0.193   0.132  1.00  0.00     0.167 C 
HETATM   13  C21 UNL     1      -3.597  -0.165  -0.920  1.00  0.00     0.176 C 
BRANCH  11  14
HETATM   14  C6  UNL     1      -6.748  -0.998   0.348  1.00  0.00     0.179 C 
HETATM   15  O2  UNL     1      -7.589  -0.993   1.281  1.00  0.00    -0.648 OA
HETATM   16  O3  UNL     1      -7.228  -1.000  -0.952  1.00  0.00    -0.648 OA
ENDBRANCH  11  14
BRANCH  12  17
HETATM   17  O1  UNL     1      -3.925   0.899   1.155  1.00  0.00    -0.379 OA
BRANCH  17  18
HETATM   18  C3  UNL     1      -4.525   2.119   1.396  1.00  0.00     0.195 C 
BRANCH  18  19
HETATM   19  C2  UNL     1      -4.569   3.061   0.282  1.00  0.00    -0.011 C 
HETATM   20  C1  UNL     1      -5.729   3.533  -0.221  1.00  0.00     0.009 C 
ENDBRANCH  18  19
ENDBRANCH  17  18
ENDBRANCH  12  17
BRANCH  13  21
HETATM   21  O10 UNL     1      -3.054   0.951  -1.495  1.00  0.00    -0.390 OA
ATOM     22  H10 UNL     1      -2.430   0.720  -2.173  1.00  0.00     0.210 HD
ENDBRANCH  13  21
ENDBRANCH   7   8
ENDBRANCH   1   7
BRANCH   5  23
HETATM   23  N1  UNL     1       2.415  -0.697  -2.432  1.00  0.00    -0.072 N 
ATOM     24  H13 UNL     1       3.432  -0.754  -2.476  1.00  0.00     0.274 HD
ATOM     25  H12 UNL     1       2.234  -1.700  -2.385  1.00  0.00     0.274 HD
ATOM     26  H11 UNL     1       1.999  -0.249  -3.249  1.00  0.00     0.274 HD
ENDBRANCH   5  23
BRANCH   4  27
HETATM   27  O5  UNL     1       3.902  -0.777  -0.359  1.00  0.00    -0.351 OA
BRANCH  27  28
HETATM   28  C14 UNL     1       4.705  -0.159   0.598  1.00  0.00     0.291 C 
HETATM   29  O6  UNL     1       5.593  -1.098   1.076  1.00  0.00    -0.356 OA
HETATM   30  C15 UNL     1       6.427  -0.610   2.070  1.00  0.00     0.205 C 
HETATM   31  C16 UNL     1       6.715   0.850   1.939  1.00  0.00     0.173 C 
HETATM   32  C17 UNL     1       6.786   1.246   0.481  1.00  0.00     0.182 C 
HETATM   33  C18 UNL     1       5.448   0.959  -0.144  1.00  0.00     0.204 C 
BRANCH  31  34
HETATM   34  O7  UNL     1       5.807   1.633   2.646  1.00  0.00    -0.391 OA
ATOM     35  H7  UNL     1       5.990   2.561   2.563  1.00  0.00     0.210 HD
ENDBRANCH  31  34
BRANCH  32  36
HETATM   36  O8  UNL     1       7.033   2.607   0.354  1.00  0.00    -0.390 OA
ATOM     37  H8  UNL     1       7.078   2.856  -0.562  1.00  0.00     0.210 HD
ENDBRANCH  32  36
BRANCH  33  38
HETATM   38  O9  UNL     1       5.668   0.514  -1.449  1.00  0.00    -0.388 OA
ATOM     39  H9  UNL     1       6.128   1.206  -1.909  1.00  0.00     0.210 HD
ENDBRANCH  33  38
ENDBRANCH  27  28
ENDBRANCH   4  27
TORSDOF 13
