REMARK  13 active torsions:
REMARK  status: ('A' for Active; 'I' for Inactive)
REMARK    1  A    between atoms: N1_1  and  C1_5 
REMARK    2  A    between atoms: C1_5  and  C2_6 
REMARK    3  A    between atoms: C2_6  and  C3_7 
REMARK    4  A    between atoms: C6_10  and  O1_11 
REMARK    5  A    between atoms: C8_14  and  O2_15 
REMARK    6  A    between atoms: O2_15  and  C9_16 
REMARK    7  A    between atoms: C10_17  and  O3_18 
REMARK    8  A    between atoms: O3_18  and  C11_19 
REMARK    9  A    between atoms: C14_24  and  O4_25 
REMARK   10  A    between atoms: O4_25  and  C15_26 
REMARK   11  A    between atoms: C19_31  and  O6_32 
REMARK   12  A    between atoms: C20_34  and  O7_35 
REMARK   13  A    between atoms: C21_37  and  O8_38 
ROOT
HETATM    1  C9  UNL     1      -0.408   0.368  -0.380  1.00  0.00     0.202 C 
HETATM    2  C10 UNL     1      -1.363  -0.802  -0.315  1.00  0.00     0.254 C 
HETATM    3  N2  UNL     1      -2.749  -0.413  -0.225  1.00  0.00    -0.343 N 
ATOM      4  H2  UNL     1      -3.346  -1.063   0.285  1.00  0.00     0.164 HD
HETATM    5  C14 UNL     1      -3.349   0.626  -0.688  1.00  0.00     0.150 C 
HETATM    6  C19 UNL     1      -2.728   1.725  -1.463  1.00  0.00     0.223 C 
HETATM    7  C20 UNL     1      -1.702   2.483  -0.666  1.00  0.00     0.186 C 
HETATM    8  C21 UNL     1      -0.932   1.609   0.294  1.00  0.00     0.183 C 
ENDROOT
BRANCH   1   9
HETATM    9  O2  UNL     1       0.806  -0.044   0.029  1.00  0.00    -0.373 OA
BRANCH   9  10
HETATM   10  C8  UNL     1       1.837  -0.080  -0.827  1.00  0.00     0.130 C 
HETATM   11  C7  UNL     1       2.574  -1.447  -0.867  1.00  0.00     0.057 A 
HETATM   12  C6  UNL     1       3.578  -1.841   0.064  1.00  0.00     0.069 A 
HETATM   13  C23 UNL     1       3.822  -1.026  -1.228  1.00  0.00     0.038 A 
HETATM   14  C5  UNL     1       5.054  -1.729   0.303  1.00  0.00     0.039 C 
HETATM   15  C4  UNL     1       5.152  -0.199   0.456  1.00  0.00     0.013 C 
HETATM   16  C3  UNL     1       4.245   0.289  -0.631  1.00  0.00    -0.029 C 
HETATM   17  C22 UNL     1       2.935   0.856  -0.267  1.00  0.00     0.042 C 
BRANCH  12  18
HETATM   18  O1  UNL     1       3.074  -1.274   1.263  1.00  0.00    -0.389 OA
ATOM     19  H1  UNL     1       2.139  -1.345   1.112  1.00  0.00     0.210 HD
ENDBRANCH  12  18
BRANCH  16  20
HETATM   20  C2  UNL     1       4.965   1.042  -1.713  1.00  0.00     0.037 C 
BRANCH  20  21
HETATM   21  C1  UNL     1       5.702   2.257  -1.276  1.00  0.00     0.230 C 
BRANCH  21  22
HETATM   22  N1  UNL     1       4.916   3.285  -0.665  1.00  0.00    -0.079 N 
ATOM     23  H13 UNL     1       4.151   3.550  -1.285  1.00  0.00     0.274 HD
ATOM     24  H12 UNL     1       4.391   2.898   0.120  1.00  0.00     0.274 HD
ATOM     25  H11 UNL     1       5.422   4.119  -0.365  1.00  0.00     0.274 HD
ENDBRANCH  21  22
ENDBRANCH  20  21
ENDBRANCH  16  20
ENDBRANCH   9  10
ENDBRANCH   1   9
BRANCH   2  26
HETATM   26  O3  UNL     1      -1.097  -1.647   0.773  1.00  0.00    -0.359 OA
BRANCH  26  27
HETATM   27  C11 UNL     1      -0.800  -2.947   0.382  1.00  0.00     0.124 A 
HETATM   28  C12 UNL     1       0.114  -3.790   1.157  1.00  0.00     0.034 A 
HETATM   29  C13 UNL     1      -1.362  -4.098   1.163  1.00  0.00     0.034 A 
ENDBRANCH  26  27
ENDBRANCH   2  26
BRANCH   8  30
HETATM   30  O8  UNL     1      -1.728   1.356   1.386  1.00  0.00    -0.390 OA
ATOM     31  H8  UNL     1      -2.058   2.139   1.811  1.00  0.00     0.210 HD
ENDBRANCH   8  30
BRANCH   7  32
HETATM   32  O7  UNL     1      -2.388   3.425   0.102  1.00  0.00    -0.390 OA
ATOM     33  H7  UNL     1      -1.740   3.904   0.605  1.00  0.00     0.210 HD
ENDBRANCH   7  32
BRANCH   5  34
HETATM   34  O4  UNL     1      -4.721   0.716  -0.429  1.00  0.00    -0.306 OA
BRANCH  34  35
HETATM   35  C15 UNL     1      -5.280  -0.354   0.342  1.00  0.00     0.267 C 
HETATM   36  C16 UNL     1      -6.752  -0.049   0.494  1.00  0.00     0.063 C 
HETATM   37  C17 UNL     1      -6.984  -0.421   1.943  1.00  0.00     0.031 C 
HETATM   38  C18 UNL     1      -5.635  -0.116   2.543  1.00  0.00     0.171 C 
HETATM   39  O5  UNL     1      -4.688  -0.320   1.571  1.00  0.00    -0.361 OA
ENDBRANCH  34  35
ENDBRANCH   5  34
BRANCH   6  40
HETATM   40  O6  UNL     1      -3.718   2.539  -1.971  1.00  0.00    -0.385 OA
ATOM     41  H6  UNL     1      -3.320   3.244  -2.468  1.00  0.00     0.210 HD
ENDBRANCH   6  40
TORSDOF 13
