REMARK  13 active torsions:
REMARK  status: ('A' for Active; 'I' for Inactive)
REMARK    1  A    between atoms: C3_3  and  C4_4 
REMARK    2  A    between atoms: C4_4  and  O1_5 
REMARK    3  A    between atoms: C6_9  and  O3_10 
REMARK    4  A    between atoms: O3_10  and  C7_11 
REMARK    5  A    between atoms: C10_15  and  O5_16 
REMARK    6  A    between atoms: C12_19  and  N1_20 
REMARK       I    between atoms: N1_20  and  C13_22 
REMARK    7  A    between atoms: C13_22  and  C14_24 
REMARK    8  A    between atoms: C14_24  and  N2_25 
REMARK    9  A    between atoms: C14_24  and  C15_29 
REMARK   10  A    between atoms: C15_29  and  C16_30 
REMARK   11  A    between atoms: C16_30  and  S1_31 
REMARK   12  A    between atoms: C18_33  and  O7_34 
REMARK   13  A    between atoms: O7_34  and  N3_35 
ROOT
HETATM    1  C1  UNL     1      -6.876   0.862  -2.058  1.00  0.00     0.112 C 
HETATM    2  C2  UNL     1      -5.448   0.625  -2.334  1.00  0.00    -0.106 C 
HETATM    3  C3  UNL     1      -4.270   0.434  -2.539  1.00  0.00    -0.039 C 
ENDROOT
BRANCH   3   4
HETATM    4  C4  UNL     1      -2.826   0.214  -2.767  1.00  0.00     0.236 C 
HETATM    5  O2  UNL     1      -2.130   1.365  -2.402  1.00  0.00    -0.342 OA
HETATM    6  C5  UNL     1      -2.172   1.551  -1.015  1.00  0.00     0.207 C 
HETATM    7  C6  UNL     1      -1.326   0.498  -0.308  1.00  0.00     0.180 C 
HETATM    8  C18 UNL     1      -1.143  -0.718  -1.133  1.00  0.00     0.192 C 
HETATM    9  C19 UNL     1      -2.339  -0.998  -2.038  1.00  0.00     0.091 C 
HETATM   10  C20 UNL     1      -3.497  -1.554  -1.219  1.00  0.00     0.019 C 
BRANCH   4  11
HETATM   11  O1  UNL     1      -2.661   0.036  -4.135  1.00  0.00    -0.355 OA
ATOM     12  H1  UNL     1      -1.733  -0.105  -4.282  1.00  0.00     0.214 HD
ENDBRANCH   4  11
BRANCH   7  13
HETATM   13  O3  UNL     1      -0.153   1.156   0.067  1.00  0.00    -0.349 OA
BRANCH  13  14
HETATM   14  C7  UNL     1      -0.119   1.233   1.424  1.00  0.00     0.283 C 
HETATM   15  O4  UNL     1      -0.362   2.599   1.757  1.00  0.00    -0.352 OA
HETATM   16  C8  UNL     1      -0.692   2.704   3.103  1.00  0.00     0.149 C 
HETATM   17  C9  UNL     1      -2.173   2.375   3.301  1.00  0.00     0.042 C 
HETATM   18  C10 UNL     1       0.190   1.976   4.048  1.00  0.00     0.148 C 
HETATM   19  C11 UNL     1       0.694   0.637   3.590  1.00  0.00     0.064 C 
HETATM   20  C12 UNL     1       1.141   0.891   2.130  1.00  0.00     0.142 C 
BRANCH  18  21
HETATM   21  O5  UNL     1      -0.439   1.883   5.287  1.00  0.00    -0.393 OA
ATOM     22  H5  UNL     1       0.126   1.417   5.892  1.00  0.00     0.210 HD
ENDBRANCH  18  21
BRANCH  20  23
HETATM   23  N1  UNL     1       1.932  -0.172   1.608  1.00  0.00    -0.350 N 
HETATM   24  C13 UNL     1       3.354  -0.031   1.413  1.00  0.00     0.248 C 
HETATM   25  O6  UNL     1       3.852   1.074   1.731  1.00  0.00    -0.271 OA
ATOM     26  H1  UNL     1       1.482  -1.055   1.366  1.00  0.00     0.163 HD
BRANCH  24  27
HETATM   27  C14 UNL     1       4.227  -1.090   0.875  1.00  0.00     0.275 C 
BRANCH  27  28
HETATM   28  N2  UNL     1       5.624  -0.631   1.010  1.00  0.00    -0.066 N 
ATOM     29  H23 UNL     1       5.787   0.277   0.574  1.00  0.00     0.275 HD
ATOM     30  H22 UNL     1       5.864  -0.367   1.965  1.00  0.00     0.275 HD
ATOM     31  H21 UNL     1       6.228  -1.364   0.638  1.00  0.00     0.275 HD
ENDBRANCH  27  28
BRANCH  27  32
HETATM   32  C15 UNL     1       3.954  -1.343  -0.599  1.00  0.00     0.053 C 
BRANCH  32  33
HETATM   33  C16 UNL     1       4.838  -2.418  -1.157  1.00  0.00     0.076 C 
BRANCH  33  34
HETATM   34  S1  UNL     1       4.463  -2.667  -2.914  1.00  0.00    -0.173 SA
HETATM   35  C17 UNL     1       4.915  -1.213  -3.872  1.00  0.00     0.089 C 
ENDBRANCH  33  34
ENDBRANCH  32  33
ENDBRANCH  27  32
ENDBRANCH  24  27
ENDBRANCH  20  23
ENDBRANCH  13  14
ENDBRANCH   7  13
BRANCH   8  36
HETATM   36  O7  UNL     1      -0.959  -1.891  -0.394  1.00  0.00    -0.279 OA
BRANCH  36  37
HETATM   37  N3  UNL     1       0.067  -2.639  -0.789  1.00  0.00    -0.311 N 
ATOM     38  H32 UNL     1       0.663  -2.365  -1.570  1.00  0.00     0.184 HD
ATOM     39  H31 UNL     1       0.201  -3.495  -0.250  1.00  0.00     0.184 HD
ENDBRANCH  36  37
ENDBRANCH   8  36
ENDBRANCH   3   4
TORSDOF 13
