REMARK  10 active torsions:
REMARK  status: ('A' for Active; 'I' for Inactive)
REMARK    1  A    between atoms: C3_3  and  C4_4 
REMARK       I    between atoms: C4_4  and  N1_6 
REMARK    2  A    between atoms: N1_6  and  C5_8 
REMARK    3  A    between atoms: C7_10  and  O2_11 
REMARK    4  A    between atoms: O2_11  and  C8_12 
REMARK    5  A    between atoms: C11_16  and  O4_17 
REMARK    6  A    between atoms: C12_19  and  O5_20 
REMARK    7  A    between atoms: O5_20  and  C13_21 
REMARK    8  A    between atoms: C16_24  and  O6_25 
REMARK    9  A    between atoms: C18_29  and  O8_30 
REMARK   10  A    between atoms: C19_33  and  C20_34 
ROOT
HETATM    1  C8  UNL     1      -0.697  -1.739  -0.397  1.00  0.00     0.294 C 
HETATM    2  O3  UNL     1      -1.214  -2.631  -1.336  1.00  0.00    -0.351 OA
HETATM    3  C9  UNL     1      -2.598  -2.551  -1.434  1.00  0.00     0.152 C 
HETATM    4  C10 UNL     1      -3.026  -1.358  -2.276  1.00  0.00     0.042 C 
HETATM    5  C11 UNL     1      -3.311  -2.636  -0.132  1.00  0.00     0.178 C 
HETATM    6  C12 UNL     1      -2.660  -1.902   0.994  1.00  0.00     0.189 C 
HETATM    7  C18 UNL     1      -1.165  -2.259   0.962  1.00  0.00     0.205 C 
ENDROOT
BRANCH   1   8
HETATM    8  O2  UNL     1       0.662  -1.688  -0.505  1.00  0.00    -0.329 OA
BRANCH   8   9
HETATM    9  C7  UNL     1       1.036  -0.382  -0.795  1.00  0.00     0.266 C 
HETATM   10  C6  UNL     1       2.063   0.163   0.165  1.00  0.00     0.089 C 
HETATM   11  C5  UNL     1       3.351  -0.272  -0.468  1.00  0.00     0.129 C 
HETATM   12  C19 UNL     1       2.978  -0.634  -1.859  1.00  0.00     0.248 C 
HETATM   13  O9  UNL     1       1.644  -0.413  -2.045  1.00  0.00    -0.343 OA
BRANCH  11  14
HETATM   14  N1  UNL     1       4.345   0.820  -0.439  1.00  0.00    -0.350 N 
HETATM   15  C4  UNL     1       5.529   0.617   0.258  1.00  0.00     0.241 C 
HETATM   16  O1  UNL     1       5.641  -0.542   0.828  1.00  0.00    -0.269 OA
ATOM     17  H1  UNL     1       4.166   1.702  -0.919  1.00  0.00     0.163 HD
BRANCH  15  18
HETATM   18  C3  UNL     1       6.614   1.503   0.425  1.00  0.00     0.070 C 
HETATM   19  C2  UNL     1       6.776   2.694  -0.018  1.00  0.00    -0.026 C 
HETATM   20  C1  UNL     1       5.862   3.478  -0.834  1.00  0.00     0.036 C 
ENDBRANCH  15  18
ENDBRANCH  11  14
BRANCH  12  21
HETATM   21  C20 UNL     1       3.365  -2.027  -2.233  1.00  0.00     0.205 C 
HETATM   22  O10 UNL     1       2.508  -2.861  -2.667  1.00  0.00    -0.646 OA
HETATM   23  O11 UNL     1       4.669  -2.484  -2.129  1.00  0.00    -0.646 OA
ENDBRANCH  12  21
ENDBRANCH   8   9
ENDBRANCH   1   8
BRANCH   7  24
HETATM   24  O8  UNL     1      -1.093  -3.641   0.977  1.00  0.00    -0.388 OA
ATOM     25  H8  UNL     1      -1.384  -3.964   1.822  1.00  0.00     0.210 HD
ENDBRANCH   7  24
BRANCH   6  26
HETATM   26  O5  UNL     1      -2.717  -0.533   0.727  1.00  0.00    -0.351 OA
BRANCH  26  27
HETATM   27  C13 UNL     1      -3.365   0.184   1.715  1.00  0.00     0.260 C 
HETATM   28  C14 UNL     1      -4.492   0.945   1.059  1.00  0.00     0.063 C 
HETATM   29  C15 UNL     1      -4.916   2.158   1.856  1.00  0.00     0.038 C 
HETATM   30  C16 UNL     1      -3.725   3.010   2.154  1.00  0.00     0.142 C 
HETATM   31  C17 UNL     1      -2.466   2.311   1.707  1.00  0.00     0.202 C 
HETATM   32  O7  UNL     1      -2.445   1.070   2.322  1.00  0.00    -0.359 OA
BRANCH  30  33
HETATM   33  O6  UNL     1      -3.852   4.279   1.619  1.00  0.00    -0.393 OA
ATOM     34  H6  UNL     1      -3.095   4.821   1.808  1.00  0.00     0.210 HD
ENDBRANCH  30  33
ENDBRANCH  26  27
ENDBRANCH   6  26
BRANCH   5  35
HETATM   35  O4  UNL     1      -3.378  -3.990   0.234  1.00  0.00    -0.390 OA
ATOM     36  H4  UNL     1      -3.834  -4.044   1.066  1.00  0.00     0.210 HD
ENDBRANCH   5  35
TORSDOF 10
