REMARK  8 active torsions:
REMARK  status: ('A' for Active; 'I' for Inactive)
REMARK    1  A    between atoms: C2_2  and  C3_4 
REMARK    2  A    between atoms: C3_4  and  C4_5 
REMARK    3  A    between atoms: N1_6  and  N2_8 
REMARK       I    between atoms: N2_8  and  C5_10 
REMARK    4  A    between atoms: C5_10  and  C6_12 
REMARK       I    between atoms: N6_16  and  C7_17 
REMARK    5  A    between atoms: C7_17  and  C8_19 
REMARK    6  A    between atoms: C12_23  and  C13_24 
REMARK    7  A    between atoms: N7_28  and  N8_30 
REMARK       I    between atoms: N8_30  and  C17_32 
REMARK    8  A    between atoms: C17_32  and  C18_34 
ROOT
HETATM    1  N2  UNL     1       1.588  -1.075   0.023  1.00  0.00    -0.267 N 
ATOM      2  H2  UNL     1       0.889  -1.247  -0.699  1.00  0.00     0.190 HD
HETATM    3  C5  UNL     1       1.353  -0.145   1.035  1.00  0.00     0.277 C 
HETATM    4  O2  UNL     1       2.254   0.043   1.919  1.00  0.00    -0.268 OA
ENDROOT
BRANCH   1   5
HETATM    5  N1  UNL     1       2.819  -1.776   0.020  1.00  0.00    -0.307 N 
HETATM    6  C4  UNL     1       3.951  -1.173   0.020  1.00  0.00     0.141 C 
ATOM      7  H1  UNL     1       2.805  -2.796   0.018  1.00  0.00     0.186 HD
BRANCH   6   8
HETATM    8  C3  UNL     1       5.180  -1.934   0.017  1.00  0.00     0.110 C 
HETATM    9  N7  UNL     1       6.301  -1.303   0.030  1.00  0.00    -0.293 N 
ATOM     10  H7  UNL     1       7.157  -1.857   0.030  1.00  0.00     0.187 HD
BRANCH   8  11
HETATM   11  C2  UNL     1       5.183  -3.386   0.004  1.00  0.00     0.174 C 
HETATM   12  C1  UNL     1       3.964  -4.201  -0.007  1.00  0.00     0.098 C 
HETATM   13  O1  UNL     1       6.311  -3.987   0.002  1.00  0.00    -0.291 OA
ENDBRANCH   8  11
BRANCH   9  14
HETATM   14  N8  UNL     1       6.424   0.053   0.044  1.00  0.00    -0.260 N 
HETATM   15  C17 UNL     1       7.664   0.658  -0.320  1.00  0.00     0.336 C 
HETATM   16  O4  UNL     1       8.624  -0.070  -0.647  1.00  0.00    -0.259 OA
ATOM     17  H8  UNL     1       5.631   0.635   0.314  1.00  0.00     0.190 HD
BRANCH  15  18
HETATM   18  C18 UNL     1       7.821   2.113  -0.313  1.00  0.00     0.271 C 
HETATM   19  O5  UNL     1       6.876   2.883   0.010  1.00  0.00    -0.640 OA
HETATM   20  O6  UNL     1       9.045   2.656  -0.674  1.00  0.00    -0.640 OA
ENDBRANCH  15  18
ENDBRANCH   9  14
ENDBRANCH   6   8
ENDBRANCH   1   5
BRANCH   3  21
HETATM   21  C6  UNL     1       0.117   0.635   1.139  1.00  0.00     0.312 C 
HETATM   22  N3  UNL     1       0.229   1.541   2.337  1.00  0.00    -0.091 NA
HETATM   23  N4  UNL     1       0.277   0.571   3.347  1.00  0.00    -0.015 NA
HETATM   24  N5  UNL     1      -0.529  -0.512   2.975  1.00  0.00    -0.005 NA
HETATM   25  N6  UNL     1      -1.004  -0.144   1.688  1.00  0.00    -0.216 N 
HETATM   26  C7  UNL     1      -2.241  -0.395   1.118  1.00  0.00     0.243 C 
HETATM   27  O3  UNL     1      -3.037  -1.150   1.798  1.00  0.00    -0.271 OA
BRANCH  26  28
HETATM   28  C8  UNL     1      -2.687   0.139  -0.184  1.00  0.00     0.084 C 
HETATM   29  C9  UNL     1      -1.965  -0.462  -1.329  1.00  0.00     0.014 C 
HETATM   30  C10 UNL     1      -2.987  -0.754  -2.407  1.00  0.00     0.001 C 
HETATM   31  C11 UNL     1      -4.248  -0.938  -1.623  1.00  0.00     0.006 C 
HETATM   32  C12 UNL     1      -4.164  -0.128  -0.377  1.00  0.00     0.006 C 
BRANCH  32  33
HETATM   33  C13 UNL     1      -4.958   1.156  -0.470  1.00  0.00    -0.047 C 
HETATM   34  C14 UNL     1      -4.529   2.024  -1.614  1.00  0.00     0.015 C 
HETATM   35  C15 UNL     1      -6.407   0.778  -0.686  1.00  0.00     0.015 C 
HETATM   36  C16 UNL     1      -4.875   1.957   0.792  1.00  0.00     0.015 C 
ENDBRANCH  32  33
ENDBRANCH  26  28
ENDBRANCH   3  21
TORSDOF 8
