REMARK  13 active torsions:
REMARK  status: ('A' for Active; 'I' for Inactive)
REMARK    1  A    between atoms: O1_1  and  C1_3 
REMARK    2  A    between atoms: C1_3  and  C2_4 
REMARK    3  A    between atoms: C2_4  and  C3_5 
REMARK    4  A    between atoms: C3_5  and  O2_6 
REMARK    5  A    between atoms: O2_6  and  C4_7 
REMARK    6  A    between atoms: C9_13  and  O4_14 
REMARK    7  A    between atoms: O4_14  and  C10_15 
REMARK    8  A    between atoms: C10_15  and  C11_16 
REMARK    9  A    between atoms: C17_22  and  O5_23 
REMARK   10  A    between atoms: C18_25  and  O6_26 
REMARK   11  A    between atoms: C20_32  and  O7_33 
REMARK   12  A    between atoms: C21_35  and  O8_36 
REMARK   13  A    between atoms: C22_38  and  O9_39 
ROOT
HETATM    1  C2  UNL     1      -1.012   1.320  -0.460  1.00  0.00     0.145 C 
HETATM    2  O3  UNL     1       0.243   0.865  -0.692  1.00  0.00    -0.340 OA
HETATM    3  C9  UNL     1       1.207   0.914   0.272  1.00  0.00     0.292 C 
HETATM    4  C17 UNL     1       1.122   2.280   0.935  1.00  0.00     0.204 C 
HETATM    5  C18 UNL     1      -0.242   2.383   1.553  1.00  0.00     0.194 C 
HETATM    6  C19 UNL     1      -1.201   2.519   0.341  1.00  0.00     0.219 C 
HETATM    7  N1  UNL     1      -2.586   2.513   0.852  1.00  0.00    -0.029 N 
ATOM      8  H11 UNL     1      -2.708   1.919   1.672  1.00  0.00     0.281 HD
ATOM      9  H12 UNL     1      -3.238   2.023   0.239  1.00  0.00     0.281 HD
HETATM   10  C20 UNL     1      -2.955   3.895   1.089  1.00  0.00     0.351 C 
HETATM   11  C21 UNL     1      -2.358   4.579  -0.122  1.00  0.00     0.205 C 
HETATM   12  C22 UNL     1      -0.978   3.881  -0.145  1.00  0.00     0.193 C 
ENDROOT
BRANCH   1  13
HETATM   13  C1  UNL     1      -1.715   1.236  -1.802  1.00  0.00     0.207 C 
BRANCH  13  14
HETATM   14  O1  UNL     1      -1.109   1.950  -2.821  1.00  0.00    -0.398 OA
ATOM     15  H1  UNL     1      -1.549   1.897  -3.661  1.00  0.00     0.209 HD
ENDBRANCH  13  14
ENDBRANCH   1  13
BRANCH   1  16
HETATM   16  C3  UNL     1      -1.691   0.168   0.347  1.00  0.00     0.211 C 
BRANCH  16  17
HETATM   17  O2  UNL     1      -1.670  -0.994  -0.449  1.00  0.00    -0.383 OA
BRANCH  17  18
HETATM   18  C4  UNL     1      -2.257  -2.022   0.228  1.00  0.00     0.121 C 
HETATM   19  C5  UNL     1      -1.392  -3.257   0.347  1.00  0.00     0.032 C 
HETATM   20  C6  UNL     1      -2.367  -4.412   0.445  1.00  0.00     0.002 C 
HETATM   21  C7  UNL     1      -3.472  -3.998  -0.473  1.00  0.00     0.002 C 
HETATM   22  C8  UNL     1      -3.445  -2.510  -0.610  1.00  0.00     0.032 C 
ENDBRANCH  17  18
ENDBRANCH  16  17
ENDBRANCH   1  16
BRANCH   5  23
HETATM   23  O6  UNL     1      -0.310   3.525   2.346  1.00  0.00    -0.390 OA
ATOM     24  H6  UNL     1      -1.173   3.590   2.737  1.00  0.00     0.210 HD
ENDBRANCH   5  23
BRANCH  12  25
HETATM   25  O9  UNL     1      -0.349   4.121  -1.317  1.00  0.00    -0.390 OA
ATOM     26  H9  UNL     1      -0.204   5.005  -1.633  1.00  0.00     0.210 HD
ENDBRANCH  12  25
BRANCH   4  27
HETATM   27  O5  UNL     1       2.145   2.487   1.847  1.00  0.00    -0.388 OA
ATOM     28  H5  UNL     1       2.092   3.340   2.261  1.00  0.00     0.210 HD
ENDBRANCH   4  27
BRANCH  10  29
HETATM   29  O7  UNL     1      -4.341   3.987   1.015  1.00  0.00    -0.368 OA
ATOM     30  H7  UNL     1      -4.583   4.893   1.170  1.00  0.00     0.212 HD
ENDBRANCH  10  29
BRANCH  11  31
HETATM   31  O8  UNL     1      -3.066   4.377  -1.277  1.00  0.00    -0.389 OA
ATOM     32  H8  UNL     1      -2.691   4.806  -2.037  1.00  0.00     0.210 HD
ENDBRANCH  11  31
BRANCH   3  33
HETATM   33  O4  UNL     1       1.241  -0.123   1.090  1.00  0.00    -0.358 OA
BRANCH  33  34
HETATM   34  C10 UNL     1       2.199  -1.021   1.252  1.00  0.00     0.175 C 
BRANCH  34  35
HETATM   35  C11 UNL     1       2.622  -1.923   0.152  1.00  0.00     0.009 C 
HETATM   36  C12 UNL     1       3.721  -2.835   0.716  1.00  0.00     0.007 C 
HETATM   37  C13 UNL     1       5.096  -2.350   0.327  1.00  0.00     0.000 C 
HETATM   38  C14 UNL     1       5.346  -2.640  -1.160  1.00  0.00     0.000 C 
HETATM   39  C15 UNL     1       4.051  -2.283  -1.866  1.00  0.00     0.000 C 
HETATM   40  C16 UNL     1       3.264  -1.272  -1.041  1.00  0.00     0.007 C 
ENDBRANCH  34  35
ENDBRANCH  33  34
ENDBRANCH   3  33
TORSDOF 13
