REMARK  5 active torsions:
REMARK  status: ('A' for Active; 'I' for Inactive)
REMARK    1  A    between atoms: N1_1  and  C1_5 
REMARK    2  A    between atoms: C1_5  and  S1_6 
REMARK    3  A    between atoms: S1_6  and  N2_9 
REMARK    4  A    between atoms: N2_9  and  C2_11 
REMARK    5  A    between atoms: N4_17  and  N5_19 
ROOT
HETATM    1  C2  UNL     1      -0.091  -0.168  -0.586  1.00  0.00     0.689 C 
HETATM    2  N3  UNL     1      -0.319   1.069  -0.437  1.00  0.00    -0.225 N 
ATOM      3  H3  UNL     1       0.397   1.700  -0.796  1.00  0.00     0.177 HD
HETATM    4  C3  UNL     1      -1.449   1.692   0.169  1.00  0.00     0.145 C 
HETATM    5  C4  UNL     1      -2.404   0.785   0.866  1.00  0.00     0.098 C 
HETATM    6  C5  UNL     1      -2.259  -0.629   0.537  1.00  0.00     0.113 C 
HETATM    7  N4  UNL     1      -3.199  -1.463   0.815  1.00  0.00    -0.295 N 
ATOM      8  H4  UNL     1      -3.064  -2.444   0.571  1.00  0.00     0.187 HD
HETATM    9  N6  UNL     1      -1.062  -1.093  -0.101  1.00  0.00    -0.179 N 
ATOM     10  H6  UNL     1      -0.903  -2.095  -0.209  1.00  0.00     0.185 HD
ENDROOT
BRANCH   1  11
HETATM   11  N2  UNL     1       1.080  -0.721  -1.212  1.00  0.00    -0.115 N 
ATOM     12  H2  UNL     1       1.012  -1.035  -2.180  1.00  0.00     0.197 HD
BRANCH  11  13
HETATM   13  S1  UNL     1       2.571  -0.874  -0.411  1.00  0.00     0.268 S 
HETATM   14  O1  UNL     1       3.562  -1.523  -1.331  1.00  0.00    -0.203 OA
HETATM   15  O2  UNL     1       2.476  -1.755   0.815  1.00  0.00    -0.203 OA
BRANCH  13  16
HETATM   16  C1  UNL     1       3.240   0.684   0.104  1.00  0.00     0.392 C 
BRANCH  16  17
HETATM   17  N1  UNL     1       4.511   0.407   0.773  1.00  0.00    -0.065 N 
ATOM     18  H13 UNL     1       4.423  -0.263   1.537  1.00  0.00     0.275 HD
ATOM     19  H12 UNL     1       5.156  -0.135   0.198  1.00  0.00     0.275 HD
ATOM     20  H11 UNL     1       4.896   1.304   1.069  1.00  0.00     0.275 HD
ENDBRANCH  16  17
ENDBRANCH  13  16
ENDBRANCH  11  13
ENDBRANCH   1  11
BRANCH   7  21
HETATM   21  N5  UNL     1      -4.377  -1.099   1.425  1.00  0.00    -0.344 N 
ATOM     22  H52 UNL     1      -4.496  -0.114   1.662  1.00  0.00     0.176 HD
ATOM     23  H51 UNL     1      -5.122  -1.760   1.645  1.00  0.00     0.176 HD
ENDBRANCH   7  21
TORSDOF 5
