REMARK  7 active torsions:
REMARK  status: ('A' for Active; 'I' for Inactive)
REMARK    1  A    between atoms: C2_2  and  C3_3 
REMARK    2  A    between atoms: C3_3  and  C4_4 
REMARK       I    between atoms: C4_4  and  N1_6 
REMARK    3  A    between atoms: N1_6  and  N2_8 
REMARK    4  A    between atoms: C5_10  and  N3_11 
REMARK    5  A    between atoms: C5_10  and  C10_23 
REMARK       I    between atoms: N3_11  and  C6_13 
REMARK       I    between atoms: C6_13  and  N4_15 
REMARK    6  A    between atoms: N4_15  and  C7_17 
REMARK    7  A    between atoms: C10_23  and  O4_25 
ROOT
HETATM    1  N2  UNL     1       0.665   1.651   1.319  1.00  0.00    -0.278 N 
ATOM      2  H2  UNL     1       1.439   2.238   1.631  1.00  0.00     0.189 HD
HETATM    3  C5  UNL     1      -0.020   1.978   0.213  1.00  0.00     0.201 C 
ENDROOT
BRANCH   3   4
HETATM    4  N3  UNL     1      -1.053   1.111  -0.124  1.00  0.00    -0.288 N 
HETATM    5  C6  UNL     1      -1.920   1.204  -1.211  1.00  0.00     0.328 C 
HETATM    6  O2  UNL     1      -1.970   2.048  -2.096  1.00  0.00    -0.247 OA
HETATM    7  N4  UNL     1      -2.912   0.145  -1.312  1.00  0.00    -0.288 N 
ATOM      8  H4  UNL     1      -3.808   0.203  -0.829  1.00  0.00     0.172 HD
ATOM      9  H3  UNL     1      -1.193   0.314   0.497  1.00  0.00     0.172 HD
BRANCH   7  10
HETATM   10  C7  UNL     1      -2.596  -0.891  -2.057  1.00  0.00     0.152 A 
HETATM   11  N5  UNL     1      -1.481  -1.120  -2.748  1.00  0.00    -0.346 N 
HETATM   12  C8  UNL     1      -1.379  -2.225  -3.425  1.00  0.00     0.097 A 
ATOM     13  H5  UNL     1      -0.720  -0.440  -2.746  1.00  0.00     0.167 HD
HETATM   14  C9  UNL     1      -2.433  -3.099  -3.390  1.00  0.00     0.070 A 
HETATM   15  S1  UNL     1      -3.535  -2.282  -2.373  1.00  0.00    -0.064 SA
ENDBRANCH   7  10
ENDBRANCH   3   4
BRANCH   3  16
HETATM   16  C10 UNL     1       0.401   3.158  -0.461  1.00  0.00     0.328 C 
HETATM   17  O3  UNL     1      -0.074   3.651  -1.490  1.00  0.00    -0.256 OA
BRANCH  16  18
HETATM   18  O4  UNL     1       1.505   3.917   0.063  1.00  0.00    -0.320 OA
HETATM   19  C11 UNL     1       1.910   5.078  -0.611  1.00  0.00     0.213 C 
ENDBRANCH  16  18
ENDBRANCH   3  16
BRANCH   1  20
HETATM   20  N1  UNL     1       0.322   0.514   2.041  1.00  0.00    -0.268 N 
HETATM   21  C4  UNL     1       1.202  -0.564   2.173  1.00  0.00     0.239 C 
HETATM   22  O1  UNL     1       2.340  -0.552   1.646  1.00  0.00    -0.272 OA
ATOM     23  H1  UNL     1      -0.595   0.465   2.486  1.00  0.00     0.190 HD
BRANCH  21  24
HETATM   24  C3  UNL     1       0.801  -1.759   2.950  1.00  0.00     0.131 C 
BRANCH  24  25
HETATM   25  C2  UNL     1       1.846  -2.795   2.985  1.00  0.00    -0.028 C 
HETATM   26  C1  UNL     1       1.601  -3.992   2.503  1.00  0.00     0.007 C 
ENDBRANCH  24  25
ENDBRANCH  21  24
ENDBRANCH   1  20
TORSDOF 7
