REMARK  4 active torsions:
REMARK  status: ('A' for Active; 'I' for Inactive)
REMARK    1  A    between atoms: N1_2  and  C3_4 
REMARK    2  A    between atoms: C3_4  and  C4_5 
REMARK    3  A    between atoms: C4_5  and  N2_6 
REMARK    4  A    between atoms: N2_6  and  C5_8 
ROOT
HETATM    1  C5  UNL     1      -0.708  -0.105  -0.005  1.00  0.00     0.084 C 
HETATM    2  C6  UNL     1      -0.838  -0.249   1.472  1.00  0.00     0.025 C 
HETATM    3  C7  UNL     1      -1.602   0.887   2.077  1.00  0.00     0.002 C 
HETATM    4  C8  UNL     1      -2.773   1.374   1.321  1.00  0.00     0.001 C 
HETATM    5  C9  UNL     1      -2.784   1.126  -0.143  1.00  0.00     0.011 C 
HETATM    6  C10 UNL     1      -2.142  -0.164  -0.559  1.00  0.00    -0.028 C 
HETATM    7  C11 UNL     1      -2.901  -1.335  -0.022  1.00  0.00     0.017 C 
HETATM    8  C12 UNL     1      -2.128  -0.236  -2.063  1.00  0.00     0.017 C 
ENDROOT
BRANCH   1   9
HETATM    9  N2  UNL     1       0.018  -1.125  -0.665  1.00  0.00    -0.415 N 
ATOM     10  H2  UNL     1      -0.411  -1.741  -1.356  1.00  0.00     0.153 HD
BRANCH   9  11
HETATM   11  C4  UNL     1       1.425  -1.234  -0.287  1.00  0.00     0.144 C 
BRANCH  11  12
HETATM   12  C3  UNL     1       2.222  -0.066  -0.755  1.00  0.00     0.290 C 
BRANCH  12  13
HETATM   13  N1  UNL     1       3.599  -0.181  -0.435  1.00  0.00     0.081 N 
HETATM   14  C1  UNL     1       4.379   0.930  -1.004  1.00  0.00     0.309 C 
HETATM   15  C2  UNL     1       3.961  -0.426   0.914  1.00  0.00     0.309 C 
ENDBRANCH  12  13
ENDBRANCH  11  12
ENDBRANCH   9  11
ENDBRANCH   1   9
TORSDOF 4
