REMARK  5 active torsions:
REMARK  status: ('A' for Active; 'I' for Inactive)
REMARK    1  A    between atoms: N1_2  and  C3_4 
REMARK    2  A    between atoms: C3_4  and  C4_5 
REMARK    3  A    between atoms: C4_5  and  N2_6 
REMARK    4  A    between atoms: N2_6  and  C5_9 
REMARK    5  A    between atoms: C5_9  and  C8_12 
ROOT
HETATM    1  N2  UNL     1      -0.111  -0.276   0.543  1.00  0.00    -0.065 N 
ATOM      2  H21 UNL     1      -0.242   0.231   1.419  1.00  0.00     0.278 HD
ATOM      3  H22 UNL     1      -0.231  -1.223   0.902  1.00  0.00     0.278 HD
ENDROOT
BRANCH   1   4
HETATM    4  C4  UNL     1       1.193  -0.070  -0.009  1.00  0.00     0.252 C 
BRANCH   4   5
HETATM    5  C3  UNL     1       2.297  -0.427   0.994  1.00  0.00     0.143 C 
BRANCH   5   6
HETATM    6  N1  UNL     1       3.538  -0.177   0.316  1.00  0.00    -0.419 N 
HETATM    7  C1  UNL     1       3.796   1.203   0.062  1.00  0.00     0.142 C 
HETATM    8  C2  UNL     1       4.659  -0.925   0.761  1.00  0.00     0.142 C 
ENDBRANCH   5   6
ENDBRANCH   4   5
ENDBRANCH   1   4
BRANCH   1   9
HETATM    9  C5  UNL     1      -1.114   0.065  -0.438  1.00  0.00     0.125 C 
HETATM   10  C6  UNL     1      -1.040   1.536  -0.824  1.00  0.00     0.046 C 
HETATM   11  C7  UNL     1      -0.909  -0.842  -1.635  1.00  0.00     0.046 C 
BRANCH   9  12
HETATM   12  C8  UNL     1      -2.522  -0.171   0.056  1.00  0.00    -0.019 C 
HETATM   13  C9  UNL     1      -3.459   0.231  -1.081  1.00  0.00     0.017 C 
HETATM   14  C10 UNL     1      -2.855   0.650   1.266  1.00  0.00     0.017 C 
HETATM   15  C11 UNL     1      -2.771  -1.618   0.396  1.00  0.00     0.017 C 
ENDBRANCH   9  12
ENDBRANCH   1   9
TORSDOF 5
