REMARK  12 active torsions:
REMARK  status: ('A' for Active; 'I' for Inactive)
REMARK    1  A    between atoms: C2_2  and  C3_3 
REMARK    2  A    between atoms: C3_3  and  C4_4 
REMARK    3  A    between atoms: C4_4  and  C5_5 
REMARK    4  A    between atoms: C5_5  and  N1_7 
REMARK    5  A    between atoms: N1_7  and  C7_9 
REMARK    6  A    between atoms: C7_9  and  C8_10 
REMARK    7  A    between atoms: C8_10  and  N2_11 
REMARK    8  A    between atoms: C8_10  and  C25_30 
REMARK       I    between atoms: N2_11  and  C9_13 
REMARK    9  A    between atoms: C9_13  and  C10_15 
REMARK   10  A    between atoms: C10_15  and  C11_16 
REMARK   11  A    between atoms: C11_16  and  C12_17 
REMARK   12  A    between atoms: C25_30  and  O3_32 
ROOT
HETATM    1  N2  UNL     1       0.953   0.197   0.499  1.00  0.00    -0.318 N 
ATOM      2  H2  UNL     1       0.901  -0.193   1.440  1.00  0.00     0.169 HD
HETATM    3  C9  UNL     1      -0.094   1.113   0.166  1.00  0.00     0.242 C 
HETATM    4  O1  UNL     1      -0.506   1.864   1.064  1.00  0.00    -0.269 OA
ENDROOT
BRANCH   3   5
HETATM    5  C10 UNL     1      -0.585   1.110  -1.170  1.00  0.00     0.048 C 
BRANCH   5   6
HETATM    6  C11 UNL     1      -2.035   1.134  -1.527  1.00  0.00     0.042 C 
BRANCH   6   7
HETATM    7  C12 UNL     1      -2.883   0.024  -1.077  1.00  0.00    -0.035 C 
HETATM    8  C13 UNL     1      -2.236  -1.339  -1.550  1.00  0.00     0.016 C 
HETATM    9  C14 UNL     1      -4.186   0.027  -2.030  1.00  0.00     0.020 C 
HETATM   10  C15 UNL     1      -4.804   0.696  -0.863  1.00  0.00    -0.031 C 
HETATM   11  C16 UNL     1      -5.080   2.063  -0.996  1.00  0.00     0.011 C 
HETATM   12  C18 UNL     1      -6.193   0.378  -0.473  1.00  0.00    -0.005 C 
HETATM   13  C24 UNL     1      -3.873  -0.095  -0.081  1.00  0.00     0.011 C 
HETATM   14  C17 UNL     1      -6.556   1.749  -1.022  1.00  0.00     0.006 C 
HETATM   15  C19 UNL     1      -6.347   0.373   1.007  1.00  0.00     0.006 C 
HETATM   16  C20 UNL     1      -5.360  -0.529   1.706  1.00  0.00     0.010 C 
HETATM   17  C21 UNL     1      -3.910  -0.024   1.365  1.00  0.00    -0.043 C 
HETATM   18  C22 UNL     1      -3.039  -1.136   1.929  1.00  0.00     0.015 C 
HETATM   19  C23 UNL     1      -3.626   1.184   2.121  1.00  0.00     0.015 C 
ENDBRANCH   6   7
ENDBRANCH   5   6
ENDBRANCH   3   5
BRANCH   1  20
HETATM   20  C8  UNL     1       1.896  -0.189  -0.165  1.00  0.00     0.126 C 
BRANCH  20  21
HETATM   21  C7  UNL     1       2.987  -0.639  -0.928  1.00  0.00     0.119 C 
BRANCH  21  22
HETATM   22  N1  UNL     1       4.075  -1.364  -0.491  1.00  0.00    -0.393 N 
ATOM     23  H1  UNL     1       4.153  -2.329  -0.813  1.00  0.00     0.159 HD
BRANCH  22  24
HETATM   24  C5  UNL     1       5.084  -0.888   0.359  1.00  0.00     0.077 C 
HETATM   25  C6  UNL     1       6.132  -2.036   0.463  1.00  0.00     0.032 C 
BRANCH  24  26
HETATM   26  C4  UNL     1       5.766   0.285  -0.345  1.00  0.00     0.024 C 
BRANCH  26  27
HETATM   27  C3  UNL     1       6.980   0.698   0.459  1.00  0.00     0.002 C 
BRANCH  27  28
HETATM   28  C2  UNL     1       7.654   1.850  -0.221  1.00  0.00    -0.004 C 
HETATM   29  C1  UNL     1       6.652   2.983  -0.314  1.00  0.00     0.005 C 
ENDBRANCH  27  28
ENDBRANCH  26  27
ENDBRANCH  24  26
ENDBRANCH  22  24
ENDBRANCH  21  22
ENDBRANCH  20  21
BRANCH  20  30
HETATM   30  C25 UNL     1       1.792  -1.667   0.855  1.00  0.00     0.311 C 
HETATM   31  O2  UNL     1       0.920  -1.474   1.670  1.00  0.00    -0.258 OA
BRANCH  30  32
HETATM   32  O3  UNL     1       2.595  -2.616   0.565  1.00  0.00    -0.321 OA
HETATM   33  C26 UNL     1       2.590  -3.851   1.310  1.00  0.00     0.213 C 
ENDBRANCH  30  32
ENDBRANCH  20  30
ENDBRANCH   1  20
TORSDOF 12
