REMARK  11 active torsions:
REMARK  status: ('A' for Active; 'I' for Inactive)
REMARK    1  A    between atoms: C2_2  and  N1_3 
REMARK    2  A    between atoms: N1_3  and  C4_5 
REMARK    3  A    between atoms: C4_5  and  C5_6 
REMARK    4  A    between atoms: C5_6  and  O1_7 
REMARK    5  A    between atoms: C5_6  and  C6_9 
REMARK    6  A    between atoms: C6_9  and  C7_10 
REMARK    7  A    between atoms: C8_11  and  C9_12 
REMARK    8  A    between atoms: C10_13  and  C11_14 
REMARK    9  A    between atoms: C11_14  and  C12_15 
REMARK   10  A    between atoms: C13_16  and  C14_17 
REMARK   11  A    between atoms: C14_17  and  C15_18 
ROOT
HETATM    1  C12 UNL     1      -0.026   0.321   2.540  1.00  0.00    -0.027 C 
HETATM    2  C13 UNL     1      -1.311   0.524   2.583  1.00  0.00    -0.028 C 
ENDROOT
BRANCH   2   3
HETATM    3  C14 UNL     1      -2.104   1.162   1.530  1.00  0.00     0.059 C 
BRANCH   3   4
HETATM    4  C15 UNL     1      -3.140   0.164   1.067  1.00  0.00     0.135 C 
HETATM    5  C16 UNL     1      -4.037   0.715  -0.037  1.00  0.00     0.039 C 
HETATM    6  C17 UNL     1      -4.637  -0.473  -0.708  1.00  0.00     0.011 A 
HETATM    7  C18 UNL     1      -5.302  -1.364   0.314  1.00  0.00     0.099 A 
HETATM    8  C27 UNL     1      -5.927  -0.282  -1.451  1.00  0.00     0.028 A 
HETATM    9  C19 UNL     1      -5.196  -0.866   1.701  1.00  0.00     0.264 C 
HETATM   10  C20 UNL     1      -6.610  -1.081  -0.394  1.00  0.00    -0.023 A 
HETATM   11  O2  UNL     1      -6.111  -0.961   2.565  1.00  0.00    -0.265 OA
HETATM   12  O3  UNL     1      -4.017  -0.251   2.095  1.00  0.00    -0.315 OA
HETATM   13  C21 UNL     1      -7.171  -2.393  -0.940  1.00  0.00     0.016 C 
HETATM   14  C22 UNL     1      -7.603  -0.287   0.385  1.00  0.00     0.014 C 
HETATM   15  C23 UNL     1      -8.513   0.395  -0.651  1.00  0.00     0.028 C 
HETATM   16  C24 UNL     1      -7.619   1.440  -1.271  1.00  0.00    -0.024 C 
HETATM   17  C25 UNL     1      -6.406   1.076  -1.629  1.00  0.00    -0.082 C 
HETATM   18  C26 UNL     1      -5.543   2.148  -2.243  1.00  0.00     0.043 C 
ENDBRANCH   3   4
ENDBRANCH   2   3
BRANCH   1  19
HETATM   19  C11 UNL     1       0.932   0.669   1.462  1.00  0.00     0.054 C 
BRANCH  19  20
HETATM   20  C10 UNL     1       1.610  -0.518   0.920  1.00  0.00    -0.023 C 
HETATM   21  C9  UNL     1       2.904  -0.773   0.904  1.00  0.00    -0.004 C 
BRANCH  21  22
HETATM   22  C8  UNL     1       3.925   0.082   1.426  1.00  0.00    -0.004 C 
HETATM   23  C7  UNL     1       5.197  -0.166   1.414  1.00  0.00    -0.024 C 
BRANCH  23  24
HETATM   24  C6  UNL     1       5.790  -1.384   0.853  1.00  0.00     0.060 C 
BRANCH  24  25
HETATM   25  C5  UNL     1       6.752  -1.106  -0.305  1.00  0.00     0.149 C 
BRANCH  25  26
HETATM   26  C4  UNL     1       7.860  -0.246   0.195  1.00  0.00     0.303 C 
BRANCH  26  27
HETATM   27  N1  UNL     1       8.915   0.012  -0.733  1.00  0.00     0.086 N 
HETATM   28  C3  UNL     1       9.471  -1.240  -1.212  1.00  0.00     0.310 C 
BRANCH  27  29
HETATM   29  C2  UNL     1       8.591   0.838  -1.850  1.00  0.00     0.267 C 
HETATM   30  C1  UNL     1       8.005   2.165  -1.403  1.00  0.00     0.037 C 
ENDBRANCH  27  29
ENDBRANCH  26  27
ENDBRANCH  25  26
BRANCH  25  31
HETATM   31  O1  UNL     1       6.087  -0.577  -1.390  1.00  0.00    -0.394 OA
ATOM     32  H1  UNL     1       5.380  -1.126  -1.709  1.00  0.00     0.210 HD
ENDBRANCH  25  31
ENDBRANCH  24  25
ENDBRANCH  23  24
ENDBRANCH  21  22
ENDBRANCH  19  20
ENDBRANCH   1  19
TORSDOF 11
