REMARK  12 active torsions:
REMARK  status: ('A' for Active; 'I' for Inactive)
REMARK    1  A    between atoms: C9_9  and  C10_10 
REMARK    2  A    between atoms: C10_10  and  C11_12 
REMARK    3  A    between atoms: C12_15  and  C13_16 
REMARK    4  A    between atoms: C13_16  and  C14_17 
REMARK    5  A    between atoms: C15_18  and  C16_19 
REMARK    6  A    between atoms: C16_19  and  C17_20 
REMARK    7  A    between atoms: C17_20  and  C18_21 
REMARK    8  A    between atoms: C18_21  and  C19_22 
REMARK    9  A    between atoms: C19_22  and  C20_23 
REMARK   10  A    between atoms: C20_23  and  C21_24 
REMARK   11  A    between atoms: C21_24  and  C22_25 
REMARK   12  A    between atoms: C24_27  and  O4_28 
ROOT
HETATM    1  C1  UNL     1      -4.881   1.023  -1.911  1.00  0.00     0.014 C 
HETATM    2  C2  UNL     1      -3.834   1.162  -1.087  1.00  0.00    -0.084 C 
HETATM    3  C3  UNL     1      -2.726   2.019  -1.563  1.00  0.00     0.034 C 
HETATM    4  C4  UNL     1      -1.962   2.660  -0.415  1.00  0.00     0.005 C 
HETATM    5  C5  UNL     1      -2.782   2.705   0.826  1.00  0.00     0.005 C 
HETATM    6  C6  UNL     1      -3.222   1.330   1.310  1.00  0.00    -0.006 C 
HETATM    7  C7  UNL     1      -2.093   0.711   2.081  1.00  0.00     0.009 C 
HETATM    8  C8  UNL     1      -2.493  -0.660   2.506  1.00  0.00     0.047 C 
HETATM    9  C9  UNL     1      -2.925  -1.574   1.395  1.00  0.00     0.133 C 
HETATM   10  O3  UNL     1      -1.858  -2.452   1.196  1.00  0.00    -0.363 OA
HETATM   11  C12 UNL     1      -0.921  -2.267   0.287  1.00  0.00     0.155 C 
HETATM   12  C24 UNL     1      -1.213  -1.289  -0.814  1.00  0.00     0.151 C 
HETATM   13  C25 UNL     1      -2.722  -1.306  -1.110  1.00  0.00     0.021 C 
HETATM   14  C26 UNL     1      -3.039  -2.722  -1.558  1.00  0.00     0.013 C 
HETATM   15  C27 UNL     1      -3.470  -0.953   0.170  1.00  0.00     0.043 C 
HETATM   16  C28 UNL     1      -3.829   0.467   0.271  1.00  0.00     0.025 C 
ENDROOT
BRANCH  11  17
HETATM   17  C13 UNL     1       0.398  -1.929   0.925  1.00  0.00     0.061 C 
BRANCH  17  18
HETATM   18  C14 UNL     1       1.502  -1.699  -0.030  1.00  0.00    -0.028 C 
HETATM   19  C15 UNL     1       2.615  -2.417  -0.057  1.00  0.00    -0.031 C 
BRANCH  19  20
HETATM   20  C16 UNL     1       3.712  -2.177  -1.016  1.00  0.00     0.027 C 
BRANCH  20  21
HETATM   21  C17 UNL     1       4.945  -1.863  -0.227  1.00  0.00     0.004 C 
BRANCH  21  22
HETATM   22  C18 UNL     1       4.731  -0.634   0.605  1.00  0.00     0.000 C 
BRANCH  22  23
HETATM   23  C19 UNL     1       4.454   0.544  -0.289  1.00  0.00     0.000 C 
BRANCH  23  24
HETATM   24  C20 UNL     1       4.240   1.765   0.567  1.00  0.00     0.000 C 
BRANCH  24  25
HETATM   25  C21 UNL     1       3.954   2.951  -0.308  1.00  0.00    -0.000 C 
BRANCH  25  26
HETATM   26  C22 UNL     1       5.078   3.241  -1.248  1.00  0.00    -0.005 C 
HETATM   27  C23 UNL     1       6.334   3.522  -0.464  1.00  0.00     0.005 C 
ENDBRANCH  25  26
ENDBRANCH  24  25
ENDBRANCH  23  24
ENDBRANCH  22  23
ENDBRANCH  21  22
ENDBRANCH  20  21
ENDBRANCH  19  20
ENDBRANCH  17  18
ENDBRANCH  11  17
BRANCH  12  28
HETATM   28  O4  UNL     1      -0.566  -1.734  -1.967  1.00  0.00    -0.393 OA
ATOM     29  H4  UNL     1      -0.751  -1.115  -2.664  1.00  0.00     0.210 HD
ENDBRANCH  12  28
BRANCH   9  30
HETATM   30  C10 UNL     1      -3.987  -2.492   1.958  1.00  0.00     0.221 C 
HETATM   31  O1  UNL     1      -3.714  -3.751   1.913  1.00  0.00    -0.287 OA
BRANCH  30  32
HETATM   32  C11 UNL     1      -5.237  -2.156   2.527  1.00  0.00     0.311 C 
HETATM   33  O2  UNL     1      -5.630  -0.984   2.686  1.00  0.00    -0.298 OA
ENDBRANCH  30  32
ENDBRANCH   9  30
TORSDOF 12
