REMARK  11 active torsions:
REMARK  status: ('A' for Active; 'I' for Inactive)
REMARK    1  A    between atoms: C2_2  and  C3_3 
REMARK    2  A    between atoms: C3_3  and  C4_4 
REMARK    3  A    between atoms: C3_3  and  C12_14 
REMARK    4  A    between atoms: C4_4  and  C5_5 
REMARK    5  A    between atoms: C5_5  and  C6_6 
REMARK    6  A    between atoms: C16_18  and  O1_19 
REMARK    7  A    between atoms: C18_22  and  C19_23 
REMARK    8  A    between atoms: C19_23  and  C21_25 
REMARK    9  A    between atoms: C21_25  and  C22_26 
REMARK   10  A    between atoms: C22_26  and  C24_29 
REMARK   11  A    between atoms: C25_30  and  S1_31 
ROOT
HETATM    1  C22 UNL     1       3.712   0.022   1.842  1.00  0.00     0.116 C 
HETATM    2  C23 UNL     1       4.982  -0.797   2.022  1.00  0.00     0.068 C 
HETATM    3  N2  UNL     1       5.947  -1.456   2.175  1.00  0.00    -0.197 NA
ENDROOT
BRANCH   1   4
HETATM    4  C21 UNL     1       2.879  -0.822   0.968  1.00  0.00     0.027 C 
BRANCH   4   5
HETATM    5  C19 UNL     1       1.506  -0.421   0.565  1.00  0.00    -0.012 C 
HETATM    6  C20 UNL     1       1.559   0.901  -0.141  1.00  0.00     0.010 C 
BRANCH   5   7
HETATM    7  C18 UNL     1       0.938  -1.552  -0.249  1.00  0.00     0.000 C 
HETATM    8  C12 UNL     1      -0.431  -1.507  -0.744  1.00  0.00    -0.036 C 
HETATM    9  C13 UNL     1      -0.722  -0.723  -1.973  1.00  0.00     0.016 C 
HETATM   10  C14 UNL     1      -0.775  -2.966  -1.139  1.00  0.00     0.012 C 
HETATM   11  C15 UNL     1       0.230  -3.594  -2.033  1.00  0.00     0.032 C 
HETATM   12  C16 UNL     1       1.402  -2.770  -2.418  1.00  0.00     0.118 C 
HETATM   13  C17 UNL     1       1.919  -1.889  -1.333  1.00  0.00     0.037 C 
BRANCH   8  14
HETATM   14  C3  UNL     1      -1.491  -1.189   0.308  1.00  0.00    -0.006 C 
BRANCH  14  15
HETATM   15  C2  UNL     1      -1.320  -1.891   1.597  1.00  0.00     0.001 C 
HETATM   16  C1  UNL     1      -2.070  -1.463   2.807  1.00  0.00     0.005 C 
ENDBRANCH  14  15
BRANCH  14  17
HETATM   17  C4  UNL     1      -2.827  -1.212  -0.316  1.00  0.00     0.010 C 
BRANCH  17  18
HETATM   18  C5  UNL     1      -4.020  -0.566   0.231  1.00  0.00     0.040 C 
BRANCH  18  19
HETATM   19  C6  UNL     1      -4.020   0.913   0.293  1.00  0.00    -0.043 A 
HETATM   20  C7  UNL     1      -3.740   1.666   1.383  1.00  0.00     0.010 A 
HETATM   21  C8  UNL     1      -3.738   3.069   1.360  1.00  0.00     0.025 A 
HETATM   22  C9  UNL     1      -4.029   3.739   0.196  1.00  0.00     0.005 A 
HETATM   23  C10 UNL     1      -4.032   5.235   0.151  1.00  0.00     0.068 C 
HETATM   24  N1  UNL     1      -4.309   2.997  -0.888  1.00  0.00    -0.369 N 
HETATM   25  C11 UNL     1      -4.312   1.657  -0.870  1.00  0.00     0.095 A 
ATOM     26  H1  UNL     1      -4.529   3.474  -1.762  1.00  0.00     0.165 HD
ENDBRANCH  18  19
ENDBRANCH  17  18
ENDBRANCH  14  17
ENDBRANCH   8  14
BRANCH  12  27
HETATM   27  O1  UNL     1       2.417  -3.709  -2.791  1.00  0.00    -0.396 OA
ATOM     28  H1  UNL     1       3.168  -3.181  -3.038  1.00  0.00     0.210 HD
ENDBRANCH  12  27
ENDBRANCH   5   7
ENDBRANCH   4   5
ENDBRANCH   1   4
BRANCH   1  29
HETATM   29  C24 UNL     1       4.188   1.315   1.365  1.00  0.00    -0.001 C 
HETATM   30  C25 UNL     1       5.471   1.572   1.123  1.00  0.00     0.042 C 
BRANCH  30  31
HETATM   31  S1  UNL     1       6.015   3.178   0.536  1.00  0.00    -0.146 SA
HETATM   32  C26 UNL     1       4.677   4.397   0.617  1.00  0.00     0.095 C 
ENDBRANCH  30  31
ENDBRANCH   1  29
TORSDOF 11
