REMARK  10 active torsions:
REMARK  status: ('A' for Active; 'I' for Inactive)
REMARK    1  A    between atoms: O1_2  and  N1_3 
REMARK    2  A    between atoms: C2_5  and  C4_7 
REMARK    3  A    between atoms: C5_8  and  C6_9 
REMARK    4  A    between atoms: C6_9  and  C7_10 
REMARK    5  A    between atoms: C7_10  and  C8_11 
REMARK    6  A    between atoms: C8_11  and  C9_12 
REMARK    7  A    between atoms: C9_12  and  C10_13 
REMARK    8  A    between atoms: C10_13  and  N2_14 
REMARK    9  A    between atoms: C13_17  and  N3_18 
REMARK       I    between atoms: N3_18  and  C14_20 
REMARK   10  A    between atoms: C14_20  and  C15_22 
ROOT
HETATM    1  C9  UNL     1      -0.565   1.038  -0.532  1.00  0.00     0.030 C 
ENDROOT
BRANCH   1   2
HETATM    2  C8  UNL     1      -1.721   0.565  -1.366  1.00  0.00     0.002 C 
BRANCH   2   3
HETATM    3  C7  UNL     1      -2.323  -0.682  -0.814  1.00  0.00     0.004 C 
BRANCH   3   4
HETATM    4  C6  UNL     1      -2.892  -0.493   0.562  1.00  0.00     0.034 C 
BRANCH   4   5
HETATM    5  C5  UNL     1      -3.977   0.517   0.502  1.00  0.00    -0.074 C 
HETATM    6  C4  UNL     1      -5.142   0.295  -0.389  1.00  0.00     0.065 C 
HETATM    7  C25 UNL     1      -5.851   1.612  -0.672  1.00  0.00    -0.005 C 
HETATM    8  C24 UNL     1      -6.137   2.404   0.559  1.00  0.00     0.009 C 
HETATM    9  C26 UNL     1      -7.026   1.379  -1.556  1.00  0.00     0.011 C 
HETATM   10  C23 UNL     1      -4.871   2.727   1.271  1.00  0.00     0.028 C 
HETATM   11  C22 UNL     1      -3.888   1.622   1.235  1.00  0.00    -0.023 C 
BRANCH   6  12
HETATM   12  C2  UNL     1      -6.059  -0.751   0.107  1.00  0.00     0.015 C 
HETATM   13  N1  UNL     1      -7.260  -0.412   0.418  1.00  0.00    -0.275 N 
ATOM     14  H1  UNL     1      -7.552   0.560   0.318  1.00  0.00     0.193 HD
HETATM   15  C3  UNL     1      -5.689  -2.175   0.271  1.00  0.00     0.066 C 
BRANCH  13  16
HETATM   16  O1  UNL     1      -8.146  -1.337   0.879  1.00  0.00    -0.285 OA
HETATM   17  C1  UNL     1      -9.068  -1.993  -0.004  1.00  0.00     0.237 C 
ENDBRANCH  13  16
ENDBRANCH   6  12
ENDBRANCH   4   5
ENDBRANCH   3   4
ENDBRANCH   2   3
ENDBRANCH   1   2
BRANCH   1  18
HETATM   18  C10 UNL     1       0.493  -0.033  -0.502  1.00  0.00     0.272 C 
BRANCH  18  19
HETATM   19  N2  UNL     1       1.676   0.356   0.262  1.00  0.00     0.088 N 
HETATM   20  C11 UNL     1       2.383   1.406  -0.399  1.00  0.00     0.274 C 
HETATM   21  C12 UNL     1       3.747   1.630   0.193  1.00  0.00     0.055 C 
HETATM   22  C13 UNL     1       4.527   0.336   0.282  1.00  0.00     0.087 C 
HETATM   23  C20 UNL     1       3.723  -0.532   1.264  1.00  0.00     0.055 C 
HETATM   24  C21 UNL     1       2.430  -0.824   0.545  1.00  0.00     0.274 C 
BRANCH  22  25
HETATM   25  N3  UNL     1       5.870   0.474   0.725  1.00  0.00    -0.356 N 
HETATM   26  C14 UNL     1       6.961   0.000  -0.053  1.00  0.00     0.222 C 
HETATM   27  O2  UNL     1       6.668  -0.554  -1.165  1.00  0.00    -0.273 OA
ATOM     28  H3  UNL     1       6.055   0.923   1.622  1.00  0.00     0.162 HD
BRANCH  26  29
HETATM   29  C15 UNL     1       8.374   0.132   0.388  1.00  0.00     0.078 C 
HETATM   30  C16 UNL     1       9.243  -0.520  -0.697  1.00  0.00     0.014 C 
HETATM   31  C17 UNL     1       8.980  -2.016  -0.484  1.00  0.00     0.001 C 
HETATM   32  C18 UNL     1       8.323  -2.150   0.860  1.00  0.00     0.001 C 
HETATM   33  C19 UNL     1       8.678  -0.837   1.541  1.00  0.00     0.014 C 
ENDBRANCH  26  29
ENDBRANCH  22  25
ENDBRANCH  18  19
ENDBRANCH   1  18
TORSDOF 10
