REMARK  0 active torsions:
REMARK  status: ('A' for Active; 'I' for Inactive)
ROOT
HETATM    1  N1  UNL     1      -1.508   3.420   0.318  1.00  0.00    -0.393 N 
ATOM      2  H11 UNL     1      -2.494   3.158   0.326  1.00  0.00     0.156 HD
ATOM      3  H12 UNL     1      -0.985   4.293   0.377  1.00  0.00     0.156 HD
HETATM    4  C1  UNL     1      -0.764   2.380   0.204  1.00  0.00     0.074 C 
HETATM    5  S1  UNL     1       0.960   2.839   0.190  1.00  0.00    -0.107 SA
HETATM    6  C2  UNL     1       1.821   1.884  -1.096  1.00  0.00     0.127 C 
HETATM    7  C3  UNL     1       2.149   0.559  -0.462  1.00  0.00     0.049 A 
HETATM    8  C4  UNL     1       1.429  -0.517  -0.064  1.00  0.00     0.074 A 
HETATM    9  N2  UNL     1       2.068  -1.568   0.479  1.00  0.00    -0.331 N 
ATOM     10  H2  UNL     1       1.529  -2.380   0.780  1.00  0.00     0.168 HD
HETATM   11  C5  UNL     1       3.400  -1.570   0.633  1.00  0.00     0.179 A 
HETATM   12  S2  UNL     1       4.176  -2.862   1.299  1.00  0.00    -0.040 SA
HETATM   13  N3  UNL     1       4.116  -0.503   0.239  1.00  0.00    -0.300 N 
ATOM     14  H3  UNL     1       5.129  -0.512   0.360  1.00  0.00     0.171 HD
HETATM   15  C6  UNL     1       3.535   0.571  -0.308  1.00  0.00     0.257 A 
HETATM   16  O1  UNL     1       4.159   1.590  -0.691  1.00  0.00    -0.267 OA
HETATM   17  C7  UNL     1      -0.005  -0.888  -0.062  1.00  0.00     0.072 A 
HETATM   18  N4  UNL     1       0.094  -2.245  -0.164  1.00  0.00    -0.363 N 
ATOM     19  H4  UNL     1       1.020  -2.670  -0.211  1.00  0.00     0.165 HD
HETATM   20  C8  UNL     1      -0.987  -3.040  -0.204  1.00  0.00     0.089 A 
HETATM   21  C9  UNL     1      -2.215  -2.462  -0.138  1.00  0.00     0.029 A 
HETATM   22  C10 UNL     1      -2.339  -1.067  -0.032  1.00  0.00    -0.021 A 
HETATM   23  C11 UNL     1      -3.639  -0.605   0.028  1.00  0.00     0.012 A 
HETATM   24  C12 UNL     1      -3.873   0.743   0.135  1.00  0.00     0.002 A 
HETATM   25  C13 UNL     1      -2.812   1.585   0.179  1.00  0.00     0.015 A 
HETATM   26  C14 UNL     1      -1.512   1.132   0.119  1.00  0.00     0.010 A 
HETATM   27  C15 UNL     1      -1.226  -0.237   0.009  1.00  0.00     0.016 A 
ENDROOT
TORSDOF 0
