REMARK  3 active torsions:
REMARK  status: ('A' for Active; 'I' for Inactive)
REMARK    1  A    between atoms: C4_5  and  C5_6 
REMARK    2  A    between atoms: C8_15  and  N3_16 
REMARK    3  A    between atoms: N3_16  and  C9_18 
ROOT
HETATM    1  C5  UNL     1       1.449  -0.427  -0.477  1.00  0.00     0.144 C 
HETATM    2  C6  UNL     1       0.995  -0.225  -1.929  1.00  0.00     0.055 C 
HETATM    3  N1  UNL     1       1.169  -1.801  -0.066  1.00  0.00    -0.349 N 
ATOM      4  H1  UNL     1       1.959  -2.340   0.288  1.00  0.00     0.163 HD
HETATM    5  C7  UNL     1      -0.081  -2.466  -0.106  1.00  0.00     0.142 C 
HETATM    6  N2  UNL     1      -0.006  -3.744  -0.078  1.00  0.00    -0.380 N 
ATOM      7  H21 UNL     1      -0.906  -4.223  -0.107  1.00  0.00     0.158 HD
ATOM      8  H22 UNL     1       0.918  -4.173  -0.031  1.00  0.00     0.158 HD
HETATM    9  S2  UNL     1      -1.699  -1.714  -0.189  1.00  0.00    -0.019 SA
HETATM   10  C8  UNL     1      -1.630  -0.097   0.504  1.00  0.00     0.151 C 
HETATM   11  N4  UNL     1      -0.625   0.673   0.646  1.00  0.00    -0.305 N 
ATOM     12  H4  UNL     1      -0.862   1.565   1.081  1.00  0.00     0.171 HD
HETATM   13  C13 UNL     1       0.743   0.557   0.331  1.00  0.00     0.257 C 
HETATM   14  O1  UNL     1       1.465   1.452   0.832  1.00  0.00    -0.270 OA
ENDROOT
BRANCH   1  15
HETATM   15  C4  UNL     1       2.933  -0.202  -0.439  1.00  0.00     0.020 A 
HETATM   16  S1  UNL     1       3.979  -0.214  -1.778  1.00  0.00    -0.103 SA
HETATM   17  C3  UNL     1       5.453   0.100  -0.982  1.00  0.00     0.056 A 
HETATM   18  C2  UNL     1       5.079   0.207   0.329  1.00  0.00    -0.054 A 
HETATM   19  C1  UNL     1       6.122   0.492   1.401  1.00  0.00     0.048 C 
HETATM   20  C14 UNL     1       3.770   0.050   0.609  1.00  0.00     0.024 A 
ENDBRANCH   1  15
BRANCH  10  21
HETATM   21  N3  UNL     1      -2.864   0.417   0.966  1.00  0.00    -0.362 N 
ATOM     22  H3  UNL     1      -2.980   0.551   1.971  1.00  0.00     0.162 HD
BRANCH  21  23
HETATM   23  C9  UNL     1      -3.968   0.764   0.107  1.00  0.00     0.021 C 
HETATM   24  C10 UNL     1      -4.411  -0.481  -0.668  1.00  0.00     0.037 C 
HETATM   25  C11 UNL     1      -5.150   1.231   0.893  1.00  0.00     0.037 C 
HETATM   26  C12 UNL     1      -3.584   1.860  -0.866  1.00  0.00     0.037 C 
ENDBRANCH  21  23
ENDBRANCH  10  21
TORSDOF 3
