REMARK  10 active torsions:
REMARK  status: ('A' for Active; 'I' for Inactive)
REMARK       I    between atoms: C2_2  and  N1_4 
REMARK    1  A    between atoms: N1_4  and  C3_6 
REMARK    2  A    between atoms: C3_6  and  C4_7 
REMARK    3  A    between atoms: C3_6  and  C8_11 
REMARK    4  A    between atoms: C4_7  and  C5_8 
REMARK    5  A    between atoms: C8_11  and  O2_12 
REMARK    6  A    between atoms: C8_11  and  C9_14 
REMARK    7  A    between atoms: C10_16  and  C11_17 
REMARK    8  A    between atoms: C11_17  and  C13_19 
REMARK    9  A    between atoms: C11_17  and  C16_23 
REMARK   10  A    between atoms: C16_23  and  S1_24 
ROOT
HETATM    1  C13 UNL     1       1.993  -1.990   0.245  1.00  0.00    -0.077 C 
HETATM    2  C14 UNL     1       1.293  -2.967   0.347  1.00  0.00     0.014 C 
HETATM    3  C15 UNL     1       0.457  -4.104   0.449  1.00  0.00     0.152 C 
HETATM    4  N2  UNL     1      -0.231  -5.033   0.516  1.00  0.00    -0.182 NA
ENDROOT
BRANCH   1   5
HETATM    5  C11 UNL     1       2.877  -0.800   0.108  1.00  0.00     0.062 C 
HETATM    6  C12 UNL     1       3.579  -0.674   1.435  1.00  0.00     0.033 C 
BRANCH   5   7
HETATM    7  C10 UNL     1       1.941   0.359  -0.151  1.00  0.00     0.174 A 
HETATM    8  C9  UNL     1       0.886   0.583   0.745  1.00  0.00     0.183 A 
HETATM    9  O3  UNL     1       2.116   1.407   0.745  1.00  0.00    -0.371 OA
BRANCH   8  10
HETATM   10  C8  UNL     1      -0.276   1.526   0.540  1.00  0.00     0.172 C 
BRANCH  10  11
HETATM   11  C3  UNL     1      -1.608   0.785   0.713  1.00  0.00     0.116 C 
BRANCH  11  12
HETATM   12  N1  UNL     1      -2.713   1.718   0.716  1.00  0.00    -0.354 N 
HETATM   13  C2  UNL     1      -3.576   1.925   1.822  1.00  0.00     0.214 C 
HETATM   14  C1  UNL     1      -4.695   2.863   1.839  1.00  0.00     0.117 C 
HETATM   15  O1  UNL     1      -3.325   1.223   2.859  1.00  0.00    -0.274 OA
ATOM     16  H1  UNL     1      -2.882   2.261  -0.131  1.00  0.00     0.162 HD
ENDBRANCH  11  12
BRANCH  11  17
HETATM   17  C4  UNL     1      -1.749  -0.135  -0.444  1.00  0.00     0.031 C 
BRANCH  17  18
HETATM   18  C5  UNL     1      -2.993  -0.953  -0.468  1.00  0.00    -0.021 C 
HETATM   19  C6  UNL     1      -3.190  -1.857   0.690  1.00  0.00     0.009 C 
HETATM   20  C7  UNL     1      -3.088  -1.761  -1.745  1.00  0.00     0.009 C 
ENDBRANCH  17  18
ENDBRANCH  11  17
ENDBRANCH  10  11
BRANCH  10  21
HETATM   21  O2  UNL     1      -0.220   2.230  -0.639  1.00  0.00    -0.391 OA
ATOM     22  H2  UNL     1       0.605   2.689  -0.746  1.00  0.00     0.210 HD
ENDBRANCH  10  21
ENDBRANCH   8  10
ENDBRANCH   5   7
BRANCH   5  23
HETATM   23  C16 UNL     1       3.754  -1.027  -1.046  1.00  0.00     0.164 C 
BRANCH  23  24
HETATM   24  S1  UNL     1       4.819   0.214  -1.589  1.00  0.00     0.142 S 
HETATM   25  C17 UNL     1       4.105   1.717  -2.106  1.00  0.00     0.161 C 
HETATM   26  O4  UNL     1       5.928   0.536  -0.591  1.00  0.00    -0.228 OA
HETATM   27  O5  UNL     1       5.577  -0.345  -2.794  1.00  0.00    -0.228 OA
ENDBRANCH  23  24
ENDBRANCH   5  23
ENDBRANCH   1   5
TORSDOF 10
