REMARK  10 active torsions:
REMARK  status: ('A' for Active; 'I' for Inactive)
REMARK    1  A    between atoms: C1_2  and  O2_3 
REMARK    2  A    between atoms: C1_2  and  C9_15 
REMARK    3  A    between atoms: O2_3  and  C2_4 
REMARK    4  A    between atoms: C2_4  and  C3_5 
REMARK    5  A    between atoms: C3_5  and  C4_7 
REMARK    6  A    between atoms: N2_18  and  S1_19 
REMARK    7  A    between atoms: S1_19  and  C12_22 
REMARK    8  A    between atoms: C12_22  and  C13_23 
REMARK    9  A    between atoms: C13_23  and  C14_24 
REMARK   10  A    between atoms: C14_24  and  O6_25 
ROOT
HETATM    1  C9  UNL     1       1.028   0.271  -1.059  1.00  0.00     0.088 C 
HETATM    2  C10 UNL     1       1.776   0.772   0.143  1.00  0.00     0.035 C 
HETATM    3  C11 UNL     1       2.274  -0.357   1.017  1.00  0.00     0.136 C 
HETATM    4  N2  UNL     1       2.928  -1.405   0.325  1.00  0.00    -0.311 N 
HETATM    5  C15 UNL     1       2.381  -1.830  -0.914  1.00  0.00     0.136 C 
HETATM    6  C16 UNL     1       1.846  -0.722  -1.791  1.00  0.00     0.035 C 
ENDROOT
BRANCH   1   7
HETATM    7  C1  UNL     1      -0.346  -0.166  -0.717  1.00  0.00     0.263 C 
HETATM    8  O1  UNL     1      -0.585  -1.417  -0.647  1.00  0.00    -0.265 OA
BRANCH   7   9
HETATM    9  O2  UNL     1      -1.377   0.710  -0.468  1.00  0.00    -0.314 OA
BRANCH   9  10
HETATM   10  C2  UNL     1      -2.647   0.198  -0.144  1.00  0.00     0.259 C 
BRANCH  10  11
HETATM   11  C3  UNL     1      -3.675   1.257   0.017  1.00  0.00     0.181 C 
HETATM   12  O3  UNL     1      -3.431   2.429  -0.162  1.00  0.00    -0.293 OA
BRANCH  11  13
HETATM   13  C4  UNL     1      -5.042   0.853   0.409  1.00  0.00     0.257 C 
HETATM   14  C5  UNL     1      -5.330  -0.529  -0.097  1.00  0.00     0.041 C 
HETATM   15  C6  UNL     1      -6.765  -0.934   0.192  1.00  0.00     0.004 C 
HETATM   16  C7  UNL     1      -7.714   0.154  -0.307  1.00  0.00     0.027 C 
HETATM   17  C8  UNL     1      -7.309   1.500   0.259  1.00  0.00     0.233 C 
HETATM   18  N1  UNL     1      -5.959   1.866   0.003  1.00  0.00    -0.064 N 
ATOM     19  H12 UNL     1      -5.732   2.763   0.432  1.00  0.00     0.278 HD
ATOM     20  H11 UNL     1      -5.823   2.116  -0.977  1.00  0.00     0.278 HD
ENDBRANCH  11  13
ENDBRANCH  10  11
ENDBRANCH   9  10
ENDBRANCH   7   9
ENDBRANCH   1   7
BRANCH   4  21
HETATM   21  S1  UNL     1       4.602  -1.465   0.450  1.00  0.00     0.228 S 
HETATM   22  O4  UNL     1       5.114  -2.659  -0.313  1.00  0.00    -0.206 OA
HETATM   23  O5  UNL     1       5.049  -1.626   1.875  1.00  0.00    -0.206 OA
BRANCH  21  24
HETATM   24  C12 UNL     1       5.419  -0.019  -0.199  1.00  0.00     0.165 C 
BRANCH  24  25
HETATM   25  C13 UNL     1       6.903  -0.254   0.000  1.00  0.00     0.043 C 
BRANCH  25  26
HETATM   26  C14 UNL     1       7.673   0.935  -0.534  1.00  0.00     0.165 C 
BRANCH  26  27
HETATM   27  O6  UNL     1       9.054   0.730  -0.347  1.00  0.00    -0.401 OA
ATOM     28  H6  UNL     1       9.537   1.476  -0.682  1.00  0.00     0.209 HD
ENDBRANCH  26  27
ENDBRANCH  25  26
ENDBRANCH  24  25
ENDBRANCH  21  24
ENDBRANCH   4  21
TORSDOF 10
