REMARK  4 active torsions:
REMARK  status: ('A' for Active; 'I' for Inactive)
REMARK    1  A    between atoms: N1_2  and  C2_5 
REMARK    2  A    between atoms: C2_5  and  C4_7 
REMARK       I    between atoms: C4_7  and  N2_9 
REMARK    3  A    between atoms: C11_17  and  C12_18 
REMARK    4  A    between atoms: C12_18  and  C13_19 
ROOT
HETATM    1  C13 UNL     1      -0.714   2.561  -1.024  1.00  0.00     0.124 C 
HETATM    2  C14 UNL     1      -0.817   3.350   0.203  1.00  0.00     0.059 C 
HETATM    3  N3  UNL     1      -0.915   3.967   1.176  1.00  0.00    -0.197 NA
ENDROOT
BRANCH   1   4
HETATM    4  C12 UNL     1      -1.892   1.648  -1.144  1.00  0.00     0.024 C 
BRANCH   4   5
HETATM    5  C11 UNL     1      -2.028   0.668   0.001  1.00  0.00     0.032 C 
HETATM    6  C5  UNL     1      -0.807  -0.157   0.026  1.00  0.00    -0.006 C 
HETATM    7  N2  UNL     1       0.079   0.274   0.842  1.00  0.00    -0.332 N 
HETATM    8  C6  UNL     1      -0.394  -1.383  -0.689  1.00  0.00     0.053 C 
HETATM    9  C4  UNL     1       1.337  -0.282   1.105  1.00  0.00     0.252 C 
ATOM     10  H2  UNL     1      -0.158   1.120   1.361  1.00  0.00     0.168 HD
HETATM   11  O1  UNL     1       1.391  -1.116   2.070  1.00  0.00    -0.271 OA
HETATM   12  C7  UNL     1      -1.484  -2.444  -0.632  1.00  0.00     0.006 C 
HETATM   13  C8  UNL     1      -2.169  -2.183   0.716  1.00  0.00     0.000 C 
HETATM   14  C9  UNL     1      -3.412  -1.416   0.443  1.00  0.00     0.001 C 
HETATM   15  C10 UNL     1      -3.283  -0.118  -0.240  1.00  0.00     0.010 C 
BRANCH   9  16
HETATM   16  C2  UNL     1       2.576   0.016   0.370  1.00  0.00     0.272 C 
HETATM   17  C3  UNL     1       2.935   1.504   0.420  1.00  0.00     0.050 C 
BRANCH  16  18
HETATM   18  N1  UNL     1       3.670  -0.760   0.916  1.00  0.00    -0.067 N 
HETATM   19  C1  UNL     1       4.876  -0.595   0.115  1.00  0.00     0.267 C 
ATOM     20  H12 UNL     1       3.419  -1.743   1.021  1.00  0.00     0.277 HD
ATOM     21  H11 UNL     1       3.836  -0.538   1.897  1.00  0.00     0.277 HD
ENDBRANCH  16  18
ENDBRANCH   9  16
ENDBRANCH   4   5
ENDBRANCH   1   4
TORSDOF 4
