REMARK  5 active torsions:
REMARK  status: ('A' for Active; 'I' for Inactive)
REMARK       I    between atoms: C2_2  and  N1_4 
REMARK    1  A    between atoms: N1_4  and  C3_6 
REMARK    2  A    between atoms: C3_6  and  C5_9 
REMARK    3  A    between atoms: C5_9  and  S1_10 
REMARK    4  A    between atoms: S1_10  and  S2_11 
REMARK    5  A    between atoms: S2_11  and  C6_12 
ROOT
HETATM    1  C3  UNL     1       2.459   1.327  -0.239  1.00  0.00     0.202 C 
HETATM    2  C4  UNL     1       2.899   2.717   0.031  1.00  0.00     0.085 C 
HETATM    3  N2  UNL     1       3.248   3.803   0.226  1.00  0.00    -0.195 NA
ENDROOT
BRANCH   1   4
HETATM    4  N1  UNL     1       3.453   0.472   0.366  1.00  0.00    -0.344 N 
HETATM    5  C2  UNL     1       4.177  -0.428  -0.446  1.00  0.00     0.214 C 
HETATM    6  C1  UNL     1       5.202  -1.315   0.150  1.00  0.00     0.117 C 
HETATM    7  O1  UNL     1       3.948  -0.470  -1.668  1.00  0.00    -0.274 OA
ATOM      8  H1  UNL     1       3.630   0.518   1.369  1.00  0.00     0.163 HD
ENDBRANCH   1   4
BRANCH   1   9
HETATM    9  C5  UNL     1       1.109   1.158   0.423  1.00  0.00     0.126 C 
BRANCH   9  10
HETATM   10  S1  UNL     1      -0.143   2.219  -0.322  1.00  0.00    -0.094 SA
BRANCH  10  11
HETATM   11  S2  UNL     1      -1.962   1.861   0.722  1.00  0.00    -0.093 SA
BRANCH  11  12
HETATM   12  C6  UNL     1      -2.837   0.541  -0.102  1.00  0.00     0.058 C 
HETATM   13  C7  UNL     1      -2.154  -0.786  -0.031  1.00  0.00     0.016 C 
HETATM   14  C8  UNL     1      -3.294  -1.747  -0.328  1.00  0.00     0.001 C 
HETATM   15  C9  UNL     1      -4.535  -1.096   0.245  1.00  0.00     0.001 C 
HETATM   16  C10 UNL     1      -4.123   0.270   0.691  1.00  0.00     0.016 C 
ENDBRANCH  11  12
ENDBRANCH  10  11
ENDBRANCH   9  10
ENDBRANCH   1   9
TORSDOF 5
