REMARK  4 active torsions:
REMARK  status: ('A' for Active; 'I' for Inactive)
REMARK    1  A    between atoms: C1_2  and  C2_4 
REMARK    2  A    between atoms: C2_4  and  C3_5 
REMARK    3  A    between atoms: C3_5  and  C4_6 
REMARK    4  A    between atoms: C4_6  and  C5_7 
ROOT
HETATM    1  C5  UNL     1       0.199   0.455  -0.224  1.00  0.00     0.114 C 
HETATM    2  C6  UNL     1      -1.062  -0.408  -0.109  1.00  0.00     0.022 C 
HETATM    3  C7  UNL     1      -0.756  -1.840   0.198  1.00  0.00     0.007 C 
HETATM    4  C8  UNL     1      -1.903  -2.381   1.023  1.00  0.00     0.001 C 
HETATM    5  C9  UNL     1      -3.191  -1.633   0.761  1.00  0.00     0.001 C 
HETATM    6  C10 UNL     1      -3.109  -0.177   1.166  1.00  0.00     0.013 C 
HETATM    7  C11 UNL     1      -1.677   0.230   1.133  1.00  0.00     0.061 C 
HETATM    8  C12 UNL     1      -1.486   1.679   0.766  1.00  0.00     0.104 A 
HETATM    9  N2  UNL     1      -1.991   2.909   0.923  1.00  0.00    -0.340 N 
ATOM     10  H2  UNL     1      -2.819   3.156   1.465  1.00  0.00     0.168 HD
HETATM   11  C13 UNL     1      -1.214   3.752   0.242  1.00  0.00     0.199 A 
HETATM   12  N3  UNL     1      -0.240   3.028  -0.326  1.00  0.00    -0.292 N 
ATOM     13  H3  UNL     1       0.509   3.398  -0.911  1.00  0.00     0.188 HD
HETATM   14  N4  UNL     1      -0.406   1.766  -0.008  1.00  0.00    -0.274 N 
ENDROOT
BRANCH   1  15
HETATM   15  C4  UNL     1       0.697   0.282  -1.636  1.00  0.00     0.028 C 
BRANCH  15  16
HETATM   16  C3  UNL     1       1.925   1.046  -1.948  1.00  0.00     0.011 C 
BRANCH  16  17
HETATM   17  C2  UNL     1       3.125   0.744  -1.133  1.00  0.00     0.099 C 
BRANCH  17  18
HETATM   18  C1  UNL     1       3.630  -0.630  -1.218  1.00  0.00     0.231 C 
HETATM   19  N1  UNL     1       4.687  -1.120  -0.390  1.00  0.00    -0.062 NA
HETATM   20  O1  UNL     1       3.143  -1.435  -2.036  1.00  0.00    -0.277 OA
ENDBRANCH  17  18
ENDBRANCH  16  17
ENDBRANCH  15  16
ENDBRANCH   1  15
TORSDOF 4
