REMARK  5 active torsions:
REMARK  status: ('A' for Active; 'I' for Inactive)
REMARK    1  A    between atoms: C2_2  and  C3_3 
REMARK    2  A    between atoms: C3_3  and  C4_4 
REMARK    3  A    between atoms: C4_4  and  C5_5 
REMARK    4  A    between atoms: C5_5  and  O1_6 
REMARK    5  A    between atoms: O1_6  and  C6_7 
ROOT
HETATM    1  C6  UNL     1       0.232   0.923   1.087  1.00  0.00     0.263 C 
HETATM    2  C7  UNL     1      -0.762   2.076   1.284  1.00  0.00     0.066 C 
HETATM    3  C8  UNL     1      -1.776   1.721   0.204  1.00  0.00     0.076 C 
HETATM    4  C9  UNL     1      -1.650   0.205   0.184  1.00  0.00     0.192 C 
HETATM    5  C10 UNL     1      -1.245  -0.318  -1.168  1.00  0.00     0.240 C 
HETATM    6  O2  UNL     1      -2.451  -0.754  -1.701  1.00  0.00    -0.350 OA
HETATM    7  C11 UNL     1      -3.452  -0.520  -0.792  1.00  0.00     0.160 C 
HETATM    8  C12 UNL     1      -4.393  -1.725  -0.705  1.00  0.00     0.078 C 
HETATM    9  C13 UNL     1      -4.325   0.661  -1.171  1.00  0.00     0.078 C 
HETATM   10  O3  UNL     1      -2.891  -0.376   0.467  1.00  0.00    -0.318 OA
HETATM   11  O4  UNL     1      -0.701  -0.139   1.127  1.00  0.00    -0.323 OA
ENDROOT
BRANCH   1  12
HETATM   12  O1  UNL     1       1.098   0.794   2.096  1.00  0.00    -0.361 OA
BRANCH  12  13
HETATM   13  C5  UNL     1       2.417   0.713   1.977  1.00  0.00     0.171 C 
BRANCH  13  14
HETATM   14  C4  UNL     1       3.068  -0.442   1.302  1.00  0.00     0.026 C 
BRANCH  14  15
HETATM   15  C3  UNL     1       2.704  -0.677  -0.128  1.00  0.00     0.002 C 
BRANCH  15  16
HETATM   16  C2  UNL     1       3.501  -1.857  -0.700  1.00  0.00    -0.004 C 
HETATM   17  C1  UNL     1       4.982  -1.589  -0.629  1.00  0.00     0.005 C 
ENDBRANCH  15  16
ENDBRANCH  14  15
ENDBRANCH  13  14
ENDBRANCH  12  13
ENDBRANCH   1  12
TORSDOF 5
