REMARK  5 active torsions:
REMARK  status: ('A' for Active; 'I' for Inactive)
REMARK    1  A    between atoms: C4_7  and  N3_8 
REMARK    2  A    between atoms: N3_8  and  C5_10 
REMARK    3  A    between atoms: N5_20  and  C12_22 
REMARK    4  A    between atoms: C15_25  and  S1_26 
REMARK    5  A    between atoms: S1_26  and  N6_27 
ROOT
HETATM    1  N1  UNL     1       2.470  -3.020  -0.022  1.00  0.00    -0.191 NA
HETATM    2  C1  UNL     1       1.361  -2.692   0.006  1.00  0.00     0.104 C 
HETATM    3  C2  UNL     1      -0.036  -2.319   0.042  1.00  0.00     0.105 A 
HETATM    4  C3  UNL     1      -1.018  -3.310   0.051  1.00  0.00     0.132 A 
HETATM    5  N2  UNL     1      -2.334  -3.050   0.083  1.00  0.00    -0.200 N 
ATOM      6  H2  UNL     1      -3.019  -3.806   0.088  1.00  0.00     0.183 HD
HETATM    7  C4  UNL     1      -2.721  -1.764   0.108  1.00  0.00     0.684 A 
HETATM    8  N4  UNL     1      -1.819  -0.811   0.100  1.00  0.00    -0.175 N 
ATOM      9  H4  UNL     1      -2.151   0.153   0.120  1.00  0.00     0.186 HD
HETATM   10  C11 UNL     1      -0.453  -1.016   0.067  1.00  0.00     0.143 A 
HETATM   11  N5  UNL     1       0.301  -0.043   0.064  1.00  0.00    -0.341 N 
ATOM     12  H5  UNL     1      -0.262   0.807   0.087  1.00  0.00     0.167 HD
ENDROOT
BRANCH  11  13
HETATM   13  C12 UNL     1       1.618   0.305   0.041  1.00  0.00     0.033 A 
HETATM   14  C13 UNL     1       2.288   0.472   1.259  1.00  0.00     0.031 A 
HETATM   15  C14 UNL     1       3.613   0.840   1.299  1.00  0.00     0.027 A 
HETATM   16  C15 UNL     1       4.338   1.061   0.149  1.00  0.00     0.079 A 
HETATM   17  C16 UNL     1       3.665   0.893  -1.040  1.00  0.00     0.027 A 
HETATM   18  C17 UNL     1       2.350   0.529  -1.133  1.00  0.00     0.031 A 
BRANCH  16  19
HETATM   19  S1  UNL     1       6.022   1.529   0.188  1.00  0.00     0.256 S 
HETATM   20  O1  UNL     1       6.298   2.342  -1.056  1.00  0.00    -0.201 OA
HETATM   21  O2  UNL     1       6.311   2.362   1.399  1.00  0.00    -0.201 OA
BRANCH  19  22
HETATM   22  N6  UNL     1       6.992   0.089   0.173  1.00  0.00    -0.324 N 
ATOM     23  H62 UNL     1       6.626  -0.863   0.146  1.00  0.00     0.169 HD
ATOM     24  H61 UNL     1       7.975   0.362   0.196  1.00  0.00     0.169 HD
ENDBRANCH  19  22
ENDBRANCH  16  19
ENDBRANCH  11  13
BRANCH   7  25
HETATM   25  N3  UNL     1      -4.009  -1.513   0.139  1.00  0.00    -0.189 N 
ATOM     26  H3  UNL     1      -4.660  -2.298   0.143  1.00  0.00     0.184 HD
BRANCH  25  27
HETATM   27  C5  UNL     1      -4.528  -0.208   0.167  1.00  0.00     0.087 A 
HETATM   28  C6  UNL     1      -4.569   0.584  -0.954  1.00  0.00     0.033 A 
HETATM   29  C7  UNL     1      -5.084   1.856  -0.895  1.00  0.00     0.002 A 
HETATM   30  C8  UNL     1      -5.577   2.397   0.273  1.00  0.00     0.003 A 
HETATM   31  C9  UNL     1      -5.530   1.585   1.403  1.00  0.00     0.044 A 
HETATM   32  C10 UNL     1      -5.014   0.309   1.342  1.00  0.00     0.143 A 
HETATM   33  F1  UNL     1      -5.009  -0.413   2.498  1.00  0.00    -0.204 F 
ENDBRANCH  25  27
ENDBRANCH   7  25
TORSDOF 5
