REMARK  6 active torsions:
REMARK  status: ('A' for Active; 'I' for Inactive)
REMARK    1  A    between atoms: C7_9  and  C8_10 
REMARK    2  A    between atoms: C9_11  and  C11_13 
REMARK    3  A    between atoms: C17_20  and  C18_21 
REMARK    4  A    between atoms: C18_21  and  O4_22 
REMARK    5  A    between atoms: C20_26  and  O6_27 
REMARK    6  A    between atoms: C20_26  and  C21_29 
ROOT
HETATM    1  C1  UNL     1      -3.627   2.624   0.744  1.00  0.00     0.036 C 
HETATM    2  C2  UNL     1      -2.568   1.842   0.053  1.00  0.00    -0.024 C 
HETATM    3  C3  UNL     1      -2.600   0.691  -0.495  1.00  0.00    -0.032 C 
HETATM    4  C4  UNL     1      -1.441  -0.010  -1.172  1.00  0.00     0.066 C 
HETATM    5  C5  UNL     1      -0.097   0.404  -0.847  1.00  0.00     0.146 C 
HETATM    6  O1  UNL     1       0.319   1.719  -0.998  1.00  0.00    -0.314 OA
HETATM    7  C6  UNL     1       1.510   2.046  -0.344  1.00  0.00     0.267 C 
HETATM    8  O2  UNL     1       1.859   3.213  -0.045  1.00  0.00    -0.265 OA
HETATM    9  C7  UNL     1       2.351   0.832  -0.027  1.00  0.00     0.113 C 
HETATM   10  C12 UNL     1       1.556  -0.125   0.861  1.00  0.00     0.010 C 
HETATM   11  C13 UNL     1       1.836  -1.569   0.522  1.00  0.00     0.007 C 
HETATM   12  C14 UNL     1       0.536  -2.308   0.749  1.00  0.00     0.007 C 
HETATM   13  C15 UNL     1      -0.565  -1.324   0.665  1.00  0.00     0.011 C 
HETATM   14  C16 UNL     1       0.098   0.030   0.608  1.00  0.00     0.026 C 
HETATM   15  C17 UNL     1      -1.487  -1.407  -0.486  1.00  0.00     0.059 C 
HETATM   16  C19 UNL     1      -2.933  -1.511  -0.039  1.00  0.00     0.179 C 
HETATM   17  O5  UNL     1      -3.408  -2.356   0.668  1.00  0.00    -0.293 OA
HETATM   18  C20 UNL     1      -3.635  -0.331  -0.670  1.00  0.00     0.168 C 
ENDROOT
BRANCH   9  19
HETATM   19  C8  UNL     1       3.569   1.304   0.613  1.00  0.00    -0.002 C 
HETATM   20  C9  UNL     1       4.792   1.141   0.183  1.00  0.00    -0.027 C 
HETATM   21  C10 UNL     1       5.979   1.673   0.927  1.00  0.00     0.051 C 
BRANCH  20  22
HETATM   22  C11 UNL     1       5.063   0.431  -1.044  1.00  0.00     0.265 C 
HETATM   23  O3  UNL     1       6.267   0.270  -1.467  1.00  0.00    -0.302 OA
ENDBRANCH  20  22
ENDBRANCH   9  19
BRANCH  15  24
HETATM   24  C18 UNL     1      -1.264  -2.485  -1.476  1.00  0.00     0.182 C 
BRANCH  24  25
HETATM   25  O4  UNL     1      -0.051  -2.424  -2.144  1.00  0.00    -0.400 OA
ATOM     26  H4  UNL     1       0.092  -3.116  -2.779  1.00  0.00     0.209 HD
ENDBRANCH  24  25
ENDBRANCH  15  24
BRANCH  18  27
HETATM   27  O6  UNL     1      -3.649  -0.589  -2.089  1.00  0.00    -0.375 OA
ATOM     28  H6  UNL     1      -4.320  -1.252  -2.202  1.00  0.00     0.211 HD
ENDBRANCH  18  27
BRANCH  18  29
HETATM   29  C21 UNL     1      -4.998  -0.158  -0.194  1.00  0.00     0.273 C 
HETATM   30  F1  UNL     1      -5.751   0.848  -0.699  1.00  0.00    -0.252 F 
ENDBRANCH  18  29
TORSDOF 6
