REMARK  6 active torsions:
REMARK  status: ('A' for Active; 'I' for Inactive)
REMARK    1  A    between atoms: N1_8  and  C7_9 
REMARK    2  A    between atoms: C7_9  and  C8_10 
REMARK    3  A    between atoms: C8_10  and  O1_11 
REMARK    4  A    between atoms: C12_19  and  N3_21 
REMARK       I    between atoms: N3_21  and  C14_23 
REMARK    5  A    between atoms: C14_23  and  O4_25 
REMARK    6  A    between atoms: O4_25  and  C15_26 
ROOT
HETATM    1  C8  UNL     1      -0.716  -0.360  -1.277  1.00  0.00     0.138 C 
HETATM    2  C9  UNL     1      -1.221  -1.514  -2.127  1.00  0.00     0.119 C 
HETATM    3  C10 UNL     1      -2.692  -1.492  -2.388  1.00  0.00     0.035 C 
HETATM    4  N2  UNL     1      -0.801  -2.645  -1.317  1.00  0.00    -0.351 N 
ATOM      5  H2  UNL     1      -1.287  -3.533  -1.192  1.00  0.00     0.163 HD
HETATM    6  C11 UNL     1       0.454  -2.240  -0.728  1.00  0.00     0.249 C 
HETATM    7  O2  UNL     1       1.167  -2.947   0.016  1.00  0.00    -0.271 OA
HETATM    8  C12 UNL     1       0.755  -0.862  -1.148  1.00  0.00     0.146 C 
HETATM    9  C13 UNL     1       1.327  -0.882  -2.551  1.00  0.00     0.052 C 
ENDROOT
BRANCH   1  10
HETATM   10  C7  UNL     1      -1.280  -0.405   0.110  1.00  0.00     0.318 C 
BRANCH  10  11
HETATM   11  N1  UNL     1      -2.620   0.038   0.235  1.00  0.00     0.120 N 
HETATM   12  C2  UNL     1      -2.938   1.418   0.081  1.00  0.00     0.229 C 
HETATM   13  C1  UNL     1      -1.957   2.437   0.590  1.00  0.00     0.043 C 
HETATM   14  C3  UNL     1      -4.057   1.280   1.131  1.00  0.00     0.069 C 
HETATM   15  C4  UNL     1      -5.370   1.073   0.437  1.00  0.00     0.016 C 
HETATM   16  C5  UNL     1      -3.284   0.015   1.484  1.00  0.00     0.237 C 
HETATM   17  C6  UNL     1      -4.283  -1.108   1.694  1.00  0.00     0.068 C 
HETATM   18 CL1  UNL     1      -2.261   0.155   2.936  1.00  0.00    -0.085 Cl
ENDBRANCH  10  11
ENDBRANCH   1  10
BRANCH   1  19
HETATM   19  O1  UNL     1      -0.715   0.857  -1.891  1.00  0.00    -0.383 OA
ATOM     20  H1  UNL     1      -0.357   0.886  -2.771  1.00  0.00     0.210 HD
ENDBRANCH   1  19
BRANCH   8  21
HETATM   21  N3  UNL     1       1.514  -0.064  -0.256  1.00  0.00    -0.316 N 
HETATM   22  C14 UNL     1       2.870  -0.348   0.003  1.00  0.00     0.362 C 
HETATM   23  O3  UNL     1       3.409  -1.323  -0.569  1.00  0.00    -0.238 OA
ATOM     24  H3  UNL     1       1.071   0.730   0.207  1.00  0.00     0.166 HD
BRANCH  22  25
HETATM   25  O4  UNL     1       3.584   0.460   0.888  1.00  0.00    -0.294 OA
BRANCH  25  26
HETATM   26  C15 UNL     1       4.930   0.215   1.168  1.00  0.00     0.061 C 
HETATM   27  C16 UNL     1       5.793   0.297  -0.088  1.00  0.00     0.046 C 
HETATM   28  C17 UNL     1       5.049  -1.134   1.832  1.00  0.00     0.046 C 
HETATM   29  C18 UNL     1       5.468   1.267   2.127  1.00  0.00     0.046 C 
ENDBRANCH  25  26
ENDBRANCH  22  25
ENDBRANCH   8  21
TORSDOF 6
