REMARK  6 active torsions:
REMARK  status: ('A' for Active; 'I' for Inactive)
REMARK    1  A    between atoms: O1_1  and  C1_3 
REMARK    2  A    between atoms: C4_6  and  N1_7 
REMARK    3  A    between atoms: N1_7  and  C5_9 
REMARK    4  A    between atoms: C6_12  and  N3_13 
REMARK    5  A    between atoms: C12_21  and  N5_22 
REMARK    6  A    between atoms: N5_22  and  C13_23 
ROOT
HETATM    1  C5  UNL     1       0.804  -0.304   0.205  1.00  0.00     0.696 A 
HETATM    2  N2  UNL     1      -0.154  -1.251  -0.041  1.00  0.00    -0.022 N 
ATOM      3  H2  UNL     1       0.123  -2.230  -0.118  1.00  0.00     0.203 HD
HETATM    4  C6  UNL     1      -1.473  -0.919  -0.186  1.00  0.00     0.698 A 
HETATM    5  N4  UNL     1      -1.775   0.350  -0.085  1.00  0.00    -0.148 N 
ATOM      6  H4  UNL     1      -2.755   0.609  -0.199  1.00  0.00     0.188 HD
HETATM    7  C12 UNL     1      -0.856   1.390   0.169  1.00  0.00     0.283 A 
HETATM    8  N6  UNL     1       0.439   0.968   0.298  1.00  0.00    -0.148 N 
ATOM      9  H6  UNL     1       1.161   1.667   0.475  1.00  0.00     0.188 HD
ENDROOT
BRANCH   1  10
HETATM   10  N1  UNL     1       1.977  -0.783   0.340  1.00  0.00    -0.221 N 
ATOM     11  H1  UNL     1       2.094  -1.793   0.261  1.00  0.00     0.178 HD
BRANCH  10  12
HETATM   12  C4  UNL     1       3.142   0.011   0.596  1.00  0.00     0.099 C 
HETATM   13  C3  UNL     1       3.819   0.284  -0.756  1.00  0.00     0.028 C 
HETATM   14  C2  UNL     1       4.941  -0.718  -0.961  1.00  0.00     0.034 C 
HETATM   15  C1  UNL     1       6.058  -0.404   0.002  1.00  0.00     0.118 C 
HETATM   16  C18 UNL     1       5.471   0.020   1.318  1.00  0.00     0.034 C 
HETATM   17  C17 UNL     1       4.127  -0.652   1.530  1.00  0.00     0.028 C 
BRANCH  15  18
HETATM   18  O1  UNL     1       6.869   0.602  -0.483  1.00  0.00    -0.396 OA
ATOM     19  H1  UNL     1       7.573   0.800   0.124  1.00  0.00     0.210 HD
ENDBRANCH  15  18
ENDBRANCH  10  12
ENDBRANCH   1  10
BRANCH   4  20
HETATM   20  N3  UNL     1      -2.400  -1.934  -0.497  1.00  0.00    -0.217 N 
HETATM   21  C7  UNL     1      -1.932  -3.244  -0.882  1.00  0.00     0.141 C 
HETATM   22  C8  UNL     1      -2.470  -4.142   0.229  1.00  0.00     0.020 C 
HETATM   23  C9  UNL     1      -3.946  -4.176   0.137  1.00  0.00     0.003 C 
HETATM   24  C10 UNL     1      -4.566  -3.026  -0.601  1.00  0.00     0.020 C 
HETATM   25  C11 UNL     1      -3.802  -1.718  -0.387  1.00  0.00     0.141 C 
ENDBRANCH   4  20
BRANCH   7  26
HETATM   26  N5  UNL     1      -1.282   2.516   0.284  1.00  0.00    -0.409 NA
BRANCH  26  27
HETATM   27  C13 UNL     1      -1.667   3.793   0.425  1.00  0.00     0.169 C 
HETATM   28  C14 UNL     1      -2.103   4.569  -0.788  1.00  0.00     0.059 C 
HETATM   29  C15 UNL     1      -3.270   5.113   0.038  1.00  0.00     0.088 C 
HETATM   30 CL1  UNL     1      -4.802   5.268  -0.788  1.00  0.00    -0.125 Cl
HETATM   31  C16 UNL     1      -3.156   3.902   0.913  1.00  0.00     0.059 C 
ENDBRANCH  26  27
ENDBRANCH   7  26
TORSDOF 6
