REMARK  7 active torsions:
REMARK  status: ('A' for Active; 'I' for Inactive)
REMARK    1  A    between atoms: C4_6  and  C5_7 
REMARK    2  A    between atoms: C6_8  and  C7_9 
REMARK    3  A    between atoms: C8_12  and  O4_13 
REMARK    4  A    between atoms: C8_12  and  C9_15 
REMARK    5  A    between atoms: C9_15  and  C10_16 
REMARK    6  A    between atoms: C16_24  and  C17_25 
REMARK    7  A    between atoms: C17_25  and  O6_26 
ROOT
HETATM    1  C5  UNL     1       0.992   0.077   0.202  1.00  0.00     0.162 C 
HETATM    2  C6  UNL     1       0.032  -0.379  -0.868  1.00  0.00     0.160 C 
HETATM    3  C8  UNL     1      -1.256  -0.007  -0.020  1.00  0.00     0.154 C 
HETATM    4  C14 UNL     1      -0.959  -1.114   0.968  1.00  0.00     0.255 C 
HETATM    5  O5  UNL     1      -1.636  -2.036   1.408  1.00  0.00    -0.270 OA
HETATM    6  N1  UNL     1       0.436  -0.812   1.294  1.00  0.00    -0.342 N 
HETATM    7  C15 UNL     1       1.137  -1.267   2.441  1.00  0.00     0.153 C 
ENDROOT
BRANCH   1   8
HETATM    8  C4  UNL     1       2.405  -0.267   0.019  1.00  0.00     0.087 A 
HETATM    9  O1  UNL     1       2.986  -1.423   0.070  1.00  0.00    -0.304 OA
HETATM   10  C3  UNL     1       4.290  -1.327  -0.125  1.00  0.00     0.128 A 
HETATM   11  C2  UNL     1       4.591  -0.009  -0.321  1.00  0.00    -0.010 A 
HETATM   12 BR1  UNL     1       5.592  -2.748  -0.142  1.00  0.00    -0.022 Br
HETATM   13  C1  UNL     1       5.964   0.538  -0.610  1.00  0.00     0.052 C 
HETATM   14  C16 UNL     1       3.409   0.664  -0.230  1.00  0.00     0.006 A 
BRANCH  14  15
HETATM   15  C17 UNL     1       3.259   2.125  -0.510  1.00  0.00     0.206 C 
BRANCH  15  16
HETATM   16  O6  UNL     1       2.000   2.630  -0.378  1.00  0.00    -0.396 OA
ATOM     17  H6  UNL     1       1.905   3.558  -0.556  1.00  0.00     0.209 HD
ENDBRANCH  15  16
ENDBRANCH  14  15
ENDBRANCH   1   8
BRANCH   2  18
HETATM   18  C7  UNL     1       0.021  -1.755  -1.137  1.00  0.00     0.183 C 
HETATM   19  O2  UNL     1      -0.780  -2.248  -2.090  1.00  0.00    -0.648 OA
HETATM   20  O3  UNL     1       0.717  -2.802  -0.568  1.00  0.00    -0.648 OA
ENDBRANCH   2  18
BRANCH   3  21
HETATM   21  O4  UNL     1      -0.992   1.158   0.640  1.00  0.00    -0.379 OA
ATOM     22  H4  UNL     1      -1.763   1.381   1.148  1.00  0.00     0.211 HD
ENDBRANCH   3  21
BRANCH   3  23
HETATM   23  C9  UNL     1      -2.472  -0.055  -0.804  1.00  0.00     0.057 C 
BRANCH  23  24
HETATM   24  C10 UNL     1      -3.772   0.352  -0.225  1.00  0.00    -0.048 C 
HETATM   25  C11 UNL     1      -4.783   0.146  -1.395  1.00  0.00     0.014 C 
HETATM   26  C12 UNL     1      -3.871   1.830   0.088  1.00  0.00     0.014 C 
HETATM   27  C13 UNL     1      -4.318  -0.467   0.901  1.00  0.00     0.014 C 
ENDBRANCH  23  24
ENDBRANCH   3  23
TORSDOF 7
