REMARK  7 active torsions:
REMARK  status: ('A' for Active; 'I' for Inactive)
REMARK    1  A    between atoms: C3_3  and  C4_4 
REMARK    2  A    between atoms: C5_5  and  C6_6 
REMARK    3  A    between atoms: C7_7  and  C8_8 
REMARK    4  A    between atoms: C10_10  and  C11_11 
REMARK       I    between atoms: C11_11  and  N1_13 
REMARK    5  A    between atoms: N1_13  and  C12_14 
REMARK    6  A    between atoms: C12_14  and  C13_15 
REMARK    7  A    between atoms: C14_20  and  C15_21 
ROOT
HETATM    1  C1  UNL     1      11.169  -1.447  -0.810  1.00  0.00     0.113 C 
HETATM    2  C2  UNL     1       9.779  -0.991  -0.775  1.00  0.00    -0.097 C 
HETATM    3  C3  UNL     1       8.614  -0.633  -0.743  1.00  0.00    -0.015 C 
ENDROOT
BRANCH   3   4
HETATM    4  C4  UNL     1       7.249  -0.230  -0.681  1.00  0.00    -0.001 C 
HETATM    5  C5  UNL     1       6.094   0.105  -0.605  1.00  0.00    -0.001 C 
BRANCH   5   6
HETATM    6  C6  UNL     1       4.726   0.491  -0.486  1.00  0.00    -0.009 C 
HETATM    7  C7  UNL     1       3.557   0.806  -0.363  1.00  0.00    -0.052 C 
BRANCH   7   8
HETATM    8  C8  UNL     1       2.186   1.166  -0.190  1.00  0.00     0.025 A 
HETATM    9  C9  UNL     1       1.223   0.179  -0.306  1.00  0.00     0.039 A 
HETATM   10  C10 UNL     1      -0.101   0.510  -0.131  1.00  0.00     0.048 A 
HETATM   11  C17 UNL     1      -0.512   1.792   0.157  1.00  0.00     0.019 A 
HETATM   12  C18 UNL     1       0.452   2.769   0.270  1.00  0.00     0.009 A 
HETATM   13  C19 UNL     1       1.760   2.443   0.097  1.00  0.00    -0.043 A 
HETATM   14  C20 UNL     1       2.793   3.501   0.218  1.00  0.00     0.049 C 
BRANCH  10  15
HETATM   15  C11 UNL     1      -1.090  -0.610  -0.271  1.00  0.00     0.325 C 
HETATM   16  O1  UNL     1      -0.770  -1.423  -1.167  1.00  0.00    -0.251 OA
HETATM   17  N1  UNL     1      -2.148  -0.573   0.569  1.00  0.00    -0.375 NA
BRANCH  17  18
HETATM   18  C12 UNL     1      -3.218  -0.539   1.415  1.00  0.00     0.244 C 
BRANCH  18  19
HETATM   19  C13 UNL     1      -4.563  -0.440   0.728  1.00  0.00     0.193 A 
HETATM   20  N2  UNL     1      -5.085   0.707   0.295  1.00  0.00    -0.276 N 
HETATM   21  N3  UNL     1      -6.270   0.404  -0.251  1.00  0.00    -0.281 N 
ATOM     22  H2  UNL     1      -4.665   1.634   0.365  1.00  0.00     0.189 HD
HETATM   23  C14 UNL     1      -6.464  -0.945  -0.142  1.00  0.00     0.140 A 
ATOM     24  H3  UNL     1      -6.918   1.067  -0.676  1.00  0.00     0.189 HD
HETATM   25  O2  UNL     1      -5.386  -1.401   0.464  1.00  0.00    -0.276 OA
BRANCH  23  26
HETATM   26  C15 UNL     1      -7.655  -1.694  -0.623  1.00  0.00     0.081 C 
HETATM   27  C16 UNL     1      -8.725  -1.765   0.460  1.00  0.00     0.013 C 
ENDBRANCH  23  26
ENDBRANCH  18  19
ENDBRANCH  17  18
ENDBRANCH  10  15
ENDBRANCH   7   8
ENDBRANCH   5   6
ENDBRANCH   3   4
TORSDOF 7
