REMARK  8 active torsions:
REMARK  status: ('A' for Active; 'I' for Inactive)
REMARK    1  A    between atoms: C2_2  and  N1_3 
REMARK    2  A    between atoms: N1_3  and  C4_5 
REMARK    3  A    between atoms: C4_5  and  C5_6 
REMARK    4  A    between atoms: C5_6  and  O1_7 
REMARK    5  A    between atoms: O1_7  and  C6_8 
REMARK    6  A    between atoms: C6_8  and  C8_10 
REMARK       I    between atoms: C8_10  and  N2_12 
REMARK    7  A    between atoms: N2_12  and  C9_14 
REMARK    8  A    between atoms: C13_18  and  O3_20 
ROOT
HETATM    1  C9  UNL     1      -1.293  -0.562  -0.345  1.00  0.00     0.096 C 
HETATM    2  C10 UNL     1      -2.044  -0.328   0.973  1.00  0.00     0.031 C 
HETATM    3  C11 UNL     1      -3.355  -1.011   0.649  1.00  0.00    -0.001 C 
HETATM    4  C12 UNL     1      -3.927  -0.531  -0.660  1.00  0.00     0.043 C 
HETATM    5  C13 UNL     1      -3.095  -1.124  -1.779  1.00  0.00     0.064 C 
HETATM    6  C14 UNL     1      -3.802  -1.947  -2.761  1.00  0.00     0.047 C 
HETATM    7  C15 UNL     1      -1.990  -1.765  -0.973  1.00  0.00     0.014 C 
HETATM    8  C16 UNL     1      -1.114  -2.674  -1.712  1.00  0.00     0.021 C 
HETATM    9  C17 UNL     1      -2.731  -2.349   0.186  1.00  0.00    -0.032 C 
HETATM   10  C18 UNL     1      -1.936  -2.979   1.259  1.00  0.00     0.016 C 
HETATM   11  C19 UNL     1      -3.858  -3.291  -0.149  1.00  0.00     0.016 C 
ENDROOT
BRANCH   1  12
HETATM   12  N2  UNL     1       0.106  -0.637  -0.233  1.00  0.00    -0.353 N 
HETATM   13  C8  UNL     1       0.921   0.420  -0.717  1.00  0.00     0.246 C 
HETATM   14  O2  UNL     1       0.354   1.416  -1.243  1.00  0.00    -0.271 OA
ATOM     15  H2  UNL     1       0.538  -1.454   0.198  1.00  0.00     0.163 HD
BRANCH  13  16
HETATM   16  C6  UNL     1       2.429   0.373  -0.613  1.00  0.00     0.209 C 
HETATM   17  C7  UNL     1       2.946  -0.874  -1.311  1.00  0.00     0.049 C 
BRANCH  16  18
HETATM   18  O1  UNL     1       2.912   1.525  -1.145  1.00  0.00    -0.375 OA
BRANCH  18  19
HETATM   19  C5  UNL     1       3.611   2.365  -0.268  1.00  0.00     0.199 C 
BRANCH  19  20
HETATM   20  C4  UNL     1       2.710   2.803   0.799  1.00  0.00     0.298 C 
BRANCH  20  21
HETATM   21  N1  UNL     1       3.148   3.675   1.824  1.00  0.00     0.085 N 
HETATM   22  C3  UNL     1       1.926   4.092   2.577  1.00  0.00     0.310 C 
BRANCH  21  23
HETATM   23  C2  UNL     1       4.074   3.232   2.788  1.00  0.00     0.267 C 
HETATM   24  C1  UNL     1       5.422   2.974   2.221  1.00  0.00     0.037 C 
ENDBRANCH  21  23
ENDBRANCH  20  21
ENDBRANCH  19  20
ENDBRANCH  18  19
ENDBRANCH  16  18
ENDBRANCH  13  16
ENDBRANCH   1  12
BRANCH   5  25
HETATM   25  O3  UNL     1      -2.607  -0.004  -2.508  1.00  0.00    -0.389 OA
ATOM     26  H3  UNL     1      -2.085  -0.376  -3.210  1.00  0.00     0.210 HD
ENDBRANCH   5  25
TORSDOF 8
