REMARK  9 active torsions:
REMARK  status: ('A' for Active; 'I' for Inactive)
REMARK    1  A    between atoms: N1_2  and  C2_5 
REMARK    2  A    between atoms: C2_5  and  C3_6 
REMARK    3  A    between atoms: C2_5  and  N2_12 
REMARK    4  A    between atoms: C3_6  and  C4_7 
REMARK    5  A    between atoms: N2_12  and  C9_15 
REMARK    6  A    between atoms: C9_15  and  C10_16 
REMARK    7  A    between atoms: C10_16  and  C11_17 
REMARK    8  A    between atoms: N4_21  and  C13_22 
REMARK    9  A    between atoms: C13_22  and  C14_23 
ROOT
HETATM    1  C9  UNL     1      -0.805  -0.151   0.428  1.00  0.00     0.241 C 
ENDROOT
BRANCH   1   2
HETATM    2  N2  UNL     1      -1.915  -0.686   1.164  1.00  0.00    -0.046 N 
ATOM      3  H22 UNL     1      -1.631  -0.996   2.093  1.00  0.00     0.279 HD
ATOM      4  H21 UNL     1      -2.217  -1.583   0.783  1.00  0.00     0.279 HD
BRANCH   2   5
HETATM    5  C2  UNL     1      -2.998   0.242   1.233  1.00  0.00     0.382 C 
BRANCH   5   6
HETATM    6  N1  UNL     1      -2.511   1.493   1.818  1.00  0.00    -0.050 N 
HETATM    7  C1  UNL     1      -3.645   2.396   2.071  1.00  0.00     0.269 C 
ATOM      8  H12 UNL     1      -1.791   1.931   1.243  1.00  0.00     0.279 HD
ATOM      9  H11 UNL     1      -1.952   1.333   2.656  1.00  0.00     0.279 HD
ENDBRANCH   5   6
BRANCH   5  10
HETATM   10  C3  UNL     1      -3.611   0.597  -0.095  1.00  0.00     0.068 C 
BRANCH  10  11
HETATM   11  C4  UNL     1      -4.158  -0.619  -0.808  1.00  0.00    -0.002 A 
HETATM   12  C5  UNL     1      -4.795  -0.320  -2.178  1.00  0.00     0.014 A 
HETATM   13  C6  UNL     1      -5.616  -0.788  -1.005  1.00  0.00    -0.044 A 
HETATM   14  C7  UNL     1      -6.151  -2.223  -1.027  1.00  0.00     0.015 C 
HETATM   15  C8  UNL     1      -6.614   0.213  -0.500  1.00  0.00     0.015 C 
ENDBRANCH  10  11
ENDBRANCH   5  10
ENDBRANCH   2   5
ENDBRANCH   1   2
BRANCH   1  16
HETATM   16  C10 UNL     1       0.262  -1.252   0.339  1.00  0.00     0.086 C 
BRANCH  16  17
HETATM   17  C11 UNL     1       1.452  -0.754  -0.402  1.00  0.00     0.034 A 
HETATM   18  N3  UNL     1       1.816  -0.934  -1.684  1.00  0.00    -0.354 N 
HETATM   19  C12 UNL     1       2.965  -0.270  -1.920  1.00  0.00     0.183 A 
ATOM     20  H3  UNL     1       1.303  -1.487  -2.371  1.00  0.00     0.166 HD
HETATM   21  N4  UNL     1       3.333   0.342  -0.767  1.00  0.00    -0.343 N 
HETATM   22  C18 UNL     1       2.413   0.049   0.165  1.00  0.00     0.031 A 
HETATM   23  C19 UNL     1       2.479   0.531   1.590  1.00  0.00     0.070 C 
BRANCH  21  24
HETATM   24  C13 UNL     1       4.527   1.176  -0.566  1.00  0.00     0.161 C 
BRANCH  24  25
HETATM   25  C14 UNL     1       5.703   0.332  -0.136  1.00  0.00     0.139 C 
HETATM   26  C15 UNL     1       6.077  -0.717  -1.140  1.00  0.00     0.035 C 
HETATM   27  C16 UNL     1       7.560  -0.912  -0.891  1.00  0.00     0.029 C 
HETATM   28  C17 UNL     1       7.922   0.284  -0.061  1.00  0.00     0.168 C 
HETATM   29  O1  UNL     1       6.832   1.155  -0.131  1.00  0.00    -0.384 OA
ENDBRANCH  24  25
ENDBRANCH  21  24
ENDBRANCH  16  17
ENDBRANCH   1  16
TORSDOF 9
