REMARK  8 active torsions:
REMARK  status: ('A' for Active; 'I' for Inactive)
REMARK    1  A    between atoms: C2_2  and  C3_3 
REMARK    2  A    between atoms: C11_12  and  C12_13 
REMARK    3  A    between atoms: C12_13  and  C13_14 
REMARK    4  A    between atoms: C13_14  and  C14_15 
REMARK    5  A    between atoms: C14_15  and  N1_16 
REMARK    6  A    between atoms: N1_16  and  C15_17 
REMARK    7  A    between atoms: N1_16  and  S1_23 
REMARK    8  A    between atoms: C15_17  and  C16_18 
ROOT
HETATM    1  C12 UNL     1      -0.112  -0.844  -0.277  1.00  0.00     0.011 C 
ENDROOT
BRANCH   1   2
HETATM    2  C11 UNL     1      -1.497  -0.387   0.035  1.00  0.00    -0.031 C 
HETATM    3  C2  UNL     1      -2.533  -1.372  -0.315  1.00  0.00    -0.020 C 
HETATM    4  C1  UNL     1      -2.737  -1.439  -1.829  1.00  0.00     0.017 C 
HETATM    5  C4  UNL     1      -3.914  -0.860   0.180  1.00  0.00    -0.004 C 
HETATM    6  C5  UNL     1      -3.825  -0.555   1.656  1.00  0.00     0.010 C 
HETATM    7  C9  UNL     1      -4.302   0.403  -0.520  1.00  0.00     0.010 C 
HETATM    8  C6  UNL     1      -2.845   0.552   1.891  1.00  0.00    -0.013 C 
HETATM    9  C7  UNL     1      -3.162   1.801   1.086  1.00  0.00     0.009 C 
HETATM   10  C18 UNL     1      -1.488   0.036   1.496  1.00  0.00     0.015 C 
HETATM   11  C8  UNL     1      -3.183   1.403  -0.397  1.00  0.00    -0.013 C 
HETATM   12  C10 UNL     1      -1.832   0.897  -0.745  1.00  0.00     0.015 C 
BRANCH   3  13
HETATM   13  C3  UNL     1      -2.416  -2.763   0.172  1.00  0.00     0.124 C 
HETATM   14 CL1  UNL     1      -1.086  -3.616  -0.619  1.00  0.00    -0.130 Cl
ENDBRANCH   3  13
ENDBRANCH   1   2
BRANCH   1  15
HETATM   15  C13 UNL     1       0.974   0.163   0.038  1.00  0.00     0.016 C 
BRANCH  15  16
HETATM   16  C14 UNL     1       2.342  -0.420  -0.355  1.00  0.00     0.107 C 
BRANCH  16  17
HETATM   17  N1  UNL     1       3.380   0.522  -0.062  1.00  0.00    -0.204 NA
BRANCH  17  18
HETATM   18  C15 UNL     1       4.576  -0.100   0.433  1.00  0.00     0.179 C 
BRANCH  18  19
HETATM   19  C16 UNL     1       5.150   0.498   1.636  1.00  0.00     0.100 C 
HETATM   20  N2  UNL     1       5.260  -0.227   2.704  1.00  0.00    -0.390 N 
ATOM     21  H22 UNL     1       4.935  -1.193   2.655  1.00  0.00     0.157 HD
ATOM     22  H21 UNL     1       5.661   0.191   3.544  1.00  0.00     0.157 HD
HETATM   23  N3  UNL     1       5.597   1.828   1.704  1.00  0.00    -0.087 NA
ENDBRANCH  18  19
ENDBRANCH  17  18
BRANCH  17  24
HETATM   24  S1  UNL     1       3.758   1.538  -1.390  1.00  0.00     0.208 S 
HETATM   25  C17 UNL     1       4.346   0.557  -2.755  1.00  0.00     0.180 C 
HETATM   26  O1  UNL     1       4.822   2.523  -1.041  1.00  0.00    -0.212 OA
HETATM   27  O2  UNL     1       2.533   2.266  -1.879  1.00  0.00    -0.212 OA
ENDBRANCH  17  24
ENDBRANCH  16  17
ENDBRANCH  15  16
ENDBRANCH   1  15
TORSDOF 8
