REMARK  8 active torsions:
REMARK  status: ('A' for Active; 'I' for Inactive)
REMARK    1  A    between atoms: C2_2  and  N1_4 
REMARK    2  A    between atoms: N1_4  and  C3_6 
REMARK    3  A    between atoms: C3_6  and  C4_7 
REMARK    4  A    between atoms: C4_7  and  N2_8 
REMARK       I    between atoms: N2_8  and  C5_9 
REMARK    5  A    between atoms: N2_8  and  C17_25 
REMARK       I    between atoms: C5_9  and  N3_11 
REMARK    6  A    between atoms: N3_11  and  C6_13 
REMARK    7  A    between atoms: N4_16  and  C9_17 
REMARK    8  A    between atoms: C9_17  and  C10_18 
ROOT
HETATM    1  N2  UNL     1      -3.432  -1.040   0.262  1.00  0.00    -0.325 N 
HETATM    2  C5  UNL     1      -2.143  -1.301   0.736  1.00  0.00     0.319 C 
HETATM    3  O1  UNL     1      -1.851  -2.392   1.329  1.00  0.00    -0.247 OA
HETATM    4  N3  UNL     1      -1.045  -0.403   0.614  1.00  0.00    -0.336 N 
ATOM      5  H3  UNL     1      -1.204   0.490   0.147  1.00  0.00     0.164 HD
ENDROOT
BRANCH   1   6
HETATM    6  C4  UNL     1      -3.716   0.251  -0.402  1.00  0.00     0.172 C 
BRANCH   6   7
HETATM    7  C3  UNL     1      -4.114   1.182   0.686  1.00  0.00     0.076 C 
BRANCH   7   8
HETATM    8  N1  UNL     1      -4.412   2.515   0.391  1.00  0.00    -0.384 N 
ATOM      9  H1  UNL     1      -3.773   3.239   0.720  1.00  0.00     0.160 HD
BRANCH   8  10
HETATM   10  C2  UNL     1      -5.542   2.903  -0.332  1.00  0.00     0.174 C 
HETATM   11  C1  UNL     1      -5.541   2.422  -1.759  1.00  0.00     0.049 C 
HETATM   12 CL1  UNL     1      -5.562   4.709  -0.431  1.00  0.00    -0.103 Cl
ENDBRANCH   8  10
ENDBRANCH   7   8
ENDBRANCH   6   7
ENDBRANCH   1   6
BRANCH   1  13
HETATM   13  C17 UNL     1      -4.498  -1.985   0.384  1.00  0.00     0.089 C 
HETATM   14  C18 UNL     1      -4.198  -3.337  -0.253  1.00  0.00     0.025 C 
HETATM   15  C19 UNL     1      -4.942  -3.970   0.901  1.00  0.00     0.004 C 
HETATM   16  C20 UNL     1      -4.739  -2.663   1.681  1.00  0.00     0.025 C 
ENDBRANCH   1  13
BRANCH   4  17
HETATM   17  C6  UNL     1       0.278  -0.683   1.113  1.00  0.00     0.109 C 
HETATM   18  C7  UNL     1       0.786   0.530   1.859  1.00  0.00     0.071 C 
HETATM   19  C8  UNL     1       2.280   0.533   1.531  1.00  0.00     0.065 C 
HETATM   20  N4  UNL     1       2.474  -0.203   0.370  1.00  0.00    -0.371 N 
HETATM   21  C16 UNL     1       1.219  -0.773  -0.074  1.00  0.00     0.152 C 
BRANCH  20  22
HETATM   22  C9  UNL     1       3.308   0.246  -0.666  1.00  0.00     0.067 C 
BRANCH  22  23
HETATM   23  C10 UNL     1       4.758   0.209  -0.390  1.00  0.00     0.024 C 
HETATM   24  C11 UNL     1       5.315   1.016   0.725  1.00  0.00     0.010 C 
HETATM   25  C12 UNL     1       6.770   0.624   0.912  1.00  0.00     0.001 C 
HETATM   26  C13 UNL     1       7.623   0.654  -0.281  1.00  0.00     0.000 C 
HETATM   27  C14 UNL     1       6.964   0.246  -1.562  1.00  0.00     0.001 C 
HETATM   28  C15 UNL     1       5.526   0.630  -1.656  1.00  0.00     0.010 C 
ENDBRANCH  22  23
ENDBRANCH  20  22
ENDBRANCH   4  17
TORSDOF 8
