REMARK  7 active torsions:
REMARK  status: ('A' for Active; 'I' for Inactive)
REMARK    1  A    between atoms: C2_2  and  C4_4 
REMARK    2  A    between atoms: C4_4  and  N1_5 
REMARK    3  A    between atoms: C8_9  and  C9_10 
REMARK    4  A    between atoms: C9_10  and  N2_11 
REMARK       I    between atoms: N2_11  and  C10_13 
REMARK    5  A    between atoms: C10_13  and  C11_15 
REMARK    6  A    between atoms: C16_20  and  C17_21 
REMARK       I    between atoms: C17_21  and  N3_23 
REMARK    7  A    between atoms: N3_23  and  C18_25 
ROOT
HETATM    1  C11 UNL     1      -1.745  -1.522   0.401  1.00  0.00     0.091 C 
HETATM    2  C12 UNL     1      -1.905  -2.018  -1.011  1.00  0.00     0.015 C 
HETATM    3  C13 UNL     1      -2.949  -3.101  -1.069  1.00  0.00     0.001 C 
HETATM    4  C14 UNL     1      -4.226  -2.761  -0.379  1.00  0.00     0.001 C 
HETATM    5  C15 UNL     1      -4.012  -2.196   1.006  1.00  0.00     0.015 C 
HETATM    6  C16 UNL     1      -3.033  -1.058   1.012  1.00  0.00     0.091 C 
ENDROOT
BRANCH   1   7
HETATM    7  C10 UNL     1      -0.665  -0.516   0.490  1.00  0.00     0.222 C 
HETATM    8  N2  UNL     1       0.639  -0.911   0.054  1.00  0.00    -0.359 N 
ATOM      9  H2  UNL     1       0.789  -1.856  -0.299  1.00  0.00     0.162 HD
HETATM   10  O1  UNL     1      -0.808   0.641   0.913  1.00  0.00    -0.273 OA
BRANCH   8  11
HETATM   11  C9  UNL     1       1.750   0.021   0.110  1.00  0.00     0.158 C 
BRANCH  11  12
HETATM   12  C8  UNL     1       2.973  -0.652  -0.406  1.00  0.00     0.240 C 
HETATM   13  N1  UNL     1       4.147   0.195  -0.393  1.00  0.00     0.095 N 
HETATM   14  C5  UNL     1       3.945   1.162  -1.384  1.00  0.00     0.273 C 
HETATM   15  C6  UNL     1       3.019   0.495  -2.421  1.00  0.00     0.032 C 
HETATM   16  C7  UNL     1       2.792  -0.904  -1.887  1.00  0.00     0.039 C 
BRANCH  13  17
HETATM   17  C4  UNL     1       4.600   0.534   0.889  1.00  0.00     0.277 C 
BRANCH  17  18
HETATM   18  C2  UNL     1       6.029   0.972   0.922  1.00  0.00     0.006 C 
HETATM   19  C1  UNL     1       6.312   2.184   0.116  1.00  0.00     0.011 C 
HETATM   20  C3  UNL     1       6.912  -0.151   0.336  1.00  0.00     0.011 C 
ENDBRANCH  17  18
ENDBRANCH  13  17
ENDBRANCH  11  12
ENDBRANCH   8  11
ENDBRANCH   1   7
BRANCH   6  21
HETATM   21  C17 UNL     1      -3.653   0.085   0.319  1.00  0.00     0.224 C 
HETATM   22  O2  UNL     1      -3.188   0.640  -0.708  1.00  0.00    -0.273 OA
HETATM   23  N3  UNL     1      -4.868   0.603   0.845  1.00  0.00    -0.339 N 
ATOM     24  H3  UNL     1      -5.270   0.173   1.678  1.00  0.00     0.164 HD
BRANCH  23  25
HETATM   25  C18 UNL     1      -5.555   1.728   0.231  1.00  0.00     0.102 C 
HETATM   26  C19 UNL     1      -6.814   2.086   0.975  1.00  0.00     0.056 C 
HETATM   27  C20 UNL     1      -4.618   2.938   0.329  1.00  0.00     0.056 C 
HETATM   28 CL1  UNL     1      -5.992   1.406  -1.457  1.00  0.00    -0.096 Cl
ENDBRANCH  23  25
ENDBRANCH   6  21
TORSDOF 7
