REMARK  7 active torsions:
REMARK  status: ('A' for Active; 'I' for Inactive)
REMARK       I    between atoms: N1_2  and  C2_3 
REMARK    1  A    between atoms: N1_2  and  C12_14 
REMARK    2  A    between atoms: C2_3  and  C3_5 
REMARK    3  A    between atoms: C3_5  and  C4_6 
REMARK    4  A    between atoms: C4_6  and  C5_7 
REMARK    5  A    between atoms: C5_7  and  C6_8 
REMARK    6  A    between atoms: C12_14  and  C13_15 
REMARK       I    between atoms: C13_15  and  N2_17 
REMARK    7  A    between atoms: N2_17  and  C14_19 
ROOT
HETATM    1  C12 UNL     1      -2.019  -1.305  -0.439  1.00  0.00     0.115 C 
HETATM    2  C18 UNL     1      -1.979  -0.785  -1.852  1.00  0.00     0.041 C 
HETATM    3  C19 UNL     1      -2.280  -1.958  -2.763  1.00  0.00     0.003 C 
HETATM    4  C20 UNL     1      -2.126  -3.185  -1.849  1.00  0.00     0.003 C 
HETATM    5  C21 UNL     1      -2.695  -2.626  -0.597  1.00  0.00     0.041 C 
ENDROOT
BRANCH   1   6
HETATM    6  N1  UNL     1      -0.675  -1.392   0.089  1.00  0.00    -0.338 N 
HETATM    7  C1  UNL     1      -0.066  -2.608   0.583  1.00  0.00     0.154 C 
HETATM    8  C2  UNL     1       0.120  -0.215   0.151  1.00  0.00     0.220 C 
HETATM    9  O1  UNL     1      -0.282   0.907  -0.256  1.00  0.00    -0.273 OA
BRANCH   8  10
HETATM   10  C3  UNL     1       1.504  -0.232   0.711  1.00  0.00     0.103 C 
BRANCH  10  11
HETATM   11  C4  UNL     1       2.157   1.105   0.671  1.00  0.00     0.010 C 
BRANCH  11  12
HETATM   12  C5  UNL     1       3.537   1.135   1.220  1.00  0.00     0.005 C 
BRANCH  12  13
HETATM   13  C6  UNL     1       4.510   0.239   0.516  1.00  0.00    -0.014 C 
HETATM   14  C7  UNL     1       4.701   0.531  -0.923  1.00  0.00     0.004 C 
HETATM   15  C8  UNL     1       5.772   1.512  -1.252  1.00  0.00     0.000 C 
HETATM   16  C9  UNL     1       7.043   1.332  -0.478  1.00  0.00     0.000 C 
HETATM   17  C10 UNL     1       6.667   1.434   1.007  1.00  0.00     0.000 C 
HETATM   18  C11 UNL     1       5.792   0.233   1.292  1.00  0.00     0.004 C 
ENDBRANCH  12  13
ENDBRANCH  11  12
ENDBRANCH  10  11
ENDBRANCH   8  10
ENDBRANCH   1   6
BRANCH   1  19
HETATM   19  C13 UNL     1      -2.796  -0.411   0.462  1.00  0.00     0.246 C 
HETATM   20  O2  UNL     1      -2.248  -0.043   1.525  1.00  0.00    -0.271 OA
HETATM   21  N2  UNL     1      -4.117   0.021   0.139  1.00  0.00    -0.350 N 
ATOM     22  H2  UNL     1      -4.556  -0.283  -0.730  1.00  0.00     0.163 HD
BRANCH  21  23
HETATM   23  C14 UNL     1      -4.831   0.888   1.043  1.00  0.00     0.145 C 
HETATM   24  C15 UNL     1      -6.152   0.286   1.478  1.00  0.00     0.260 C 
HETATM   25  N3  UNL     1      -7.077   1.428   1.404  1.00  0.00    -0.070 N 
HETATM   26  C16 UNL     1      -6.694   1.972   0.098  1.00  0.00     0.271 C 
ATOM     27  H32 UNL     1      -8.066   1.210   1.524  1.00  0.00     0.277 HD
ATOM     28  H31 UNL     1      -7.044   2.081   2.187  1.00  0.00     0.277 HD
HETATM   29  C17 UNL     1      -5.205   2.159   0.293  1.00  0.00     0.220 C 
HETATM   30  F1  UNL     1      -4.530   2.246  -0.909  1.00  0.00    -0.245 F 
ENDBRANCH  21  23
ENDBRANCH   1  19
TORSDOF 7
