REMARK  3 active torsions:
REMARK  status: ('A' for Active; 'I' for Inactive)
REMARK    1  A    between atoms: C2_2  and  C4_4 
REMARK    2  A    between atoms: C4_4  and  C5_5 
REMARK    3  A    between atoms: C5_5  and  N1_6 
ROOT
HETATM    1  N1  UNL     1       0.919  -0.531   1.053  1.00  0.00    -0.361 N 
ATOM      2  H1  UNL     1       0.704  -1.106   1.867  1.00  0.00     0.162 HD
HETATM    3  C6  UNL     1       2.124  -0.368   0.678  1.00  0.00     0.188 C 
HETATM    4  N2  UNL     1       2.593   0.396  -0.426  1.00  0.00    -0.346 N 
ATOM      5  H2  UNL     1       2.062   0.679  -1.249  1.00  0.00     0.163 HD
HETATM    6  C7  UNL     1       3.980   0.688  -0.138  1.00  0.00     0.259 C 
HETATM    7  N3  UNL     1       4.440  -0.397   0.718  1.00  0.00    -0.119 NA
HETATM    8  N4  UNL     1       3.278  -0.926   1.293  1.00  0.00    -0.274 N 
ATOM      9  H4  UNL     1       3.262  -1.614   2.046  1.00  0.00     0.185 HD
ENDROOT
BRANCH   1  10
HETATM   10  C5  UNL     1      -0.140   0.111   0.308  1.00  0.00     0.123 C 
BRANCH  10  11
HETATM   11  C4  UNL     1      -1.404  -0.744   0.368  1.00  0.00     0.023 C 
BRANCH  11  12
HETATM   12  C2  UNL     1      -2.477  -0.014  -0.434  1.00  0.00    -0.021 C 
HETATM   13  C1  UNL     1      -3.732  -0.850  -0.382  1.00  0.00     0.009 C 
HETATM   14  C3  UNL     1      -2.702   1.352   0.160  1.00  0.00     0.009 C 
ENDBRANCH  11  12
ENDBRANCH  10  11
ENDBRANCH   1  10
TORSDOF 3
