REMARK  5 active torsions:
REMARK  status: ('A' for Active; 'I' for Inactive)
REMARK    1  A    between atoms: C2_2  and  C3_3 
REMARK    2  A    between atoms: C3_3  and  N1_4 
REMARK    3  A    between atoms: N1_4  and  C4_7 
REMARK    4  A    between atoms: C4_7  and  C5_8 
REMARK    5  A    between atoms: C6_9  and  C7_10 
ROOT
HETATM    1  C4  UNL     1      -0.552   0.548  -1.529  1.00  0.00     0.325 C 
ENDROOT
BRANCH   1   2
HETATM    2  N1  UNL     1      -1.077  -0.750  -1.293  1.00  0.00    -0.065 N 
ATOM      3  H12 UNL     1      -0.379  -1.463  -1.504  1.00  0.00     0.278 HD
ATOM      4  H11 UNL     1      -1.780  -0.986  -1.994  1.00  0.00     0.278 HD
BRANCH   2   5
HETATM    5  C3  UNL     1      -1.597  -0.931   0.017  1.00  0.00     0.233 C 
BRANCH   5   6
HETATM    6  C2  UNL     1      -2.876  -0.100   0.206  1.00  0.00     0.023 C 
HETATM    7  C1  UNL     1      -3.440  -0.300   1.588  1.00  0.00     0.007 C 
ENDBRANCH   5   6
ENDBRANCH   2   5
ENDBRANCH   1   2
BRANCH   1   8
HETATM    8  C5  UNL     1       0.697   0.723  -0.766  1.00  0.00    -0.077 C 
HETATM    9  C6  UNL     1       1.758   0.881  -0.173  1.00  0.00    -0.081 C 
BRANCH   9  10
HETATM   10  C7  UNL     1       3.045   1.072   0.489  1.00  0.00     0.190 C 
HETATM   11  C8  UNL     1       3.161   0.322   1.763  1.00  0.00     0.165 C 
HETATM   12  N2  UNL     1       3.667  -0.789   0.984  1.00  0.00    -0.145 NA
HETATM   13  N3  UNL     1       4.077   0.151  -0.002  1.00  0.00    -0.130 NA
ENDBRANCH   9  10
ENDBRANCH   1   8
TORSDOF 5
