REMARK  6 active torsions:
REMARK  status: ('A' for Active; 'I' for Inactive)
REMARK    1  A    between atoms: N1_1  and  C1_5 
REMARK    2  A    between atoms: C1_5  and  C2_6 
REMARK    3  A    between atoms: C2_6  and  C3_7 
REMARK    4  A    between atoms: C3_7  and  N2_8 
REMARK    5  A    between atoms: N2_8  and  N3_10 
REMARK    6  A    between atoms: N3_10  and  C4_12 
ROOT
HETATM    1  N2  UNL     1      -0.220  -0.442   1.001  1.00  0.00    -0.314 N 
ATOM      2  H2  UNL     1      -0.438  -0.214   1.971  1.00  0.00     0.185 HD
ENDROOT
BRANCH   1   3
HETATM    3  C3  UNL     1      -1.066  -0.146   0.096  1.00  0.00     0.081 C 
BRANCH   3   4
HETATM    4  C2  UNL     1      -2.356   0.519   0.405  1.00  0.00     0.073 C 
BRANCH   4   5
HETATM    5  C1  UNL     1      -3.468  -0.458   0.065  1.00  0.00     0.235 C 
BRANCH   5   6
HETATM    6  N1  UNL     1      -3.374  -0.781  -1.349  1.00  0.00    -0.079 N 
ATOM      7  H13 UNL     1      -3.384   0.048  -1.943  1.00  0.00     0.274 HD
ATOM      8  H12 UNL     1      -2.452  -1.128  -1.612  1.00  0.00     0.274 HD
ATOM      9  H11 UNL     1      -4.121  -1.437  -1.577  1.00  0.00     0.274 HD
ENDBRANCH   5   6
ENDBRANCH   4   5
ENDBRANCH   3   4
ENDBRANCH   1   3
BRANCH   1  10
HETATM   10  N3  UNL     1       0.978  -1.059   0.718  1.00  0.00    -0.285 N 
ATOM     11  H3  UNL     1       1.020  -2.078   0.720  1.00  0.00     0.188 HD
BRANCH  10  12
HETATM   12  C4  UNL     1       2.053  -0.388   0.449  1.00  0.00     0.135 A 
HETATM   13  C5  UNL     1       3.292  -0.894   0.155  1.00  0.00     0.070 A 
HETATM   14  C6  UNL     1       4.129   0.197  -0.062  1.00  0.00     0.111 A 
HETATM   15  N4  UNL     1       3.376   1.323   0.106  1.00  0.00    -0.310 N 
HETATM   16  N5  UNL     1       2.139   0.972   0.411  1.00  0.00    -0.285 N 
ATOM     17  H4  UNL     1       3.714   2.281   0.011  1.00  0.00     0.186 HD
ATOM     18  H5  UNL     1       1.370   1.617   0.590  1.00  0.00     0.188 HD
ENDBRANCH  10  12
ENDBRANCH   1  10
TORSDOF 6
