REMARK  4 active torsions:
REMARK  status: ('A' for Active; 'I' for Inactive)
REMARK    1  A    between atoms: N1_7  and  C5_8 
REMARK    2  A    between atoms: C7_10  and  N2_11 
REMARK       I    between atoms: N2_11  and  C8_13 
REMARK    3  A    between atoms: C8_13  and  O4_15 
REMARK    4  A    between atoms: O4_15  and  C9_16 
ROOT
HETATM    1  C5  UNL     1      -1.354  -0.452   0.005  1.00  0.00     0.121 A 
HETATM    2  C6  UNL     1      -0.330   0.223   0.610  1.00  0.00     0.097 A 
HETATM    3  C7  UNL     1       1.018  -0.048   0.352  1.00  0.00     0.113 A 
HETATM    4  N3  UNL     1       1.245  -1.028  -0.541  1.00  0.00    -0.338 N 
ATOM      5  H3  UNL     1       2.210  -1.268  -0.767  1.00  0.00     0.168 HD
HETATM    6  C12 UNL     1       0.243  -1.712  -1.155  1.00  0.00     0.183 A 
HETATM    7  N4  UNL     1      -1.034  -1.421  -0.879  1.00  0.00    -0.338 N 
ATOM      8  H4  UNL     1      -1.778  -1.940  -1.345  1.00  0.00     0.168 HD
ENDROOT
BRANCH   1   9
HETATM    9  N1  UNL     1      -2.730  -0.143   0.295  1.00  0.00    -0.211 N 
HETATM   10  C4  UNL     1      -3.218   0.210   1.582  1.00  0.00     0.374 C 
HETATM   11  O1  UNL     1      -4.600   0.108   1.500  1.00  0.00    -0.285 OA
HETATM   12  O2  UNL     1      -2.587   0.554   2.626  1.00  0.00    -0.238 OA
HETATM   13  C2  UNL     1      -4.959   0.438   0.173  1.00  0.00     0.151 C 
HETATM   14  C1  UNL     1      -6.267  -0.197  -0.234  1.00  0.00     0.055 C 
HETATM   15  C3  UNL     1      -5.037   1.937   0.001  1.00  0.00     0.055 C 
HETATM   16  C13 UNL     1      -3.819  -0.143  -0.633  1.00  0.00     0.364 C 
HETATM   17  F1  UNL     1      -4.076  -1.463  -0.972  1.00  0.00    -0.178 F 
HETATM   18  F2  UNL     1      -3.570   0.589  -1.778  1.00  0.00    -0.178 F 
ENDBRANCH   1   9
BRANCH   3  19
HETATM   19  N2  UNL     1       1.877   0.631   0.967  1.00  0.00    -0.288 N 
HETATM   20  C8  UNL     1       3.258   0.631   0.956  1.00  0.00     0.366 C 
HETATM   21  O3  UNL     1       3.828   1.339   1.865  1.00  0.00    -0.238 OA
ATOM     22  H2  UNL     1       1.474   1.320   1.602  1.00  0.00     0.172 HD
BRANCH  20  23
HETATM   23  O4  UNL     1       4.103  -0.037   0.086  1.00  0.00    -0.297 OA
BRANCH  23  24
HETATM   24  C9  UNL     1       5.486   0.077   0.218  1.00  0.00     0.153 C 
HETATM   25  C10 UNL     1       6.170   0.654  -1.000  1.00  0.00     0.119 C 
HETATM   26  S1  UNL     1       5.851  -0.577  -2.335  1.00  0.00    -0.095 SA
HETATM   27  S2  UNL     1       5.810  -2.275  -0.993  1.00  0.00    -0.095 SA
HETATM   28  C11 UNL     1       6.118  -1.264   0.520  1.00  0.00     0.119 C 
ENDBRANCH  23  24
ENDBRANCH  20  23
ENDBRANCH   3  19
TORSDOF 4
