REMARK  4 active torsions:
REMARK  status: ('A' for Active; 'I' for Inactive)
REMARK    1  A    between atoms: C2_2  and  O1_5 
REMARK    2  A    between atoms: O1_5  and  C5_6 
REMARK       I    between atoms: C5_6  and  N1_8 
REMARK    3  A    between atoms: N4_14  and  C7_15 
REMARK    4  A    between atoms: C10_18  and  C11_19 
ROOT
HETATM    1  C5  UNL     1      -2.335   0.518  -0.021  1.00  0.00     0.388 C 
HETATM    2  O2  UNL     1      -2.101   0.709   1.184  1.00  0.00    -0.236 OA
HETATM    3  N1  UNL     1      -1.507   1.138  -1.010  1.00  0.00    -0.147 N 
HETATM    4  C6  UNL     1      -1.606   1.049  -2.423  1.00  0.00     0.360 C 
HETATM    5  O3  UNL     1      -2.284   0.182  -3.027  1.00  0.00    -0.244 OA
HETATM    6  N2  UNL     1      -0.810   2.103  -2.946  1.00  0.00    -0.237 N 
ATOM      7  H2  UNL     1      -0.620   2.285  -3.931  1.00  0.00     0.188 HD
HETATM    8  N3  UNL     1      -0.336   2.844  -1.861  1.00  0.00    -0.021 NA
HETATM    9  N4  UNL     1      -0.412   1.974  -0.766  1.00  0.00    -0.078 NA
ENDROOT
BRANCH   9  10
HETATM   10  C7  UNL     1       0.794   1.142  -0.824  1.00  0.00     0.237 C 
HETATM   11  C8  UNL     1       1.980   2.017  -0.566  1.00  0.00     0.052 C 
HETATM   12  C9  UNL     1       2.943   1.422   0.447  1.00  0.00     0.021 C 
HETATM   13  C10 UNL     1       3.107  -0.064   0.243  1.00  0.00     0.024 A 
HETATM   14  C15 UNL     1       2.748  -0.619  -1.166  1.00  0.00     0.050 A 
HETATM   15  C16 UNL     1       1.822  -0.702  -0.035  1.00  0.00     0.138 A 
HETATM   16  O5  UNL     1       0.715   0.121   0.089  1.00  0.00    -0.361 OA
BRANCH  13  17
HETATM   17  C11 UNL     1       4.221  -0.721   0.926  1.00  0.00     0.057 A 
HETATM   18  C12 UNL     1       5.561  -0.442   0.774  1.00  0.00     0.150 A 
HETATM   19  F1  UNL     1       6.069   0.505  -0.051  1.00  0.00    -0.203 F 
HETATM   20  C13 UNL     1       6.271  -1.301   1.611  1.00  0.00     0.188 A 
HETATM   21  O4  UNL     1       5.401  -2.053   2.231  1.00  0.00    -0.293 OA
HETATM   22  C14 UNL     1       4.166  -1.741   1.853  1.00  0.00     0.240 A 
HETATM   23  F2  UNL     1       3.062  -2.361   2.334  1.00  0.00    -0.177 F 
ENDBRANCH  13  17
ENDBRANCH   9  10
BRANCH   1  24
HETATM   24  O1  UNL     1      -3.391  -0.288  -0.371  1.00  0.00    -0.292 OA
BRANCH  24  25
HETATM   25  C2  UNL     1      -4.253  -0.934   0.516  1.00  0.00     0.061 C 
HETATM   26  C1  UNL     1      -5.264  -1.711  -0.337  1.00  0.00     0.046 C 
HETATM   27  C3  UNL     1      -5.041   0.027   1.375  1.00  0.00     0.046 C 
HETATM   28  C4  UNL     1      -3.579  -1.945   1.401  1.00  0.00     0.046 C 
ENDBRANCH  24  25
ENDBRANCH   1  24
TORSDOF 4
