REMARK  3 active torsions:
REMARK  status: ('A' for Active; 'I' for Inactive)
REMARK    1  A    between atoms: O1_2  and  C2_3 
REMARK    2  A    between atoms: C2_3  and  C3_5 
REMARK    3  A    between atoms: N2_13  and  C8_14 
ROOT
HETATM    1  C3  UNL     1      -1.044   2.121   0.630  1.00  0.00     0.190 A 
HETATM    2  N1  UNL     1       0.138   2.767   0.914  1.00  0.00    -0.329 N 
ATOM      3  H1  UNL     1       0.253   3.726   1.243  1.00  0.00     0.168 HD
HETATM    4  C4  UNL     1       1.110   1.870   0.667  1.00  0.00     0.104 A 
HETATM    5  S1  UNL     1       2.809   1.660   0.683  1.00  0.00    -0.071 SA
HETATM    6  C5  UNL     1       2.882   0.061   0.146  1.00  0.00     0.027 A 
HETATM    7  C6  UNL     1       1.572  -0.290  -0.037  1.00  0.00    -0.010 A 
HETATM    8  C7  UNL     1       0.634   0.679   0.241  1.00  0.00     0.082 A 
HETATM    9  N2  UNL     1      -0.757   0.872   0.227  1.00  0.00    -0.295 N 
HETATM   10  C13 UNL     1       1.327  -1.722  -0.518  1.00  0.00     0.068 C 
HETATM   11  C14 UNL     1       2.605  -2.463  -0.517  1.00  0.00     0.173 C 
HETATM   12  O3  UNL     1       3.704  -1.825  -1.031  1.00  0.00    -0.375 OA
HETATM   13  C15 UNL     1       4.062  -0.824  -0.110  1.00  0.00     0.087 C 
HETATM   14  C16 UNL     1       5.177  -0.036  -0.770  1.00  0.00     0.051 C 
HETATM   15  C17 UNL     1       4.608  -1.425   1.155  1.00  0.00     0.051 C 
ENDROOT
BRANCH   9  16
HETATM   16  C8  UNL     1      -1.740  -0.084  -0.161  1.00  0.00     0.028 C 
HETATM   17  C9  UNL     1      -2.795  -0.474   0.811  1.00  0.00     0.285 C 
HETATM   18  N3  UNL     1      -2.995  -1.933   0.608  1.00  0.00    -0.065 N 
HETATM   19  C10 UNL     1      -2.902  -2.264  -0.783  1.00  0.00     0.311 C 
ATOM     20  H32 UNL     1      -2.351  -2.486   1.173  1.00  0.00     0.277 HD
ATOM     21  H31 UNL     1      -3.872  -2.256   1.017  1.00  0.00     0.277 HD
HETATM   22  C11 UNL     1      -3.221  -1.147  -1.738  1.00  0.00     0.272 C 
HETATM   23  F1  UNL     1      -2.996  -1.664  -3.018  1.00  0.00    -0.204 F 
HETATM   24  F2  UNL     1      -4.569  -0.869  -1.636  1.00  0.00    -0.204 F 
HETATM   25  C12 UNL     1      -2.367   0.096  -1.520  1.00  0.00     0.135 C 
ENDBRANCH   9  16
BRANCH   1  26
HETATM   26  C2  UNL     1      -2.271   2.873   0.810  1.00  0.00     0.327 C 
HETATM   27  O2  UNL     1      -3.443   2.518   0.620  1.00  0.00    -0.256 OA
BRANCH  26  28
HETATM   28  O1  UNL     1      -2.201   4.223   1.270  1.00  0.00    -0.320 OA
HETATM   29  C1  UNL     1      -3.405   4.983   1.454  1.00  0.00     0.213 C 
ENDBRANCH  26  28
ENDBRANCH   1  26
TORSDOF 3
