REMARK  5 active torsions:
REMARK  status: ('A' for Active; 'I' for Inactive)
REMARK    1  A    between atoms: C3_4  and  N2_5 
REMARK       I    between atoms: N2_5  and  C4_7 
REMARK    2  A    between atoms: C4_7  and  C5_9 
REMARK    3  A    between atoms: C5_9  and  N3_10 
REMARK    4  A    between atoms: N4_13  and  C8_14 
REMARK    5  A    between atoms: C8_14  and  C9_15 
ROOT
HETATM    1  N1  UNL     1      -4.678   2.104  -3.607  1.00  0.00    -0.191 NA
HETATM    2  C1  UNL     1      -4.588   1.359  -2.706  1.00  0.00     0.103 C 
HETATM    3  C2  UNL     1      -4.456   0.429  -1.576  1.00  0.00     0.085 A 
HETATM    4  C3  UNL     1      -3.206   0.133  -1.102  1.00  0.00     0.098 A 
HETATM    5  S1  UNL     1      -3.518  -0.950   0.172  1.00  0.00    -0.075 SA
HETATM    6  C17 UNL     1      -5.220  -1.003   0.074  1.00  0.00    -0.007 A 
HETATM    7  C18 UNL     1      -5.493  -0.157  -0.970  1.00  0.00    -0.021 A 
HETATM    8  C19 UNL     1      -6.923   0.100  -1.413  1.00  0.00     0.041 C 
HETATM    9  C20 UNL     1      -7.759   0.629  -0.287  1.00  0.00     0.005 C 
HETATM   10  C21 UNL     1      -8.220  -0.485   0.639  1.00  0.00     0.001 C 
HETATM   11  C22 UNL     1      -7.142  -0.880   1.595  1.00  0.00     0.005 C 
HETATM   12  C23 UNL     1      -6.141  -1.814   0.956  1.00  0.00     0.047 C 
ENDROOT
BRANCH   4  13
HETATM   13  N2  UNL     1      -1.918   0.593  -1.545  1.00  0.00    -0.319 N 
HETATM   14  C4  UNL     1      -0.755   0.140  -0.873  1.00  0.00     0.251 C 
HETATM   15  O1  UNL     1      -0.839  -0.646   0.098  1.00  0.00    -0.271 OA
ATOM     16  H2  UNL     1      -1.842   1.237  -2.332  1.00  0.00     0.169 HD
BRANCH  14  17
HETATM   17  C5  UNL     1       0.569   0.602  -1.326  1.00  0.00     0.375 C 
BRANCH  17  18
HETATM   18  N3  UNL     1       1.678   0.103  -0.583  1.00  0.00     0.100 N 
HETATM   19  C6  UNL     1       1.799   0.615   0.763  1.00  0.00     0.303 C 
HETATM   20  C7  UNL     1       2.895  -0.086   1.465  1.00  0.00     0.303 C 
HETATM   21  N4  UNL     1       4.098  -0.388   0.767  1.00  0.00     0.096 N 
HETATM   22  C15 UNL     1       4.032  -0.451  -0.653  1.00  0.00     0.303 C 
HETATM   23  C16 UNL     1       2.938   0.405  -1.224  1.00  0.00     0.303 C 
BRANCH  21  24
HETATM   24  C8  UNL     1       5.124   0.468   1.272  1.00  0.00     0.314 C 
BRANCH  24  25
HETATM   25  C9  UNL     1       6.508   0.117   0.982  1.00  0.00     0.009 A 
HETATM   26  C10 UNL     1       6.935  -1.016   0.359  1.00  0.00     0.012 A 
HETATM   27  C11 UNL     1       8.269  -1.275   0.179  1.00  0.00     0.001 A 
HETATM   28  C12 UNL     1       9.201  -0.368   0.639  1.00  0.00     0.003 A 
HETATM   29  C13 UNL     1       8.829   0.796   1.276  1.00  0.00     0.043 A 
HETATM   30  C14 UNL     1       7.485   1.010   1.432  1.00  0.00     0.124 A 
HETATM   31  F1  UNL     1       7.122   2.167   2.066  1.00  0.00    -0.205 F 
ENDBRANCH  24  25
ENDBRANCH  21  24
ENDBRANCH  17  18
ENDBRANCH  14  17
ENDBRANCH   4  13
TORSDOF 5
