REMARK  7 active torsions:
REMARK  status: ('A' for Active; 'I' for Inactive)
REMARK       I    between atoms: C1_2  and  N1_3 
REMARK    1  A    between atoms: C1_2  and  C16_26 
REMARK    2  A    between atoms: N1_3  and  C2_5 
REMARK    3  A    between atoms: C4_8  and  O2_9 
REMARK    4  A    between atoms: N2_11  and  C5_12 
REMARK    5  A    between atoms: C5_12  and  C6_13 
REMARK    6  A    between atoms: C6_13  and  N3_14 
REMARK    7  A    between atoms: C9_17  and  C10_18 
ROOT
HETATM    1  C2  UNL     1       2.476  -0.308   0.127  1.00  0.00     0.155 A 
HETATM    2  S1  UNL     1       3.273  -1.267   1.278  1.00  0.00    -0.061 SA
HETATM    3  C3  UNL     1       2.030  -2.375   1.618  1.00  0.00     0.109 A 
HETATM    4  C4  UNL     1       1.028  -1.934   0.799  1.00  0.00     0.150 A 
HETATM    5  N2  UNL     1       1.253  -0.894   0.050  1.00  0.00    -0.306 N 
ENDROOT
BRANCH   5   6
HETATM    6  C5  UNL     1       0.232  -0.328  -0.888  1.00  0.00     0.163 C 
BRANCH   6   7
HETATM    7  C6  UNL     1      -0.531   0.743  -0.186  1.00  0.00     0.292 C 
BRANCH   7   8
HETATM    8  N3  UNL     1      -1.528   1.418  -0.930  1.00  0.00     0.090 N 
HETATM    9  C7  UNL     1      -2.129   2.489  -0.173  1.00  0.00     0.273 C 
HETATM   10  C8  UNL     1      -3.534   2.105   0.158  1.00  0.00     0.041 C 
HETATM   11  C9  UNL     1      -3.497   0.588  -0.070  1.00  0.00     0.048 C 
HETATM   12  C15 UNL     1      -2.600   0.513  -1.284  1.00  0.00     0.281 C 
BRANCH  11  13
HETATM   13  C10 UNL     1      -4.853   0.057  -0.292  1.00  0.00    -0.050 A 
HETATM   14  C11 UNL     1      -5.366  -0.781   0.680  1.00  0.00     0.024 A 
HETATM   15  C12 UNL     1      -6.620  -1.302   0.527  1.00  0.00     0.088 A 
HETATM   16  N4  UNL     1      -7.358  -1.015  -0.547  1.00  0.00    -0.375 N 
HETATM   17  C13 UNL     1      -6.873  -0.194  -1.513  1.00  0.00     0.088 A 
ATOM     18  H4  UNL     1      -8.292  -1.415  -0.643  1.00  0.00     0.164 HD
HETATM   19  C14 UNL     1      -5.621   0.345  -1.392  1.00  0.00     0.024 A 
ENDBRANCH  11  13
ENDBRANCH   7   8
ENDBRANCH   6   7
ENDBRANCH   5   6
BRANCH   1  20
HETATM   20  N1  UNL     1       2.832   0.757  -0.556  1.00  0.00    -0.303 N 
HETATM   21  C1  UNL     1       4.113   1.295  -0.372  1.00  0.00     0.259 C 
HETATM   22  O1  UNL     1       4.196   2.558  -0.201  1.00  0.00    -0.267 OA
ATOM     23  H1  UNL     1       2.182   1.188  -1.214  1.00  0.00     0.171 HD
BRANCH  21  24
HETATM   24  C16 UNL     1       5.283   0.443  -0.379  1.00  0.00     0.054 A 
HETATM   25  C17 UNL     1       5.490  -0.646  -1.170  1.00  0.00     0.019 A 
HETATM   26  C18 UNL     1       6.640  -1.405  -1.136  1.00  0.00     0.001 A 
HETATM   27  C19 UNL     1       7.631  -1.036  -0.252  1.00  0.00     0.002 A 
HETATM   28  C20 UNL     1       7.455   0.078   0.581  1.00  0.00     0.025 A 
HETATM   29  C21 UNL     1       6.291   0.812   0.518  1.00  0.00     0.049 A 
HETATM   30 CL1  UNL     1       6.091   2.204   1.577  1.00  0.00    -0.083 Cl
ENDBRANCH  21  24
ENDBRANCH   1  20
BRANCH   4  31
HETATM   31  O2  UNL     1      -0.219  -2.645   0.813  1.00  0.00    -0.346 OA
ATOM     32  H2  UNL     1      -0.915  -2.339   0.244  1.00  0.00     0.219 HD
ENDBRANCH   4  31
TORSDOF 7
