REMARK  6 active torsions:
REMARK  status: ('A' for Active; 'I' for Inactive)
REMARK    1  A    between atoms: N1_1  and  C1_5 
REMARK    2  A    between atoms: C1_5  and  C2_6 
REMARK    3  A    between atoms: N2_10  and  C6_11 
REMARK    4  A    between atoms: C6_11  and  C7_12 
REMARK    5  A    between atoms: N4_21  and  C13_22 
REMARK    6  A    between atoms: C13_22  and  C14_23 
ROOT
HETATM    1  C2  UNL     1       1.867  -2.372   0.215  1.00  0.00     0.015 C 
HETATM    2  C3  UNL     1       1.926  -1.749  -1.135  1.00  0.00     0.044 C 
HETATM    3  C4  UNL     1       1.319  -0.375  -1.237  1.00  0.00     0.252 C 
HETATM    4  C5  UNL     1       2.281   0.682  -0.858  1.00  0.00     0.308 C 
HETATM    5  N2  UNL     1       2.328   1.029   0.507  1.00  0.00     0.097 N 
HETATM    6  C10 UNL     1       1.435   0.390   1.382  1.00  0.00     0.308 C 
HETATM    7  C11 UNL     1       0.365  -0.473   0.853  1.00  0.00     0.252 C 
HETATM    8  C12 UNL     1       0.718  -1.957   1.070  1.00  0.00     0.044 C 
HETATM    9  N4  UNL     1       0.031  -0.313  -0.553  1.00  0.00     0.105 N 
ENDROOT
BRANCH   9  10
HETATM   10  C13 UNL     1      -0.525   0.986  -0.750  1.00  0.00     0.314 C 
BRANCH  10  11
HETATM   11  C14 UNL     1      -1.939   1.057  -0.380  1.00  0.00    -0.008 A 
HETATM   12  C15 UNL     1      -2.687  -0.004   0.008  1.00  0.00     0.020 A 
HETATM   13  C16 UNL     1      -4.036   0.144   0.303  1.00  0.00    -0.028 A 
HETATM   14  C17 UNL     1      -4.670   1.365   0.214  1.00  0.00    -0.046 A 
HETATM   15  C22 UNL     1      -4.869  -1.018   0.732  1.00  0.00     0.206 C 
HETATM   16  C18 UNL     1      -3.916   2.437  -0.178  1.00  0.00     0.032 A 
HETATM   17  C20 UNL     1      -6.107   1.561   0.520  1.00  0.00     0.065 C 
HETATM   18  C19 UNL     1      -2.586   2.298  -0.470  1.00  0.00     0.042 A 
HETATM   19 CL1  UNL     1      -1.612   3.672  -0.974  1.00  0.00    -0.084 Cl
HETATM   20  C21 UNL     1      -6.737   0.210   0.809  1.00  0.00     0.172 C 
HETATM   21  O1  UNL     1      -5.843  -0.529   1.595  1.00  0.00    -0.386 OA
ENDBRANCH  10  11
ENDBRANCH   9  10
BRANCH   1  22
HETATM   22  C1  UNL     1       1.726  -3.888   0.009  1.00  0.00     0.234 C 
BRANCH  22  23
HETATM   23  N1  UNL     1       1.667  -4.515   1.319  1.00  0.00    -0.079 N 
ATOM     24  H13 UNL     1       2.461  -4.269   1.910  1.00  0.00     0.274 HD
ATOM     25  H12 UNL     1       0.932  -4.127   1.910  1.00  0.00     0.274 HD
ATOM     26  H11 UNL     1       1.573  -5.521   1.182  1.00  0.00     0.274 HD
ENDBRANCH  22  23
ENDBRANCH   1  22
BRANCH   5  27
HETATM   27  C6  UNL     1       3.676   0.877   1.003  1.00  0.00     0.320 C 
BRANCH  27  28
HETATM   28  C7  UNL     1       4.650   1.768   0.294  1.00  0.00     0.027 A 
HETATM   29  C8  UNL     1       4.397   2.916  -0.417  1.00  0.00     0.104 A 
HETATM   30  N3  UNL     1       5.408   3.526  -0.954  1.00  0.00    -0.368 N 
HETATM   31  C9  UNL     1       6.627   3.033  -0.805  1.00  0.00     0.138 A 
ATOM     32  H3  UNL     1       5.264   4.382  -1.489  1.00  0.00     0.165 HD
HETATM   33  S1  UNL     1       6.346   1.640   0.140  1.00  0.00    -0.086 SA
ENDBRANCH  27  28
ENDBRANCH   5  27
TORSDOF 6
