REMARK  5 active torsions:
REMARK  status: ('A' for Active; 'I' for Inactive)
REMARK    1  A    between atoms: C3_4  and  S2_5 
REMARK    2  A    between atoms: S2_5  and  N1_8 
REMARK       I    between atoms: N1_8  and  C4_10 
REMARK    3  A    between atoms: C4_10  and  C5_12 
REMARK    4  A    between atoms: C5_12  and  C6_13 
REMARK    5  A    between atoms: C16_23  and  N2_24 
ROOT
HETATM    1  N1  UNL     1       1.685   0.958   0.203  1.00  0.00    -0.250 N 
ATOM      2  H1  UNL     1       1.943   0.699   1.155  1.00  0.00     0.181 HD
HETATM    3  C4  UNL     1       0.343   0.812  -0.228  1.00  0.00     0.231 C 
HETATM    4  O3  UNL     1       0.075   1.145  -1.408  1.00  0.00    -0.273 OA
ENDROOT
BRANCH   1   5
HETATM    5  S2  UNL     1       2.870   1.563  -0.859  1.00  0.00     0.274 S 
HETATM    6  O1  UNL     1       2.485   1.336  -2.300  1.00  0.00    -0.200 OA
HETATM    7  O2  UNL     1       3.122   3.029  -0.645  1.00  0.00    -0.200 OA
BRANCH   5   8
HETATM    8  C3  UNL     1       4.422   0.755  -0.571  1.00  0.00     0.155 A 
HETATM    9  S1  UNL     1       5.665   1.216   0.493  1.00  0.00    -0.077 SA
HETATM   10  C2  UNL     1       6.770  -0.039   0.188  1.00  0.00     0.004 A 
HETATM   11  C1  UNL     1       8.130  -0.272   0.800  1.00  0.00     0.058 C 
HETATM   12  C17 UNL     1       6.131  -0.800  -0.752  1.00  0.00     0.082 A 
HETATM   13  C16 UNL     1       4.908  -0.388  -1.148  1.00  0.00     0.155 A 
HETATM   14 CL1  UNL     1       6.903  -2.274  -1.412  1.00  0.00    -0.081 Cl
BRANCH  13  15
HETATM   15  N2  UNL     1       4.092  -1.074  -2.136  1.00  0.00    -0.112 N 
HETATM   16  O4  UNL     1       3.104  -1.707  -1.773  1.00  0.00    -0.532 OA
HETATM   17  O5  UNL     1       4.443  -0.998  -3.436  1.00  0.00    -0.532 OA
ENDBRANCH  13  15
ENDBRANCH   5   8
ENDBRANCH   1   5
BRANCH   3  18
HETATM   18  C5  UNL     1      -0.626   0.287   0.733  1.00  0.00     0.113 C 
BRANCH  18  19
HETATM   19  C6  UNL     1      -2.023   0.129   0.271  1.00  0.00    -0.031 C 
HETATM   20  C7  UNL     1      -2.183  -0.804  -0.893  1.00  0.00     0.014 C 
HETATM   21  C8  UNL     1      -3.654  -1.065  -1.168  1.00  0.00    -0.013 C 
HETATM   22  C9  UNL     1      -4.369   0.218  -1.512  1.00  0.00     0.009 C 
HETATM   23  C13 UNL     1      -4.345  -1.687   0.015  1.00  0.00     0.009 C 
HETATM   24  C10 UNL     1      -4.160   1.180  -0.378  1.00  0.00    -0.013 C 
HETATM   25  C11 UNL     1      -4.851   0.630   0.846  1.00  0.00     0.009 C 
HETATM   26  C15 UNL     1      -2.698   1.429  -0.081  1.00  0.00     0.014 C 
HETATM   27  C12 UNL     1      -4.229  -0.701   1.158  1.00  0.00    -0.013 C 
HETATM   28  C14 UNL     1      -2.781  -0.503   1.449  1.00  0.00     0.014 C 
ENDBRANCH  18  19
ENDBRANCH   3  18
TORSDOF 5
