REMARK  4 active torsions:
REMARK  status: ('A' for Active; 'I' for Inactive)
REMARK    1  A    between atoms: C8_9  and  N2_10 
REMARK    2  A    between atoms: N2_10  and  C9_12 
REMARK    3  A    between atoms: C12_17  and  C13_18 
REMARK    4  A    between atoms: N5_22  and  C15_23 
ROOT
HETATM    1  C9  UNL     1      -0.905   0.111  -0.411  1.00  0.00     0.121 A 
HETATM    2  C10 UNL     1      -1.020   1.414  -0.751  1.00  0.00     0.136 A 
HETATM    3  N3  UNL     1       0.097   2.145  -1.033  1.00  0.00    -0.370 N 
ATOM      4  H3  UNL     1      -0.011   3.127  -1.286  1.00  0.00     0.164 HD
HETATM    5  C11 UNL     1       1.326   1.624  -0.990  1.00  0.00     0.118 A 
HETATM    6  C12 UNL     1       1.466   0.302  -0.648  1.00  0.00     0.062 A 
HETATM    7  N6  UNL     1       0.361  -0.397  -0.375  1.00  0.00    -0.340 N 
ATOM      8  H6  UNL     1       0.471  -1.379  -0.122  1.00  0.00     0.167 HD
ENDROOT
BRANCH   1   9
HETATM    9  N2  UNL     1      -1.974  -0.707  -0.083  1.00  0.00    -0.348 N 
ATOM     10  H2  UNL     1      -1.693  -1.676   0.069  1.00  0.00     0.167 HD
BRANCH   9  11
HETATM   11  C8  UNL     1      -3.355  -0.513   0.089  1.00  0.00    -0.001 C 
HETATM   12  C2  UNL     1      -3.856   0.164   1.308  1.00  0.00     0.065 C 
HETATM   13  C1  UNL     1      -3.932   1.634   1.348  1.00  0.00     0.022 C 
HETATM   14  C3  UNL     1      -5.273  -0.363   1.533  1.00  0.00     0.068 C 
HETATM   15  N1  UNL     1      -5.873  -0.889   0.377  1.00  0.00    -0.392 N 
HETATM   16  C4  UNL     1      -6.388  -2.206   0.451  1.00  0.00     0.149 C 
HETATM   17  C5  UNL     1      -5.578  -0.374  -0.890  1.00  0.00     0.084 C 
HETATM   18  C6  UNL     1      -6.461   0.836  -1.171  1.00  0.00     0.032 C 
HETATM   19  C7  UNL     1      -4.121  -0.011  -1.132  1.00  0.00     0.078 C 
ENDBRANCH   9  11
ENDBRANCH   1   9
BRANCH   6  20
HETATM   20  C13 UNL     1       2.803  -0.316  -0.587  1.00  0.00     0.026 A 
HETATM   21  C14 UNL     1       3.060  -1.607  -0.262  1.00  0.00     0.122 A 
HETATM   22  N4  UNL     1       4.387  -1.767  -0.323  1.00  0.00    -0.309 N 
HETATM   23  N5  UNL     1       4.961  -0.608  -0.677  1.00  0.00    -0.298 N 
ATOM     24  H4  UNL     1       4.885  -2.636  -0.130  1.00  0.00     0.186 HD
HETATM   25  C20 UNL     1       3.982   0.326  -0.850  1.00  0.00     0.125 A 
BRANCH  23  26
HETATM   26  C15 UNL     1       6.385  -0.462  -0.827  1.00  0.00     0.107 C 
HETATM   27  C16 UNL     1       7.092  -1.137   0.340  1.00  0.00     0.027 C 
HETATM   28  C17 UNL     1       8.384  -0.378   0.435  1.00  0.00     0.002 C 
HETATM   29  C18 UNL     1       7.971   1.043   0.207  1.00  0.00     0.002 C 
HETATM   30  C19 UNL     1       6.816   0.974  -0.756  1.00  0.00     0.027 C 
ENDBRANCH  23  26
ENDBRANCH   6  20
TORSDOF 4
