REMARK  4 active torsions:
REMARK  status: ('A' for Active; 'I' for Inactive)
REMARK    1  A    between atoms: C2_2  and  C3_3 
REMARK    2  A    between atoms: C3_3  and  S1_4 
REMARK    3  A    between atoms: S1_4  and  C4_5 
REMARK    4  A    between atoms: N2_8  and  C6_9 
ROOT
HETATM    1  C4  UNL     1      -0.478   1.399   1.360  1.00  0.00     0.072 A 
HETATM    2  C5  UNL     1      -1.389   0.367   1.291  1.00  0.00     0.139 A 
HETATM    3  N1  UNL     1      -2.716   0.338   1.781  1.00  0.00    -0.081 NA
HETATM    4  N2  UNL     1      -0.765  -0.658   0.642  1.00  0.00    -0.314 N 
HETATM    5  C12 UNL     1       0.475  -0.288   0.320  1.00  0.00     0.139 A 
HETATM    6  N3  UNL     1       1.506  -0.875  -0.303  1.00  0.00    -0.325 N 
ATOM      7  H3  UNL     1       1.361  -1.830  -0.631  1.00  0.00     0.169 HD
HETATM    8  C13 UNL     1       2.675  -0.347  -0.532  1.00  0.00     0.128 A 
HETATM    9  C14 UNL     1       2.894   1.034  -0.064  1.00  0.00     0.060 A 
HETATM   10  N4  UNL     1       1.891   1.612   0.547  1.00  0.00    -0.352 N 
ATOM     11  H4  UNL     1       2.013   2.567   0.884  1.00  0.00     0.166 HD
HETATM   12  C15 UNL     1       0.718   1.013   0.750  1.00  0.00     0.098 A 
HETATM   13  C16 UNL     1       4.296   1.393  -0.507  1.00  0.00     0.059 C 
HETATM   14  C17 UNL     1       5.369   0.552   0.141  1.00  0.00     0.032 C 
HETATM   15  C18 UNL     1       5.227  -0.911  -0.635  1.00  0.00     0.125 C 
HETATM   16  N5  UNL     1       3.957  -0.489  -0.990  1.00  0.00    -0.365 N 
HETATM   17  C19 UNL     1       4.206   0.583  -1.906  1.00  0.00     0.135 C 
ENDROOT
BRANCH   4  18
HETATM   18  C6  UNL     1      -1.379  -1.921   0.370  1.00  0.00     0.093 C 
HETATM   19  C7  UNL     1      -2.151  -1.931  -0.930  1.00  0.00     0.026 C 
HETATM   20  C8  UNL     1      -2.577  -3.327  -1.270  1.00  0.00     0.002 C 
HETATM   21  C9  UNL     1      -2.589  -4.228  -0.058  1.00  0.00     0.000 C 
HETATM   22  C10 UNL     1      -1.233  -4.340   0.579  1.00  0.00     0.002 C 
HETATM   23  C11 UNL     1      -0.410  -3.072   0.326  1.00  0.00     0.026 C 
ENDBRANCH   4  18
BRANCH   1  24
HETATM   24  S1  UNL     1      -0.723   2.998   2.093  1.00  0.00    -0.124 SA
BRANCH  24  25
HETATM   25  C3  UNL     1      -1.377   4.192   0.913  1.00  0.00     0.079 C 
BRANCH  25  26
HETATM   26  C2  UNL     1      -2.771   3.856   0.458  1.00  0.00     0.006 C 
HETATM   27  C1  UNL     1      -3.237   4.909  -0.530  1.00  0.00     0.006 C 
ENDBRANCH  25  26
ENDBRANCH  24  25
ENDBRANCH   1  24
TORSDOF 4
