REMARK  5 active torsions:
REMARK  status: ('A' for Active; 'I' for Inactive)
REMARK    1  A    between atoms: C2_2  and  N1_4 
REMARK    2  A    between atoms: N1_4  and  C4_5 
REMARK    3  A    between atoms: N1_4  and  C17_24 
REMARK    4  A    between atoms: C4_5  and  C5_6 
REMARK    5  A    between atoms: C14_17  and  O3_18 
ROOT
HETATM    1  C5  UNL     1      -1.432   0.116   0.909  1.00  0.00    -0.046 C 
HETATM    2  C6  UNL     1      -0.742   1.222   1.137  1.00  0.00    -0.013 C 
HETATM    3  C7  UNL     1       0.602   1.491   0.604  1.00  0.00     0.102 C 
HETATM    4  C8  UNL     1       1.424   0.282   0.275  1.00  0.00     0.233 C 
HETATM    5  C9  UNL     1       0.689  -0.971   0.647  1.00  0.00     0.079 C 
HETATM    6  C10 UNL     1      -0.746  -0.908   0.086  1.00  0.00     0.045 C 
HETATM    7  O1  UNL     1       2.598   0.285   1.067  1.00  0.00    -0.194 OA
HETATM    8  O2  UNL     1       3.553  -0.402   0.537  1.00  0.00    -0.195 OA
HETATM    9  C11 UNL     1       3.953   0.191  -0.650  1.00  0.00     0.230 C 
HETATM   10  C12 UNL     1       4.833  -0.815  -1.357  1.00  0.00     0.077 C 
HETATM   11  C13 UNL     1       6.278  -0.494  -1.061  1.00  0.00     0.037 C 
HETATM   12  C14 UNL     1       6.428  -0.195   0.430  1.00  0.00     0.118 C 
HETATM   13  C15 UNL     1       5.762   1.115   0.775  1.00  0.00     0.037 C 
HETATM   14  C16 UNL     1       4.780   1.425  -0.310  1.00  0.00     0.077 C 
HETATM   15  O4  UNL     1       2.893   0.632  -1.406  1.00  0.00    -0.195 OA
HETATM   16  O5  UNL     1       1.728   0.185  -1.078  1.00  0.00    -0.194 OA
ENDROOT
BRANCH   1  17
HETATM   17  C4  UNL     1      -2.756  -0.076   1.469  1.00  0.00     0.093 C 
BRANCH  17  18
HETATM   18  N1  UNL     1      -3.852  -0.223   0.598  1.00  0.00    -0.382 N 
BRANCH  18  19
HETATM   19  C2  UNL     1      -4.207   0.929  -0.093  1.00  0.00     0.076 C 
HETATM   20  C1  UNL     1      -4.623   1.973   0.960  1.00  0.00     0.032 C 
HETATM   21  C3  UNL     1      -5.314   0.879  -1.077  1.00  0.00     0.032 C 
ENDBRANCH  18  19
BRANCH  18  22
HETATM   22  C17 UNL     1      -4.310  -1.490   0.245  1.00  0.00     0.076 C 
HETATM   23  C18 UNL     1      -5.836  -1.662   0.358  1.00  0.00     0.032 C 
HETATM   24  C19 UNL     1      -3.894  -1.982  -1.122  1.00  0.00     0.032 C 
ENDBRANCH  18  22
ENDBRANCH  17  18
ENDBRANCH   1  17
BRANCH  12  25
HETATM   25  O3  UNL     1       7.777  -0.105   0.779  1.00  0.00    -0.396 OA
ATOM     26  H3  UNL     1       7.870   0.081   1.706  1.00  0.00     0.210 HD
ENDBRANCH  12  25
TORSDOF 5
