REMARK  4 active torsions:
REMARK  status: ('A' for Active; 'I' for Inactive)
REMARK    1  A    between atoms: S1_3  and  C2_4 
REMARK    2  A    between atoms: C4_6  and  C5_7 
REMARK    3  A    between atoms: C6_10  and  C7_11 
REMARK    4  A    between atoms: N5_24  and  C14_25 
ROOT
HETATM    1  N1  UNL     1       4.070   3.735  -1.279  1.00  0.00    -0.184 NA
HETATM    2  C1  UNL     1       3.650   2.753  -1.723  1.00  0.00     0.140 C 
HETATM    3  S1  UNL     1       2.988   1.262  -2.384  1.00  0.00     0.003 SA
ENDROOT
BRANCH   3   4
HETATM    4  C2  UNL     1       2.218   0.209  -1.162  1.00  0.00     0.060 C 
HETATM    5  C3  UNL     1       0.961   0.885  -0.554  1.00  0.00     0.078 C 
HETATM    6  C4  UNL     1       0.108  -0.284  -0.082  1.00  0.00     0.071 C 
HETATM    7  C12 UNL     1       0.926  -0.996   0.981  1.00  0.00     0.033 C 
HETATM    8  C13 UNL     1       2.112  -1.612   0.253  1.00  0.00     0.124 C 
HETATM    9  N5  UNL     1       2.948  -0.525  -0.288  1.00  0.00    -0.373 N 
BRANCH   6  10
HETATM   10  C5  UNL     1      -1.202   0.126   0.420  1.00  0.00     0.152 A 
HETATM   11  N2  UNL     1      -2.379  -0.207  -0.128  1.00  0.00    -0.326 N 
HETATM   12  C6  UNL     1      -3.376   0.345   0.597  1.00  0.00     0.108 A 
ATOM     13  H2  UNL     1      -2.502  -0.785  -0.959  1.00  0.00     0.169 HD
HETATM   14  N4  UNL     1      -2.746   1.017   1.595  1.00  0.00    -0.247 N 
HETATM   15  O1  UNL     1      -1.456   0.858   1.449  1.00  0.00    -0.222 OA
ATOM     16  H4  UNL     1      -3.201   1.554   2.333  1.00  0.00     0.196 HD
BRANCH  12  17
HETATM   17  C7  UNL     1      -4.843   0.260   0.381  1.00  0.00     0.058 C 
HETATM   18  C8  UNL     1      -5.325  -1.154   0.388  1.00  0.00     0.040 C 
HETATM   19  C9  UNL     1      -6.767  -1.239  -0.058  1.00  0.00     0.233 C 
HETATM   20  N3  UNL     1      -7.014  -0.535  -1.294  1.00  0.00    -0.075 N 
HETATM   21  C10 UNL     1      -6.716   0.865  -1.079  1.00  0.00     0.233 C 
ATOM     22  H32 UNL     1      -6.502  -0.931  -2.082  1.00  0.00     0.277 HD
ATOM     23  H31 UNL     1      -7.957  -0.687  -1.653  1.00  0.00     0.277 HD
HETATM   24  C11 UNL     1      -5.202   0.963  -0.917  1.00  0.00     0.040 C 
ENDBRANCH  12  17
ENDBRANCH   6  10
BRANCH   9  25
HETATM   25  C14 UNL     1       4.186  -0.504   0.213  1.00  0.00     0.084 C 
HETATM   26  C15 UNL     1       5.253  -0.707  -0.846  1.00  0.00     0.025 C 
HETATM   27  C16 UNL     1       6.534  -0.434  -0.037  1.00  0.00     0.002 C 
HETATM   28  C17 UNL     1       6.141   0.875   0.617  1.00  0.00     0.002 C 
HETATM   29  C18 UNL     1       4.718   0.590   1.055  1.00  0.00     0.025 C 
ENDBRANCH   9  25
ENDBRANCH   3   4
TORSDOF 4
