REMARK  3 active torsions:
REMARK  status: ('A' for Active; 'I' for Inactive)
REMARK    1  A    between atoms: C4_5  and  N1_6 
REMARK    2  A    between atoms: N1_6  and  C5_8 
REMARK    3  A    between atoms: C5_8  and  C6_9 
ROOT
HETATM    1  C6  UNL     1      -1.569  -0.201   0.149  1.00  0.00     0.206 C 
HETATM    2  C7  UNL     1      -2.336   0.252   1.343  1.00  0.00     0.062 C 
HETATM    3  C8  UNL     1      -3.740  -0.268   1.286  1.00  0.00     0.236 C 
HETATM    4  N2  UNL     1      -4.309  -0.161  -0.014  1.00  0.00    -0.051 N 
ATOM      5  H21 UNL     1      -5.270   0.175   0.046  1.00  0.00     0.279 HD
ATOM      6  H22 UNL     1      -4.472  -1.088  -0.408  1.00  0.00     0.279 HD
HETATM    7  C9  UNL     1      -3.557   0.642  -0.926  1.00  0.00     0.463 C 
HETATM    8  N3  UNL     1      -2.170   0.262  -1.056  1.00  0.00    -0.045 N 
ATOM      9  H31 UNL     1      -2.059  -0.430  -1.797  1.00  0.00     0.279 HD
ATOM     10  H32 UNL     1      -1.627   1.030  -1.451  1.00  0.00     0.279 HD
ENDROOT
BRANCH   1  11
HETATM   11  C5  UNL     1      -0.081   0.153   0.286  1.00  0.00     0.147 C 
BRANCH  11  12
HETATM   12  N1  UNL     1       0.581  -0.270  -0.871  1.00  0.00    -0.415 N 
ATOM     13  H1  UNL     1       0.037  -0.573  -1.679  1.00  0.00     0.153 HD
BRANCH  12  14
HETATM   14  C4  UNL     1       1.996  -0.283  -0.937  1.00  0.00     0.079 C 
HETATM   15  C3  UNL     1       2.646  -1.281  -0.010  1.00  0.00     0.027 C 
HETATM   16  C2  UNL     1       4.073  -0.765   0.018  1.00  0.00     0.039 C 
HETATM   17  C1  UNL     1       3.839   0.710   0.300  1.00  0.00     0.172 C 
HETATM   18  F1  UNL     1       4.954   1.442   0.053  1.00  0.00    -0.249 F 
HETATM   19  C10 UNL     1       2.689   1.018  -0.668  1.00  0.00     0.062 C 
ENDBRANCH  12  14
ENDBRANCH  11  12
ENDBRANCH   1  11
TORSDOF 3
