REMARK  4 active torsions:
REMARK  status: ('A' for Active; 'I' for Inactive)
REMARK    1  A    between atoms: C4_4  and  C5_5 
REMARK    2  A    between atoms: C5_5  and  N1_6 
REMARK    3  A    between atoms: N1_6  and  C6_9 
REMARK    4  A    between atoms: C6_9  and  C7_10 
ROOT
HETATM    1  C1  UNL     1      -2.933  -0.295  -2.232  1.00  0.00     0.037 C 
HETATM    2  C2  UNL     1      -2.207   0.060  -1.196  1.00  0.00    -0.001 C 
HETATM    3  C3  UNL     1      -0.721   0.247  -1.354  1.00  0.00     0.090 C 
HETATM    4  C4  UNL     1      -0.228   0.748  -0.028  1.00  0.00     0.219 C 
HETATM    5  N2  UNL     1      -0.675  -0.161   1.031  1.00  0.00    -0.049 N 
ATOM      6  H21 UNL     1      -0.079  -0.141   1.859  1.00  0.00     0.280 HD
ATOM      7  H22 UNL     1      -0.540  -1.146   0.802  1.00  0.00     0.280 HD
HETATM    8  C8  UNL     1      -2.049   0.178   1.308  1.00  0.00     0.280 C 
HETATM    9  C9  UNL     1      -2.690  -0.768   2.287  1.00  0.00     0.063 C 
HETATM   10  N3  UNL     1      -2.797   0.266   0.076  1.00  0.00    -0.367 N 
ATOM     11  H3  UNL     1      -3.792   0.486   0.123  1.00  0.00     0.161 HD
ENDROOT
BRANCH   4  12
HETATM   12  C5  UNL     1       1.251   0.981   0.058  1.00  0.00     0.265 C 
BRANCH  12  13
HETATM   13  N1  UNL     1       2.049  -0.191  -0.159  1.00  0.00    -0.072 N 
ATOM     14  H12 UNL     1       1.743  -1.004   0.376  1.00  0.00     0.277 HD
ATOM     15  H11 UNL     1       1.930  -0.607  -1.083  1.00  0.00     0.277 HD
BRANCH  13  16
HETATM   16  C6  UNL     1       3.430   0.228   0.132  1.00  0.00     0.247 C 
BRANCH  16  17
HETATM   17  C7  UNL     1       4.416  -0.892  -0.034  1.00  0.00     0.142 C 
HETATM   18 CL1  UNL     1       4.470  -1.568  -1.654  1.00  0.00    -0.129 Cl
ENDBRANCH  16  17
ENDBRANCH  13  16
ENDBRANCH  12  13
ENDBRANCH   4  12
TORSDOF 4
