REMARK  1 active torsions:
REMARK  status: ('A' for Active; 'I' for Inactive)
REMARK    1  A    between atoms: C1_2  and  C2_5 
ROOT
HETATM    1  C2  UNL     1       0.320   0.375   0.163  1.00  0.00     0.295 C 
HETATM    2  N1  UNL     1      -0.227   0.655  -1.148  1.00  0.00    -0.108 NA
HETATM    3  N2  UNL     1      -1.602   0.479  -0.984  1.00  0.00    -0.034 NA
HETATM    4  N3  UNL     1      -1.819  -0.385   0.064  1.00  0.00    -0.053 NA
HETATM    5  C3  UNL     1      -0.515  -0.824   0.551  1.00  0.00     0.359 C 
HETATM    6  F4  UNL     1      -0.510  -1.044   1.905  1.00  0.00    -0.183 F 
HETATM    7  F5  UNL     1      -0.140  -1.906  -0.187  1.00  0.00    -0.183 F 
ENDROOT
BRANCH   1   8
HETATM    8  C1  UNL     1       1.792   0.049   0.134  1.00  0.00     0.413 C 
HETATM    9  F1  UNL     1       2.531   1.093  -0.383  1.00  0.00    -0.169 F 
HETATM   10  F2  UNL     1       2.174  -0.117   1.466  1.00  0.00    -0.169 F 
HETATM   11  F3  UNL     1       2.077  -1.055  -0.617  1.00  0.00    -0.169 F 
ENDBRANCH   1   8
TORSDOF 1
