REMARK  1 active torsions:
REMARK  status: ('A' for Active; 'I' for Inactive)
REMARK    1  A    between atoms: C2_5  and  C3_6 
ROOT
HETATM    1  F1  UNL     1      -2.850  -1.360  -0.513  1.00  0.00    -0.181 F 
HETATM    2  C1  UNL     1      -1.698  -0.708  -0.261  1.00  0.00     0.246 A 
HETATM    3  N1  UNL     1      -0.449  -1.143  -0.476  1.00  0.00    -0.311 N 
ATOM      4  H1  UNL     1      -0.205  -2.051  -0.871  1.00  0.00     0.170 HD
HETATM    5  C2  UNL     1       0.440  -0.201  -0.092  1.00  0.00     0.195 A 
HETATM    6  N2  UNL     1      -0.321   0.827   0.368  1.00  0.00    -0.311 N 
ATOM      7  H2  UNL     1       0.056   1.701   0.735  1.00  0.00     0.170 HD
HETATM    8  C4  UNL     1      -1.619   0.551   0.279  1.00  0.00     0.246 A 
HETATM    9  F5  UNL     1      -2.682   1.334   0.644  1.00  0.00    -0.181 F 
ENDROOT
BRANCH   5  10
HETATM   10  C3  UNL     1       1.928  -0.259  -0.159  1.00  0.00     0.449 C 
HETATM   11  F2  UNL     1       2.426   0.863   0.467  1.00  0.00    -0.163 F 
HETATM   12  F3  UNL     1       2.330  -0.256  -1.478  1.00  0.00    -0.163 F 
HETATM   13  F4  UNL     1       2.426  -1.365   0.485  1.00  0.00    -0.163 F 
ENDBRANCH   5  10
TORSDOF 1
