REMARK  2 active torsions:
REMARK  status: ('A' for Active; 'I' for Inactive)
REMARK    1  A    between atoms: N1_1  and  N2_4 
REMARK    2  A    between atoms: N2_4  and  C1_6 
ROOT
HETATM    1  C1  UNL     1       0.489   0.148  -0.104  1.00  0.00     0.174 C 
HETATM    2  N3  UNL     1      -0.101   0.621   0.929  1.00  0.00    -0.338 N 
ATOM      3  H3  UNL     1       0.383   0.962   1.760  1.00  0.00     0.164 HD
HETATM    4  C2  UNL     1      -1.546   0.611   0.771  1.00  0.00     0.350 C 
HETATM    5  F1  UNL     1      -1.979   1.803   0.238  1.00  0.00    -0.220 F 
HETATM    6  C3  UNL     1      -1.712  -0.518  -0.235  1.00  0.00     0.362 C 
HETATM    7  F2  UNL     1      -1.492  -1.705   0.419  1.00  0.00    -0.194 F 
HETATM    8  F3  UNL     1      -2.890  -0.463  -0.910  1.00  0.00    -0.194 F 
HETATM    9  C4  UNL     1      -0.514  -0.253  -1.124  1.00  0.00     0.370 C 
HETATM   10  F4  UNL     1      -0.785   0.793  -2.011  1.00  0.00    -0.190 F 
HETATM   11  F5  UNL     1      -0.157  -1.403  -1.793  1.00  0.00    -0.190 F 
ENDROOT
BRANCH   1  12
HETATM   12  N2  UNL     1       1.904   0.044  -0.212  1.00  0.00    -0.291 N 
ATOM     13  H2  UNL     1       2.368   0.270  -1.092  1.00  0.00     0.188 HD
BRANCH  12  14
HETATM   14  N1  UNL     1       2.656  -0.370   0.893  1.00  0.00    -0.344 N 
ATOM     15  H12 UNL     1       2.176  -0.593   1.765  1.00  0.00     0.176 HD
ATOM     16  H11 UNL     1       3.670  -0.445   0.816  1.00  0.00     0.176 HD
ENDBRANCH  12  14
ENDBRANCH   1  12
TORSDOF 2
