REMARK  9 active torsions:
REMARK  status: ('A' for Active; 'I' for Inactive)
REMARK    1  A    between atoms: N1_1  and  C1_4 
REMARK    2  A    between atoms: C2_7  and  N3_8 
REMARK       I    between atoms: N3_8  and  C3_10 
REMARK       I    between atoms: C3_10  and  N4_11 
REMARK       I    between atoms: C3_10  and  N5_15 
REMARK    3  A    between atoms: C4_24  and  C5_25 
REMARK    4  A    between atoms: C5_25  and  N9_26 
REMARK    5  A    between atoms: C5_25  and  N10_30 
REMARK    6  A    between atoms: N10_30  and  N11_32 
REMARK    7  A    between atoms: C6_34  and  C7_35 
REMARK    8  A    between atoms: C7_35  and  N12_36 
REMARK    9  A    between atoms: N12_36  and  O1_38 
ROOT
HETATM    1  C1  UNL     1      -1.232   0.223  -1.790  1.00  0.00     0.692 A 
HETATM    2  N2  UNL     1      -2.251   0.541  -0.980  1.00  0.00    -0.021 N 
ATOM      3  H2  UNL     1      -2.996   1.135  -1.343  1.00  0.00     0.203 HD
HETATM    4  C2  UNL     1      -2.332   0.112   0.285  1.00  0.00     0.720 A 
HETATM    5  N6  UNL     1      -1.354  -0.669   0.763  1.00  0.00    -0.052 N 
HETATM    6  N7  UNL     1      -1.125  -1.262   1.925  1.00  0.00    -0.219 N 
ATOM      7  H7  UNL     1      -1.743  -1.193   2.733  1.00  0.00     0.209 HD
HETATM    8  N8  UNL     1      -0.013  -1.945   1.911  1.00  0.00    -0.282 N 
ATOM      9  H8  UNL     1       0.366  -2.483   2.690  1.00  0.00     0.188 HD
HETATM   10  C4  UNL     1       0.557  -1.817   0.675  1.00  0.00     0.125 A 
HETATM   11  C8  UNL     1      -0.304  -1.011  -0.031  1.00  0.00     0.190 A 
HETATM   12  N13 UNL     1      -0.259  -0.567  -1.281  1.00  0.00    -0.172 N 
ATOM     13  H13 UNL     1       0.529  -0.828  -1.873  1.00  0.00     0.186 HD
ENDROOT
BRANCH  10  14
HETATM   14  C5  UNL     1       1.822  -2.427   0.331  1.00  0.00     0.352 C 
BRANCH  14  15
HETATM   15  N9  UNL     1       2.678  -2.258   1.554  1.00  0.00    -0.051 N 
ATOM     16  H93 UNL     1       2.758  -1.292   1.873  1.00  0.00     0.277 HD
ATOM     17  H92 UNL     1       2.259  -2.628   2.407  1.00  0.00     0.277 HD
ATOM     18  H91 UNL     1       3.570  -2.688   1.311  1.00  0.00     0.277 HD
ENDBRANCH  14  15
BRANCH  14  19
HETATM   19  N10 UNL     1       2.584  -1.808  -0.728  1.00  0.00    -0.301 N 
ATOM     20  H10 UNL     1       2.699  -2.329  -1.598  1.00  0.00     0.183 HD
BRANCH  19  21
HETATM   21  N11 UNL     1       3.174  -0.546  -0.643  1.00  0.00    -0.313 N 
HETATM   22  C6  UNL     1       4.268  -0.294  -0.060  1.00  0.00     0.125 C 
ATOM     23  H11 UNL     1       2.686   0.233  -1.085  1.00  0.00     0.185 HD
BRANCH  22  24
HETATM   24  C7  UNL     1       4.778   1.069  -0.041  1.00  0.00     0.132 C 
BRANCH  24  25
HETATM   25  N12 UNL     1       5.891   1.324   0.553  1.00  0.00    -0.279 N 
ATOM     26  H12 UNL     1       6.383   0.548   0.996  1.00  0.00     0.193 HD
BRANCH  25  27
HETATM   27  O1  UNL     1       6.451   2.552   0.628  1.00  0.00    -0.290 OA
ATOM     28  H1  UNL     1       7.272   2.740   1.066  1.00  0.00     0.244 HD
ENDBRANCH  25  27
ENDBRANCH  24  25
ENDBRANCH  22  24
ENDBRANCH  19  21
ENDBRANCH  14  19
ENDBRANCH  10  14
BRANCH   4  29
HETATM   29  N3  UNL     1      -3.290   0.396   1.085  1.00  0.00    -0.171 N 
HETATM   30  C3  UNL     1      -4.434   1.200   0.815  1.00  0.00     0.494 C 
HETATM   31  N4  UNL     1      -5.291   0.673  -0.230  1.00  0.00    -0.032 N 
HETATM   32  N5  UNL     1      -4.136   2.573   0.488  1.00  0.00    -0.032 N 
ATOM     33  H43 UNL     1      -4.757   0.511  -1.084  1.00  0.00     0.278 HD
ATOM     34  H42 UNL     1      -5.569  -0.285  -0.017  1.00  0.00     0.278 HD
ATOM     35  H41 UNL     1      -6.110   1.249  -0.423  1.00  0.00     0.278 HD
ATOM     36  H53 UNL     1      -3.568   2.998   1.221  1.00  0.00     0.278 HD
ATOM     37  H52 UNL     1      -3.478   2.618  -0.290  1.00  0.00     0.278 HD
ATOM     38  H51 UNL     1      -4.955   3.149   0.295  1.00  0.00     0.278 HD
ATOM     39  H3  UNL     1      -3.227   0.001   2.023  1.00  0.00     0.181 HD
ENDBRANCH   4  29
BRANCH   1  40
HETATM   40  N1  UNL     1      -1.125   0.618  -3.010  1.00  0.00    -0.234 N 
ATOM     41  H12 UNL     1      -1.859   1.214  -3.394  1.00  0.00     0.174 HD
ATOM     42  H11 UNL     1      -0.349   0.376  -3.627  1.00  0.00     0.174 HD
ENDBRANCH   1  40
TORSDOF 9
