REMARK  8 active torsions:
REMARK  status: ('A' for Active; 'I' for Inactive)
REMARK    1  A    between atoms: N1_1  and  C1_4 
REMARK    2  A    between atoms: N4_9  and  C2_10 
REMARK    3  A    between atoms: C2_10  and  C3_11 
REMARK    4  A    between atoms: C3_11  and  S1_12 
REMARK    5  A    between atoms: S1_12  and  C4_13 
REMARK    6  A    between atoms: C5_16  and  C6_17 
REMARK    7  A    between atoms: N9_25  and  N10_27 
REMARK    8  A    between atoms: N10_27  and  N11_29 
ROOT
HETATM    1  C1  UNL     1      -4.539   1.270  -0.296  1.00  0.00     0.706 A 
HETATM    2  N2  UNL     1      -4.143   2.437  -0.800  1.00  0.00    -0.117 N 
ATOM      3  H2  UNL     1      -4.832   3.088  -1.176  1.00  0.00     0.207 HD
HETATM    4  N3  UNL     1      -2.881   2.749  -0.815  1.00  0.00    -0.212 N 
ATOM      5  H3  UNL     1      -2.613   3.652  -1.208  1.00  0.00     0.209 HD
HETATM    6  N4  UNL     1      -1.902   1.944  -0.339  1.00  0.00    -0.106 N 
HETATM    7  C8  UNL     1      -2.263   0.782   0.168  1.00  0.00     0.730 A 
HETATM    8  N9  UNL     1      -1.418  -0.026   0.667  1.00  0.00    -0.116 N 
ATOM      9  H9  UNL     1      -0.428   0.217   0.684  1.00  0.00     0.207 HD
HETATM   10  N12 UNL     1      -3.595   0.451   0.184  1.00  0.00    -0.018 N 
ATOM     11  H12 UNL     1      -3.875  -0.449   0.575  1.00  0.00     0.203 HD
ENDROOT
BRANCH   6  12
HETATM   12  C2  UNL     1      -0.536   2.373  -0.438  1.00  0.00     0.180 C 
BRANCH  12  13
HETATM   13  C3  UNL     1       0.103   2.118  -1.772  1.00  0.00     0.105 C 
BRANCH  13  14
HETATM   14  S1  UNL     1       0.282   0.423  -2.257  1.00  0.00    -0.092 SA
BRANCH  14  15
HETATM   15  C4  UNL     1       1.568  -0.427  -1.342  1.00  0.00     0.146 A 
HETATM   16  N5  UNL     1       2.362   0.056  -0.381  1.00  0.00    -0.330 N 
HETATM   17  C5  UNL     1       3.220  -0.900   0.076  1.00  0.00     0.141 A 
ATOM     18  H5  UNL     1       2.330   1.015  -0.035  1.00  0.00     0.168 HD
HETATM   19  C7  UNL     1       2.913  -2.038  -0.670  1.00  0.00     0.150 A 
HETATM   20  N7  UNL     1       3.597  -3.271  -0.492  1.00  0.00    -0.080 NA
HETATM   21  N8  UNL     1       1.913  -1.712  -1.512  1.00  0.00    -0.323 N 
ATOM     22  H8  UNL     1       1.481  -2.349  -2.181  1.00  0.00     0.169 HD
BRANCH  17  23
HETATM   23  C6  UNL     1       4.229  -0.777   1.103  1.00  0.00     0.284 C 
HETATM   24  N6  UNL     1       4.417   0.446   1.768  1.00  0.00    -0.056 NA
HETATM   25  O1  UNL     1       4.930  -1.763   1.394  1.00  0.00    -0.269 OA
ENDBRANCH  17  23
ENDBRANCH  14  15
ENDBRANCH  13  14
ENDBRANCH  12  13
ENDBRANCH   6  12
BRANCH   8  26
HETATM   26  N10 UNL     1      -1.845  -1.244   1.191  1.00  0.00    -0.235 N 
ATOM     27  H10 UNL     1      -2.066  -2.010   0.555  1.00  0.00     0.208 HD
BRANCH  26  28
HETATM   28  N11 UNL     1      -1.978  -1.440   2.570  1.00  0.00    -0.330 N 
ATOM     29 2H11 UNL     1      -1.753  -0.663   3.192  1.00  0.00     0.178 HD
ATOM     30 1H11 UNL     1      -2.291  -2.332   2.954  1.00  0.00     0.178 HD
ENDBRANCH  26  28
ENDBRANCH   8  26
BRANCH   1  31
HETATM   31  N1  UNL     1      -5.769   0.917  -0.260  1.00  0.00    -0.233 N 
ATOM     32  H12 UNL     1      -6.488   1.541  -0.626  1.00  0.00     0.174 HD
ATOM     33  H11 UNL     1      -6.072   0.023   0.126  1.00  0.00     0.174 HD
ENDBRANCH   1  31
TORSDOF 8
