REMARK  8 active torsions:
REMARK  status: ('A' for Active; 'I' for Inactive)
REMARK    1  A    between atoms: N1_1  and  C1_4 
REMARK    2  A    between atoms: C2_7  and  N3_8 
REMARK    3  A    between atoms: N6_16  and  C4_17 
REMARK    4  A    between atoms: C4_17  and  C5_18 
REMARK    5  A    between atoms: C4_17  and  C6_20 
REMARK    6  A    between atoms: C6_20  and  C7_21 
REMARK    7  A    between atoms: C6_20  and  N7_24 
REMARK    8  A    between atoms: C7_21  and  O1_22 
ROOT
HETATM    1  C1  UNL     1       3.297   0.247   1.057  1.00  0.00     0.679 A 
HETATM    2  N2  UNL     1       4.005  -0.880   0.880  1.00  0.00    -0.175 N 
ATOM      3  H2  UNL     1       4.943  -0.942   1.276  1.00  0.00     0.186 HD
HETATM    4  C2  UNL     1       3.514  -1.931   0.195  1.00  0.00     0.147 A 
HETATM    5  C3  UNL     1       2.249  -1.848  -0.340  1.00  0.00     0.140 A 
HETATM    6  N4  UNL     1       1.483  -2.683  -1.060  1.00  0.00    -0.279 N 
ATOM      7  H4  UNL     1       1.734  -3.624  -1.364  1.00  0.00     0.189 HD
HETATM    8  N5  UNL     1       0.350  -2.062  -1.300  1.00  0.00    -0.238 N 
ATOM      9  H5  UNL     1      -0.421  -2.468  -1.831  1.00  0.00     0.208 HD
HETATM   10  N6  UNL     1       0.326  -0.847  -0.771  1.00  0.00    -0.252 N 
HETATM   11  C8  UNL     1       1.518  -0.693  -0.160  1.00  0.00     0.171 A 
HETATM   12  N12 UNL     1       2.044   0.330   0.528  1.00  0.00    -0.173 N 
ATOM     13  H12 UNL     1       1.499   1.182   0.657  1.00  0.00     0.186 HD
ENDROOT
BRANCH  10  14
HETATM   14  C4  UNL     1      -0.794   0.085  -0.878  1.00  0.00     0.149 C 
BRANCH  14  15
HETATM   15  C5  UNL     1      -0.428   1.293  -1.682  1.00  0.00     0.115 C 
HETATM   16  S1  UNL     1       0.093   0.786  -3.357  1.00  0.00    -0.095 SA
ENDBRANCH  14  15
BRANCH  14  17
HETATM   17  C6  UNL     1      -1.502   0.329   0.405  1.00  0.00     0.175 C 
BRANCH  17  18
HETATM   18  C7  UNL     1      -2.116  -0.929   1.022  1.00  0.00     0.195 C 
BRANCH  18  19
HETATM   19  O1  UNL     1      -1.191  -1.944   1.178  1.00  0.00    -0.399 OA
ATOM     20  H1  UNL     1      -1.572  -2.725   1.561  1.00  0.00     0.209 HD
ENDBRANCH  18  19
ENDBRANCH  17  18
BRANCH  17  21
HETATM   21  N7  UNL     1      -2.568   1.297   0.335  1.00  0.00    -0.195 N 
HETATM   22  N8  UNL     1      -2.541   2.676   0.130  1.00  0.00    -0.214 N 
HETATM   23  N9  UNL     1      -3.594   3.198   0.636  1.00  0.00    -0.213 N 
ATOM     24  H8  UNL     1      -1.799   3.188  -0.348  1.00  0.00     0.211 HD
HETATM   25  N10 UNL     1      -4.350   2.161   1.194  1.00  0.00     0.010 NA
ATOM     26  H9  UNL     1      -3.838   4.188   0.633  1.00  0.00     0.207 HD
HETATM   27  N11 UNL     1      -3.955   1.014   0.469  1.00  0.00     0.013 NA
ENDBRANCH  17  21
ENDBRANCH  14  17
ENDBRANCH  10  14
BRANCH   4  28
HETATM   28  N3  UNL     1       4.217  -3.004   0.039  1.00  0.00    -0.383 N 
ATOM     29  H32 UNL     1       5.155  -3.066   0.436  1.00  0.00     0.157 HD
ATOM     30  H31 UNL     1       3.845  -3.800  -0.480  1.00  0.00     0.157 HD
ENDBRANCH   4  28
BRANCH   1  31
HETATM   31  N1  UNL     1       3.748   1.275   1.714  1.00  0.00    -0.234 N 
ATOM     32  H12 UNL     1       4.686   1.213   2.110  1.00  0.00     0.174 HD
ATOM     33  H11 UNL     1       3.210   2.131   1.848  1.00  0.00     0.174 HD
ENDBRANCH   1  31
TORSDOF 8
