REMARK  12 active torsions:
REMARK  status: ('A' for Active; 'I' for Inactive)
REMARK    1  A    between atoms: N3_4  and  C2_6 
REMARK    2  A    between atoms: C2_6  and  C3_7 
REMARK    3  A    between atoms: C3_7  and  C4_8 
REMARK    4  A    between atoms: C4_8  and  C5_9 
REMARK    5  A    between atoms: C5_9  and  N4_10 
REMARK    6  A    between atoms: C7_12  and  O1_13 
REMARK    7  A    between atoms: C8_15  and  C9_16 
REMARK    8  A    between atoms: C9_16  and  N5_17 
REMARK       I    between atoms: N5_17  and  C10_19 
REMARK    9  A    between atoms: C10_19  and  C11_21 
REMARK   10  A    between atoms: C11_21  and  C12_22 
REMARK   11  A    between atoms: C12_22  and  C13_23 
REMARK   12  A    between atoms: C13_23  and  N6_24 
ROOT
HETATM    1  N4  UNL     1       1.501  -1.510  -0.688  1.00  0.00    -0.382 N 
HETATM    2  C6  UNL     1       1.750  -1.161  -2.024  1.00  0.00     0.156 A 
HETATM    3  C7  UNL     1       0.497  -0.284  -1.954  1.00  0.00     0.160 A 
HETATM    4  C8  UNL     1       0.310  -0.820  -0.517  1.00  0.00     0.131 A 
ENDROOT
BRANCH   4   5
HETATM    5  C9  UNL     1       0.217   0.347   0.397  1.00  0.00     0.150 C 
BRANCH   5   6
HETATM    6  N5  UNL     1      -1.126   0.875   0.385  1.00  0.00    -0.359 N 
HETATM    7  C10 UNL     1      -2.288   0.168   0.798  1.00  0.00     0.217 C 
HETATM    8  O2  UNL     1      -2.175  -0.997   1.215  1.00  0.00    -0.274 OA
ATOM      9  H5  UNL     1      -1.251   1.832   0.054  1.00  0.00     0.162 HD
BRANCH   7  10
HETATM   10  C11 UNL     1      -3.588   0.821   0.725  1.00  0.00     0.104 C 
BRANCH  10  11
HETATM   11  C12 UNL     1      -4.777   0.003   1.084  1.00  0.00     0.029 C 
BRANCH  11  12
HETATM   12  C13 UNL     1      -4.910  -1.161   0.139  1.00  0.00     0.122 C 
BRANCH  12  13
HETATM   13  N6  UNL     1      -5.049  -0.637  -1.216  1.00  0.00    -0.367 N 
HETATM   14  C14 UNL     1      -6.199  -0.276  -1.654  1.00  0.00     0.196 C 
HETATM   15  N7  UNL     1      -6.372   0.237  -2.962  1.00  0.00    -0.067 NA
HETATM   16  N8  UNL     1      -7.325  -0.397  -0.802  1.00  0.00    -0.067 NA
ATOM     17  H6  UNL     1      -4.229  -0.558  -1.817  1.00  0.00     0.161 HD
ENDBRANCH  12  13
ENDBRANCH  11  12
ENDBRANCH  10  11
ENDBRANCH   7  10
ENDBRANCH   5   6
ENDBRANCH   4   5
BRANCH   1  18
HETATM   18  C5  UNL     1       2.461  -1.802   0.253  1.00  0.00     0.059 C 
BRANCH  18  19
HETATM   19  C4  UNL     1       3.367  -0.706   0.726  1.00  0.00     0.046 C 
BRANCH  19  20
HETATM   20  C3  UNL     1       4.364  -1.221   1.766  1.00  0.00     0.025 C 
BRANCH  20  21
HETATM   21  C2  UNL     1       5.270  -0.093   2.229  1.00  0.00     0.122 C 
BRANCH  21  22
HETATM   22  N3  UNL     1       5.965   0.395   1.072  1.00  0.00    -0.367 N 
HETATM   23  C1  UNL     1       5.821   1.615   0.693  1.00  0.00     0.196 C 
HETATM   24  N1  UNL     1       6.517   2.063  -0.445  1.00  0.00    -0.067 NA
HETATM   25  N2  UNL     1       4.975   2.484   1.412  1.00  0.00    -0.067 NA
ATOM     26  H3  UNL     1       6.577  -0.230   0.547  1.00  0.00     0.161 HD
ENDBRANCH  21  22
ENDBRANCH  20  21
ENDBRANCH  19  20
ENDBRANCH  18  19
ENDBRANCH   1  18
BRANCH   3  27
HETATM   27  O1  UNL     1      -0.529  -0.678  -2.776  1.00  0.00    -0.392 OA
ATOM     28  H1  UNL     1      -1.306  -0.134  -2.733  1.00  0.00     0.210 HD
ENDBRANCH   3  27
TORSDOF 12
