REMARK  12 active torsions:
REMARK  status: ('A' for Active; 'I' for Inactive)
REMARK    1  A    between atoms: C3_5  and  C4_6 
REMARK    2  A    between atoms: C3_5  and  N5_12 
REMARK    3  A    between atoms: C4_6  and  N2_7 
REMARK       I    between atoms: N5_12  and  C6_14 
REMARK    4  A    between atoms: N7_16  and  C7_18 
REMARK    5  A    between atoms: C7_18  and  C8_19 
REMARK    6  A    between atoms: C8_19  and  C9_20 
REMARK    7  A    between atoms: C9_20  and  N8_21 
REMARK    8  A    between atoms: C9_20  and  C10_25 
REMARK    9  A    between atoms: C10_25  and  C11_26 
REMARK   10  A    between atoms: C11_26  and  C12_27 
REMARK   11  A    between atoms: C12_27  and  N9_28 
REMARK   12  A    between atoms: N9_28  and  C13_30 
ROOT
HETATM    1  C1  UNL     1       3.896  -4.323   0.985  1.00  0.00     0.123 C 
HETATM    2  C2  UNL     1       4.223  -3.275   0.442  1.00  0.00    -0.074 C 
HETATM    3  N1  UNL     1       4.574  -2.070  -0.173  1.00  0.00    -0.314 N 
ATOM      4  H1  UNL     1       5.529  -1.930  -0.503  1.00  0.00     0.176 HD
HETATM    5  C3  UNL     1       3.706  -1.139  -0.326  1.00  0.00     0.108 C 
ENDROOT
BRANCH   5   6
HETATM    6  C4  UNL     1       4.082   0.141  -0.980  1.00  0.00     0.199 C 
BRANCH   6   7
HETATM    7  N2  UNL     1       3.886   1.281  -0.102  1.00  0.00    -0.360 N 
HETATM    8  C5  UNL     1       4.788   2.176   0.083  1.00  0.00     0.197 C 
HETATM    9  N3  UNL     1       6.042   2.087  -0.578  1.00  0.00    -0.067 NA
HETATM   10  N4  UNL     1       4.522   3.254   0.952  1.00  0.00    -0.067 NA
ATOM     11  H2  UNL     1       2.996   1.375   0.387  1.00  0.00     0.162 HD
ENDBRANCH   6   7
ENDBRANCH   5   6
BRANCH   5  12
HETATM   12  N5  UNL     1       2.387  -1.343   0.135  1.00  0.00    -0.318 N 
HETATM   13  C6  UNL     1       1.539  -0.233   0.373  1.00  0.00     0.189 C 
HETATM   14  N6  UNL     1       1.323   0.302   1.676  1.00  0.00    -0.064 NA
HETATM   15  N7  UNL     1       0.909   0.357  -0.607  1.00  0.00    -0.364 N 
ATOM     16  H7  UNL     1       1.040   0.002  -1.554  1.00  0.00     0.162 HD
ATOM     17  H5  UNL     1       2.044  -2.290   0.297  1.00  0.00     0.169 HD
BRANCH  15  18
HETATM   18  C7  UNL     1       0.046   1.475  -0.412  1.00  0.00     0.124 C 
BRANCH  18  19
HETATM   19  C8  UNL     1      -1.314   1.111   0.105  1.00  0.00     0.052 C 
BRANCH  19  20
HETATM   20  C9  UNL     1      -2.072   0.197  -0.794  1.00  0.00     0.185 C 
BRANCH  20  21
HETATM   21  N8  UNL     1      -1.462  -1.060  -1.054  1.00  0.00    -0.075 N 
ATOM     22  H83 UNL     1      -0.519  -0.920  -1.416  1.00  0.00     0.274 HD
ATOM     23  H82 UNL     1      -1.252  -1.533  -0.175  1.00  0.00     0.274 HD
ATOM     24  H81 UNL     1      -1.981  -1.686  -1.670  1.00  0.00     0.274 HD
ENDBRANCH  20  21
BRANCH  20  25
HETATM   25  C10 UNL     1      -3.409  -0.118  -0.036  1.00  0.00     0.038 C 
BRANCH  25  26
HETATM   26  C11 UNL     1      -4.166  -1.015  -0.906  1.00  0.00     0.046 C 
BRANCH  26  27
HETATM   27  C12 UNL     1      -5.446  -1.549  -0.422  1.00  0.00     0.063 C 
BRANCH  27  28
HETATM   28  N9  UNL     1      -6.483  -0.675  -0.056  1.00  0.00    -0.348 N 
ATOM     29  H9  UNL     1      -7.289  -0.678  -0.681  1.00  0.00     0.167 HD
BRANCH  28  30
HETATM   30  C13 UNL     1      -6.582   0.197   1.029  1.00  0.00     0.352 C 
HETATM   31  O1  UNL     1      -5.729   0.349   1.934  1.00  0.00    -0.283 OA
ENDBRANCH  28  30
ENDBRANCH  27  28
ENDBRANCH  26  27
ENDBRANCH  25  26
ENDBRANCH  20  25
ENDBRANCH  19  20
ENDBRANCH  18  19
ENDBRANCH  15  18
ENDBRANCH   5  12
TORSDOF 12
