REMARK  12 active torsions:
REMARK  status: ('A' for Active; 'I' for Inactive)
REMARK    1  A    between atoms: C1_2  and  N2_4 
REMARK    2  A    between atoms: N2_4  and  C2_6 
REMARK    3  A    between atoms: C2_6  and  C3_7 
REMARK    4  A    between atoms: C3_7  and  C4_8 
REMARK    5  A    between atoms: C4_8  and  C5_9 
REMARK    6  A    between atoms: C5_9  and  N3_10 
REMARK       I    between atoms: N3_10  and  C6_12 
REMARK    7  A    between atoms: C6_12  and  C7_14 
REMARK    8  A    between atoms: C7_14  and  N4_15 
REMARK    9  A    between atoms: N4_15  and  C8_16 
REMARK   10  A    between atoms: C8_16  and  C9_17 
REMARK   11  A    between atoms: C9_17  and  C10_18 
REMARK   12  A    between atoms: C10_18  and  N5_19 
ROOT
HETATM    1  N3  UNL     1       0.891  -1.659  -0.631  1.00  0.00    -0.360 N 
ATOM      2  H3  UNL     1       0.233  -2.208  -0.078  1.00  0.00     0.162 HD
HETATM    3  C6  UNL     1       0.378  -0.846  -1.668  1.00  0.00     0.243 C 
HETATM    4  O1  UNL     1       1.208  -0.173  -2.346  1.00  0.00    -0.272 OA
ENDROOT
BRANCH   3   5
HETATM    5  C7  UNL     1      -1.029  -0.714  -2.024  1.00  0.00     0.339 C 
BRANCH   5   6
HETATM    6  N4  UNL     1      -1.954  -1.492  -1.234  1.00  0.00    -0.056 N 
HETATM    7  C12 UNL     1      -3.018  -2.079  -1.991  1.00  0.00     0.266 A 
HETATM    8  C13 UNL     1      -1.952  -2.945  -1.400  1.00  0.00     0.266 A 
BRANCH   6   9
HETATM    9  C8  UNL     1      -2.144  -1.031   0.101  1.00  0.00     0.239 C 
BRANCH   9  10
HETATM   10  C9  UNL     1      -3.486  -0.415   0.371  1.00  0.00     0.048 C 
BRANCH  10  11
HETATM   11  C10 UNL     1      -3.753   0.792  -0.503  1.00  0.00     0.123 C 
BRANCH  11  12
HETATM   12  N5  UNL     1      -5.049   1.324  -0.189  1.00  0.00    -0.367 N 
HETATM   13  C11 UNL     1      -5.360   1.963   0.867  1.00  0.00     0.196 C 
HETATM   14  N6  UNL     1      -4.507   2.275   1.931  1.00  0.00    -0.067 NA
HETATM   15  N7  UNL     1      -6.729   2.405   0.969  1.00  0.00    -0.067 NA
ATOM     16  H5  UNL     1      -5.789   1.176  -0.875  1.00  0.00     0.161 HD
ENDBRANCH  11  12
ENDBRANCH  10  11
ENDBRANCH   9  10
ENDBRANCH   6   9
ENDBRANCH   5   6
ENDBRANCH   3   5
BRANCH   1  17
HETATM   17  C5  UNL     1       2.288  -1.753  -0.314  1.00  0.00     0.122 C 
BRANCH  17  18
HETATM   18  C4  UNL     1       2.869  -0.430   0.108  1.00  0.00     0.021 C 
BRANCH  18  19
HETATM   19  C3  UNL     1       4.357  -0.634   0.434  1.00  0.00     0.021 C 
BRANCH  19  20
HETATM   20  C2  UNL     1       4.892   0.701   0.847  1.00  0.00     0.121 C 
BRANCH  20  21
HETATM   21  N2  UNL     1       6.290   0.660   1.184  1.00  0.00    -0.369 N 
ATOM     22  H2  UNL     1       6.815  -0.213   1.130  1.00  0.00     0.161 HD
BRANCH  21  23
HETATM   23  C1  UNL     1       6.922   1.866   1.595  1.00  0.00     0.180 C 
HETATM   24  N1  UNL     1       6.208   3.086   1.675  1.00  0.00    -0.070 NA
HETATM   25  S1  UNL     1       8.515   1.846   1.985  1.00  0.00    -0.044 SA
ENDBRANCH  21  23
ENDBRANCH  20  21
ENDBRANCH  19  20
ENDBRANCH  18  19
ENDBRANCH  17  18
ENDBRANCH   1  17
TORSDOF 12
