REMARK  12 active torsions:
REMARK  status: ('A' for Active; 'I' for Inactive)
REMARK    1  A    between atoms: N1_2  and  C3_4 
REMARK    2  A    between atoms: N1_2  and  C7_12 
REMARK    3  A    between atoms: C3_4  and  C4_5 
REMARK    4  A    between atoms: C4_5  and  C5_6 
REMARK    5  A    between atoms: C5_6  and  N2_7 
REMARK    6  A    between atoms: C7_12  and  C8_13 
REMARK    7  A    between atoms: C10_15  and  N5_16 
REMARK    8  A    between atoms: C11_20  and  C12_21 
REMARK    9  A    between atoms: C12_21  and  C13_22 
REMARK       I    between atoms: C13_22  and  N6_24 
REMARK   10  A    between atoms: N6_24  and  C14_26 
REMARK   11  A    between atoms: C14_26  and  C15_27 
REMARK   12  A    between atoms: C15_27  and  N7_28 
ROOT
HETATM    1  C8  UNL     1       0.326  -1.060   1.074  1.00  0.00     0.150 C 
HETATM    2  C9  UNL     1       0.503   0.275   1.678  1.00  0.00     0.069 C 
HETATM    3  C10 UNL     1      -0.957   0.795   1.716  1.00  0.00     0.218 C 
HETATM    4  C11 UNL     1      -1.676  -0.447   1.462  1.00  0.00     0.180 C 
HETATM    5  O2  UNL     1      -0.903  -1.007   0.406  1.00  0.00    -0.373 OA
ENDROOT
BRANCH   1   6
HETATM    6  C7  UNL     1       1.419  -1.671   0.326  1.00  0.00     0.268 C 
BRANCH   6   7
HETATM    7  N1  UNL     1       1.846  -1.139  -0.901  1.00  0.00    -0.072 N 
HETATM    8  C1  UNL     1       2.303  -2.283  -1.730  1.00  0.00     0.272 C 
HETATM    9  C2  UNL     1       0.833  -0.518  -1.719  1.00  0.00     0.272 C 
BRANCH   7  10
HETATM   10  C3  UNL     1       3.011  -0.328  -0.719  1.00  0.00     0.238 C 
BRANCH  10  11
HETATM   11  C4  UNL     1       2.979   0.987  -1.427  1.00  0.00     0.047 C 
BRANCH  11  12
HETATM   12  C5  UNL     1       4.251   1.767  -1.175  1.00  0.00     0.123 C 
BRANCH  12  13
HETATM   13  N2  UNL     1       4.453   2.039   0.225  1.00  0.00    -0.367 N 
HETATM   14  C6  UNL     1       5.475   1.670   0.894  1.00  0.00     0.196 C 
HETATM   15  N3  UNL     1       6.566   0.936   0.361  1.00  0.00    -0.067 NA
HETATM   16  N4  UNL     1       5.515   2.024   2.280  1.00  0.00    -0.067 NA
ATOM     17  H2  UNL     1       3.729   2.563   0.716  1.00  0.00     0.161 HD
ENDBRANCH  12  13
ENDBRANCH  11  12
ENDBRANCH  10  11
ENDBRANCH   7  10
ENDBRANCH   6   7
ENDBRANCH   1   6
BRANCH   3  18
HETATM   18  N5  UNL     1      -0.996   1.872   0.828  1.00  0.00    -0.072 N 
ATOM     19  H53 UNL     1      -0.300   2.591   1.026  1.00  0.00     0.274 HD
ATOM     20  H52 UNL     1      -0.668   1.641  -0.110  1.00  0.00     0.274 HD
ATOM     21  H51 UNL     1      -1.957   2.214   0.853  1.00  0.00     0.274 HD
ENDBRANCH   3  18
BRANCH   4  22
HETATM   22  C12 UNL     1      -3.102  -0.556   1.271  1.00  0.00     0.080 C 
BRANCH  22  23
HETATM   23  C13 UNL     1      -3.804   0.103   0.199  1.00  0.00     0.239 C 
HETATM   24  O1  UNL     1      -3.239   0.761  -0.686  1.00  0.00    -0.269 OA
HETATM   25  N6  UNL     1      -5.209   0.024   0.107  1.00  0.00    -0.356 N 
ATOM     26  H6  UNL     1      -5.706  -0.510   0.820  1.00  0.00     0.162 HD
BRANCH  25  27
HETATM   27  C14 UNL     1      -5.988   0.652  -0.933  1.00  0.00     0.150 C 
BRANCH  27  28
HETATM   28  C15 UNL     1      -7.461   0.370  -0.734  1.00  0.00     0.249 C 
BRANCH  28  29
HETATM   29  N7  UNL     1      -7.759  -1.038  -0.763  1.00  0.00    -0.078 N 
ATOM     30  H73 UNL     1      -7.415  -1.469  -1.621  1.00  0.00     0.274 HD
ATOM     31  H72 UNL     1      -7.192  -1.548  -0.085  1.00  0.00     0.274 HD
ATOM     32  H71 UNL     1      -8.752  -1.228  -0.629  1.00  0.00     0.274 HD
ENDBRANCH  28  29
ENDBRANCH  27  28
ENDBRANCH  25  27
ENDBRANCH  22  23
ENDBRANCH   4  22
TORSDOF 12
