REMARK  14 active torsions:
REMARK  status: ('A' for Active; 'I' for Inactive)
REMARK    1  A    between atoms: N1_2  and  C2_3 
REMARK    2  A    between atoms: C2_3  and  O1_4 
REMARK    3  A    between atoms: O1_4  and  C3_5 
REMARK    4  A    between atoms: C3_5  and  C4_6 
REMARK    5  A    between atoms: C4_6  and  N2_7 
REMARK    6  A    between atoms: C6_12  and  N3_13 
REMARK       I    between atoms: N3_13  and  C7_15 
REMARK    7  A    between atoms: C7_15  and  C8_17 
REMARK    8  A    between atoms: C8_17  and  C9_18 
REMARK    9  A    between atoms: C9_18  and  N4_19 
REMARK   10  A    between atoms: N4_19  and  C10_21 
REMARK   11  A    between atoms: C10_21  and  N5_23 
REMARK   12  A    between atoms: N5_23  and  C11_25 
REMARK   13  A    between atoms: C11_25  and  C12_26 
REMARK   14  A    between atoms: C12_26  and  N6_27 
ROOT
HETATM    1  N3  UNL     1       0.301  -0.896   0.185  1.00  0.00    -0.353 N 
ATOM      2  H3  UNL     1       0.023  -1.408   1.022  1.00  0.00     0.163 HD
HETATM    3  C7  UNL     1      -0.671  -0.146  -0.555  1.00  0.00     0.219 C 
HETATM    4  O2  UNL     1      -0.358   0.500  -1.589  1.00  0.00    -0.274 OA
ENDROOT
BRANCH   3   5
HETATM    5  C8  UNL     1      -2.091  -0.105  -0.123  1.00  0.00     0.122 C 
BRANCH   5   6
HETATM    6  C9  UNL     1      -2.892   0.829  -1.008  1.00  0.00     0.131 C 
BRANCH   6   7
HETATM    7  N4  UNL     1      -4.277   0.867  -0.603  1.00  0.00    -0.367 N 
ATOM      8  H4  UNL     1      -4.597   0.286   0.172  1.00  0.00     0.161 HD
BRANCH   7   9
HETATM    9  C10 UNL     1      -5.185   1.703  -1.274  1.00  0.00     0.167 C 
HETATM   10  S1  UNL     1      -4.628   2.644  -2.514  1.00  0.00    -0.041 SA
BRANCH   9  11
HETATM   11  N5  UNL     1      -6.570   1.804  -0.964  1.00  0.00    -0.366 N 
ATOM     12  H5  UNL     1      -7.163   2.453  -1.481  1.00  0.00     0.161 HD
BRANCH  11  13
HETATM   13  C11 UNL     1      -7.134   0.989   0.080  1.00  0.00     0.149 C 
BRANCH  13  14
HETATM   14  C12 UNL     1      -7.262  -0.461  -0.266  1.00  0.00     0.249 C 
BRANCH  14  15
HETATM   15  N6  UNL     1      -7.825  -1.154   0.904  1.00  0.00    -0.078 N 
ATOM     16  H63 UNL     1      -7.286  -0.996   1.755  1.00  0.00     0.274 HD
ATOM     17  H62 UNL     1      -8.703  -0.744   1.223  1.00  0.00     0.274 HD
ATOM     18  H61 UNL     1      -7.912  -2.143   0.668  1.00  0.00     0.274 HD
ENDBRANCH  14  15
ENDBRANCH  13  14
ENDBRANCH  11  13
ENDBRANCH   9  11
ENDBRANCH   7   9
ENDBRANCH   6   7
ENDBRANCH   5   6
ENDBRANCH   3   5
BRANCH   1  19
HETATM   19  C6  UNL     1       1.653  -0.923  -0.252  1.00  0.00     0.136 C 
HETATM   20  C5  UNL     1       2.560  -0.400   0.857  1.00  0.00     0.266 C 
HETATM   21  N1  UNL     1       3.519  -1.467   0.607  1.00  0.00    -0.046 N 
HETATM   22  C1  UNL     1       3.958  -2.167   1.793  1.00  0.00     0.275 C 
HETATM   23  C13 UNL     1       2.436  -2.186  -0.044  1.00  0.00     0.266 C 
BRANCH  21  24
HETATM   24  C2  UNL     1       4.545  -0.992  -0.279  1.00  0.00     0.404 C 
BRANCH  24  25
HETATM   25  O1  UNL     1       5.239   0.090   0.228  1.00  0.00    -0.362 OA
BRANCH  25  26
HETATM   26  C3  UNL     1       6.226   0.533  -0.642  1.00  0.00     0.197 C 
BRANCH  26  27
HETATM   27  C4  UNL     1       6.977   1.721  -0.070  1.00  0.00     0.255 C 
BRANCH  27  28
HETATM   28  N2  UNL     1       6.074   2.829   0.176  1.00  0.00    -0.077 N 
ATOM     29  H23 UNL     1       5.549   3.081  -0.661  1.00  0.00     0.274 HD
ATOM     30  H22 UNL     1       5.292   2.554   0.771  1.00  0.00     0.274 HD
ATOM     31  H21 UNL     1       6.579   3.628   0.560  1.00  0.00     0.274 HD
ENDBRANCH  27  28
ENDBRANCH  26  27
ENDBRANCH  25  26
ENDBRANCH  24  25
ENDBRANCH  21  24
ENDBRANCH   1  19
TORSDOF 14
