REMARK  13 active torsions:
REMARK  status: ('A' for Active; 'I' for Inactive)
REMARK    1  A    between atoms: N1_1  and  C1_5 
REMARK    2  A    between atoms: C1_5  and  C2_6 
REMARK    3  A    between atoms: C2_6  and  C3_7 
REMARK    4  A    between atoms: C3_7  and  N2_8 
REMARK    5  A    between atoms: N2_8  and  C4_10 
REMARK    6  A    between atoms: C4_10  and  C5_11 
REMARK    7  A    between atoms: C5_11  and  C6_12 
REMARK    8  A    between atoms: C6_12  and  N3_13 
REMARK       I    between atoms: C7_15  and  N5_17 
REMARK    9  A    between atoms: N5_17  and  C8_19 
REMARK   10  A    between atoms: C8_19  and  C9_20 
REMARK   11  A    between atoms: C9_20  and  N6_21 
REMARK   12  A    between atoms: N6_21  and  C10_22 
REMARK   13  A    between atoms: C10_22  and  C11_23 
ROOT
HETATM    1  N3  UNL     1       0.657   2.040   0.178  1.00  0.00    -0.364 N 
ATOM      2  H3  UNL     1       0.350   2.393  -0.728  1.00  0.00     0.162 HD
HETATM    3  C7  UNL     1      -0.186   1.406   0.922  1.00  0.00     0.184 C 
HETATM    4  N4  UNL     1       0.169   0.881   2.212  1.00  0.00    -0.064 NA
HETATM    5  N5  UNL     1      -1.536   1.182   0.514  1.00  0.00    -0.363 N 
ATOM      6  H5  UNL     1      -2.283   1.830   0.764  1.00  0.00     0.162 HD
ENDROOT
BRANCH   1   7
HETATM    7  C6  UNL     1       2.025   2.264   0.593  1.00  0.00     0.127 C 
BRANCH   7   8
HETATM    8  C5  UNL     1       2.866   0.988   0.411  1.00  0.00     0.064 C 
BRANCH   8   9
HETATM    9  C4  UNL     1       2.864   0.572  -1.033  1.00  0.00     0.061 C 
BRANCH   9  10
HETATM   10  N2  UNL     1       3.542  -0.571  -1.410  1.00  0.00    -0.382 N 
ATOM     11  H2  UNL     1       2.968  -1.368  -1.685  1.00  0.00     0.163 HD
BRANCH  10  12
HETATM   12  C3  UNL     1       4.908  -0.756  -1.456  1.00  0.00     0.061 C 
BRANCH  12  13
HETATM   13  C2  UNL     1       5.715  -0.820  -0.193  1.00  0.00     0.072 C 
BRANCH  13  14
HETATM   14  C1  UNL     1       7.175  -1.077  -0.641  1.00  0.00     0.234 C 
BRANCH  14  15
HETATM   15  N1  UNL     1       8.018  -1.154   0.513  1.00  0.00    -0.079 N 
ATOM     16  H13 UNL     1       7.936  -0.329   1.107  1.00  0.00     0.274 HD
ATOM     17  H12 UNL     1       7.692  -1.849   1.184  1.00  0.00     0.274 HD
ATOM     18  H11 UNL     1       8.980  -1.323   0.218  1.00  0.00     0.274 HD
ENDBRANCH  14  15
ENDBRANCH  13  14
ENDBRANCH  12  13
ENDBRANCH  10  12
ENDBRANCH   9  10
ENDBRANCH   8   9
ENDBRANCH   7   8
ENDBRANCH   1   7
BRANCH   5  19
HETATM   19  C8  UNL     1      -1.794   0.013  -0.258  1.00  0.00     0.150 C 
BRANCH  19  20
HETATM   20  C9  UNL     1      -3.197  -0.214  -0.685  1.00  0.00     0.257 C 
BRANCH  20  21
HETATM   21  N6  UNL     1      -4.175  -0.356   0.343  1.00  0.00    -0.058 N 
HETATM   22  C12 UNL     1      -3.729  -0.813   1.630  1.00  0.00     0.239 C 
HETATM   23  C13 UNL     1      -3.865  -2.243   1.177  1.00  0.00     0.056 C 
HETATM   24  C14 UNL     1      -4.841  -1.664   0.178  1.00  0.00     0.239 C 
BRANCH  21  25
HETATM   25  C10 UNL     1      -5.131   0.737   0.420  1.00  0.00     0.336 C 
BRANCH  25  26
HETATM   26  C11 UNL     1      -6.081   0.733  -0.700  1.00  0.00     0.257 C 
HETATM   27  N7  UNL     1      -7.083   1.709  -0.801  1.00  0.00    -0.061 NA
HETATM   28  O1  UNL     1      -6.003  -0.149  -1.579  1.00  0.00    -0.275 OA
ENDBRANCH  25  26
ENDBRANCH  21  25
ENDBRANCH  20  21
ENDBRANCH  19  20
ENDBRANCH   5  19
TORSDOF 13
