REMARK  15 active torsions:
REMARK  status: ('A' for Active; 'I' for Inactive)
REMARK    1  A    between atoms: N1_1  and  N2_4 
REMARK    2  A    between atoms: N2_4  and  C1_5 
REMARK    3  A    between atoms: C1_5  and  C2_6 
REMARK    4  A    between atoms: C3_7  and  C4_8 
REMARK    5  A    between atoms: C4_8  and  N3_9 
REMARK    6  A    between atoms: N3_9  and  C5_11 
REMARK    7  A    between atoms: C6_12  and  C14_31 
REMARK    8  A    between atoms: C7_16  and  N5_17 
REMARK    9  A    between atoms: N5_17  and  C8_18 
REMARK   10  A    between atoms: C8_18  and  C9_19 
REMARK   11  A    between atoms: C9_19  and  C10_20 
REMARK   12  A    between atoms: C10_20  and  N6_21 
REMARK   13  A    between atoms: N6_21  and  C11_23 
REMARK   14  A    between atoms: C12_25  and  O2_26 
REMARK   15  A    between atoms: C13_28  and  O3_29 
ROOT
HETATM    1  C5  UNL     1       0.523  -0.900  -1.007  1.00  0.00     0.173 C 
HETATM    2  C6  UNL     1       0.397  -1.615   0.266  1.00  0.00     0.248 C 
HETATM    3  N4  UNL     1       0.266  -0.320   0.893  1.00  0.00    -0.035 N 
ATOM      4  H41 UNL     1       1.066   0.250   1.169  1.00  0.00     0.280 HD
ATOM      5  H42 UNL     1      -0.068  -0.194   1.848  1.00  0.00     0.280 HD
HETATM    6  C7  UNL     1      -0.560  -0.030  -0.296  1.00  0.00     0.415 C 
ENDROOT
BRANCH   1   7
HETATM    7  N3  UNL     1       1.582  -0.034  -1.300  1.00  0.00    -0.388 N 
ATOM      8  H3  UNL     1       1.357   0.943  -1.489  1.00  0.00     0.159 HD
BRANCH   7   9
HETATM    9  C4  UNL     1       2.917  -0.409  -1.352  1.00  0.00     0.083 C 
BRANCH   9  10
HETATM   10  C3  UNL     1       3.638  -0.719  -0.115  1.00  0.00     0.014 C 
HETATM   11  C2  UNL     1       4.705  -0.106   0.357  1.00  0.00    -0.008 C 
BRANCH  11  12
HETATM   12  C1  UNL     1       5.436   1.024  -0.215  1.00  0.00     0.161 C 
BRANCH  12  13
HETATM   13  N2  UNL     1       5.392   2.136   0.751  1.00  0.00    -0.145 NA
BRANCH  13  14
HETATM   14  N1  UNL     1       6.642   2.792   0.685  1.00  0.00    -0.348 N 
ATOM     15  H12 UNL     1       7.419   2.533   0.077  1.00  0.00     0.172 HD
ATOM     16  H11 UNL     1       6.612   3.562   1.354  1.00  0.00     0.172 HD
ENDBRANCH  13  14
ENDBRANCH  12  13
ENDBRANCH  11  12
ENDBRANCH   9  10
ENDBRANCH   7   9
ENDBRANCH   1   7
BRANCH   2  17
HETATM   17  C14 UNL     1      -1.043  -2.082   0.348  1.00  0.00     0.261 C 
HETATM   18  N5  UNL     1      -1.699  -0.817  -0.095  1.00  0.00     0.001 N 
HETATM   19  C12 UNL     1      -2.315  -1.561  -1.121  1.00  0.00     0.357 C 
HETATM   20  C13 UNL     1      -1.540  -2.828  -0.839  1.00  0.00     0.208 C 
BRANCH  18  21
HETATM   21  C8  UNL     1      -2.571  -0.284   0.903  1.00  0.00     0.245 C 
BRANCH  21  22
HETATM   22  C9  UNL     1      -3.683   0.530   0.324  1.00  0.00     0.048 C 
BRANCH  22  23
HETATM   23  C10 UNL     1      -3.278   1.728  -0.465  1.00  0.00     0.123 C 
BRANCH  23  24
HETATM   24  N6  UNL     1      -4.456   2.428  -0.922  1.00  0.00    -0.368 N 
ATOM     25  H6  UNL     1      -4.587   2.512  -1.930  1.00  0.00     0.161 HD
BRANCH  24  26
HETATM   26  C11 UNL     1      -5.430   2.999  -0.103  1.00  0.00     0.348 C 
HETATM   27  O1  UNL     1      -5.426   2.993   1.164  1.00  0.00    -0.284 OA
ENDBRANCH  24  26
ENDBRANCH  23  24
ENDBRANCH  22  23
ENDBRANCH  21  22
ENDBRANCH  18  21
BRANCH  19  28
HETATM   28  O2  UNL     1      -2.275  -1.123  -2.423  1.00  0.00    -0.367 OA
ATOM     29  H2  UNL     1      -2.690  -1.625  -3.115  1.00  0.00     0.212 HD
ENDBRANCH  19  28
BRANCH  20  30
HETATM   30  O3  UNL     1      -2.305  -3.919  -0.409  1.00  0.00    -0.389 OA
ATOM     31  H3  UNL     1      -1.818  -4.715  -0.232  1.00  0.00     0.210 HD
ENDBRANCH  20  30
ENDBRANCH   2  17
TORSDOF 15
