REMARK  11 active torsions:
REMARK  status: ('A' for Active; 'I' for Inactive)
REMARK    1  A    between atoms: C1_4  and  N2_5 
REMARK    2  A    between atoms: N2_5  and  C2_7 
REMARK    3  A    between atoms: C2_7  and  C3_8 
REMARK    4  A    between atoms: C3_8  and  C4_9 
REMARK    5  A    between atoms: C4_9  and  N3_10 
REMARK    6  A    between atoms: N3_10  and  C5_13 
REMARK    7  A    between atoms: C5_13  and  C6_14 
REMARK       I    between atoms: C6_14  and  N4_16 
REMARK    8  A    between atoms: N4_16  and  C7_18 
REMARK    9  A    between atoms: N5_21  and  C10_22 
REMARK   10  A    between atoms: C10_22  and  C11_23 
REMARK   11  A    between atoms: C11_23  and  N6_24 
ROOT
HETATM    1  C6  UNL     1       1.864  -1.147  -2.255  1.00  0.00     0.243 C 
HETATM    2  O1  UNL     1       1.490  -1.969  -3.149  1.00  0.00    -0.272 OA
HETATM    3  N4  UNL     1       0.909  -0.670  -1.372  1.00  0.00    -0.355 N 
ATOM      4  H4  UNL     1       1.201  -0.002  -0.659  1.00  0.00     0.162 HD
ENDROOT
BRANCH   1   5
HETATM    5  C5  UNL     1       3.269  -0.763  -2.227  1.00  0.00     0.334 C 
BRANCH   5   6
HETATM    6  N3  UNL     1       3.653   0.091  -1.141  1.00  0.00    -0.067 N 
ATOM      7  H32 UNL     1       3.034   0.900  -1.080  1.00  0.00     0.277 HD
ATOM      8  H31 UNL     1       4.532   0.566  -1.347  1.00  0.00     0.277 HD
BRANCH   6   9
HETATM    9  C4  UNL     1       3.726  -0.589   0.119  1.00  0.00     0.234 C 
BRANCH   9  10
HETATM   10  C3  UNL     1       4.110   0.251   1.293  1.00  0.00     0.047 C 
BRANCH  10  11
HETATM   11  C2  UNL     1       5.459   0.885   1.239  1.00  0.00     0.122 C 
BRANCH  11  12
HETATM   12  N2  UNL     1       5.644   1.824   0.171  1.00  0.00    -0.386 N 
ATOM     13  H2  UNL     1       4.883   2.065  -0.464  1.00  0.00     0.160 HD
BRANCH  12  14
HETATM   14  C1  UNL     1       6.955   2.413   0.035  1.00  0.00     0.168 C 
HETATM   15  N1  UNL     1       7.697   2.511   1.068  1.00  0.00    -0.396 N 
ATOM     16  H12 UNL     1       7.355   2.174   1.968  1.00  0.00     0.156 HD
ATOM     17  H11 UNL     1       8.623   2.927   0.972  1.00  0.00     0.156 HD
ENDBRANCH  12  14
ENDBRANCH  11  12
ENDBRANCH  10  11
ENDBRANCH   9  10
ENDBRANCH   6   9
ENDBRANCH   5   6
ENDBRANCH   1   5
BRANCH   3  18
HETATM   18  C7  UNL     1      -0.496  -1.074  -1.409  1.00  0.00     0.087 C 
HETATM   19  C8  UNL     1      -0.957  -1.702  -0.134  1.00  0.00     0.055 C 
HETATM   20  C9  UNL     1      -1.865  -0.813   0.676  1.00  0.00     0.274 C 
HETATM   21  N5  UNL     1      -3.025  -0.379  -0.054  1.00  0.00     0.090 N 
HETATM   22  C13 UNL     1      -2.780  -0.195  -1.464  1.00  0.00     0.274 C 
HETATM   23  C14 UNL     1      -1.336   0.122  -1.771  1.00  0.00     0.055 C 
BRANCH  21  24
HETATM   24  C10 UNL     1      -3.614   0.786   0.557  1.00  0.00     0.292 C 
BRANCH  24  25
HETATM   25  C11 UNL     1      -4.196   0.381   1.885  1.00  0.00     0.152 C 
BRANCH  25  26
HETATM   26  N6  UNL     1      -5.197  -0.639   1.662  1.00  0.00    -0.365 N 
HETATM   27  C12 UNL     1      -6.349  -0.424   1.163  1.00  0.00     0.197 C 
HETATM   28  N7  UNL     1      -7.241  -1.515   0.997  1.00  0.00    -0.067 NA
HETATM   29  N8  UNL     1      -6.782   0.854   0.766  1.00  0.00    -0.067 NA
ATOM     30  H6  UNL     1      -4.964  -1.597   1.923  1.00  0.00     0.161 HD
ENDBRANCH  25  26
ENDBRANCH  24  25
ENDBRANCH  21  24
ENDBRANCH   3  18
TORSDOF 11
