REMARK  11 active torsions:
REMARK  status: ('A' for Active; 'I' for Inactive)
REMARK    1  A    between atoms: C2_2  and  C3_3 
REMARK    2  A    between atoms: C3_3  and  N1_4 
REMARK    3  A    between atoms: N1_4  and  C4_5 
REMARK    4  A    between atoms: N1_4  and  C10_20 
REMARK    5  A    between atoms: C4_5  and  C5_6 
REMARK    6  A    between atoms: C5_6  and  C6_7 
REMARK    7  A    between atoms: C6_7  and  N2_8 
REMARK    8  A    between atoms: N2_8  and  C7_10 
REMARK    9  A    between atoms: C7_10  and  C8_14 
REMARK   10  A    between atoms: C8_14  and  N4_15 
REMARK   11  A    between atoms: C10_20  and  C11_21 
ROOT
HETATM    1  C4  UNL     1      -0.615   0.295  -0.279  1.00  0.00     0.123 C 
ENDROOT
BRANCH   1   2
HETATM    2  N1  UNL     1      -1.719  -0.364   0.308  1.00  0.00    -0.389 N 
BRANCH   2   3
HETATM    3  C3  UNL     1      -1.396  -1.664   0.865  1.00  0.00     0.148 C 
BRANCH   3   4
HETATM    4  C2  UNL     1      -2.582  -2.309   1.486  1.00  0.00    -0.018 C 
HETATM    5  C1  UNL     1      -3.006  -3.478   1.031  1.00  0.00     0.008 C 
ENDBRANCH   3   4
ENDBRANCH   2   3
BRANCH   2   6
HETATM    6  C10 UNL     1      -2.635   0.377   1.079  1.00  0.00     0.073 C 
BRANCH   6   7
HETATM    7  C11 UNL     1      -2.930   1.709   0.435  1.00  0.00     0.121 C 
HETATM    8  C12 UNL     1      -3.502   1.551  -0.937  1.00  0.00     0.141 C 
HETATM    9  N7  UNL     1      -4.864   1.987  -0.904  1.00  0.00    -0.353 N 
HETATM   10  C13 UNL     1      -5.209   2.377   0.398  1.00  0.00     0.288 C 
ATOM     11  H7  UNL     1      -5.491   2.011  -1.708  1.00  0.00     0.162 HD
HETATM   12  O1  UNL     1      -6.370   2.720   0.807  1.00  0.00    -0.264 OA
HETATM   13  C14 UNL     1      -4.041   2.341   1.253  1.00  0.00     0.227 C 
HETATM   14  O2  UNL     1      -3.923   2.740   2.438  1.00  0.00    -0.286 OA
ENDBRANCH   6   7
ENDBRANCH   2   6
ENDBRANCH   1   2
BRANCH   1  15
HETATM   15  C5  UNL     1      -0.104  -0.387  -1.548  1.00  0.00     0.039 C 
BRANCH  15  16
HETATM   16  C6  UNL     1       1.071   0.438  -2.067  1.00  0.00     0.122 C 
BRANCH  16  17
HETATM   17  N2  UNL     1       2.079   0.449  -1.039  1.00  0.00    -0.379 N 
ATOM     18  H2  UNL     1       2.275   1.328  -0.559  1.00  0.00     0.160 HD
BRANCH  17  19
HETATM   19  C7  UNL     1       2.813  -0.708  -0.662  1.00  0.00     0.088 C 
HETATM   20  N3  UNL     1       2.874  -1.769  -1.415  1.00  0.00    -0.388 N 
ATOM     21  H32 UNL     1       2.389  -1.796  -2.312  1.00  0.00     0.157 HD
ATOM     22  H31 UNL     1       3.401  -2.599  -1.144  1.00  0.00     0.157 HD
BRANCH  19  23
HETATM   23  C8  UNL     1       3.524  -0.669   0.654  1.00  0.00     0.197 C 
BRANCH  23  24
HETATM   24  N4  UNL     1       4.429   0.449   0.595  1.00  0.00    -0.360 N 
HETATM   25  C9  UNL     1       5.660   0.270   0.329  1.00  0.00     0.197 C 
HETATM   26  N5  UNL     1       6.167  -1.027   0.086  1.00  0.00    -0.067 NA
HETATM   27  N6  UNL     1       6.498   1.405   0.284  1.00  0.00    -0.067 NA
ATOM     28  H4  UNL     1       4.080   1.392   0.768  1.00  0.00     0.162 HD
ENDBRANCH  23  24
ENDBRANCH  19  23
ENDBRANCH  17  19
ENDBRANCH  16  17
ENDBRANCH  15  16
ENDBRANCH   1  15
TORSDOF 11
