REMARK  2 active torsions:
REMARK  status: ('A' for Active; 'I' for Inactive)
REMARK    1  A    between atoms: C1_2  and  C2_3 
REMARK    2  A    between atoms: C6_7  and  N1_8 
ROOT
HETATM    1  C2  UNL     1       1.772   0.759   0.015  1.00  0.00     0.240 C 
HETATM    2  C3  UNL     1       0.649   0.542  -1.023  1.00  0.00     0.062 A 
HETATM    3  C4  UNL     1       0.069   1.424   0.115  1.00  0.00     0.237 A 
HETATM    4  C5  UNL     1      -0.754   0.965  -0.898  1.00  0.00     0.058 A 
HETATM    5  C6  UNL     1      -1.816   0.073  -0.229  1.00  0.00     0.096 C 
HETATM    6  C7  UNL     1      -2.050  -1.177  -1.056  1.00  0.00     0.199 C 
HETATM    7  O1  UNL     1      -1.262  -1.876  -0.140  1.00  0.00    -0.380 OA
HETATM    8  C8  UNL     1      -1.268  -0.817   0.799  1.00  0.00     0.177 C 
HETATM    9  C9  UNL     1       0.107  -0.581   1.333  1.00  0.00     0.307 C 
HETATM   10  N2  UNL     1       0.795   0.568   0.995  1.00  0.00     0.102 N 
ENDROOT
BRANCH   1  11
HETATM   11  C1  UNL     1       2.976  -0.028  -0.157  1.00  0.00     0.122 C 
HETATM   12  S1  UNL     1       2.873  -1.805  -0.133  1.00  0.00    -0.095 SA
ENDBRANCH   1  11
BRANCH   5  13
HETATM   13  N1  UNL     1      -3.041   0.758   0.029  1.00  0.00    -0.154 NA
HETATM   14 BR1  UNL     1      -2.783   2.220   1.166  1.00  0.00     0.030 Br
ENDBRANCH   5  13
TORSDOF 2
