REMARK  3 active torsions:
REMARK  status: ('A' for Active; 'I' for Inactive)
REMARK    1  A    between atoms: N2_5  and  C4_6 
REMARK    2  A    between atoms: C4_6  and  N3_8 
REMARK    3  A    between atoms: N3_8  and  N4_10 
ROOT
HETATM    1  C4  UNL     1      -0.088  -0.101  -0.688  1.00  0.00     0.184 C 
HETATM    2  S1  UNL     1       0.339  -1.487  -1.482  1.00  0.00    -0.040 SA
ENDROOT
BRANCH   1   3
HETATM    3  N2  UNL     1      -1.422   0.362  -0.875  1.00  0.00    -0.354 N 
HETATM    4  C3  UNL     1      -1.830   1.572  -0.195  1.00  0.00     0.155 C 
HETATM    5  C2  UNL     1      -3.362   1.580  -0.271  1.00  0.00     0.291 C 
HETATM    6  N1  UNL     1      -3.769   0.255   0.152  1.00  0.00     0.087 N 
HETATM    7  C1  UNL     1      -5.082   0.225   0.727  1.00  0.00     0.310 C 
HETATM    8  C11 UNL     1      -3.648  -0.630  -0.990  1.00  0.00     0.291 C 
HETATM    9  C10 UNL     1      -2.378  -0.321  -1.709  1.00  0.00     0.155 C 
ENDBRANCH   1   3
BRANCH   1  10
HETATM   10  N3  UNL     1       0.818   0.599   0.136  1.00  0.00    -0.295 N 
ATOM     11  H3  UNL     1       0.466   1.445   0.584  1.00  0.00     0.183 HD
BRANCH  10  12
HETATM   12  N4  UNL     1       2.123   0.263   0.399  1.00  0.00    -0.227 NA
HETATM   13  C5  UNL     1       2.198  -1.047   0.973  1.00  0.00     0.116 C 
HETATM   14  C6  UNL     1       3.250  -1.126   2.069  1.00  0.00     0.042 C 
HETATM   15  C7  UNL     1       4.594  -1.037   1.379  1.00  0.00     0.169 C 
HETATM   16  O1  UNL     1       4.719   0.249   0.863  1.00  0.00    -0.390 OA
HETATM   17  C8  UNL     1       4.405   0.191  -0.489  1.00  0.00     0.183 C 
HETATM   18  C9  UNL     1       2.942   0.505  -0.735  1.00  0.00     0.139 C 
ENDBRANCH  10  12
ENDBRANCH   1  10
TORSDOF 3
