REMARK  1 active torsions:
REMARK  status: ('A' for Active; 'I' for Inactive)
REMARK       I    between atoms: N2_5  and  C4_6 
REMARK       I    between atoms: C4_6  and  N3_8 
REMARK    1  A    between atoms: N3_8  and  C5_10 
ROOT
HETATM    1  C1  UNL     1       5.861   1.351  -0.206  1.00  0.00     0.146 C 
HETATM    2  N1  UNL     1       4.606   0.688   0.006  1.00  0.00    -0.173 NA
HETATM    3  C2  UNL     1       4.690  -0.749  -0.212  1.00  0.00     0.145 C 
HETATM    4  C3  UNL     1       3.209  -1.086  -0.417  1.00  0.00     0.180 C 
HETATM    5  N2  UNL     1       2.652   0.227  -0.605  1.00  0.00    -0.187 N 
HETATM    6  C4  UNL     1       1.299   0.578  -0.482  1.00  0.00     0.344 C 
HETATM    7  O1  UNL     1       0.987   1.792  -0.685  1.00  0.00    -0.245 OA
HETATM    8  N3  UNL     1       0.296  -0.391  -0.140  1.00  0.00    -0.337 N 
ATOM      9  H3  UNL     1       0.544  -1.367   0.024  1.00  0.00     0.164 HD
HETATM   10  O3  UNL     1       3.664   1.041  -0.917  1.00  0.00    -0.176 OA
ENDROOT
BRANCH   8  11
HETATM   11  C5  UNL     1      -1.074   0.055  -0.034  1.00  0.00     0.087 C 
HETATM   12  C6  UNL     1      -1.515  -0.200   1.384  1.00  0.00     0.032 C 
HETATM   13  C7  UNL     1      -3.018  -0.136   1.548  1.00  0.00     0.012 C 
HETATM   14  C8  UNL     1      -3.454   1.251   1.147  1.00  0.00     0.172 C 
HETATM   15  C11 UNL     1      -3.603  -1.206   0.653  1.00  0.00     0.013 C 
HETATM   16  O2  UNL     1      -4.402   1.252   0.151  1.00  0.00    -0.390 OA
HETATM   17  C9  UNL     1      -4.035   0.600  -0.996  1.00  0.00     0.172 C 
HETATM   18  C10 UNL     1      -3.351  -0.712  -0.779  1.00  0.00     0.012 C 
HETATM   19  C12 UNL     1      -1.880  -0.680  -1.056  1.00  0.00     0.032 C 
ENDBRANCH   8  11
TORSDOF 1
