REMARK  2 active torsions:
REMARK  status: ('A' for Active; 'I' for Inactive)
REMARK    1  A    between atoms: C3_5  and  C4_6 
REMARK    2  A    between atoms: C4_6  and  O2_7 
ROOT
HETATM    1  C1  UNL     1       2.439  -1.186   0.032  1.00  0.00     0.357 C 
HETATM    2  N1  UNL     1       1.324  -0.307  -0.263  1.00  0.00     0.017 N 
HETATM    3  O1  UNL     1       1.742   0.512  -1.283  1.00  0.00    -0.064 OA
HETATM    4  C2  UNL     1       0.190  -1.041  -0.793  1.00  0.00     0.352 C 
HETATM    5  C3  UNL     1      -0.963  -0.143  -0.389  1.00  0.00     0.116 C 
HETATM    6  C5  UNL     1      -0.597   0.044   1.090  1.00  0.00     0.085 C 
HETATM    7  C6  UNL     1       0.875   0.435   0.879  1.00  0.00     0.259 C 
HETATM    8  C7  UNL     1       0.770   1.901   0.433  1.00  0.00     0.068 C 
HETATM    9  C8  UNL     1      -0.413   2.109  -0.442  1.00  0.00     0.171 C 
HETATM   10  O3  UNL     1      -0.872   1.007  -1.103  1.00  0.00    -0.376 OA
ENDROOT
BRANCH   5  11
HETATM   11  C4  UNL     1      -2.295  -0.830  -0.472  1.00  0.00     0.204 C 
BRANCH  11  12
HETATM   12  O2  UNL     1      -2.301  -1.989   0.282  1.00  0.00    -0.398 OA
ATOM     13  H2  UNL     1      -3.144  -2.424   0.229  1.00  0.00     0.209 HD
ENDBRANCH  11  12
ENDBRANCH   5  11
TORSDOF 2
