REMARK  5 active torsions:
REMARK  status: ('A' for Active; 'I' for Inactive)
REMARK    1  A    between atoms: C2_2  and  C3_3 
REMARK    2  A    between atoms: C4_4  and  C5_5 
REMARK    3  A    between atoms: C6_6  and  C7_7 
REMARK    4  A    between atoms: C8_11  and  C9_12 
REMARK    5  A    between atoms: C9_12  and  O1_13 
ROOT
HETATM    1  C7  UNL     1       1.684  -0.301  -0.316  1.00  0.00     0.350 C 
HETATM    2  N1  UNL     1       2.271   1.000  -0.574  1.00  0.00    -0.017 N 
ATOM      3  H11 UNL     1       1.760   1.872  -0.438  1.00  0.00     0.283 HD
ATOM      4  H12 UNL     1       2.478   1.335  -1.515  1.00  0.00     0.283 HD
HETATM    5  C8  UNL     1       3.300   0.545   0.339  1.00  0.00     0.350 C 
HETATM    6  O2  UNL     1       2.395  -0.356   0.866  1.00  0.00    -0.321 OA
ENDROOT
BRANCH   1   7
HETATM    7  C6  UNL     1       0.212  -0.259  -0.092  1.00  0.00     0.042 C 
HETATM    8  C5  UNL     1      -0.570   0.579  -0.745  1.00  0.00     0.064 C 
BRANCH   8   9
HETATM    9  C4  UNL     1      -1.979   0.556  -0.471  1.00  0.00    -0.079 C 
HETATM   10  C3  UNL     1      -3.170   0.530  -0.258  1.00  0.00    -0.102 C 
BRANCH  10  11
HETATM   11  C2  UNL     1      -4.617   0.504  -0.026  1.00  0.00     0.090 C 
HETATM   12  C1  UNL     1      -4.996  -0.834   0.559  1.00  0.00     0.018 C 
ENDBRANCH  10  11
ENDBRANCH   8   9
ENDBRANCH   1   7
BRANCH   5  13
HETATM   13  C9  UNL     1       4.400  -0.180  -0.408  1.00  0.00     0.225 C 
BRANCH  13  14
HETATM   14  O1  UNL     1       5.389  -0.615   0.484  1.00  0.00    -0.397 OA
ATOM     15  H1  UNL     1       6.079  -1.070   0.015  1.00  0.00     0.209 HD
ENDBRANCH  13  14
ENDBRANCH   5  13
TORSDOF 5
