REMARK  14 active torsions:
REMARK  status: ('A' for Active; 'I' for Inactive)
REMARK    1  A    between atoms: C2_2  and  C4_4 
REMARK    2  A    between atoms: C7_7  and  C8_8 
REMARK    3  A    between atoms: C8_8  and  O1_9 
REMARK    4  A    between atoms: C10_13  and  O2_14 
REMARK    5  A    between atoms: C13_18  and  O3_19 
REMARK    6  A    between atoms: C17_25  and  C18_26 
REMARK    7  A    between atoms: C18_26  and  O6_28 
REMARK    8  A    between atoms: C20_30  and  C21_31 
REMARK    9  A    between atoms: C21_31  and  C22_32 
REMARK   10  A    between atoms: C22_32  and  C24_34 
REMARK   11  A    between atoms: C24_34  and  C25_35 
REMARK   12  A    between atoms: C25_35  and  C26_36 
REMARK   13  A    between atoms: C26_36  and  C27_37 
REMARK   14  A    between atoms: C30_40  and  O7_41 
ROOT
HETATM    1  C4  UNL     1      -4.188  -0.771   0.065  1.00  0.00     0.048 C 
HETATM    2  C5  UNL     1      -4.655   0.589   0.297  1.00  0.00     0.039 C 
HETATM    3  C6  UNL     1      -4.480   1.646  -0.709  1.00  0.00    -0.020 C 
HETATM    4  C7  UNL     1      -3.508   2.532  -0.901  1.00  0.00    -0.043 C 
HETATM    5  C9  UNL     1      -2.240   2.662  -0.109  1.00  0.00     0.126 C 
HETATM    6 BR1  UNL     1      -1.291   4.198  -0.780  1.00  0.00    -0.083 Br
HETATM    7  C10 UNL     1      -1.456   1.382  -0.083  1.00  0.00     0.106 C 
HETATM    8  C11 UNL     1      -1.489   0.840   1.253  1.00  0.00     0.051 C 
HETATM    9  C12 UNL     1      -1.736   1.825   2.416  1.00  0.00     0.016 C 
HETATM   10  C13 UNL     1      -2.175  -0.401   1.624  1.00  0.00     0.154 C 
HETATM   11  C14 UNL     1      -2.841  -1.222   0.576  1.00  0.00     0.159 C 
HETATM   12  O4  UNL     1      -2.067  -1.672  -0.410  1.00  0.00    -0.377 OA
HETATM   13  C15 UNL     1      -0.811  -1.921  -0.503  1.00  0.00     0.132 C 
HETATM   14  C16 UNL     1      -0.552  -3.238   0.286  1.00  0.00     0.040 C 
HETATM   15  C17 UNL     1       0.379  -1.119  -0.271  1.00  0.00     0.120 C 
HETATM   16  C20 UNL     1       0.684   0.193  -0.858  1.00  0.00     0.034 C 
HETATM   17  C30 UNL     1      -0.007   1.453  -0.559  1.00  0.00     0.159 C 
ENDROOT
BRANCH  16  18
HETATM   18  C21 UNL     1       2.149   0.432  -0.312  1.00  0.00     0.016 C 
BRANCH  18  19
HETATM   19  C22 UNL     1       2.795   1.653  -0.727  1.00  0.00     0.004 C 
HETATM   20  C23 UNL     1       3.020   1.763  -2.246  1.00  0.00     0.014 C 
BRANCH  19  21
HETATM   21  C24 UNL     1       4.099   1.869  -0.072  1.00  0.00    -0.022 C 
BRANCH  21  22
HETATM   22  C25 UNL     1       5.225   0.949  -0.199  1.00  0.00    -0.003 C 
BRANCH  22  23
HETATM   23  C26 UNL     1       5.194  -0.409   0.298  1.00  0.00     0.002 C 
BRANCH  23  24
HETATM   24  C27 UNL     1       6.027  -0.719   1.323  1.00  0.00    -0.088 C 
HETATM   25  C28 UNL     1       6.058  -2.095   1.894  1.00  0.00     0.043 C 
HETATM   26  C29 UNL     1       6.935   0.295   1.915  1.00  0.00     0.043 C 
ENDBRANCH  23  24
ENDBRANCH  22  23
ENDBRANCH  21  22
ENDBRANCH  19  21
ENDBRANCH  18  19
ENDBRANCH  16  18
BRANCH  15  27
HETATM   27  C18 UNL     1       1.426  -2.061  -0.926  1.00  0.00     0.265 C 
HETATM   28  O5  UNL     1       1.676  -1.876  -2.171  1.00  0.00    -0.265 OA
BRANCH  27  29
HETATM   29  O6  UNL     1       2.087  -3.053  -0.301  1.00  0.00    -0.326 OA
HETATM   30  C19 UNL     1       3.020  -3.880  -0.932  1.00  0.00     0.213 C 
ENDBRANCH  27  29
ENDBRANCH  15  27
BRANCH  17  31
HETATM   31  O7  UNL     1      -0.016   2.141  -1.765  1.00  0.00    -0.392 OA
ATOM     32  H7  UNL     1       0.886   2.185  -2.061  1.00  0.00     0.210 HD
ENDBRANCH  17  31
BRANCH   7  33
HETATM   33  O2  UNL     1      -1.954   0.808  -1.204  1.00  0.00    -0.385 OA
ATOM     34  H2  UNL     1      -1.458  -0.002  -1.188  1.00  0.00     0.210 HD
ENDBRANCH   7  33
BRANCH   4  35
HETATM   35  C8  UNL     1      -3.658   3.483  -2.040  1.00  0.00     0.199 C 
BRANCH  35  36
HETATM   36  O1  UNL     1      -3.676   4.832  -1.601  1.00  0.00    -0.397 OA
ATOM     37  H1  UNL     1      -3.772   5.438  -2.327  1.00  0.00     0.209 HD
ENDBRANCH  35  36
ENDBRANCH   4  35
BRANCH  10  38
HETATM   38  O3  UNL     1      -3.029  -0.329   2.724  1.00  0.00    -0.393 OA
ATOM     39  H3  UNL     1      -3.474  -1.133   2.964  1.00  0.00     0.210 HD
ENDBRANCH  10  38
BRANCH   1  40
HETATM   40  C2  UNL     1      -5.280  -1.734   0.475  1.00  0.00    -0.086 C 
HETATM   41  C1  UNL     1      -5.977  -2.324  -0.479  1.00  0.00     0.014 C 
HETATM   42  C3  UNL     1      -5.571  -2.016   1.894  1.00  0.00     0.043 C 
ENDBRANCH   1  40
TORSDOF 14
