REMARK  11 active torsions:
REMARK  status: ('A' for Active; 'I' for Inactive)
REMARK       I    between atoms: N1_5  and  C5_7 
REMARK    1  A    between atoms: C5_7  and  C6_9 
REMARK    2  A    between atoms: C6_9  and  N2_10 
REMARK    3  A    between atoms: C6_9  and  C24_45 
REMARK       I    between atoms: N2_10  and  C7_12 
REMARK    4  A    between atoms: C7_12  and  C8_14 
REMARK    5  A    between atoms: C8_14  and  C9_15 
REMARK    6  A    between atoms: C8_14  and  C13_19 
REMARK    7  A    between atoms: C9_15  and  C10_16 
REMARK    8  A    between atoms: C14_23  and  C15_24 
REMARK    9  A    between atoms: C18_28  and  C19_29 
REMARK   10  A    between atoms: N5_35  and  C23_37 
REMARK   11  A    between atoms: C23_37  and  O3_41 
ROOT
HETATM    1  C8  UNL     1       0.502  -1.593  -0.564  1.00  0.00     0.168 C 
ENDROOT
BRANCH   1   2
HETATM    2  C7  UNL     1      -0.707  -0.841  -0.836  1.00  0.00     0.233 C 
HETATM    3  N2  UNL     1      -1.979  -1.156  -0.311  1.00  0.00    -0.346 N 
ATOM      4  H2  UNL     1      -2.054  -1.942   0.335  1.00  0.00     0.163 HD
HETATM    5  O2  UNL     1      -0.593   0.166  -1.620  1.00  0.00    -0.272 OA
BRANCH   3   6
HETATM    6  C6  UNL     1      -3.180  -0.425  -0.639  1.00  0.00     0.181 C 
BRANCH   6   7
HETATM    7  C5  UNL     1      -3.605   0.586   0.345  1.00  0.00     0.246 C 
HETATM    8  N1  UNL     1      -4.770   1.347   0.226  1.00  0.00    -0.310 N 
HETATM    9  C4  UNL     1      -5.363   2.052   1.085  1.00  0.00     0.130 A 
ATOM     10  H1  UNL     1      -5.207   1.329  -0.696  1.00  0.00     0.170 HD
HETATM   11  C3  UNL     1      -5.111   2.340   2.409  1.00  0.00     0.084 A 
HETATM   12  N8  UNL     1      -6.513   2.731   0.790  1.00  0.00    -0.245 N 
HETATM   13  C2  UNL     1      -6.114   3.180   2.865  1.00  0.00     0.076 A 
HETATM   14  C1  UNL     1      -6.296   3.772   4.204  1.00  0.00     0.079 C 
HETATM   15  O4  UNL     1      -6.911   3.367   1.843  1.00  0.00    -0.241 OA
ATOM     16  H8  UNL     1      -6.982   2.735  -0.116  1.00  0.00     0.196 HD
HETATM   17  O1  UNL     1      -2.894   0.790   1.353  1.00  0.00    -0.271 OA
ENDBRANCH   6   7
BRANCH   6  18
HETATM   18  C24 UNL     1      -4.295  -1.293  -1.111  1.00  0.00     0.018 C 
HETATM   19  C25 UNL     1      -5.338  -0.472  -1.778  1.00  0.00     0.007 C 
HETATM   20  C26 UNL     1      -5.897  -1.175  -3.032  1.00  0.00     0.000 C 
HETATM   21  C27 UNL     1      -6.252  -2.561  -2.575  1.00  0.00     0.000 C 
HETATM   22  C28 UNL     1      -4.960  -3.322  -2.431  1.00  0.00     0.000 C 
HETATM   23  C29 UNL     1      -3.838  -2.493  -1.886  1.00  0.00     0.007 C 
ENDBRANCH   6  18
ENDBRANCH   3   6
ENDBRANCH   1   2
BRANCH   1  24
HETATM   24  C9  UNL     1       1.185  -1.632   0.715  1.00  0.00    -0.003 C 
BRANCH  24  25
HETATM   25  C10 UNL     1       0.594  -2.127   1.961  1.00  0.00    -0.090 C 
HETATM   26  C11 UNL     1       0.096  -3.553   1.949  1.00  0.00     0.042 C 
HETATM   27  C12 UNL     1      -0.292  -1.179   2.645  1.00  0.00     0.042 C 
ENDBRANCH  24  25
ENDBRANCH   1  24
BRANCH   1  28
HETATM   28  C13 UNL     1       1.576  -1.155  -1.606  1.00  0.00     0.105 A 
HETATM   29  N3  UNL     1       1.369  -1.442  -2.892  1.00  0.00    -0.313 N 
HETATM   30  S1  UNL     1       2.748  -0.813  -3.633  1.00  0.00     0.006 SA
ATOM     31  H3  UNL     1       0.577  -1.921  -3.320  1.00  0.00     0.175 HD
HETATM   32  C14 UNL     1       3.533  -0.203  -2.221  1.00  0.00     0.109 A 
HETATM   33  N7  UNL     1       2.654  -0.538  -1.276  1.00  0.00    -0.337 N 
ATOM     34  H7  UNL     1       2.836  -0.307  -0.299  1.00  0.00     0.168 HD
BRANCH  32  35
HETATM   35  C15 UNL     1       4.807   0.495  -2.090  1.00  0.00     0.082 A 
HETATM   36  C16 UNL     1       5.548   0.830  -3.183  1.00  0.00     0.135 A 
HETATM   37  F1  UNL     1       5.154   0.577  -4.455  1.00  0.00    -0.205 F 
HETATM   38  C17 UNL     1       6.774   1.467  -3.007  1.00  0.00     0.068 A 
HETATM   39  C18 UNL     1       7.233   1.757  -1.728  1.00  0.00     0.018 A 
HETATM   40  N4  UNL     1       6.466   1.408  -0.699  1.00  0.00    -0.345 N 
HETATM   41  C22 UNL     1       5.272   0.787  -0.833  1.00  0.00     0.124 A 
ATOM     42  H4  UNL     1       6.796   1.620   0.242  1.00  0.00     0.167 HD
HETATM   43  N5  UNL     1       4.609   0.494   0.237  1.00  0.00    -0.308 N 
ATOM     44  H5  UNL     1       3.707   0.029   0.139  1.00  0.00     0.171 HD
BRANCH  39  45
HETATM   45  C19 UNL     1       8.523   2.430  -1.520  1.00  0.00     0.036 A 
HETATM   46  C20 UNL     1       9.419   1.941  -0.427  1.00  0.00     0.011 A 
HETATM   47  C21 UNL     1       8.748   3.272  -0.301  1.00  0.00     0.011 A 
ENDBRANCH  39  45
BRANCH  43  48
HETATM   48  C23 UNL     1       5.076   0.788   1.533  1.00  0.00     0.216 C 
HETATM   49  N6  UNL     1       5.600  -0.152   2.242  1.00  0.00    -0.365 N 
ATOM     50  H62 UNL     1       5.656  -1.085   1.834  1.00  0.00     0.159 HD
ATOM     51  H61 UNL     1       5.938   0.061   3.180  1.00  0.00     0.159 HD
BRANCH  48  52
HETATM   52  O3  UNL     1       5.000   2.061   2.089  1.00  0.00    -0.333 OA
ATOM     53  H3  UNL     1       5.315   2.259   2.963  1.00  0.00     0.220 HD
ENDBRANCH  48  52
ENDBRANCH  43  48
ENDBRANCH  32  35
ENDBRANCH   1  28
TORSDOF 11
