REMARK  13 active torsions:
REMARK  status: ('A' for Active; 'I' for Inactive)
REMARK    1  A    between atoms: C2_2  and  C5_5 
REMARK    2  A    between atoms: C5_5  and  N1_6 
REMARK    3  A    between atoms: N1_6  and  C6_8 
REMARK    4  A    between atoms: C7_11  and  N3_12 
REMARK    5  A    between atoms: C8_17  and  N5_18 
REMARK    6  A    between atoms: N5_18  and  C9_20 
REMARK    7  A    between atoms: C9_20  and  C10_21 
REMARK    8  A    between atoms: C9_20  and  C17_30 
REMARK    9  A    between atoms: C10_21  and  C11_22 
REMARK   10  A    between atoms: C11_22  and  C12_23 
REMARK   11  A    between atoms: C12_23  and  C13_24 
REMARK   12  A    between atoms: C18_33  and  C19_34 
REMARK   13  A    between atoms: C19_34  and  C20_35 
REMARK       I    between atoms: C20_35  and  N7_37 
ROOT
HETATM    1  C9  UNL     1       0.026   1.564  -1.370  1.00  0.00     0.157 C 
ENDROOT
BRANCH   1   2
HETATM    2  N5  UNL     1       1.247   1.087  -0.884  1.00  0.00    -0.214 N 
ATOM      3  H5  UNL     1       1.187   0.628   0.025  1.00  0.00     0.178 HD
BRANCH   2   4
HETATM    4  C8  UNL     1       2.416   1.124  -1.373  1.00  0.00     0.707 A 
HETATM    5  N4  UNL     1       2.692   1.683  -2.553  1.00  0.00    -0.022 N 
HETATM    6  C7  UNL     1       3.962   1.721  -3.049  1.00  0.00     0.705 A 
ATOM      7  H4  UNL     1       1.933   2.093  -3.098  1.00  0.00     0.203 HD
HETATM    8  N2  UNL     1       4.960   1.186  -2.338  1.00  0.00    -0.022 N 
HETATM    9  C6  UNL     1       4.702   0.609  -1.130  1.00  0.00     0.707 A 
ATOM     10  H2  UNL     1       5.914   1.210  -2.699  1.00  0.00     0.203 HD
HETATM   11  N8  UNL     1       3.445   0.593  -0.681  1.00  0.00    -0.021 N 
ATOM     12  H8  UNL     1       3.255   0.161   0.223  1.00  0.00     0.203 HD
BRANCH   6  13
HETATM   13  N3  UNL     1       4.238   2.259  -4.189  1.00  0.00    -0.234 N 
ATOM     14  H32 UNL     1       5.188   2.287  -4.560  1.00  0.00     0.174 HD
ATOM     15  H31 UNL     1       3.477   2.667  -4.731  1.00  0.00     0.174 HD
ENDBRANCH   6  13
BRANCH   9  16
HETATM   16  N1  UNL     1       5.724   0.136  -0.519  1.00  0.00    -0.224 N 
ATOM     17  H1  UNL     1       6.619   0.241  -0.997  1.00  0.00     0.177 HD
BRANCH  16  18
HETATM   18  C5  UNL     1       5.764  -0.520   0.748  1.00  0.00     0.146 C 
BRANCH  18  19
HETATM   19  C2  UNL     1       6.170  -1.987   0.618  1.00  0.00    -0.035 C 
HETATM   20  C1  UNL     1       5.194  -2.716  -0.250  1.00  0.00     0.016 C 
HETATM   21  C3  UNL     1       7.590  -2.119   0.122  1.00  0.00     0.016 C 
HETATM   22  C4  UNL     1       6.115  -2.608   2.013  1.00  0.00     0.016 C 
ENDBRANCH  18  19
ENDBRANCH  16  18
ENDBRANCH   9  16
ENDBRANCH   2   4
ENDBRANCH   1   2
BRANCH   1  23
HETATM   23  C10 UNL     1      -0.698   2.627  -0.620  1.00  0.00     0.033 C 
BRANCH  23  24
HETATM   24  C11 UNL     1      -1.111   2.362   0.764  1.00  0.00     0.009 C 
BRANCH  24  25
HETATM   25  C12 UNL     1      -0.057   2.186   1.799  1.00  0.00     0.065 C 
BRANCH  25  26
HETATM   26  C13 UNL     1       0.753   3.424   2.021  1.00  0.00     0.054 A 
HETATM   27  C14 UNL     1       1.909   3.886   1.465  1.00  0.00     0.036 A 
HETATM   28  C15 UNL     1       2.236   5.090   2.026  1.00  0.00     0.048 A 
HETATM   29  C16 UNL     1       1.227   5.337   2.946  1.00  0.00     0.121 A 
HETATM   30 BR1  UNL     1       1.204   6.919   4.021  1.00  0.00    -0.023 Br
HETATM   31  O1  UNL     1       0.394   4.354   2.911  1.00  0.00    -0.308 OA
ENDBRANCH  25  26
ENDBRANCH  24  25
ENDBRANCH  23  24
ENDBRANCH   1  23
BRANCH   1  32
HETATM   32  C17 UNL     1      -0.938   0.419  -1.686  1.00  0.00     0.074 A 
HETATM   33  N6  UNL     1      -2.237   0.381  -1.444  1.00  0.00    -0.355 N 
HETATM   34  C18 UNL     1      -2.924  -0.667  -1.768  1.00  0.00     0.025 A 
ATOM     35  H6  UNL     1      -2.697   1.177  -1.002  1.00  0.00     0.166 HD
HETATM   36  C26 UNL     1      -2.249  -1.708  -2.358  1.00  0.00     0.077 A 
HETATM   37  S1  UNL     1      -0.651  -1.095  -2.407  1.00  0.00    -0.085 SA
BRANCH  34  38
HETATM   38  C19 UNL     1      -4.416  -0.761  -1.523  1.00  0.00     0.160 C 
BRANCH  38  39
HETATM   39  C20 UNL     1      -4.720  -1.300  -0.186  1.00  0.00     0.225 C 
HETATM   40  O2  UNL     1      -3.817  -1.632   0.633  1.00  0.00    -0.273 OA
HETATM   41  N7  UNL     1      -6.059  -1.466   0.230  1.00  0.00    -0.352 N 
HETATM   42  C21 UNL     1      -6.458  -1.980   1.519  1.00  0.00     0.125 C 
HETATM   43  C25 UNL     1      -7.131  -1.109  -0.674  1.00  0.00     0.125 C 
HETATM   44  C22 UNL     1      -7.152  -3.296   1.313  1.00  0.00     0.020 C 
HETATM   45  C23 UNL     1      -8.184  -3.191   0.247  1.00  0.00     0.003 C 
HETATM   46  C24 UNL     1      -8.413  -1.830  -0.319  1.00  0.00     0.020 C 
ENDBRANCH  38  39
ENDBRANCH  34  38
ENDBRANCH   1  32
TORSDOF 13
