REMARK  10 active torsions:
REMARK  status: ('A' for Active; 'I' for Inactive)
REMARK    1  A    between atoms: C4_4  and  N1_5 
REMARK    2  A    between atoms: N1_5  and  S1_7 
REMARK    3  A    between atoms: C7_12  and  C8_13 
REMARK    4  A    between atoms: C18_26  and  N3_27 
REMARK    5  A    between atoms: N3_27  and  C19_28 
REMARK    6  A    between atoms: C22_35  and  C23_36 
REMARK    7  A    between atoms: C23_36  and  N6_38 
REMARK    8  A    between atoms: N6_38  and  C25_40 
REMARK    9  A    between atoms: C25_40  and  C26_41 
REMARK   10  A    between atoms: C26_41  and  N7_42 
ROOT
HETATM    1  C1  UNL     1      -0.820   3.635   2.002  1.00  0.00     0.052 C 
HETATM    2  C2  UNL     1      -2.076   3.491   1.211  1.00  0.00    -0.018 A 
HETATM    3  C3  UNL     1      -2.930   4.522   1.004  1.00  0.00     0.040 A 
HETATM    4  C4  UNL     1      -4.084   4.307   0.257  1.00  0.00     0.043 A 
HETATM    5  C6  UNL     1      -4.315   3.077  -0.239  1.00  0.00     0.047 A 
HETATM    6  C7  UNL     1      -3.442   1.967  -0.039  1.00  0.00     0.034 A 
HETATM    7  C18 UNL     1      -2.291   2.165   0.695  1.00  0.00     0.129 A 
ENDROOT
BRANCH   7   8
HETATM    8  N3  UNL     1      -1.317   1.339   0.875  1.00  0.00    -0.370 NA
BRANCH   8   9
HETATM    9  C19 UNL     1      -0.367   0.601   0.995  1.00  0.00     0.260 A 
HETATM   10  N4  UNL     1      -0.201  -0.452   1.780  1.00  0.00    -0.313 N 
HETATM   11  C20 UNL     1       0.988  -1.000   1.539  1.00  0.00     0.078 A 
ATOM     12  H4  UNL     1      -0.879  -0.791   2.463  1.00  0.00     0.170 HD
HETATM   13  C21 UNL     1       1.665  -2.107   2.042  1.00  0.00     0.120 A 
HETATM   14  C30 UNL     1       1.606  -0.265   0.559  1.00  0.00     0.066 A 
HETATM   15  N5  UNL     1       2.895  -2.435   1.564  1.00  0.00    -0.365 N 
HETATM   16  C22 UNL     1       3.508  -1.738   0.617  1.00  0.00     0.033 A 
ATOM     17  H5  UNL     1       3.367  -3.253   1.951  1.00  0.00     0.165 HD
HETATM   18  C29 UNL     1       2.880  -0.644   0.098  1.00  0.00     0.059 A 
HETATM   19  N8  UNL     1       0.770   0.707   0.238  1.00  0.00    -0.314 N 
ATOM     20  H8  UNL     1       0.944   1.425  -0.465  1.00  0.00     0.170 HD
BRANCH  16  21
HETATM   21  C23 UNL     1       4.856  -2.219   0.137  1.00  0.00     0.126 C 
HETATM   22  C24 UNL     1       4.644  -3.012  -1.125  1.00  0.00     0.039 C 
BRANCH  21  23
HETATM   23  N6  UNL     1       5.792  -1.198   0.055  1.00  0.00    -0.391 N 
ATOM     24  H6  UNL     1       5.500  -0.225   0.144  1.00  0.00     0.159 HD
BRANCH  23  25
HETATM   25  C25 UNL     1       7.136  -1.514  -0.150  1.00  0.00     0.086 C 
BRANCH  25  26
HETATM   26  C26 UNL     1       7.598  -2.059  -1.454  1.00  0.00     0.315 C 
BRANCH  26  27
HETATM   27  N7  UNL     1       9.075  -2.252  -1.419  1.00  0.00     0.084 N 
HETATM   28  C27 UNL     1       9.443  -2.782  -2.708  1.00  0.00     0.309 C 
HETATM   29  C28 UNL     1       9.749  -1.011  -1.199  1.00  0.00     0.309 C 
ENDBRANCH  26  27
ENDBRANCH  25  26
ENDBRANCH  23  25
ENDBRANCH  21  23
ENDBRANCH  16  21
ENDBRANCH   8   9
ENDBRANCH   7   8
BRANCH   6  30
HETATM   30  C8  UNL     1      -3.838   0.798  -0.753  1.00  0.00     0.048 C 
HETATM   31  N2  UNL     1      -4.791   0.840  -1.702  1.00  0.00    -0.389 N 
HETATM   32  C9  UNL     1      -5.057  -0.444  -2.318  1.00  0.00     0.120 C 
ATOM     33  H2  UNL     1      -5.280   1.696  -1.963  1.00  0.00     0.159 HD
HETATM   34  C10 UNL     1      -3.819  -1.183  -2.765  1.00  0.00     0.024 C 
HETATM   35  C11 UNL     1      -2.860  -1.391  -1.589  1.00  0.00     0.043 C 
HETATM   36  C12 UNL     1      -3.436  -0.550  -0.445  1.00  0.00    -0.025 C 
HETATM   37  C13 UNL     1      -3.661  -1.065   0.741  1.00  0.00    -0.038 C 
HETATM   38  C14 UNL     1      -3.243  -2.454   1.050  1.00  0.00     0.038 C 
HETATM   39  C17 UNL     1      -4.331  -0.507   1.908  1.00  0.00     0.200 C 
HETATM   40  C15 UNL     1      -3.478  -2.657   2.497  1.00  0.00     0.007 C 
HETATM   41  C16 UNL     1      -4.624  -1.704   2.823  1.00  0.00     0.042 C 
HETATM   42  F1  UNL     1      -5.557   0.079   1.559  1.00  0.00    -0.245 F 
ENDBRANCH   6  30
BRANCH   4  43
HETATM   43  N1  UNL     1      -4.923   5.443   0.135  1.00  0.00    -0.285 N 
ATOM     44  H1  UNL     1      -4.520   6.314  -0.211  1.00  0.00     0.178 HD
BRANCH  43  45
HETATM   45  S1  UNL     1      -6.583   5.414   0.543  1.00  0.00     0.227 S 
HETATM   46  C5  UNL     1      -7.438   4.260  -0.487  1.00  0.00     0.186 C 
HETATM   47  O1  UNL     1      -7.190   6.795   0.436  1.00  0.00    -0.206 OA
HETATM   48  O2  UNL     1      -6.723   4.955   1.997  1.00  0.00    -0.206 OA
ENDBRANCH  43  45
ENDBRANCH   4  43
TORSDOF 10
