REMARK  7 active torsions:
REMARK  status: ('A' for Active; 'I' for Inactive)
REMARK    1  A    between atoms: C2_2  and  C3_3 
REMARK    2  A    between atoms: C3_3  and  O1_4 
REMARK    3  A    between atoms: O1_4  and  C4_5 
REMARK    4  A    between atoms: C9_11  and  C10_12 
REMARK    5  A    between atoms: C10_12  and  C11_13 
REMARK    6  A    between atoms: C13_15  and  N1_16 
REMARK    7  A    between atoms: C14_20  and  C15_21 
ROOT
HETATM    1  C10 UNL     1       0.662   0.394  -0.957  1.00  0.00     0.070 C 
ENDROOT
BRANCH   1   2
HETATM    2  C9  UNL     1      -0.712   1.006  -0.830  1.00  0.00     0.052 A 
HETATM    3  S1  UNL     1      -1.193   2.599  -1.221  1.00  0.00    -0.075 SA
HETATM    4  C8  UNL     1      -2.859   2.471  -0.794  1.00  0.00     0.036 A 
HETATM    5  C7  UNL     1      -3.970   3.324  -0.805  1.00  0.00     0.021 A 
HETATM    6  C21 UNL     1      -2.933   1.183  -0.370  1.00  0.00     0.084 A 
HETATM    7  C6  UNL     1      -5.192   2.870  -0.378  1.00  0.00     0.004 A 
HETATM    8  C5  UNL     1      -5.260   1.587   0.043  1.00  0.00     0.039 A 
HETATM    9  C4  UNL     1      -4.191   0.683   0.080  1.00  0.00     0.096 A 
HETATM   10  N2  UNL     1      -1.830   0.470  -0.402  1.00  0.00    -0.351 N 
ATOM     11  H2  UNL     1      -1.843  -0.502  -0.093  1.00  0.00     0.166 HD
BRANCH   9  12
HETATM   12  O1  UNL     1      -4.363  -0.537   0.505  1.00  0.00    -0.349 OA
BRANCH  12  13
HETATM   13  C3  UNL     1      -4.537  -1.739   0.925  1.00  0.00     0.175 C 
BRANCH  13  14
HETATM   14  C2  UNL     1      -5.570  -2.543   0.092  1.00  0.00     0.022 C 
HETATM   15  C1  UNL     1      -6.889  -1.839   0.162  1.00  0.00     0.007 C 
ENDBRANCH  13  14
ENDBRANCH  12  13
ENDBRANCH   9  12
ENDBRANCH   1   2
BRANCH   1  16
HETATM   16  C11 UNL     1       1.351   0.641   0.333  1.00  0.00    -0.000 C 
HETATM   17  C12 UNL     1       1.472   2.146   0.635  1.00  0.00     0.038 C 
HETATM   18  C13 UNL     1       2.755   1.744   1.350  1.00  0.00     0.188 C 
HETATM   19  C14 UNL     1       2.866   0.667   0.326  1.00  0.00     0.024 C 
BRANCH  18  20
HETATM   20  N1  UNL     1       2.424   1.388   2.685  1.00  0.00    -0.075 N 
ATOM     21  H13 UNL     1       1.915   2.124   3.174  1.00  0.00     0.274 HD
ATOM     22  H12 UNL     1       1.704   0.667   2.733  1.00  0.00     0.274 HD
ATOM     23  H11 UNL     1       3.283   1.119   3.164  1.00  0.00     0.274 HD
ENDBRANCH  18  20
BRANCH  19  24
HETATM   24  C15 UNL     1       3.497  -0.620   0.638  1.00  0.00    -0.008 C 
HETATM   25  C16 UNL     1       3.085  -1.658  -0.385  1.00  0.00     0.005 C 
HETATM   26  C17 UNL     1       4.325  -2.457  -0.711  1.00  0.00     0.005 C 
HETATM   27  C18 UNL     1       5.487  -1.533  -0.439  1.00  0.00    -0.018 C 
HETATM   28  C19 UNL     1       5.826  -0.662  -1.621  1.00  0.00     0.010 C 
HETATM   29  C20 UNL     1       4.943  -0.722   0.720  1.00  0.00     0.009 C 
ENDBRANCH  19  24
ENDBRANCH   1  16
TORSDOF 7
