REMARK  5 active torsions:
REMARK  status: ('A' for Active; 'I' for Inactive)
REMARK       I    between atoms: C1_2  and  N1_3 
REMARK    1  A    between atoms: C1_2  and  C7_10 
REMARK    2  A    between atoms: N1_3  and  C2_5 
REMARK    3  A    between atoms: N2_13  and  C10_14 
REMARK    4  A    between atoms: C10_14  and  C11_15 
REMARK    5  A    between atoms: C10_14  and  C14_21 
ROOT
HETATM    1  C7  UNL     1       0.214   0.743   1.084  1.00  0.00     0.107 C 
HETATM    2  C8  UNL     1      -0.563   2.027   1.194  1.00  0.00     0.046 C 
HETATM    3  C9  UNL     1      -1.714   1.909   0.220  1.00  0.00     0.275 C 
HETATM    4  N2  UNL     1      -1.806   0.524  -0.128  1.00  0.00     0.104 N 
HETATM    5  C18 UNL     1      -0.513  -0.064   0.027  1.00  0.00     0.287 C 
ENDROOT
BRANCH   4   6
HETATM    6  C10 UNL     1      -2.837  -0.191   0.551  1.00  0.00     0.312 C 
BRANCH   6   7
HETATM    7  C11 UNL     1      -2.772  -1.618   0.054  1.00  0.00     0.054 A 
HETATM    8  C12 UNL     1      -2.845  -2.689   0.904  1.00  0.00     0.078 A 
HETATM    9  S1  UNL     1      -2.722  -4.002  -0.183  1.00  0.00    -0.095 SA
HETATM   10  C13 UNL     1      -2.587  -3.121  -1.634  1.00  0.00     0.138 A 
HETATM   11  N3  UNL     1      -2.642  -1.873  -1.221  1.00  0.00    -0.361 N 
ATOM     12  H3  UNL     1      -2.583  -1.108  -1.893  1.00  0.00     0.165 HD
ENDBRANCH   6   7
BRANCH   6  13
HETATM   13  C14 UNL     1      -4.193   0.390   0.313  1.00  0.00     0.021 A 
HETATM   14  C15 UNL     1      -4.756   0.809  -0.863  1.00  0.00     0.017 A 
HETATM   15  C16 UNL     1      -5.996   1.297  -0.817  1.00  0.00     0.008 A 
HETATM   16  C17 UNL     1      -6.616   1.342   0.404  1.00  0.00     0.050 A 
HETATM   17  S2  UNL     1      -5.431   0.696   1.448  1.00  0.00    -0.104 SA
ENDBRANCH   6  13
ENDBRANCH   4   6
BRANCH   1  18
HETATM   18  C1  UNL     1       1.593   0.998   0.549  1.00  0.00     0.223 C 
HETATM   19  O1  UNL     1       1.902   2.171   0.279  1.00  0.00    -0.273 OA
HETATM   20  N1  UNL     1       2.518  -0.058   0.356  1.00  0.00    -0.356 N 
ATOM     21  H1  UNL     1       2.258  -1.019   0.580  1.00  0.00     0.162 HD
BRANCH  20  22
HETATM   22  C2  UNL     1       3.825   0.239  -0.158  1.00  0.00     0.084 C 
HETATM   23  C3  UNL     1       4.132  -0.569  -1.410  1.00  0.00     0.025 C 
HETATM   24  C4  UNL     1       5.651  -0.392  -1.488  1.00  0.00     0.002 C 
HETATM   25  C5  UNL     1       6.043  -0.737  -0.050  1.00  0.00     0.002 C 
HETATM   26  C6  UNL     1       4.925  -0.206   0.784  1.00  0.00     0.025 C 
ENDBRANCH  20  22
ENDBRANCH   1  18
TORSDOF 5
