REMARK  5 active torsions:
REMARK  status: ('A' for Active; 'I' for Inactive)
REMARK    1  A    between atoms: C5_5  and  N1_6 
REMARK    2  A    between atoms: N1_6  and  C6_8 
REMARK    3  A    between atoms: C6_8  and  C7_9 
REMARK    4  A    between atoms: N2_13  and  C11_14 
REMARK    5  A    between atoms: C13_16  and  C14_17 
ROOT
HETATM    1  C7  UNL     1       1.758  -1.193  -0.376  1.00  0.00     0.021 C 
HETATM    2  C8  UNL     1       1.809  -1.407  -1.866  1.00  0.00     0.009 C 
HETATM    3  C9  UNL     1       1.118  -0.300  -2.625  1.00  0.00     0.020 C 
HETATM    4  C10 UNL     1      -0.254   0.002  -2.140  1.00  0.00     0.124 C 
HETATM    5  N2  UNL     1      -0.259   0.069  -0.698  1.00  0.00    -0.367 N 
HETATM    6  C21 UNL     1       1.015   0.074  -0.015  1.00  0.00     0.130 C 
ENDROOT
BRANCH   5   7
HETATM    7  C11 UNL     1      -1.484   0.129   0.017  1.00  0.00     0.105 A 
HETATM    8  C12 UNL     1      -2.685   0.138  -0.631  1.00  0.00     0.073 A 
HETATM    9  C13 UNL     1      -3.866   0.196   0.077  1.00  0.00     0.017 A 
HETATM   10  N3  UNL     1      -3.742   0.242   1.416  1.00  0.00    -0.355 N 
HETATM   11  C20 UNL     1      -2.595   0.236   2.086  1.00  0.00     0.182 A 
ATOM     12  H3  UNL     1      -4.602   0.285   1.963  1.00  0.00     0.166 HD
HETATM   13  N4  UNL     1      -1.452   0.178   1.381  1.00  0.00    -0.339 N 
ATOM     14  H4  UNL     1      -0.556   0.171   1.868  1.00  0.00     0.168 HD
BRANCH   9  15
HETATM   15  C14 UNL     1      -5.151   0.203  -0.626  1.00  0.00     0.036 C 
HETATM   16  C15 UNL     1      -6.003  -1.005  -0.309  1.00  0.00     0.011 C 
HETATM   17  C16 UNL     1      -6.607  -0.936   1.065  1.00  0.00     0.001 C 
HETATM   18  C17 UNL     1      -7.260   0.378   1.357  1.00  0.00     0.000 C 
HETATM   19  C18 UNL     1      -6.493   1.571   0.893  1.00  0.00     0.001 C 
HETATM   20  C19 UNL     1      -5.920   1.476  -0.478  1.00  0.00     0.011 C 
ENDBRANCH   9  15
ENDBRANCH   5   7
BRANCH   1  21
HETATM   21  C6  UNL     1       3.138  -1.232   0.224  1.00  0.00     0.126 C 
BRANCH  21  22
HETATM   22  N1  UNL     1       4.009  -0.225  -0.312  1.00  0.00    -0.388 N 
ATOM     23  H1  UNL     1       3.648   0.410  -1.023  1.00  0.00     0.159 HD
BRANCH  22  24
HETATM   24  C5  UNL     1       5.351  -0.083   0.112  1.00  0.00     0.043 A 
HETATM   25  C4  UNL     1       5.921  -0.900   1.070  1.00  0.00     0.032 A 
HETATM   26  C3  UNL     1       7.234  -0.703   1.434  1.00  0.00     0.027 A 
HETATM   27  C2  UNL     1       8.018   0.294   0.873  1.00  0.00     0.005 A 
HETATM   28  C1  UNL     1       9.437   0.510   1.264  1.00  0.00     0.068 C 
HETATM   29  N5  UNL     1       7.418   1.062  -0.054  1.00  0.00    -0.367 N 
HETATM   30  C22 UNL     1       6.148   0.903  -0.435  1.00  0.00     0.117 A 
ATOM     31  H5  UNL     1       7.963   1.806  -0.490  1.00  0.00     0.165 HD
ENDBRANCH  22  24
ENDBRANCH  21  22
ENDBRANCH   1  21
TORSDOF 5
