REMARK  10 active torsions:
REMARK  status: ('A' for Active; 'I' for Inactive)
REMARK    1  A    between atoms: C5_9  and  N3_10 
REMARK       I    between atoms: N3_10  and  C6_12 
REMARK       I    between atoms: C6_12  and  N6_27 
REMARK    2  A    between atoms: N4_13  and  C7_15 
REMARK    3  A    between atoms: C7_15  and  C8_16 
REMARK    4  A    between atoms: C8_16  and  O2_17 
REMARK    5  A    between atoms: C8_16  and  C9_19 
REMARK    6  A    between atoms: C9_19  and  C10_20 
REMARK    7  A    between atoms: C10_20  and  O3_21 
REMARK    8  A    between atoms: N5_23  and  O4_25 
REMARK    9  A    between atoms: N6_27  and  N7_29 
REMARK   10  A    between atoms: C11_32  and  N8_33 
ROOT
HETATM    1  N1  UNL     1       7.160   0.991   1.875  1.00  0.00    -0.190 NA
HETATM    2  C1  UNL     1       6.209   0.798   1.249  1.00  0.00     0.120 C 
HETATM    3  C2  UNL     1       5.017   0.571   0.445  1.00  0.00     0.152 A 
HETATM    4  N2  UNL     1       5.087   0.427  -0.892  1.00  0.00    -0.313 N 
ATOM      5  H2  UNL     1       5.992   0.477  -1.359  1.00  0.00     0.170 HD
HETATM    6  C3  UNL     1       3.970   0.217  -1.619  1.00  0.00     0.248 A 
HETATM    7  O1  UNL     1       4.098   0.090  -2.861  1.00  0.00    -0.268 OA
HETATM    8  C4  UNL     1       2.734   0.140  -1.062  1.00  0.00     0.107 A 
HETATM    9  C5  UNL     1       2.606   0.280   0.298  1.00  0.00     0.090 A 
HETATM   10  C11 UNL     1       3.766   0.496   1.031  1.00  0.00     0.167 A 
ENDROOT
BRANCH  10  11
HETATM   11  N8  UNL     1       3.719   0.653   2.449  1.00  0.00    -0.110 N 
HETATM   12  O7  UNL     1       3.892   1.802   2.911  1.00  0.00    -0.532 OA
HETATM   13  O8  UNL     1       3.499  -0.365   3.317  1.00  0.00    -0.532 OA
ENDBRANCH  10  11
BRANCH   9  14
HETATM   14  N3  UNL     1       1.370   0.214   0.948  1.00  0.00    -0.188 N 
HETATM   15  C6  UNL     1       0.196  -0.003   0.174  1.00  0.00     0.698 C 
HETATM   16  N4  UNL     1      -0.551   1.008  -0.043  1.00  0.00    -0.222 N 
HETATM   17  N6  UNL     1      -0.067  -1.316  -0.303  1.00  0.00    -0.072 N 
ATOM     18  H4  UNL     1      -0.275   1.911   0.344  1.00  0.00     0.177 HD
ATOM     19  H6  UNL     1      -0.609  -1.461  -1.155  1.00  0.00     0.212 HD
ATOM     20  H3  UNL     1       1.311   0.320   1.961  1.00  0.00     0.184 HD
BRANCH  16  21
HETATM   21  C7  UNL     1      -1.757   0.930  -0.804  1.00  0.00     0.176 C 
BRANCH  21  22
HETATM   22  C8  UNL     1      -2.837   0.282   0.047  1.00  0.00     0.186 C 
BRANCH  22  23
HETATM   23  O2  UNL     1      -3.004   1.098   1.173  1.00  0.00    -0.388 OA
ATOM     24  H2  UNL     1      -3.679   0.693   1.705  1.00  0.00     0.210 HD
ENDBRANCH  22  23
BRANCH  22  25
HETATM   25  C9  UNL     1      -4.103   0.158  -0.713  1.00  0.00     0.063 C 
HETATM   26  N5  UNL     1      -4.130   0.588  -1.922  1.00  0.00    -0.273 N 
ATOM     27  H5  UNL     1      -3.265   0.991  -2.281  1.00  0.00     0.193 HD
BRANCH  25  28
HETATM   28  C10 UNL     1      -5.324  -0.435  -0.137  1.00  0.00     0.221 C 
BRANCH  28  29
HETATM   29  O3  UNL     1      -5.115  -1.764   0.265  1.00  0.00    -0.395 OA
ATOM     30  H3  UNL     1      -5.902  -2.146   0.636  1.00  0.00     0.209 HD
ENDBRANCH  28  29
ENDBRANCH  25  28
BRANCH  26  31
HETATM   31  O4  UNL     1      -5.180   0.564  -2.769  1.00  0.00    -0.290 OA
ATOM     32  H4  UNL     1      -5.200   0.882  -3.664  1.00  0.00     0.244 HD
ENDBRANCH  26  31
ENDBRANCH  22  25
ENDBRANCH  21  22
ENDBRANCH  16  21
BRANCH  17  33
HETATM   33  N7  UNL     1       0.433  -2.406   0.420  1.00  0.00    -0.024 N 
HETATM   34  O5  UNL     1       1.100  -3.286  -0.144  1.00  0.00    -0.516 OA
HETATM   35  O6  UNL     1       0.211  -2.546   1.775  1.00  0.00    -0.516 OA
ENDBRANCH  17  33
ENDBRANCH   9  14
TORSDOF 10
