REMARK  9 active torsions:
REMARK  status: ('A' for Active; 'I' for Inactive)
REMARK    1  A    between atoms: N1_2  and  C2_3 
REMARK    2  A    between atoms: N1_2  and  C8_22 
REMARK    3  A    between atoms: C2_3  and  C3_4 
REMARK       I    between atoms: C3_4  and  N2_6 
REMARK    4  A    between atoms: N2_6  and  S1_8 
REMARK    5  A    between atoms: S1_8  and  C4_11 
REMARK    6  A    between atoms: C7_15  and  O4_16 
REMARK    7  A    between atoms: O4_16  and  N3_17 
REMARK    8  A    between atoms: C9_25  and  N6_26 
REMARK    9  A    between atoms: C10_31  and  N8_32 
ROOT
HETATM    1  C2  UNL     1      -0.598   1.414   0.844  1.00  0.00     0.244 C 
ENDROOT
BRANCH   1   2
HETATM    2  N1  UNL     1      -1.735   0.717   1.354  1.00  0.00    -0.212 N 
HETATM    3  C1  UNL     1      -1.759   0.208   2.716  1.00  0.00     0.169 C 
BRANCH   2   4
HETATM    4  C8  UNL     1      -2.897   0.488   0.575  1.00  0.00     0.709 A 
HETATM    5  N5  UNL     1      -3.000  -0.643  -0.126  1.00  0.00    -0.022 N 
HETATM    6  C9  UNL     1      -4.119  -0.834  -0.854  1.00  0.00     0.705 A 
ATOM      7  H5  UNL     1      -2.256  -1.341  -0.112  1.00  0.00     0.203 HD
HETATM    8  N7  UNL     1      -5.109   0.070  -0.888  1.00  0.00    -0.022 N 
HETATM    9  C10 UNL     1      -4.978   1.200  -0.173  1.00  0.00     0.705 A 
ATOM     10  H7  UNL     1      -5.946  -0.097  -1.446  1.00  0.00     0.203 HD
HETATM   11  N9  UNL     1      -3.871   1.410   0.560  1.00  0.00    -0.022 N 
ATOM     12  H9  UNL     1      -3.772   2.268   1.103  1.00  0.00     0.203 HD
BRANCH   6  13
HETATM   13  N6  UNL     1      -4.227  -1.924  -1.533  1.00  0.00    -0.234 N 
ATOM     14  H62 UNL     1      -3.474  -2.612  -1.507  1.00  0.00     0.174 HD
ATOM     15  H61 UNL     1      -5.073  -2.068  -2.084  1.00  0.00     0.174 HD
ENDBRANCH   6  13
BRANCH   9  16
HETATM   16  N8  UNL     1      -5.891   2.090  -0.171  1.00  0.00    -0.234 N 
ATOM     17  H82 UNL     1      -6.731   1.931  -0.727  1.00  0.00     0.174 HD
ATOM     18  H81 UNL     1      -5.792   2.948   0.372  1.00  0.00     0.174 HD
ENDBRANCH   9  16
ENDBRANCH   2   4
ENDBRANCH   1   2
BRANCH   1  19
HETATM   19  C3  UNL     1       0.608   0.584   0.650  1.00  0.00     0.249 C 
HETATM   20  O1  UNL     1       1.627   1.217   0.213  1.00  0.00    -0.271 OA
HETATM   21  N2  UNL     1       0.707  -0.796   0.903  1.00  0.00    -0.248 N 
ATOM     22  H2  UNL     1      -0.137  -1.257   1.243  1.00  0.00     0.182 HD
BRANCH  21  23
HETATM   23  S1  UNL     1       2.079  -1.782   0.704  1.00  0.00     0.274 S 
HETATM   24  O2  UNL     1       1.612  -3.183   0.333  1.00  0.00    -0.199 OA
HETATM   25  O3  UNL     1       2.937  -1.838   1.938  1.00  0.00    -0.199 OA
BRANCH  23  26
HETATM   26  C4  UNL     1       3.127  -1.283  -0.620  1.00  0.00     0.156 A 
HETATM   27  S2  UNL     1       2.983  -1.700  -2.285  1.00  0.00    -0.086 SA
HETATM   28  C5  UNL     1       4.344  -0.877  -2.892  1.00  0.00     0.054 A 
HETATM   29  C6  UNL     1       4.877  -0.295  -1.773  1.00  0.00     0.049 A 
HETATM   30  C7  UNL     1       4.250  -0.506  -0.609  1.00  0.00     0.131 A 
BRANCH  30  31
HETATM   31  O4  UNL     1       4.717   0.047   0.613  1.00  0.00    -0.221 OA
BRANCH  31  32
HETATM   32  N3  UNL     1       5.814   0.832   0.700  1.00  0.00    -0.208 N 
HETATM   33  N4  UNL     1       6.904   0.346   1.091  1.00  0.00    -0.325 N 
ATOM     34  H42 UNL     1       6.945  -0.643   1.339  1.00  0.00     0.178 HD
ATOM     35  H41 UNL     1       7.732   0.938   1.157  1.00  0.00     0.178 HD
ATOM     36  H3  UNL     1       5.757   1.819   0.448  1.00  0.00     0.215 HD
ENDBRANCH  31  32
ENDBRANCH  30  31
ENDBRANCH  23  26
ENDBRANCH  21  23
ENDBRANCH   1  19
TORSDOF 9
