REMARK  10 active torsions:
REMARK  status: ('A' for Active; 'I' for Inactive)
REMARK    1  A    between atoms: O1_2  and  C2_3 
REMARK    2  A    between atoms: C2_3  and  C3_5 
REMARK    3  A    between atoms: N1_7  and  N2_9 
REMARK       I    between atoms: N2_9  and  C5_11 
REMARK    4  A    between atoms: C5_11  and  C6_13 
REMARK    5  A    between atoms: C7_14  and  C8_15 
REMARK    6  A    between atoms: C8_15  and  O4_16 
REMARK    7  A    between atoms: C8_15  and  O5_18 
REMARK    8  A    between atoms: C9_20  and  N3_21 
REMARK    9  A    between atoms: C10_23  and  C11_24 
REMARK   10  A    between atoms: C11_24  and  N4_25 
ROOT
HETATM    1  C6  UNL     1       0.377   1.403  -0.379  1.00  0.00     0.090 A 
HETATM    2  C7  UNL     1       1.553   0.816   0.014  1.00  0.00     0.043 A 
HETATM    3  C9  UNL     1       2.755   1.122  -0.665  1.00  0.00     0.059 A 
HETATM    4  C12 UNL     1       2.677   2.003  -1.695  1.00  0.00     0.119 A 
HETATM    5  N5  UNL     1       1.560   2.581  -2.090  1.00  0.00    -0.350 N 
ATOM      6  H5  UNL     1       1.575   3.235  -2.873  1.00  0.00     0.166 HD
HETATM    7  C13 UNL     1       0.377   2.306  -1.451  1.00  0.00     0.115 A 
HETATM    8  N6  UNL     1      -0.642   2.938  -1.845  1.00  0.00    -0.385 N 
ATOM      9  H61 UNL     1      -0.642   3.595  -2.625  1.00  0.00     0.157 HD
ATOM     10  H62 UNL     1      -1.521   2.734  -1.370  1.00  0.00     0.157 HD
ENDROOT
BRANCH   1  11
HETATM   11  C5  UNL     1      -0.902   1.170   0.241  1.00  0.00     0.274 C 
HETATM   12  N2  UNL     1      -2.038   0.768  -0.587  1.00  0.00    -0.265 N 
ATOM     13  H2  UNL     1      -1.891   0.664  -1.591  1.00  0.00     0.190 HD
HETATM   14  O3  UNL     1      -1.208   1.258   1.449  1.00  0.00    -0.266 OA
BRANCH  12  15
HETATM   15  N1  UNL     1      -3.295   0.522  -0.083  1.00  0.00    -0.296 N 
HETATM   16  C3  UNL     1      -3.679  -0.605   0.413  1.00  0.00     0.097 C 
HETATM   17  C4  UNL     1      -2.728  -1.738   0.460  1.00  0.00     0.076 C 
ATOM     18  H1  UNL     1      -3.971   1.285  -0.103  1.00  0.00     0.187 HD
BRANCH  16  19
HETATM   19  C2  UNL     1      -5.025  -0.767   0.920  1.00  0.00     0.306 C 
HETATM   20  O2  UNL     1      -5.375  -1.869   1.395  1.00  0.00    -0.258 OA
BRANCH  19  21
HETATM   21  O1  UNL     1      -5.941   0.268   0.892  1.00  0.00    -0.322 OA
HETATM   22  C1  UNL     1      -7.273   0.088   1.399  1.00  0.00     0.213 C 
ENDBRANCH  19  21
ENDBRANCH  16  19
ENDBRANCH  12  15
ENDBRANCH   1  11
BRANCH   2  23
HETATM   23  C8  UNL     1       1.622  -0.136   1.140  1.00  0.00     0.291 C 
BRANCH  23  24
HETATM   24  O4  UNL     1       1.020   0.242   2.304  1.00  0.00    -0.367 OA
ATOM     25  H4  UNL     1       1.064  -0.371   3.029  1.00  0.00     0.213 HD
ENDBRANCH  23  24
BRANCH  23  26
HETATM   26  O5  UNL     1       1.235  -1.428   0.734  1.00  0.00    -0.367 OA
ATOM     27  H5  UNL     1       1.279  -2.041   1.459  1.00  0.00     0.213 HD
ENDBRANCH  23  26
ENDBRANCH   2  23
BRANCH   3  28
HETATM   28  N3  UNL     1       3.951   0.497  -0.234  1.00  0.00    -0.366 N 
HETATM   29  C10 UNL     1       4.470  -0.525  -0.794  1.00  0.00     0.087 C 
ATOM     30  H3  UNL     1       4.428   0.890   0.577  1.00  0.00     0.165 HD
BRANCH  29  31
HETATM   31  C11 UNL     1       5.722  -1.106  -0.271  1.00  0.00     0.245 C 
BRANCH  31  32
HETATM   32  N4  UNL     1       5.662  -2.547  -0.319  1.00  0.00    -0.151 N 
HETATM   33  O6  UNL     1       4.642  -3.102  -0.761  1.00  0.00    -0.536 OA
HETATM   34  O7  UNL     1       6.697  -3.348   0.108  1.00  0.00    -0.536 OA
ENDBRANCH  31  32
ENDBRANCH  29  31
ENDBRANCH   3  28
TORSDOF 10
