REMARK  14 active torsions:
REMARK  status: ('A' for Active; 'I' for Inactive)
REMARK    1  A    between atoms: O1_2  and  C2_3 
REMARK    2  A    between atoms: C2_3  and  C3_5 
REMARK    3  A    between atoms: C3_5  and  N1_6 
REMARK    4  A    between atoms: C3_5  and  C9_24 
REMARK    5  A    between atoms: N1_6  and  O3_7 
REMARK    6  A    between atoms: O3_7  and  C4_8 
REMARK    7  A    between atoms: C4_8  and  C6_10 
REMARK    8  A    between atoms: C4_8  and  C8_21 
REMARK    9  A    between atoms: C6_10  and  S1_11 
REMARK   10  A    between atoms: S1_11  and  C7_12 
REMARK       I    between atoms: C9_24  and  N6_26 
REMARK   11  A    between atoms: C12_32  and  N8_33 
REMARK   12  A    between atoms: C14_41  and  C15_42 
REMARK   13  A    between atoms: C15_42  and  O7_43 
REMARK   14  A    between atoms: N12_45  and  C16_47 
ROOT
HETATM    1  C9  UNL     1      -1.330  -1.749  -0.590  1.00  0.00     0.253 C 
HETATM    2  O6  UNL     1      -1.187  -1.911  -1.823  1.00  0.00    -0.271 OA
HETATM    3  N6  UNL     1      -0.294  -2.082   0.286  1.00  0.00    -0.324 N 
ATOM      4  H6  UNL     1      -0.353  -3.022   0.678  1.00  0.00     0.169 HD
HETATM    5  C10 UNL     1       0.704  -1.411   0.672  1.00  0.00     0.076 C 
HETATM    6  C11 UNL     1       1.615  -2.099   1.624  1.00  0.00     0.181 A 
HETATM    7  N7  UNL     1       1.566  -3.228   2.337  1.00  0.00    -0.171 N 
ATOM      8  H7  UNL     1       0.785  -3.884   2.334  1.00  0.00     0.186 HD
HETATM    9  C12 UNL     1       2.692  -3.378   3.060  1.00  0.00     0.693 A 
HETATM   10  N9  UNL     1       3.445  -2.289   2.764  1.00  0.00    -0.112 N 
ATOM     11  H9  UNL     1       4.370  -2.090   3.146  1.00  0.00     0.207 HD
HETATM   12  N10 UNL     1       2.792  -1.526   1.902  1.00  0.00    -0.166 N 
HETATM   13  N11 UNL     1       3.173  -0.295   1.299  1.00  0.00    -0.104 NA
HETATM   14  C13 UNL     1       2.545  -0.046   0.001  1.00  0.00     0.158 C 
HETATM   15  C14 UNL     1       3.156   1.210  -0.562  1.00  0.00     0.018 C 
HETATM   16  C19 UNL     1       2.486   2.265  -0.936  1.00  0.00    -0.062 C 
HETATM   17  C20 UNL     1       3.200   3.459  -1.476  1.00  0.00     0.045 C 
HETATM   18  C21 UNL     1       0.976   2.433  -0.932  1.00  0.00     0.109 C 
HETATM   19  S2  UNL     1       0.240   0.744  -1.025  1.00  0.00    -0.151 SA
HETATM   20  C22 UNL     1       1.095  -0.050   0.324  1.00  0.00     0.127 C 
ENDROOT
BRANCH   1  21
HETATM   21  C3  UNL     1      -2.630  -1.198  -0.107  1.00  0.00     0.297 C 
BRANCH  21  22
HETATM   22  C2  UNL     1      -3.267  -2.091   0.871  1.00  0.00     0.289 C 
HETATM   23  O2  UNL     1      -4.425  -2.541   0.754  1.00  0.00    -0.263 OA
BRANCH  22  24
HETATM   24  O1  UNL     1      -2.511  -2.443   1.992  1.00  0.00    -0.325 OA
HETATM   25  C1  UNL     1      -3.085  -3.303   2.962  1.00  0.00     0.213 C 
ENDBRANCH  22  24
ENDBRANCH  21  22
BRANCH  21  26
HETATM   26  N1  UNL     1      -3.533  -0.946  -1.197  1.00  0.00    -0.075 NA
BRANCH  26  27
HETATM   27  O3  UNL     1      -4.632  -0.314  -0.787  1.00  0.00    -0.262 OA
BRANCH  27  28
HETATM   28  C4  UNL     1      -5.492   0.018  -1.795  1.00  0.00     0.177 C 
HETATM   29  C5  UNL     1      -4.813   0.944  -2.815  1.00  0.00     0.061 C 
BRANCH  28  30
HETATM   30  C6  UNL     1      -6.690   0.774  -1.283  1.00  0.00     0.133 C 
BRANCH  30  31
HETATM   31  S1  UNL     1      -6.242   2.310  -0.506  1.00  0.00    -0.088 SA
BRANCH  31  32
HETATM   32  C7  UNL     1      -5.404   2.154   1.033  1.00  0.00     0.176 A 
HETATM   33  N2  UNL     1      -5.038   1.104   1.773  1.00  0.00    -0.263 N 
HETATM   34  N3  UNL     1      -4.424   1.551   2.854  1.00  0.00    -0.226 N 
ATOM     35  H2  UNL     1      -5.204   0.124   1.543  1.00  0.00     0.190 HD
HETATM   36  N4  UNL     1      -4.382   2.865   2.837  1.00  0.00    -0.226 N 
ATOM     37  H3  UNL     1      -4.039   0.963   3.593  1.00  0.00     0.210 HD
HETATM   38  N5  UNL     1      -4.974   3.233   1.735  1.00  0.00    -0.263 N 
ATOM     39  H4  UNL     1      -3.969   3.474   3.544  1.00  0.00     0.210 HD
ATOM     40  H5  UNL     1      -5.097   4.202   1.440  1.00  0.00     0.190 HD
ENDBRANCH  31  32
ENDBRANCH  30  31
ENDBRANCH  28  30
BRANCH  28  41
HETATM   41  C8  UNL     1      -5.993  -1.135  -2.592  1.00  0.00     0.211 C 
HETATM   42  O4  UNL     1      -6.814  -0.938  -3.538  1.00  0.00    -0.646 OA
HETATM   43  O5  UNL     1      -5.626  -2.450  -2.382  1.00  0.00    -0.646 OA
ENDBRANCH  28  41
ENDBRANCH  27  28
ENDBRANCH  26  27
ENDBRANCH  21  26
ENDBRANCH   1  21
BRANCH   9  44
HETATM   44  N8  UNL     1       3.036  -4.316   3.866  1.00  0.00    -0.233 N 
ATOM     45  H82 UNL     1       2.470  -5.135   4.089  1.00  0.00     0.174 HD
ATOM     46  H81 UNL     1       3.889  -4.430   4.414  1.00  0.00     0.174 HD
ENDBRANCH   9  44
BRANCH  15  47
HETATM   47  C15 UNL     1       4.623   1.072  -0.668  1.00  0.00     0.150 C 
HETATM   48  N12 UNL     1       5.630   1.871  -1.109  1.00  0.00    -0.316 N 
ATOM     49  H12 UNL     1       5.399   2.798  -1.467  1.00  0.00     0.170 HD
BRANCH  47  50
HETATM   50  O7  UNL     1       5.004  -0.106  -0.227  1.00  0.00    -0.346 OA
ATOM     51  H7  UNL     1       5.947  -0.195  -0.295  1.00  0.00     0.219 HD
ENDBRANCH  47  50
BRANCH  48  52
HETATM   52  C16 UNL     1       7.025   1.456  -1.090  1.00  0.00     0.170 A 
HETATM   53  C17 UNL     1       7.556   0.289  -0.664  1.00  0.00     0.149 A 
HETATM   54  N13 UNL     1       8.924   0.341  -0.837  1.00  0.00    -0.308 N 
HETATM   55  C18 UNL     1       9.152   1.554  -1.365  1.00  0.00     0.371 A 
ATOM     56  H13 UNL     1       9.609  -0.381  -0.614  1.00  0.00     0.170 HD
HETATM   57  O8  UNL     1      10.314   1.971  -1.666  1.00  0.00    -0.238 OA
HETATM   58  O9  UNL     1       8.030   2.196  -1.508  1.00  0.00    -0.242 OA
ENDBRANCH  48  52
ENDBRANCH  15  47
TORSDOF 14
