REMARK  15 active torsions:
REMARK  status: ('A' for Active; 'I' for Inactive)
REMARK    1  A    between atoms: C2_2  and  C3_3 
REMARK    2  A    between atoms: C2_2  and  N1_6 
REMARK    3  A    between atoms: C3_3  and  O1_4 
REMARK    4  A    between atoms: N1_6  and  C4_8 
REMARK    5  A    between atoms: C5_11  and  N3_12 
REMARK    6  A    between atoms: N3_12  and  C6_14 
REMARK    7  A    between atoms: C6_14  and  C7_15 
REMARK    8  A    between atoms: C7_15  and  O2_16 
REMARK    9  A    between atoms: C8_20  and  N5_21 
REMARK   10  A    between atoms: N5_21  and  C9_23 
REMARK   11  A    between atoms: C9_23  and  C10_24 
REMARK   12  A    between atoms: C10_24  and  C11_25 
REMARK   13  A    between atoms: C11_25  and  C12_26 
REMARK   14  A    between atoms: C12_26  and  C13_27 
REMARK   15  A    between atoms: C13_27  and  N6_28 
ROOT
HETATM    1  C4  UNL     1      -2.205  -0.129  -0.030  1.00  0.00     0.707 A 
HETATM    2  N2  UNL     1      -2.740   1.100  -0.110  1.00  0.00    -0.022 N 
ATOM      3  H2  UNL     1      -3.744   1.200  -0.263  1.00  0.00     0.203 HD
HETATM    4  C5  UNL     1      -1.967   2.217   0.009  1.00  0.00     0.707 A 
HETATM    5  N4  UNL     1      -0.643   2.083   0.211  1.00  0.00    -0.022 N 
ATOM      6  H4  UNL     1      -0.057   2.913   0.301  1.00  0.00     0.203 HD
HETATM    7  C8  UNL     1      -0.087   0.859   0.295  1.00  0.00     0.707 A 
HETATM    8  N7  UNL     1      -0.883  -0.244   0.172  1.00  0.00    -0.022 N 
ATOM      9  H7  UNL     1      -0.465  -1.172   0.235  1.00  0.00     0.203 HD
ENDROOT
BRANCH   7  10
HETATM   10  N5  UNL     1       1.183   0.744   0.488  1.00  0.00    -0.225 N 
ATOM     11  H5  UNL     1       1.772   1.572   0.577  1.00  0.00     0.177 HD
BRANCH  10  12
HETATM   12  C9  UNL     1       1.754  -0.576   0.575  1.00  0.00     0.138 C 
BRANCH  12  13
HETATM   13  C10 UNL     1       3.208  -0.570   0.915  1.00  0.00     0.020 C 
BRANCH  13  14
HETATM   14  C11 UNL     1       4.027   0.176  -0.115  1.00  0.00     0.003 C 
BRANCH  14  15
HETATM   15  C12 UNL     1       5.498   0.174   0.243  1.00  0.00     0.027 C 
BRANCH  15  16
HETATM   16  C13 UNL     1       6.059  -1.217   0.330  1.00  0.00     0.229 C 
BRANCH  16  17
HETATM   17  N6  UNL     1       5.929  -1.922  -0.930  1.00  0.00    -0.079 N 
ATOM     18  H63 UNL     1       4.962  -1.929  -1.256  1.00  0.00     0.274 HD
ATOM     19  H62 UNL     1       6.350  -1.397  -1.697  1.00  0.00     0.274 HD
ATOM     20  H61 UNL     1       6.310  -2.866  -0.871  1.00  0.00     0.274 HD
ENDBRANCH  16  17
ENDBRANCH  15  16
ENDBRANCH  14  15
ENDBRANCH  13  14
ENDBRANCH  12  13
ENDBRANCH  10  12
ENDBRANCH   7  10
BRANCH   4  21
HETATM   21  N3  UNL     1      -2.471   3.400  -0.068  1.00  0.00    -0.223 N 
ATOM     22  H3  UNL     1      -1.874   4.222   0.023  1.00  0.00     0.177 HD
BRANCH  21  23
HETATM   23  C6  UNL     1      -3.889   3.550  -0.284  1.00  0.00     0.164 C 
BRANCH  23  24
HETATM   24  C7  UNL     1      -4.331   4.994  -0.108  1.00  0.00     0.184 C 
BRANCH  24  25
HETATM   25  O2  UNL     1      -3.683   5.818  -1.001  1.00  0.00    -0.399 OA
ATOM     26  H2  UNL     1      -3.959   6.720  -0.891  1.00  0.00     0.209 HD
ENDBRANCH  24  25
ENDBRANCH  23  24
ENDBRANCH  21  23
ENDBRANCH   4  21
BRANCH   1  27
HETATM   27  N1  UNL     1      -2.898  -1.198  -0.136  1.00  0.00    -0.219 N 
ATOM     28  H1  UNL     1      -3.901  -1.093  -0.289  1.00  0.00     0.178 HD
BRANCH  27  29
HETATM   29  C2  UNL     1      -2.381  -2.527  -0.058  1.00  0.00     0.118 C 
HETATM   30  C1  UNL     1      -2.076  -2.954   1.362  1.00  0.00     0.035 C 
BRANCH  29  31
HETATM   31  C3  UNL     1      -3.486  -3.455  -0.585  1.00  0.00     0.189 C 
BRANCH  31  32
HETATM   32  O1  UNL     1      -3.773  -3.105  -1.885  1.00  0.00    -0.399 OA
ATOM     33  H1  UNL     1      -4.456  -3.679  -2.211  1.00  0.00     0.209 HD
ENDBRANCH  31  32
ENDBRANCH  29  31
ENDBRANCH  27  29
ENDBRANCH   1  27
TORSDOF 15
