REMARK  12 active torsions:
REMARK  status: ('A' for Active; 'I' for Inactive)
REMARK    1  A    between atoms: N1_1  and  C1_4 
REMARK    2  A    between atoms: C2_7  and  N3_8 
REMARK    3  A    between atoms: N3_8  and  C3_10 
REMARK    4  A    between atoms: C3_10  and  C4_11 
REMARK    5  A    between atoms: C4_11  and  N4_12 
REMARK    6  A    between atoms: N4_12  and  C5_15 
REMARK    7  A    between atoms: C5_15  and  C6_16 
REMARK    8  A    between atoms: C6_16  and  N5_17 
REMARK    9  A    between atoms: N5_17  and  C7_18 
REMARK   10  A    between atoms: N5_17  and  C8_20 
REMARK   11  A    between atoms: C8_20  and  C9_21 
REMARK   12  A    between atoms: C9_21  and  O2_22 
ROOT
HETATM    1  C1  UNL     1      -4.944   1.663  -0.010  1.00  0.00     0.145 A 
HETATM    2  N2  UNL     1      -3.687   2.070   0.182  1.00  0.00    -0.175 N 
ATOM      3  H2  UNL     1      -3.467   3.052   0.019  1.00  0.00     0.186 HD
HETATM    4  C2  UNL     1      -2.677   1.236   0.587  1.00  0.00     0.681 A 
HETATM    5  N6  UNL     1      -3.005  -0.050   0.791  1.00  0.00    -0.174 N 
ATOM      6  H6  UNL     1      -2.275  -0.695   1.092  1.00  0.00     0.186 HD
HETATM    7  C10 UNL     1      -4.251  -0.529   0.617  1.00  0.00     0.152 A 
HETATM    8  N7  UNL     1      -4.805  -1.769   0.762  1.00  0.00    -0.336 N 
ATOM      9  H7  UNL     1      -4.328  -2.623   1.052  1.00  0.00     0.168 HD
HETATM   10  C11 UNL     1      -6.107  -1.638   0.445  1.00  0.00     0.182 A 
HETATM   11  N8  UNL     1      -6.378  -0.359   0.109  1.00  0.00    -0.346 N 
ATOM     12  H8  UNL     1      -7.286   0.010  -0.172  1.00  0.00     0.167 HD
HETATM   13  C12 UNL     1      -5.242   0.335   0.211  1.00  0.00     0.122 A 
ENDROOT
BRANCH   4  14
HETATM   14  N3  UNL     1      -1.493   1.730   0.744  1.00  0.00    -0.224 N 
ATOM     15  H3  UNL     1      -1.328   2.721   0.566  1.00  0.00     0.177 HD
BRANCH  14  16
HETATM   16  C3  UNL     1      -0.411   0.890   1.167  1.00  0.00     0.165 C 
BRANCH  16  17
HETATM   17  C4  UNL     1       0.150   0.214  -0.091  1.00  0.00     0.252 C 
BRANCH  17  18
HETATM   18  N4  UNL     1       1.233  -0.626   0.379  1.00  0.00    -0.072 N 
ATOM     19  H42 UNL     1       1.906  -0.105   0.941  1.00  0.00     0.277 HD
ATOM     20  H41 UNL     1       0.924  -1.287   1.092  1.00  0.00     0.277 HD
BRANCH  18  21
HETATM   21  C5  UNL     1       1.850  -1.280  -0.726  1.00  0.00     0.252 C 
BRANCH  21  22
HETATM   22  C6  UNL     1       2.652  -0.409  -1.639  1.00  0.00     0.152 C 
BRANCH  22  23
HETATM   23  N5  UNL     1       3.754   0.209  -0.954  1.00  0.00    -0.356 N 
BRANCH  23  24
HETATM   24  C7  UNL     1       3.651   1.460  -0.328  1.00  0.00     0.350 C 
HETATM   25  O1  UNL     1       4.597   2.021   0.292  1.00  0.00    -0.284 OA
ENDBRANCH  23  24
BRANCH  23  26
HETATM   26  C8  UNL     1       5.055  -0.435  -0.912  1.00  0.00     0.151 C 
BRANCH  26  27
HETATM   27  C9  UNL     1       5.295  -1.301   0.276  1.00  0.00     0.183 C 
BRANCH  27  28
HETATM   28  O2  UNL     1       5.207  -0.625   1.491  1.00  0.00    -0.399 OA
ATOM     29  H2  UNL     1       5.360  -1.177   2.249  1.00  0.00     0.209 HD
ENDBRANCH  27  28
ENDBRANCH  26  27
ENDBRANCH  23  26
ENDBRANCH  22  23
ENDBRANCH  21  22
ENDBRANCH  18  21
ENDBRANCH  17  18
ENDBRANCH  16  17
ENDBRANCH  14  16
ENDBRANCH   4  14
BRANCH   1  30
HETATM   30  N1  UNL     1      -5.884   2.472  -0.394  1.00  0.00    -0.383 N 
ATOM     31  H12 UNL     1      -5.664   3.454  -0.557  1.00  0.00     0.157 HD
ATOM     32  H11 UNL     1      -6.844   2.161  -0.541  1.00  0.00     0.157 HD
ENDBRANCH   1  30
TORSDOF 12
