REMARK  14 active torsions:
REMARK  status: ('A' for Active; 'I' for Inactive)
REMARK    1  A    between atoms: C2_2  and  O1_3 
REMARK    2  A    between atoms: C2_2  and  C3_5 
REMARK    3  A    between atoms: C3_5  and  C4_6 
REMARK    4  A    between atoms: C4_6  and  C5_7 
REMARK    5  A    between atoms: C5_7  and  N1_8 
REMARK    6  A    between atoms: N1_8  and  C6_10 
REMARK    7  A    between atoms: N3_14  and  C8_16 
REMARK    8  A    between atoms: C8_16  and  C9_17 
REMARK    9  A    between atoms: C9_17  and  O2_18 
REMARK   10  A    between atoms: C10_22  and  N5_23 
REMARK   11  A    between atoms: N5_23  and  C11_25 
REMARK   12  A    between atoms: C11_25  and  C12_26 
REMARK   13  A    between atoms: C12_26  and  C13_27 
REMARK   14  A    between atoms: C13_27  and  O3_28 
ROOT
HETATM    1  C6  UNL     1      -0.010   0.599  -0.454  1.00  0.00     0.707 A 
HETATM    2  N2  UNL     1      -0.069   1.954  -0.633  1.00  0.00    -0.022 N 
ATOM      3  H2  UNL     1       0.797   2.483  -0.734  1.00  0.00     0.203 HD
HETATM    4  C7  UNL     1      -1.241   2.600  -0.678  1.00  0.00     0.707 A 
HETATM    5  N3  UNL     1      -1.287   3.859  -0.844  1.00  0.00    -0.223 N 
ATOM      6  H3  UNL     1      -2.209   4.295  -0.869  1.00  0.00     0.177 HD
HETATM    7  N4  UNL     1      -2.413   1.897  -0.543  1.00  0.00    -0.022 N 
ATOM      8  H4  UNL     1      -3.312   2.378  -0.576  1.00  0.00     0.203 HD
HETATM    9  C10 UNL     1      -2.358   0.590  -0.370  1.00  0.00     0.707 A 
HETATM   10  N6  UNL     1      -1.166  -0.051  -0.327  1.00  0.00    -0.022 N 
ATOM     11  H6  UNL     1      -1.153  -1.062  -0.193  1.00  0.00     0.203 HD
ENDROOT
BRANCH   1  12
HETATM   12  N1  UNL     1       1.150   0.050  -0.421  1.00  0.00    -0.225 N 
ATOM     13  H1  UNL     1       1.999   0.605  -0.524  1.00  0.00     0.177 HD
BRANCH  12  14
HETATM   14  C5  UNL     1       1.212  -1.385  -0.232  1.00  0.00     0.138 C 
BRANCH  14  15
HETATM   15  C4  UNL     1       2.635  -1.896  -0.293  1.00  0.00     0.023 C 
BRANCH  15  16
HETATM   16  C3  UNL     1       3.414  -1.198   0.822  1.00  0.00     0.033 C 
BRANCH  16  17
HETATM   17  C2  UNL     1       4.853  -1.718   0.757  1.00  0.00     0.114 C 
HETATM   18  C1  UNL     1       5.371  -1.348  -0.628  1.00  0.00     0.039 C 
BRANCH  17  19
HETATM   19  O1  UNL     1       5.634  -1.103   1.716  1.00  0.00    -0.396 OA
ATOM     20  H1  UNL     1       5.311  -1.334   2.579  1.00  0.00     0.210 HD
ENDBRANCH  17  19
ENDBRANCH  16  17
ENDBRANCH  15  16
ENDBRANCH  14  15
ENDBRANCH  12  14
ENDBRANCH   1  12
BRANCH   9  21
HETATM   21  N5  UNL     1      -3.431  -0.106  -0.240  1.00  0.00    -0.225 N 
ATOM     22  H5  UNL     1      -4.339   0.358  -0.271  1.00  0.00     0.177 HD
BRANCH  21  23
HETATM   23  C11 UNL     1      -3.367  -1.537  -0.051  1.00  0.00     0.140 C 
BRANCH  23  24
HETATM   24  C12 UNL     1      -4.790  -2.072   0.146  1.00  0.00     0.046 C 
BRANCH  24  25
HETATM   25  C13 UNL     1      -4.751  -3.554   0.344  1.00  0.00     0.165 C 
BRANCH  25  26
HETATM   26  O3  UNL     1      -6.039  -4.030   0.521  1.00  0.00    -0.401 OA
ATOM     27  H3  UNL     1      -6.014  -4.971   0.647  1.00  0.00     0.209 HD
ENDBRANCH  25  26
ENDBRANCH  24  25
ENDBRANCH  23  24
ENDBRANCH  21  23
ENDBRANCH   9  21
BRANCH   5  28
HETATM   28  C8  UNL     1      -0.165   4.702  -0.996  1.00  0.00     0.164 C 
BRANCH  28  29
HETATM   29  C9  UNL     1       0.152   5.393   0.335  1.00  0.00     0.184 C 
BRANCH  29  30
HETATM   30  O2  UNL     1       0.427   4.467   1.304  1.00  0.00    -0.399 OA
ATOM     31  H2  UNL     1       0.623   4.895   2.129  1.00  0.00     0.209 HD
ENDBRANCH  29  30
ENDBRANCH  28  29
ENDBRANCH   5  28
TORSDOF 14
