REMARK  8 active torsions:
REMARK  status: ('A' for Active; 'I' for Inactive)
REMARK    1  A    between atoms: N1_2  and  C2_4 
REMARK    2  A    between atoms: C8_16  and  O1_17 
REMARK    3  A    between atoms: O1_17  and  C9_18 
REMARK       I    between atoms: C9_18  and  N6_20 
REMARK    4  A    between atoms: N6_20  and  N7_22 
REMARK    5  A    between atoms: N8_24  and  C10_26 
REMARK    6  A    between atoms: C10_26  and  O3_27 
REMARK    7  A    between atoms: C10_26  and  N9_29 
REMARK    8  A    between atoms: N9_29  and  N10_31 
ROOT
HETATM    1  C2  UNL     1      -3.047  -0.993  -0.069  1.00  0.00     0.117 C 
HETATM    2  C3  UNL     1      -4.084   0.044   0.272  1.00  0.00     0.096 C 
HETATM    3  N2  UNL     1      -3.874   1.357  -0.112  1.00  0.00    -0.375 N 
ATOM      4  H2  UNL     1      -4.434   2.087   0.328  1.00  0.00     0.160 HD
HETATM    5  C4  UNL     1      -2.911   1.737  -1.094  1.00  0.00     0.247 C 
HETATM    6  C5  UNL     1      -1.590   2.130  -0.438  1.00  0.00     0.147 C 
HETATM    7  N3  UNL     1      -0.810   3.080  -0.293  1.00  0.00    -0.279 N 
ATOM      8  H3  UNL     1       0.028   2.910   0.263  1.00  0.00     0.179 HD
HETATM    9  C6  UNL     1      -0.970   4.348  -0.814  1.00  0.00     0.183 C 
HETATM   10  N4  UNL     1      -1.122   5.393  -1.250  1.00  0.00    -0.172 NA
HETATM   11  N5  UNL     1      -1.697   0.788  -0.035  1.00  0.00    -0.256 N 
HETATM   12  C7  UNL     1      -1.763  -0.490   0.530  1.00  0.00     0.087 C 
HETATM   13  C8  UNL     1      -0.885  -0.980   1.349  1.00  0.00     0.177 C 
HETATM   14  N11 UNL     1      -2.060   0.596  -1.444  1.00  0.00    -0.189 NA
HETATM   15  C11 UNL     1      -2.702  -0.654  -1.536  1.00  0.00     0.160 C 
ENDROOT
BRANCH   1  16
HETATM   16  N1  UNL     1      -3.350  -2.321   0.073  1.00  0.00    -0.407 N 
HETATM   17  C1  UNL     1      -3.656  -2.809   1.374  1.00  0.00     0.141 C 
ATOM     18  H1  UNL     1      -3.356  -2.945  -0.734  1.00  0.00     0.154 HD
ENDBRANCH   1  16
BRANCH  13  19
HETATM   19  O1  UNL     1       0.258  -0.322   1.779  1.00  0.00    -0.270 OA
BRANCH  19  20
HETATM   20  C9  UNL     1       1.450  -0.441   1.058  1.00  0.00     0.385 C 
HETATM   21  O2  UNL     1       1.394  -1.166   0.028  1.00  0.00    -0.236 OA
HETATM   22  N6  UNL     1       2.640   0.215   1.465  1.00  0.00    -0.231 N 
ATOM     23  H6  UNL     1       2.647   0.793   2.305  1.00  0.00     0.194 HD
BRANCH  22  24
HETATM   24  N7  UNL     1       3.795   0.063   0.710  1.00  0.00    -0.239 N 
HETATM   25  N8  UNL     1       4.500   1.041   0.313  1.00  0.00    -0.275 N 
ATOM     26  H8  UNL     1       4.211   1.988   0.557  1.00  0.00     0.186 HD
ATOM     27  H7  UNL     1       4.092  -0.881   0.462  1.00  0.00     0.208 HD
BRANCH  25  28
HETATM   28  C10 UNL     1       5.698   0.856  -0.473  1.00  0.00     0.357 C 
BRANCH  28  29
HETATM   29  O3  UNL     1       6.775   1.462   0.184  1.00  0.00    -0.358 OA
ATOM     30  H3  UNL     1       7.563   1.340  -0.333  1.00  0.00     0.214 HD
ENDBRANCH  28  29
BRANCH  28  31
HETATM   31  N9  UNL     1       6.008  -0.504  -0.781  1.00  0.00    -0.296 N 
ATOM     32  H9  UNL     1       6.073  -0.849  -1.739  1.00  0.00     0.184 HD
BRANCH  31  33
HETATM   33  N10 UNL     1       6.213  -1.318   0.319  1.00  0.00    -0.346 N 
ATOM     34 2H10 UNL     1       6.144  -0.959   1.271  1.00  0.00     0.176 HD
ATOM     35 1H10 UNL     1       6.434  -2.289   0.099  1.00  0.00     0.176 HD
ENDBRANCH  31  33
ENDBRANCH  28  31
ENDBRANCH  25  28
ENDBRANCH  22  24
ENDBRANCH  19  20
ENDBRANCH  13  19
TORSDOF 8
