REMARK  7 active torsions:
REMARK  status: ('A' for Active; 'I' for Inactive)
REMARK    1  A    between atoms: C2_5  and  N3_6 
REMARK    2  A    between atoms: N4_9  and  C3_10 
REMARK    3  A    between atoms: N6_15  and  N7_16 
REMARK    4  A    between atoms: N7_16  and  C5_18 
REMARK    5  A    between atoms: C7_20  and  C8_21 
REMARK    6  A    between atoms: C10_26  and  N8_27 
REMARK    7  A    between atoms: C11_31  and  N9_32 
ROOT
HETATM    1  C3  UNL     1      -1.612   0.202  -0.353  1.00  0.00     0.275 A 
HETATM    2  N5  UNL     1      -1.172   0.303  -1.625  1.00  0.00    -0.271 N 
ATOM      3  H5  UNL     1      -1.839   0.539  -2.360  1.00  0.00     0.174 HD
HETATM    4  C4  UNL     1       0.107   0.105  -1.954  1.00  0.00     0.352 A 
HETATM    5  O1  UNL     1       0.509   0.203  -3.147  1.00  0.00    -0.244 OA
HETATM    6  N6  UNL     1       1.028  -0.215  -0.978  1.00  0.00    -0.165 N 
HETATM    7  C10 UNL     1       0.579  -0.311   0.279  1.00  0.00     0.251 A 
HETATM    8  O5  UNL     1      -0.685  -0.103   0.524  1.00  0.00    -0.243 OA
ENDROOT
BRANCH   1   9
HETATM    9  N4  UNL     1      -2.964   0.414  -0.003  1.00  0.00     0.063 N 
HETATM   10  C2  UNL     1      -3.423   1.302   0.873  1.00  0.00     0.715 A 
HETATM   11  N2  UNL     1      -4.759   1.224   0.949  1.00  0.00    -0.115 N 
HETATM   12  N1  UNL     1      -5.149   0.277   0.114  1.00  0.00    -0.113 N 
ATOM     13  H2  UNL     1      -5.364   1.792   1.543  1.00  0.00     0.206 HD
HETATM   14  C1  UNL     1      -6.516  -0.148  -0.127  1.00  0.00     0.198 C 
HETATM   15  C11 UNL     1      -4.026  -0.235  -0.486  1.00  0.00     0.717 A 
BRANCH  10  16
HETATM   16  N3  UNL     1      -2.693   2.133   1.558  1.00  0.00    -0.232 N 
ATOM     17  H32 UNL     1      -3.045   2.814   2.230  1.00  0.00     0.174 HD
ATOM     18  H31 UNL     1      -1.676   2.192   1.500  1.00  0.00     0.174 HD
ENDBRANCH  10  16
BRANCH  15  19
HETATM   19  N9  UNL     1      -4.017  -1.161  -1.350  1.00  0.00    -0.232 N 
ATOM     20  H92 UNL     1      -4.828  -1.657  -1.719  1.00  0.00     0.174 HD
ATOM     21  H91 UNL     1      -3.182  -1.542  -1.796  1.00  0.00     0.174 HD
ENDBRANCH  15  19
ENDBRANCH   1   9
BRANCH   7  22
HETATM   22  N8  UNL     1       1.408  -0.614   1.257  1.00  0.00    -0.363 N 
ATOM     23  H82 UNL     1       2.397  -0.777   1.065  1.00  0.00     0.159 HD
ATOM     24  H81 UNL     1       1.066  -0.687   2.215  1.00  0.00     0.159 HD
ENDBRANCH   7  22
BRANCH   6  25
HETATM   25  N7  UNL     1       2.346  -0.447  -1.351  1.00  0.00    -0.266 N 
ATOM     26  H7  UNL     1       2.534  -0.385  -2.352  1.00  0.00     0.190 HD
BRANCH  25  27
HETATM   27  C5  UNL     1       3.459  -0.755  -0.548  1.00  0.00     0.163 A 
HETATM   28  C6  UNL     1       4.471   0.165  -0.223  1.00  0.00     0.078 A 
HETATM   29  C7  UNL     1       5.404  -0.472   0.568  1.00  0.00     0.067 A 
HETATM   30  C9  UNL     1       4.936  -1.758   0.706  1.00  0.00     0.162 A 
HETATM   31  O4  UNL     1       3.813  -1.861   0.042  1.00  0.00    -0.303 OA
BRANCH  29  32
HETATM   32  C8  UNL     1       6.640   0.079   1.127  1.00  0.00     0.211 C 
HETATM   33  O2  UNL     1       7.392  -0.621   1.850  1.00  0.00    -0.644 OA
HETATM   34  O3  UNL     1       6.985   1.405   0.852  1.00  0.00    -0.644 OA
ENDBRANCH  29  32
ENDBRANCH  25  27
ENDBRANCH   6  25
TORSDOF 7
