REMARK  11 active torsions:
REMARK  status: ('A' for Active; 'I' for Inactive)
REMARK    1  A    between atoms: C2_2  and  N1_3 
REMARK    2  A    between atoms: C2_2  and  C9_30 
REMARK    3  A    between atoms: N1_3  and  N2_4 
REMARK    4  A    between atoms: N2_4  and  C3_6 
REMARK    5  A    between atoms: C5_11  and  N4_12 
REMARK    6  A    between atoms: N4_12  and  C6_14 
REMARK    7  A    between atoms: C6_14  and  O1_15 
REMARK    8  A    between atoms: C6_14  and  O2_17 
REMARK       I    between atoms: N5_19  and  C7_20 
REMARK       I    between atoms: C7_20  and  N6_22 
REMARK    9  A    between atoms: N6_22  and  N7_24 
REMARK   10  A    between atoms: C9_30  and  O5_32 
REMARK   11  A    between atoms: O5_32  and  N9_33 
ROOT
HETATM    1  C3  UNL     1       1.257   0.243  -0.562  1.00  0.00     0.710 A 
HETATM    2  N3  UNL     1       0.798   1.497  -0.881  1.00  0.00    -0.179 N 
ATOM      3  H3  UNL     1       1.347   2.299  -1.190  1.00  0.00     0.185 HD
HETATM    4  C4  UNL     1      -0.549   1.437  -0.695  1.00  0.00     0.139 A 
HETATM    5  S1  UNL     1      -1.997   2.330  -0.769  1.00  0.00    -0.031 SA
HETATM    6  C5  UNL     1      -3.074   1.079  -0.254  1.00  0.00     0.162 A 
HETATM    7  N5  UNL     1      -2.266   0.047  -0.056  1.00  0.00    -0.224 N 
HETATM    8  C7  UNL     1      -2.807  -1.234   0.406  1.00  0.00     0.348 C 
HETATM    9  O3  UNL     1      -2.011  -2.229   0.571  1.00  0.00    -0.245 OA
HETATM   10  N6  UNL     1      -4.130  -1.484   0.691  1.00  0.00    -0.257 N 
ATOM     11  H6  UNL     1      -4.842  -0.760   0.593  1.00  0.00     0.191 HD
HETATM   12  C8  UNL     1      -0.963   0.220  -0.279  1.00  0.00     0.168 A 
HETATM   13  N8  UNL     1       0.204  -0.515  -0.205  1.00  0.00    -0.171 N 
ATOM     14  H8  UNL     1       0.260  -1.493   0.080  1.00  0.00     0.186 HD
ENDROOT
BRANCH   1  15
HETATM   15  N2  UNL     1       2.484   0.003  -0.619  1.00  0.00    -0.065 N 
ATOM     16  H2  UNL     1       2.947   0.861  -0.919  1.00  0.00     0.221 HD
BRANCH  15  17
HETATM   17  N1  UNL     1       3.361  -0.851  -0.459  1.00  0.00    -0.310 NA
BRANCH  17  18
HETATM   18  C2  UNL     1       4.192  -1.609  -0.302  1.00  0.00     0.182 C 
HETATM   19  C1  UNL     1       5.234  -2.558  -0.106  1.00  0.00     0.094 C 
BRANCH  18  20
HETATM   20  C9  UNL     1       5.268  -0.228   0.091  1.00  0.00     0.342 C 
HETATM   21  O4  UNL     1       4.621   0.765   0.010  1.00  0.00    -0.255 OA
BRANCH  20  22
HETATM   22  O5  UNL     1       6.502  -0.534   0.382  1.00  0.00    -0.200 OA
BRANCH  22  23
HETATM   23  N9  UNL     1       7.370   0.564   0.696  1.00  0.00    -0.302 N 
ATOM     24  H92 UNL     1       7.026   1.524   0.688  1.00  0.00     0.184 HD
ATOM     25  H91 UNL     1       8.335   0.325   0.924  1.00  0.00     0.184 HD
ENDBRANCH  22  23
ENDBRANCH  20  22
ENDBRANCH  18  20
ENDBRANCH  17  18
ENDBRANCH  15  17
ENDBRANCH   1  15
BRANCH   6  26
HETATM   26  N4  UNL     1      -4.377   1.218  -0.108  1.00  0.00    -0.322 N 
ATOM     27  H4  UNL     1      -4.964   0.442   0.198  1.00  0.00     0.166 HD
BRANCH  26  28
HETATM   28  C6  UNL     1      -4.940   2.523  -0.402  1.00  0.00     0.367 C 
BRANCH  28  29
HETATM   29  O1  UNL     1      -6.102   2.772   0.296  1.00  0.00    -0.355 OA
ATOM     30  H1  UNL     1      -6.471   3.626   0.104  1.00  0.00     0.214 HD
ENDBRANCH  28  29
BRANCH  28  31
HETATM   31  O2  UNL     1      -5.128   2.637  -1.775  1.00  0.00    -0.355 OA
ATOM     32  H2  UNL     1      -5.497   3.491  -1.967  1.00  0.00     0.214 HD
ENDBRANCH  28  31
ENDBRANCH  26  28
ENDBRANCH   6  26
BRANCH  10  33
HETATM   33  N7  UNL     1      -4.465  -2.816   1.134  1.00  0.00    -0.341 N 
ATOM     34  H72 UNL     1      -3.742  -3.529   1.227  1.00  0.00     0.177 HD
ATOM     35  H71 UNL     1      -5.446  -3.001   1.345  1.00  0.00     0.177 HD
ENDBRANCH  10  33
TORSDOF 11
