REMARK  3 active torsions:
REMARK  status: ('A' for Active; 'I' for Inactive)
REMARK    1  A    between atoms: N1_1  and  C1_4 
REMARK    2  A    between atoms: C3_12  and  C4_13 
REMARK       I    between atoms: C4_13  and  N5_15 
REMARK    3  A    between atoms: N5_15  and  N6_17 
ROOT
HETATM    1  C1  UNL     1      -1.447  -0.537  -0.025  1.00  0.00     0.134 A 
HETATM    2  N2  UNL     1      -2.048  -1.370   0.872  1.00  0.00    -0.336 N 
ATOM      3  H2  UNL     1      -3.015  -1.674   0.762  1.00  0.00     0.168 HD
HETATM    4  C2  UNL     1      -1.294  -1.765   1.906  1.00  0.00     0.199 A 
HETATM    5  N3  UNL     1      -0.019  -1.396   2.101  1.00  0.00    -0.295 N 
ATOM      6  H3  UNL     1       0.510  -1.727   2.908  1.00  0.00     0.187 HD
HETATM    7  N4  UNL     1       0.529  -0.585   1.206  1.00  0.00    -0.292 N 
ATOM      8  H4  UNL     1       1.498  -0.293   1.336  1.00  0.00     0.187 HD
HETATM    9  C3  UNL     1      -0.143  -0.134   0.135  1.00  0.00     0.161 A 
ENDROOT
BRANCH   9  10
HETATM   10  C4  UNL     1       0.453   0.757  -0.852  1.00  0.00     0.291 C 
HETATM   11  O1  UNL     1      -0.210   1.158  -1.842  1.00  0.00    -0.264 OA
HETATM   12  N5  UNL     1       1.794   1.210  -0.745  1.00  0.00    -0.271 N 
ATOM     13  H5  UNL     1       2.356   0.901   0.048  1.00  0.00     0.189 HD
BRANCH  12  14
HETATM   14  N6  UNL     1       2.364   2.054  -1.676  1.00  0.00    -0.342 N 
ATOM     15  H62 UNL     1       1.788   2.353  -2.463  1.00  0.00     0.176 HD
ATOM     16  H61 UNL     1       3.328   2.380  -1.599  1.00  0.00     0.176 HD
ENDBRANCH  12  14
ENDBRANCH   9  10
BRANCH   1  17
HETATM   17  N1  UNL     1      -2.090  -0.101  -1.056  1.00  0.00    -0.383 N 
ATOM     18  H12 UNL     1      -3.058  -0.400  -1.175  1.00  0.00     0.157 HD
ATOM     19  H11 UNL     1      -1.640   0.522  -1.727  1.00  0.00     0.157 HD
ENDBRANCH   1  17
TORSDOF 3
