REMARK  2 active torsions:
REMARK  status: ('A' for Active; 'I' for Inactive)
REMARK    1  A    between atoms: N1_1  and  N2_4 
REMARK    2  A    between atoms: N2_4  and  C1_6 
ROOT
HETATM    1  C1  UNL     1       0.420   0.427   0.015  1.00  0.00     0.704 A 
HETATM    2  N3  UNL     1      -0.455   1.419   0.238  1.00  0.00    -0.139 N 
ATOM      3  H3  UNL     1      -0.108   2.342   0.498  1.00  0.00     0.189 HD
HETATM    4  C2  UNL     1      -1.786   1.221   0.125  1.00  0.00     0.342 A 
HETATM    5  O1  UNL     1      -2.604   2.160   0.337  1.00  0.00    -0.246 OA
HETATM    6  N4  UNL     1      -2.293   0.022  -0.216  1.00  0.00    -0.260 N 
ATOM      7  H4  UNL     1      -3.298  -0.129  -0.302  1.00  0.00     0.175 HD
HETATM    8  C3  UNL     1      -1.410  -0.966  -0.438  1.00  0.00     0.342 A 
HETATM    9  O2  UNL     1      -1.855  -2.099  -0.759  1.00  0.00    -0.246 OA
HETATM   10  N5  UNL     1      -0.071  -0.775  -0.326  1.00  0.00    -0.139 N 
ATOM     11  H5  UNL     1       0.567  -1.551  -0.502  1.00  0.00     0.189 HD
ENDROOT
BRANCH   1  12
HETATM   12  N2  UNL     1       1.829   0.631   0.133  1.00  0.00    -0.138 N 
ATOM     13  H2  UNL     1       2.199   1.546   0.392  1.00  0.00     0.205 HD
BRANCH  12  14
HETATM   14  N1  UNL     1       2.695  -0.440  -0.112  1.00  0.00    -0.331 N 
ATOM     15  H12 UNL     1       2.309  -1.348  -0.371  1.00  0.00     0.177 HD
ATOM     16  H11 UNL     1       3.701  -0.294  -0.028  1.00  0.00     0.177 HD
ENDBRANCH  12  14
ENDBRANCH   1  12
TORSDOF 2
