REMARK  4 active torsions:
REMARK  status: ('A' for Active; 'I' for Inactive)
REMARK    1  A    between atoms: N1_1  and  C1_5 
REMARK    2  A    between atoms: C1_5  and  N2_6 
REMARK    3  A    between atoms: C1_5  and  C2_10 
REMARK    4  A    between atoms: C2_10  and  C3_11 
ROOT
HETATM    1  C1  UNL     1      -2.712  -0.317  -0.176  1.00  0.00     0.380 C 
ENDROOT
BRANCH   1   2
HETATM    2  N1  UNL     1      -2.507  -1.342   0.812  1.00  0.00    -0.050 N 
ATOM      3  H13 UNL     1      -3.376  -1.735   1.172  1.00  0.00     0.276 HD
ATOM      4  H12 UNL     1      -2.128  -2.206   0.425  1.00  0.00     0.276 HD
ATOM      5  H11 UNL     1      -1.918  -0.932   1.537  1.00  0.00     0.276 HD
ENDBRANCH   1   2
BRANCH   1   6
HETATM    6  N2  UNL     1      -3.549  -0.900  -1.207  1.00  0.00    -0.050 N 
ATOM      7  H23 UNL     1      -3.170  -1.764  -1.594  1.00  0.00     0.276 HD
ATOM      8  H22 UNL     1      -4.418  -1.293  -0.847  1.00  0.00     0.276 HD
ATOM      9  H21 UNL     1      -3.694  -0.173  -1.908  1.00  0.00     0.276 HD
ENDBRANCH   1   6
BRANCH   1  10
HETATM   10  C2  UNL     1      -1.392   0.150  -0.714  1.00  0.00     0.093 C 
BRANCH  10  11
HETATM   11  C3  UNL     1      -0.455   0.745   0.272  1.00  0.00     0.125 C 
HETATM   12  C4  UNL     1      -0.050  -0.179   1.352  1.00  0.00     0.032 C 
HETATM   13  C5  UNL     1       1.255   0.244   2.027  1.00  0.00     0.002 C 
HETATM   14  C6  UNL     1       2.420   0.334   1.115  1.00  0.00     0.000 C 
HETATM   15  C7  UNL     1       2.364  -0.474  -0.129  1.00  0.00     0.002 C 
HETATM   16  C8  UNL     1       2.447   0.483  -1.320  1.00  0.00     0.026 C 
HETATM   17  C9  UNL     1       1.031   1.045  -1.521  1.00  0.00     0.168 C 
HETATM   18  O1  UNL     1       0.575   1.446  -0.321  1.00  0.00    -0.386 OA
ENDBRANCH  10  11
ENDBRANCH   1  10
TORSDOF 4
