REMARK  4 active torsions:
REMARK  status: ('A' for Active; 'I' for Inactive)
REMARK    1  A    between atoms: C2_5  and  C3_6 
REMARK    2  A    between atoms: C2_5  and  N3_13 
REMARK    3  A    between atoms: C3_6  and  C4_7 
REMARK    4  A    between atoms: N3_13  and  N4_15 
ROOT
HETATM    1  N1  UNL     1       3.954  -2.270   1.829  1.00  0.00    -0.172 NA
HETATM    2  C1  UNL     1       3.041  -1.821   1.289  1.00  0.00     0.183 C 
HETATM    3  N2  UNL     1       1.926  -1.284   0.656  1.00  0.00    -0.282 N 
ATOM      4  H2  UNL     1       0.994  -1.540   0.981  1.00  0.00     0.179 HD
HETATM    5  C2  UNL     1       2.048  -0.476  -0.324  1.00  0.00     0.104 C 
ENDROOT
BRANCH   5   6
HETATM    6  C3  UNL     1       0.839   0.068  -0.965  1.00  0.00     0.083 C 
BRANCH   6   7
HETATM    7  C4  UNL     1      -0.448  -0.406  -0.364  1.00  0.00    -0.007 C 
HETATM    8  C5  UNL     1      -0.500   0.002   1.102  1.00  0.00     0.005 C 
HETATM    9  C6  UNL     1      -1.839   0.627   1.424  1.00  0.00     0.000 C 
HETATM   10  C7  UNL     1      -2.968  -0.193   0.848  1.00  0.00     0.000 C 
HETATM   11  C8  UNL     1      -2.920  -0.099  -0.639  1.00  0.00     0.000 C 
HETATM   12  C9  UNL     1      -1.569   0.314  -1.117  1.00  0.00     0.005 C 
ENDBRANCH   6   7
ENDBRANCH   5   6
BRANCH   5  13
HETATM   13  N3  UNL     1       3.307  -0.100  -0.799  1.00  0.00    -0.295 N 
ATOM     14  H3  UNL     1       3.917  -0.788  -1.241  1.00  0.00     0.187 HD
BRANCH  13  15
HETATM   15  N4  UNL     1       3.720   1.216  -0.664  1.00  0.00    -0.344 N 
ATOM     16  H42 UNL     1       3.098   1.892  -0.219  1.00  0.00     0.176 HD
ATOM     17  H41 UNL     1       4.639   1.490  -1.011  1.00  0.00     0.176 HD
ENDBRANCH  13  15
ENDBRANCH   5  13
TORSDOF 4
