REMARK  1 active torsions:
REMARK  status: ('A' for Active; 'I' for Inactive)
REMARK    1  A    between atoms: N1_1  and  C1_4 
ROOT
HETATM    1  C1  UNL     1      -2.163   1.458   0.969  1.00  0.00     0.113 A 
HETATM    2  N2  UNL     1      -3.256   2.144   1.431  1.00  0.00    -0.338 N 
ATOM      3  H2  UNL     1      -3.084   3.037   1.893  1.00  0.00     0.168 HD
HETATM    4  C2  UNL     1      -4.505   1.751   1.331  1.00  0.00     0.182 A 
HETATM    5  N3  UNL     1      -4.699   0.584   0.725  1.00  0.00    -0.346 N 
ATOM      6  H3  UNL     1      -5.648   0.225   0.616  1.00  0.00     0.167 HD
HETATM    7  C3  UNL     1      -3.649  -0.138   0.248  1.00  0.00     0.090 A 
HETATM    8  S1  UNL     1      -3.640  -1.637  -0.553  1.00  0.00    -0.065 SA
HETATM    9  C4  UNL     1      -1.967  -1.794  -0.784  1.00  0.00     0.087 A 
HETATM   10  C5  UNL     1      -1.220  -2.804  -1.389  1.00  0.00     0.265 A 
HETATM   11  O1  UNL     1      -1.886  -3.773  -1.847  1.00  0.00    -0.267 OA
HETATM   12  N4  UNL     1       0.100  -2.729  -1.465  1.00  0.00    -0.308 N 
ATOM     13  H4  UNL     1       0.657  -3.461  -1.905  1.00  0.00     0.170 HD
HETATM   14  C6  UNL     1       0.661  -1.637  -0.931  1.00  0.00     0.119 A 
HETATM   15  N5  UNL     1       2.025  -1.637  -1.052  1.00  0.00    -0.341 N 
ATOM     16  H5  UNL     1       2.468  -2.430  -1.515  1.00  0.00     0.167 HD
HETATM   17  C7  UNL     1       2.807  -0.654  -0.596  1.00  0.00     0.044 A 
HETATM   18  C8  UNL     1       4.177  -0.700  -0.742  1.00  0.00     0.030 A 
HETATM   19  C9  UNL     1       4.919   0.340  -0.252  1.00  0.00     0.002 A 
HETATM   20  C10 UNL     1       4.292   1.399   0.368  1.00  0.00     0.001 A 
HETATM   21  C11 UNL     1       2.921   1.429   0.505  1.00  0.00     0.014 A 
HETATM   22  C12 UNL     1       2.172   0.399   0.022  1.00  0.00    -0.009 A 
HETATM   23  C13 UNL     1       0.772   0.395   0.143  1.00  0.00     0.030 A 
HETATM   24  C14 UNL     1      -0.024  -0.596  -0.316  1.00  0.00     0.022 A 
HETATM   25  C15 UNL     1      -1.422  -0.646  -0.219  1.00  0.00     0.017 A 
HETATM   26  C16 UNL     1      -2.312   0.231   0.327  1.00  0.00     0.054 A 
ENDROOT
BRANCH   1  27
HETATM   27  N1  UNL     1      -1.110   2.078   1.206  1.00  0.00    -0.385 N 
ATOM     28  H12 UNL     1      -1.001   2.977   1.676  1.00  0.00     0.157 HD
ATOM     29  H11 UNL     1      -0.297   1.567   0.862  1.00  0.00     0.157 HD
ENDBRANCH   1  27
TORSDOF 1
