REMARK  1 active torsions:
REMARK  status: ('A' for Active; 'I' for Inactive)
REMARK    1  A    between atoms: N1_1  and  C1_4 
ROOT
HETATM    1  C1  UNL     1      -3.751   1.632   0.340  1.00  0.00     0.142 A 
HETATM    2  C2  UNL     1      -4.800   0.750   0.198  1.00  0.00     0.058 A 
HETATM    3  C3  UNL     1      -4.552  -0.568  -0.053  1.00  0.00     0.037 A 
HETATM    4  C4  UNL     1      -3.216  -0.968  -0.154  1.00  0.00     0.070 A 
HETATM    5  N2  UNL     1      -2.982  -2.267  -0.400  1.00  0.00    -0.343 N 
ATOM      6  H2  UNL     1      -3.750  -2.930  -0.507  1.00  0.00     0.167 HD
HETATM    7  C5  UNL     1      -1.705  -2.664  -0.500  1.00  0.00     0.130 A 
HETATM    8  S1  UNL     1      -1.365  -4.221  -0.797  1.00  0.00    -0.058 SA
HETATM    9  C6  UNL     1      -0.618  -1.792  -0.360  1.00  0.00     0.102 A 
HETATM   10  N3  UNL     1       0.642  -2.254  -0.471  1.00  0.00    -0.336 N 
ATOM     11  H3  UNL     1       0.836  -3.238  -0.657  1.00  0.00     0.168 HD
HETATM   12  C7  UNL     1       1.647  -1.341  -0.322  1.00  0.00     0.134 A 
HETATM   13  N4  UNL     1       2.987  -1.470  -0.373  1.00  0.00    -0.340 N 
ATOM     14  H4  UNL     1       3.478  -2.347  -0.546  1.00  0.00     0.167 HD
HETATM   15  C8  UNL     1       3.590  -0.286  -0.165  1.00  0.00     0.046 A 
HETATM   16  C9  UNL     1       4.917   0.120  -0.117  1.00  0.00     0.030 A 
HETATM   17  C10 UNL     1       5.274   1.423   0.118  1.00  0.00     0.002 A 
HETATM   18  C11 UNL     1       4.264   2.351   0.311  1.00  0.00     0.001 A 
HETATM   19  C12 UNL     1       2.937   1.991   0.271  1.00  0.00     0.016 A 
HETATM   20  C13 UNL     1       2.615   0.673   0.033  1.00  0.00     0.021 A 
HETATM   21  C14 UNL     1       1.409  -0.007  -0.069  1.00  0.00     0.090 A 
HETATM   22  N5  UNL     1       0.125   0.408   0.034  1.00  0.00    -0.348 N 
ATOM     23  H5  UNL     1      -0.076   1.390   0.220  1.00  0.00     0.166 HD
HETATM   24  C15 UNL     1      -0.890  -0.468  -0.108  1.00  0.00     0.099 A 
HETATM   25  C16 UNL     1      -2.208  -0.045  -0.003  1.00  0.00     0.133 A 
HETATM   26  O1  UNL     1      -2.511   1.194   0.234  1.00  0.00    -0.290 OA
ENDROOT
BRANCH   1  27
HETATM   27  N1  UNL     1      -4.019   2.870   0.576  1.00  0.00    -0.380 N 
ATOM     28  H12 UNL     1      -4.978   3.209   0.658  1.00  0.00     0.158 HD
ATOM     29  H11 UNL     1      -3.242   3.523   0.681  1.00  0.00     0.158 HD
ENDBRANCH   1  27
TORSDOF 1
