REMARK  8 active torsions:
REMARK  status: ('A' for Active; 'I' for Inactive)
REMARK       I    between atoms: N1_2  and  C2_4 
REMARK       I    between atoms: C2_4  and  N3_8 
REMARK    1  A    between atoms: N3_8  and  C3_10 
REMARK    2  A    between atoms: C3_10  and  C4_11 
REMARK    3  A    between atoms: C4_11  and  C5_12 
REMARK    4  A    between atoms: C5_12  and  N4_13 
REMARK    5  A    between atoms: N4_13  and  C6_15 
REMARK    6  A    between atoms: C10_24  and  C11_25 
REMARK    7  A    between atoms: C11_25  and  O2_26 
REMARK    8  A    between atoms: N8_29  and  N9_30 
ROOT
HETATM    1  C6  UNL     1      -1.564  -1.103  -0.503  1.00  0.00     0.717 A 
HETATM    2  N5  UNL     1      -2.053  -2.356  -0.496  1.00  0.00    -0.151 N 
ATOM      3  H5  UNL     1      -1.416  -3.146  -0.605  1.00  0.00     0.188 HD
HETATM    4  C7  UNL     1      -3.365  -2.580  -0.348  1.00  0.00     0.290 A 
HETATM    5  O1  UNL     1      -3.873  -3.725  -0.333  1.00  0.00    -0.265 OA
HETATM    6  C8  UNL     1      -4.209  -1.467  -0.201  1.00  0.00     0.144 A 
HETATM    7  C9  UNL     1      -5.568  -1.349  -0.033  1.00  0.00     0.127 A 
HETATM    8  N6  UNL     1      -5.831  -0.040   0.053  1.00  0.00    -0.350 N 
ATOM      9  H6  UNL     1      -6.758   0.364   0.182  1.00  0.00     0.166 HD
HETATM   10  C10 UNL     1      -4.671   0.674  -0.058  1.00  0.00     0.130 A 
HETATM   11  N7  UNL     1      -3.672  -0.224  -0.215  1.00  0.00    -0.199 N 
HETATM   12  N8  UNL     1      -2.375  -0.028  -0.362  1.00  0.00    -0.018 N 
ENDROOT
BRANCH   1  13
HETATM   13  N4  UNL     1      -0.309  -0.882  -0.644  1.00  0.00    -0.223 N 
ATOM     14  H4  UNL     1       0.046   0.074  -0.647  1.00  0.00     0.177 HD
BRANCH  13  15
HETATM   15  C5  UNL     1       0.606  -2.001  -0.799  1.00  0.00     0.140 C 
BRANCH  15  16
HETATM   16  C4  UNL     1       1.977  -1.462  -1.127  1.00  0.00     0.040 C 
BRANCH  16  17
HETATM   17  C3  UNL     1       2.476  -0.561  -0.023  1.00  0.00     0.139 C 
BRANCH  17  18
HETATM   18  N3  UNL     1       3.791  -0.059  -0.363  1.00  0.00    -0.227 N 
HETATM   19  C2  UNL     1       4.496   0.829   0.528  1.00  0.00     0.667 C 
HETATM   20  N1  UNL     1       5.909   0.798   0.596  1.00  0.00    -0.231 N 
HETATM   21  N2  UNL     1       3.803   1.636   1.247  1.00  0.00    -0.235 N 
HETATM   22  C1  UNL     1       6.628   2.029   0.850  1.00  0.00     0.165 C 
ATOM     23  H1  UNL     1       6.414  -0.079   0.468  1.00  0.00     0.177 HD
ATOM     24  H22 UNL     1       4.302   2.264   1.877  1.00  0.00     0.174 HD
ATOM     25  H21 UNL     1       2.784   1.658   1.198  1.00  0.00     0.174 HD
ATOM     26  H3  UNL     1       4.224  -0.337  -1.244  1.00  0.00     0.177 HD
ENDBRANCH  17  18
ENDBRANCH  16  17
ENDBRANCH  15  16
ENDBRANCH  13  15
ENDBRANCH   1  13
BRANCH  12  27
HETATM   27  N9  UNL     1      -1.887   1.275  -0.365  1.00  0.00    -0.308 N 
ATOM     28  H92 UNL     1      -0.885   1.426  -0.479  1.00  0.00     0.179 HD
ATOM     29  H91 UNL     1      -2.498   2.085  -0.259  1.00  0.00     0.179 HD
ENDBRANCH  12  27
BRANCH  10  30
HETATM   30  C11 UNL     1      -4.589   2.145  -0.006  1.00  0.00     0.242 C 
BRANCH  30  31
HETATM   31  O2  UNL     1      -4.245   2.610   1.284  1.00  0.00    -0.393 OA
ATOM     32  H2  UNL     1      -4.192   3.558   1.318  1.00  0.00     0.209 HD
ENDBRANCH  30  31
ENDBRANCH  10  30
TORSDOF 8
