REMARK  6 active torsions:
REMARK  status: ('A' for Active; 'I' for Inactive)
REMARK    1  A    between atoms: N1_1  and  C1_4 
REMARK    2  A    between atoms: C2_9  and  C3_10 
REMARK    3  A    between atoms: N4_11  and  N5_13 
REMARK       I    between atoms: N5_13  and  C4_15 
REMARK    4  A    between atoms: C4_15  and  C5_17 
REMARK    5  A    between atoms: C5_17  and  C6_18 
REMARK    6  A    between atoms: C6_18  and  N6_19 
ROOT
HETATM    1  C3  UNL     1       3.315  -1.499   0.701  1.00  0.00     0.143 C 
HETATM    2  N4  UNL     1       2.164  -1.635   1.054  1.00  0.00    -0.307 N 
ATOM      3  H4  UNL     1       2.113  -2.579   1.436  1.00  0.00     0.186 HD
ENDROOT
BRANCH   2   4
HETATM    4  N5  UNL     1       0.936  -1.144   1.182  1.00  0.00    -0.270 N 
HETATM    5  C4  UNL     1      -0.133  -1.639   0.371  1.00  0.00     0.240 C 
HETATM    6  O1  UNL     1       0.080  -2.538  -0.466  1.00  0.00    -0.271 OA
ATOM      7  H5  UNL     1       0.754  -0.408   1.864  1.00  0.00     0.190 HD
BRANCH   5   8
HETATM    8  C5  UNL     1      -1.510  -1.088   0.514  1.00  0.00     0.149 C 
BRANCH   8   9
HETATM    9  C6  UNL     1      -2.404  -1.795  -0.458  1.00  0.00     0.073 C 
BRANCH   9  10
HETATM   10  N6  UNL     1      -3.727  -1.392  -0.437  1.00  0.00    -0.341 N 
HETATM   11  C7  UNL     1      -4.375  -0.455   0.060  1.00  0.00     0.192 C 
HETATM   12  N7  UNL     1      -3.952   0.637   0.855  1.00  0.00    -0.346 N 
HETATM   13  N9  UNL     1      -5.802  -0.264  -0.090  1.00  0.00    -0.274 N 
HETATM   14  C8  UNL     1      -4.886   1.719   0.555  1.00  0.00     0.259 C 
ATOM     15  H7  UNL     1      -3.163   0.663   1.500  1.00  0.00     0.163 HD
HETATM   16  N8  UNL     1      -6.115   1.042   0.193  1.00  0.00    -0.119 NA
ATOM     17  H9  UNL     1      -6.469  -0.986  -0.363  1.00  0.00     0.185 HD
ATOM     18  H6  UNL     1      -4.325  -2.027  -0.965  1.00  0.00     0.168 HD
ENDBRANCH   9  10
ENDBRANCH   8   9
ENDBRANCH   5   8
ENDBRANCH   2   4
BRANCH   1  19
HETATM   19  C2  UNL     1       4.052  -0.415   0.083  1.00  0.00     0.134 A 
HETATM   20  N3  UNL     1       5.383  -0.542  -0.215  1.00  0.00    -0.280 N 
HETATM   21  N2  UNL     1       6.088   0.418  -0.775  1.00  0.00    -0.132 N 
ATOM     22  H3  UNL     1       5.849  -1.421   0.007  1.00  0.00     0.188 HD
HETATM   23  C1  UNL     1       5.502   1.588  -1.082  1.00  0.00     0.693 A 
ATOM     24  H2  UNL     1       7.078   0.274  -0.976  1.00  0.00     0.205 HD
HETATM   25  N10 UNL     1       4.203   1.803  -0.827  1.00  0.00    -0.153 N 
HETATM   26  C9  UNL     1       3.496   0.782  -0.242  1.00  0.00     0.289 A 
ATOM     27  H10 UNL     1       3.758   2.691  -1.059  1.00  0.00     0.187 HD
HETATM   28  O2  UNL     1       2.298   1.038  -0.030  1.00  0.00    -0.265 OA
BRANCH  23  29
HETATM   29  N1  UNL     1       6.190   2.528  -1.630  1.00  0.00    -0.233 N 
ATOM     30  H12 UNL     1       7.178   2.364  -1.824  1.00  0.00     0.174 HD
ATOM     31  H11 UNL     1       5.745   3.416  -1.863  1.00  0.00     0.174 HD
ENDBRANCH  23  29
ENDBRANCH   1  19
TORSDOF 6
