REMARK  8 active torsions:
REMARK  status: ('A' for Active; 'I' for Inactive)
REMARK    1  A    between atoms: C6_13  and  N5_14 
REMARK    2  A    between atoms: N5_14  and  C7_16 
REMARK    3  A    between atoms: C7_16  and  C8_17 
REMARK    4  A    between atoms: C8_17  and  C9_18 
REMARK    5  A    between atoms: C9_18  and  N6_19 
REMARK    6  A    between atoms: N6_19  and  C10_21 
REMARK    7  A    between atoms: C11_24  and  N8_25 
REMARK    8  A    between atoms: C12_30  and  N10_31 
ROOT
HETATM    1  C9  UNL     1      -1.451   0.542  -0.754  1.00  0.00     0.139 C 
ENDROOT
BRANCH   1   2
HETATM    2  C8  UNL     1      -0.321  -0.489  -0.749  1.00  0.00     0.040 C 
BRANCH   2   3
HETATM    3  C7  UNL     1       0.120  -0.745   0.678  1.00  0.00     0.123 C 
BRANCH   3   4
HETATM    4  N5  UNL     1       1.180  -1.724   0.732  1.00  0.00    -0.376 N 
ATOM      5  H5  UNL     1       0.986  -2.633   1.151  1.00  0.00     0.161 HD
BRANCH   4   6
HETATM    6  C6  UNL     1       2.502  -1.468   0.217  1.00  0.00     0.113 A 
HETATM    7  C3  UNL     1       3.303  -0.603   0.815  1.00  0.00     0.069 A 
HETATM    8  C2  UNL     1       3.191   0.194   1.908  1.00  0.00     0.126 A 
HETATM    9  C4  UNL     1       4.563  -0.438   0.232  1.00  0.00     0.134 A 
HETATM   10  N2  UNL     1       4.349   0.847   2.013  1.00  0.00    -0.307 N 
HETATM   11  N1  UNL     1       5.166   0.487   1.036  1.00  0.00    -0.281 N 
ATOM     12  H2  UNL     1       4.573   1.526   2.741  1.00  0.00     0.186 HD
HETATM   13  C1  UNL     1       6.509   0.989   0.829  1.00  0.00     0.179 C 
HETATM   14  N3  UNL     1       4.934  -1.071  -0.816  1.00  0.00    -0.358 N 
HETATM   15  C5  UNL     1       4.152  -2.024  -1.543  1.00  0.00     0.246 A 
ATOM     16  H3  UNL     1       5.873  -0.879  -1.165  1.00  0.00     0.162 HD
HETATM   17  N4  UNL     1       2.866  -2.192  -0.941  1.00  0.00    -0.360 N 
ATOM     18  H4  UNL     1       2.200  -2.845  -1.354  1.00  0.00     0.162 HD
ENDBRANCH   4   6
ENDBRANCH   3   4
ENDBRANCH   2   3
ENDBRANCH   1   2
BRANCH   1  19
HETATM   19  N6  UNL     1      -2.569   0.059  -0.007  1.00  0.00    -0.225 N 
ATOM     20  H6  UNL     1      -2.399  -0.720   0.629  1.00  0.00     0.177 HD
BRANCH  19  21
HETATM   21  C10 UNL     1      -3.771   0.516  -0.062  1.00  0.00     0.707 A 
HETATM   22  N7  UNL     1      -4.116   1.550  -0.873  1.00  0.00    -0.022 N 
HETATM   23  C11 UNL     1      -5.372   2.008  -0.933  1.00  0.00     0.705 A 
ATOM     24  H7  UNL     1      -3.399   1.989  -1.451  1.00  0.00     0.203 HD
HETATM   25  N9  UNL     1      -6.320   1.446  -0.184  1.00  0.00    -0.022 N 
HETATM   26  C12 UNL     1      -6.023   0.422   0.631  1.00  0.00     0.705 A 
ATOM     27  H9  UNL     1      -7.277   1.796  -0.230  1.00  0.00     0.203 HD
HETATM   28  N11 UNL     1      -4.750  -0.036   0.687  1.00  0.00    -0.022 N 
ATOM     29  H11 UNL     1      -4.526  -0.814   1.308  1.00  0.00     0.203 HD
BRANCH  23  30
HETATM   30  N8  UNL     1      -5.698   3.004  -1.714  1.00  0.00    -0.234 N 
ATOM     31  H82 UNL     1      -4.972   3.434  -2.287  1.00  0.00     0.174 HD
ATOM     32  H81 UNL     1      -6.655   3.353  -1.760  1.00  0.00     0.174 HD
ENDBRANCH  23  30
BRANCH  26  33
HETATM   33  N10 UNL     1      -6.944  -0.150   1.355  1.00  0.00    -0.234 N 
ATOM     34 2H10 UNL     1      -7.903   0.195   1.313  1.00  0.00     0.174 HD
ATOM     35 1H10 UNL     1      -6.718  -0.928   1.974  1.00  0.00     0.174 HD
ENDBRANCH  26  33
ENDBRANCH  19  21
ENDBRANCH   1  19
TORSDOF 8
