REMARK  6 active torsions:
REMARK  status: ('A' for Active; 'I' for Inactive)
REMARK    1  A    between atoms: O1_1  and  C1_3 
REMARK    2  A    between atoms: C1_3  and  C2_4 
REMARK    3  A    between atoms: C3_6  and  N1_7 
REMARK    4  A    between atoms: C7_12  and  O3_13 
REMARK    5  A    between atoms: C9_16  and  O4_17 
REMARK    6  A    between atoms: C10_19  and  O5_20 
ROOT
HETATM    1  C2  UNL     1      -2.249   0.261   0.453  1.00  0.00     0.179 C 
HETATM    2  O2  UNL     1      -1.043   0.965   0.328  1.00  0.00    -0.354 OA
HETATM    3  C3  UNL     1      -0.126  -0.035   0.552  1.00  0.00     0.259 C 
HETATM    4  C9  UNL     1      -0.592  -1.231  -0.286  1.00  0.00     0.198 C 
HETATM    5  C10 UNL     1      -2.036  -0.856  -0.546  1.00  0.00     0.182 C 
ENDROOT
BRANCH   3   6
HETATM    6  N1  UNL     1       1.228   0.336   0.253  1.00  0.00    -0.335 N 
HETATM    7  C4  UNL     1       1.629   1.558  -0.102  1.00  0.00     0.095 A 
HETATM    8  C5  UNL     1       2.953   1.868  -0.383  1.00  0.00     0.039 A 
HETATM    9  C6  UNL     1       3.904   0.879  -0.295  1.00  0.00     0.046 A 
HETATM   10 BR1  UNL     1       5.756   1.202  -0.661  1.00  0.00    -0.048 Br
HETATM   11  C7  UNL     1       3.499  -0.387   0.071  1.00  0.00     0.098 A 
HETATM   12  C8  UNL     1       2.168  -0.625   0.336  1.00  0.00     0.131 A 
BRANCH  11  13
HETATM   13  O3  UNL     1       4.419  -1.428   0.177  1.00  0.00    -0.358 OA
ATOM     14  H3  UNL     1       4.140  -2.300   0.429  1.00  0.00     0.217 HD
ENDBRANCH  11  13
ENDBRANCH   3   6
BRANCH   4  15
HETATM   15  O4  UNL     1      -0.574  -2.374   0.478  1.00  0.00    -0.388 OA
ATOM     16  H4  UNL     1      -0.863  -3.115  -0.041  1.00  0.00     0.210 HD
ENDBRANCH   4  15
BRANCH   1  17
HETATM   17  C1  UNL     1      -3.435   1.124   0.098  1.00  0.00     0.198 C 
BRANCH  17  18
HETATM   18  O1  UNL     1      -3.370   1.584  -1.194  1.00  0.00    -0.398 OA
ATOM     19  H1  UNL     1      -4.117   2.127  -1.417  1.00  0.00     0.209 HD
ENDBRANCH  17  18
ENDBRANCH   1  17
BRANCH   5  20
HETATM   20  O5  UNL     1      -2.904  -1.905  -0.290  1.00  0.00    -0.390 OA
ATOM     21  H5  UNL     1      -2.770  -2.606  -0.917  1.00  0.00     0.210 HD
ENDBRANCH   5  20
TORSDOF 6
