REMARK  6 active torsions:
REMARK  status: ('A' for Active; 'I' for Inactive)
REMARK    1  A    between atoms: C3_3  and  O1_4 
REMARK    2  A    between atoms: C4_6  and  O2_7 
REMARK    3  A    between atoms: C5_9  and  O3_10 
REMARK    4  A    between atoms: C7_14  and  O4_15 
REMARK    5  A    between atoms: O4_15  and  S1_16 
REMARK    6  A    between atoms: S1_16  and  N1_17 
ROOT
HETATM    1  C1  UNL     1      -0.643   1.986  -0.417  1.00  0.00     0.015 C 
HETATM    2  C2  UNL     1      -0.530   0.889   0.639  1.00  0.00     0.044 C 
HETATM    3  C3  UNL     1      -1.831   0.171   0.752  1.00  0.00     0.155 C 
HETATM    4  C4  UNL     1      -2.041  -0.867  -0.319  1.00  0.00     0.177 C 
HETATM    5  C5  UNL     1      -0.914  -1.861  -0.179  1.00  0.00     0.166 C 
HETATM    6  C6  UNL     1       0.393  -1.182  -0.446  1.00  0.00     0.120 C 
HETATM    7 BR1  UNL     1       1.787  -2.515  -0.116  1.00  0.00    -0.086 Br
HETATM    8  C7  UNL     1       0.648   0.032   0.362  1.00  0.00     0.167 C 
ENDROOT
BRANCH   8   9
HETATM    9  O4  UNL     1       1.563   0.838  -0.360  1.00  0.00    -0.253 OA
BRANCH   9  10
HETATM   10  S1  UNL     1       2.950   1.136   0.479  1.00  0.00     0.356 S 
HETATM   11  O5  UNL     1       2.977   0.561   1.853  1.00  0.00    -0.176 OA
HETATM   12  O6  UNL     1       3.099   2.639   0.616  1.00  0.00    -0.176 OA
BRANCH  10  13
HETATM   13  N1  UNL     1       4.292   0.593  -0.471  1.00  0.00    -0.306 N 
ATOM     14  H12 UNL     1       4.220   0.163  -1.393  1.00  0.00     0.171 HD
ATOM     15  H11 UNL     1       5.150   0.777   0.048  1.00  0.00     0.171 HD
ENDBRANCH  10  13
ENDBRANCH   9  10
ENDBRANCH   8   9
BRANCH   3  16
HETATM   16  O1  UNL     1      -2.870   1.113   0.625  1.00  0.00    -0.392 OA
ATOM     17  H1  UNL     1      -3.699   0.655   0.697  1.00  0.00     0.210 HD
ENDBRANCH   3  16
BRANCH   5  18
HETATM   18  O3  UNL     1      -1.063  -2.958  -0.985  1.00  0.00    -0.392 OA
ATOM     19  H3  UNL     1      -0.354  -3.584  -0.897  1.00  0.00     0.210 HD
ENDBRANCH   5  18
BRANCH   4  20
HETATM   20  O2  UNL     1      -3.265  -1.473  -0.143  1.00  0.00    -0.390 OA
ATOM     21  H2  UNL     1      -3.397  -2.128  -0.819  1.00  0.00     0.210 HD
ENDBRANCH   4  20
TORSDOF 6
