REMARK  5 active torsions:
REMARK  status: ('A' for Active; 'I' for Inactive)
REMARK    1  A    between atoms: C5_8  and  C6_9 
REMARK    2  A    between atoms: C12_16  and  O2_17 
REMARK    3  A    between atoms: C13_19  and  O3_20 
REMARK    4  A    between atoms: C14_23  and  C15_24 
REMARK    5  A    between atoms: C15_24  and  O4_25 
ROOT
HETATM    1  C1  UNL     1      -2.527   1.811  -0.073  1.00  0.00     0.037 C 
HETATM    2  C2  UNL     1      -2.863   0.525   0.603  1.00  0.00     0.066 C 
HETATM    3  C3  UNL     1      -3.766   0.770   1.790  1.00  0.00     0.037 C 
HETATM    4  N1  UNL     1      -1.587  -0.071   1.039  1.00  0.00    -0.108 NA
HETATM    5  N2  UNL     1      -1.101  -0.637  -0.169  1.00  0.00    -0.181 N 
HETATM    6  C4  UNL     1       0.160  -0.832  -0.399  1.00  0.00     0.182 C 
HETATM    7  O1  UNL     1       1.237  -0.550   0.430  1.00  0.00    -0.322 OA
HETATM    8  C5  UNL     1       2.443  -1.006  -0.191  1.00  0.00     0.195 C 
HETATM    9  C12 UNL     1       2.111  -0.814  -1.636  1.00  0.00     0.189 C 
HETATM   10  C13 UNL     1       0.699  -1.423  -1.654  1.00  0.00     0.227 C 
HETATM   11  N3  UNL     1      -2.173  -0.929  -1.018  1.00  0.00    -0.110 NA
HETATM   12  C14 UNL     1      -3.365  -0.548  -0.298  1.00  0.00     0.150 C 
ENDROOT
BRANCH  10  13
HETATM   13  O3  UNL     1       0.772  -2.801  -1.448  1.00  0.00    -0.385 OA
ATOM     14  H3  UNL     1       1.116  -3.178  -2.249  1.00  0.00     0.210 HD
ENDBRANCH  10  13
BRANCH   8  15
HETATM   15  C6  UNL     1       3.621  -0.258   0.265  1.00  0.00    -0.023 A 
HETATM   16  C7  UNL     1       3.759  -0.015   1.617  1.00  0.00     0.010 A 
HETATM   17  C8  UNL     1       4.830   0.680   2.147  1.00  0.00     0.004 A 
HETATM   18  C9  UNL     1       5.780   1.132   1.243  1.00  0.00     0.042 A 
HETATM   19  C10 UNL     1       5.645   0.892  -0.101  1.00  0.00     0.117 A 
HETATM   20  F1  UNL     1       6.580   1.337  -0.984  1.00  0.00    -0.206 F 
HETATM   21  C11 UNL     1       4.573   0.199  -0.612  1.00  0.00     0.052 A 
ENDBRANCH   8  15
BRANCH   9  22
HETATM   22  O2  UNL     1       1.926   0.525  -1.975  1.00  0.00    -0.390 OA
ATOM     23  H2  UNL     1       1.715   0.647  -2.893  1.00  0.00     0.210 HD
ENDBRANCH   9  22
BRANCH  12  24
HETATM   24  C15 UNL     1      -4.502  -0.152  -1.178  1.00  0.00     0.189 C 
BRANCH  24  25
HETATM   25  O4  UNL     1      -5.577   0.187  -0.341  1.00  0.00    -0.399 OA
ATOM     26  H4  UNL     1      -6.301   0.439  -0.902  1.00  0.00     0.209 HD
ENDBRANCH  24  25
ENDBRANCH  12  24
TORSDOF 5
