REMARK  6 active torsions:
REMARK  status: ('A' for Active; 'I' for Inactive)
REMARK    1  A    between atoms: O1_1  and  C1_3 
REMARK    2  A    between atoms: C1_3  and  C2_4 
REMARK    3  A    between atoms: C3_6  and  N1_7 
REMARK    4  A    between atoms: C9_14  and  O3_15 
REMARK    5  A    between atoms: C10_17  and  O4_18 
REMARK    6  A    between atoms: C11_20  and  O5_21 
ROOT
HETATM    1  C2  UNL     1      -1.838  -0.021   0.719  1.00  0.00     0.179 C 
HETATM    2  O2  UNL     1      -0.533   0.506   0.709  1.00  0.00    -0.354 OA
HETATM    3  C3  UNL     1       0.332  -0.543   0.338  1.00  0.00     0.259 C 
HETATM    4  C9  UNL     1      -0.086  -1.177  -0.951  1.00  0.00     0.198 C 
HETATM    5  C10 UNL     1      -1.146  -0.334  -1.596  1.00  0.00     0.182 C 
HETATM    6  C11 UNL     1      -2.339  -0.269  -0.691  1.00  0.00     0.180 C 
ENDROOT
BRANCH   3   7
HETATM    7  N1  UNL     1       1.703  -0.104   0.354  1.00  0.00    -0.336 N 
HETATM    8  C4  UNL     1       2.524  -0.460   1.384  1.00  0.00     0.093 A 
HETATM    9  C5  UNL     1       3.833  -0.025   1.373  1.00  0.00     0.019 A 
HETATM   10  C6  UNL     1       4.330   0.759   0.349  1.00  0.00     0.022 A 
HETATM   11  C7  UNL     1       3.490   1.113  -0.686  1.00  0.00     0.026 A 
HETATM   12 BR1  UNL     1       4.083   2.192  -2.143  1.00  0.00    -0.050 Br
HETATM   13  C8  UNL     1       2.187   0.657  -0.638  1.00  0.00     0.112 A 
ENDBRANCH   3   7
BRANCH   4  14
HETATM   14  O3  UNL     1      -0.611  -2.451  -0.765  1.00  0.00    -0.388 OA
ATOM     15  H3  UNL     1      -0.876  -2.854  -1.584  1.00  0.00     0.210 HD
ENDBRANCH   4  14
BRANCH   1  16
HETATM   16  C1  UNL     1      -2.802   0.951   1.364  1.00  0.00     0.198 C 
BRANCH  16  17
HETATM   17  O1  UNL     1      -2.454   1.234   2.678  1.00  0.00    -0.398 OA
ATOM     18  H1  UNL     1      -3.059   1.844   3.083  1.00  0.00     0.209 HD
ENDBRANCH  16  17
ENDBRANCH   1  16
BRANCH   5  19
HETATM   19  O4  UNL     1      -1.452  -0.880  -2.841  1.00  0.00    -0.390 OA
ATOM     20  H4  UNL     1      -2.123  -0.346  -3.249  1.00  0.00     0.210 HD
ENDBRANCH   5  19
BRANCH   6  21
HETATM   21  O5  UNL     1      -3.130   0.810  -1.109  1.00  0.00    -0.390 OA
ATOM     22  H5  UNL     1      -3.444   0.655  -1.992  1.00  0.00     0.210 HD
ENDBRANCH   6  21
TORSDOF 6
