REMARK  5 active torsions:
REMARK  status: ('A' for Active; 'I' for Inactive)
REMARK    1  A    between atoms: C2_2  and  O1_3 
REMARK    2  A    between atoms: C4_6  and  N1_7 
REMARK    3  A    between atoms: N1_7  and  S1_9 
REMARK    4  A    between atoms: C6_13  and  O4_14 
REMARK    5  A    between atoms: C7_16  and  O5_17 
ROOT
HETATM    1  C1  UNL     1      -2.737  -1.095  -0.387  1.00  0.00     0.047 C 
HETATM    2  C2  UNL     1      -1.624  -0.188  -0.800  1.00  0.00     0.072 C 
HETATM    3  C3  UNL     1      -0.316  -0.942  -0.820  1.00  0.00     0.067 C 
HETATM    4  C4  UNL     1       0.555  -0.414   0.281  1.00  0.00     0.127 C 
HETATM    5  C6  UNL     1      -0.215  -0.412   1.573  1.00  0.00     0.171 C 
HETATM    6  C7  UNL     1      -1.270   0.666   1.494  1.00  0.00     0.166 C 
HETATM    7  C8  UNL     1      -1.569   1.055   0.063  1.00  0.00     0.123 C 
HETATM    8 BR1  UNL     1      -3.300   1.921   0.057  1.00  0.00    -0.085 Br
ENDROOT
BRANCH   4   9
HETATM    9  N1  UNL     1       1.831  -1.057   0.372  1.00  0.00    -0.312 N 
ATOM     10  H1  UNL     1       1.922  -2.048   0.594  1.00  0.00     0.172 HD
BRANCH   9  11
HETATM   11  S1  UNL     1       3.177  -0.076   0.090  1.00  0.00     0.223 S 
HETATM   12  C5  UNL     1       3.187   0.618  -1.557  1.00  0.00     0.185 C 
HETATM   13  O2  UNL     1       3.399   0.982   1.127  1.00  0.00    -0.206 OA
HETATM   14  O3  UNL     1       4.407  -0.977   0.146  1.00  0.00    -0.206 OA
ENDBRANCH   9  11
ENDBRANCH   4   9
BRANCH   5  15
HETATM   15  O4  UNL     1       0.658  -0.062   2.595  1.00  0.00    -0.391 OA
ATOM     16  H4  UNL     1       0.172  -0.061   3.411  1.00  0.00     0.210 HD
ENDBRANCH   5  15
BRANCH   2  17
HETATM   17  O1  UNL     1      -1.922   0.265  -2.105  1.00  0.00    -0.389 OA
ATOM     18  H1  UNL     1      -1.214   0.842  -2.368  1.00  0.00     0.210 HD
ENDBRANCH   2  17
BRANCH   6  19
HETATM   19  O5  UNL     1      -0.941   1.801   2.227  1.00  0.00    -0.392 OA
ATOM     20  H5  UNL     1      -1.605   2.479   2.177  1.00  0.00     0.210 HD
ENDBRANCH   6  19
TORSDOF 5
