REMARK  4 active torsions:
REMARK  status: ('A' for Active; 'I' for Inactive)
REMARK    1  A    between atoms: C6_10  and  O1_11 
REMARK    2  A    between atoms: C8_14  and  C9_15 
REMARK    3  A    between atoms: C9_15  and  N2_16 
REMARK    4  A    between atoms: N2_16  and  S2_18 
ROOT
HETATM    1  C1  UNL     1       4.597   2.116   1.008  1.00  0.00     0.040 C 
HETATM    2  C2  UNL     1       3.790   1.212   0.127  1.00  0.00     0.071 C 
HETATM    3  C3  UNL     1       4.562   0.660  -1.039  1.00  0.00     0.040 C 
HETATM    4  S1  UNL     1       2.945  -0.101   1.075  1.00  0.00    -0.118 SA
HETATM    5  C4  UNL     1       1.528  -0.425   0.059  1.00  0.00     0.195 C 
HETATM    6  C5  UNL     1       0.282  -0.863   0.818  1.00  0.00     0.242 C 
HETATM    7  N1  UNL     1       0.205  -2.291   0.784  1.00  0.00    -0.041 N 
ATOM      8  H11 UNL     1      -0.334  -2.691   1.552  1.00  0.00     0.280 HD
ATOM      9  H12 UNL     1       1.087  -2.754   1.002  1.00  0.00     0.280 HD
HETATM   10  C6  UNL     1      -0.313  -2.619  -0.518  1.00  0.00     0.320 C 
HETATM   11  C7  UNL     1      -1.365  -1.599  -0.777  1.00  0.00     0.084 C 
HETATM   12  C8  UNL     1      -0.799  -0.356   0.038  1.00  0.00     0.093 C 
HETATM   13  C11 UNL     1      -0.218   0.530  -1.052  1.00  0.00     0.243 C 
HETATM   14  O4  UNL     1      -0.787   0.936  -2.103  1.00  0.00    -0.271 OA
HETATM   15  N3  UNL     1       1.107   0.784  -0.583  1.00  0.00    -0.273 N 
HETATM   16  S3  UNL     1       2.319   2.043  -0.562  1.00  0.00    -0.029 SA
ENDROOT
BRANCH  12  17
HETATM   17  C9  UNL     1      -2.008   0.329   0.547  1.00  0.00     0.153 C 
BRANCH  17  18
HETATM   18  N2  UNL     1      -3.053  -0.534   0.974  1.00  0.00    -0.319 N 
ATOM     19  H2  UNL     1      -2.994  -1.427   1.463  1.00  0.00     0.172 HD
BRANCH  18  20
HETATM   20  S2  UNL     1      -4.478   0.351   0.432  1.00  0.00     0.222 S 
HETATM   21  C10 UNL     1      -4.762   1.838   1.209  1.00  0.00     0.185 C 
HETATM   22  O2  UNL     1      -4.076   0.679  -1.065  1.00  0.00    -0.206 OA
HETATM   23  O3  UNL     1      -5.649  -0.552   0.267  1.00  0.00    -0.206 OA
ENDBRANCH  18  20
ENDBRANCH  17  18
ENDBRANCH  12  17
BRANCH  10  24
HETATM   24  O1  UNL     1      -0.848  -3.919  -0.511  1.00  0.00    -0.370 OA
ATOM     25  H1  UNL     1      -1.190  -4.136  -1.370  1.00  0.00     0.212 HD
ENDBRANCH  10  24
TORSDOF 4
