REMARK  6 active torsions:
REMARK  status: ('A' for Active; 'I' for Inactive)
REMARK    1  A    between atoms: C4_4  and  N1_5 
REMARK    2  A    between atoms: N1_5  and  S1_7 
REMARK    3  A    between atoms: S1_7  and  C5_10 
REMARK    4  A    between atoms: C14_20  and  O4_21 
REMARK    5  A    between atoms: C15_23  and  O5_24 
REMARK    6  A    between atoms: C16_26  and  O6_27 
ROOT
HETATM    1  C1  UNL     1      -2.233  -3.830  -0.649  1.00  0.00     0.012 C 
HETATM    2  C2  UNL     1      -1.586  -2.813  -0.608  1.00  0.00    -0.105 C 
HETATM    3  C3  UNL     1      -0.781  -1.568  -0.577  1.00  0.00     0.145 C 
HETATM    4  C4  UNL     1      -0.926  -0.934   0.765  1.00  0.00     0.249 C 
HETATM    5  O3  UNL     1      -2.254  -1.087   1.167  1.00  0.00    -0.357 OA
HETATM    6  C12 UNL     1      -3.045  -0.004   0.799  1.00  0.00     0.151 C 
HETATM    7  C13 UNL     1      -2.600   1.294   1.389  1.00  0.00     0.042 C 
HETATM    8  C14 UNL     1      -3.233   0.015  -0.680  1.00  0.00     0.178 C 
HETATM    9  C15 UNL     1      -2.046   0.414  -1.471  1.00  0.00     0.179 C 
HETATM   10  C16 UNL     1      -1.060  -0.685  -1.730  1.00  0.00     0.169 C 
ENDROOT
BRANCH   4  11
HETATM   11  N1  UNL     1      -0.127  -1.687   1.713  1.00  0.00    -0.287 N 
ATOM     12  H1  UNL     1      -0.240  -2.688   1.873  1.00  0.00     0.175 HD
BRANCH  11  13
HETATM   13  S1  UNL     1       1.026  -0.724   2.536  1.00  0.00     0.260 S 
HETATM   14  O1  UNL     1       1.815  -1.668   3.433  1.00  0.00    -0.200 OA
HETATM   15  O2  UNL     1       0.413   0.295   3.418  1.00  0.00    -0.200 OA
BRANCH  13  16
HETATM   16  C5  UNL     1       2.193   0.004   1.454  1.00  0.00     0.079 A 
HETATM   17  C6  UNL     1       1.956   1.234   0.914  1.00  0.00     0.026 A 
HETATM   18  C7  UNL     1       2.886   1.796   0.062  1.00  0.00     0.008 A 
HETATM   19  C8  UNL     1       4.061   1.152  -0.269  1.00  0.00    -0.062 A 
HETATM   20  C9  UNL     1       5.049   1.798  -1.202  1.00  0.00     0.048 C 
HETATM   21  C10 UNL     1       4.293  -0.091   0.281  1.00  0.00     0.008 A 
HETATM   22  C11 UNL     1       3.363  -0.644   1.128  1.00  0.00     0.026 A 
ENDBRANCH  13  16
ENDBRANCH  11  13
ENDBRANCH   4  11
BRANCH  10  23
HETATM   23  O6  UNL     1       0.143  -0.078  -2.145  1.00  0.00    -0.391 OA
ATOM     24  H6  UNL     1      -0.036   0.489  -2.886  1.00  0.00     0.210 HD
ENDBRANCH  10  23
BRANCH   9  25
HETATM   25  O5  UNL     1      -2.520   0.830  -2.741  1.00  0.00    -0.390 OA
ATOM     26  H5  UNL     1      -1.759   1.086  -3.248  1.00  0.00     0.210 HD
ENDBRANCH   9  25
BRANCH   8  27
HETATM   27  O4  UNL     1      -4.308   0.879  -0.993  1.00  0.00    -0.390 OA
ATOM     28  H4  UNL     1      -4.428   0.891  -1.935  1.00  0.00     0.210 HD
ENDBRANCH   8  27
TORSDOF 6
