REMARK  6 active torsions:
REMARK  status: ('A' for Active; 'I' for Inactive)
REMARK    1  A    between atoms: C4_5  and  O2_6 
REMARK    2  A    between atoms: C7_10  and  O3_11 
REMARK    3  A    between atoms: C9_14  and  O4_15 
REMARK    4  A    between atoms: C12_19  and  O5_20 
REMARK    5  A    between atoms: O5_20  and  S1_21 
REMARK    6  A    between atoms: C14_25  and  O8_26 
ROOT
HETATM    1  C1  UNL     1      -2.465  -2.626   0.085  1.00  0.00     0.023 C 
HETATM    2  C2  UNL     1      -2.527  -1.342  -0.164  1.00  0.00    -0.009 C 
HETATM    3  C3  UNL     1      -3.640  -0.570   0.354  1.00  0.00     0.184 C 
HETATM    4  O1  UNL     1      -4.622  -1.080   0.962  1.00  0.00    -0.290 OA
HETATM    5  C4  UNL     1      -3.598   0.925   0.140  1.00  0.00     0.199 C 
HETATM    6  C5  UNL     1      -2.122   1.299   0.459  1.00  0.00     0.054 C 
HETATM    7  C6  UNL     1      -1.934   0.953   1.849  1.00  0.00     0.016 C 
HETATM    8  C7  UNL     1      -1.377   0.808  -0.670  1.00  0.00     0.084 C 
HETATM    9  C8  UNL     1      -1.506  -0.695  -0.948  1.00  0.00     0.096 C 
HETATM   10  C9  UNL     1      -0.065  -0.850  -0.644  1.00  0.00     0.095 C 
HETATM   11  C10 UNL     1       0.392  -1.336   0.642  1.00  0.00     0.010 C 
HETATM   12  C11 UNL     1       1.460  -0.772   1.210  1.00  0.00     0.008 C 
HETATM   13  C12 UNL     1       2.140   0.350   0.484  1.00  0.00     0.194 C 
HETATM   14  C14 UNL     1       1.074   1.333  -0.042  1.00  0.00     0.162 C 
HETATM   15  C15 UNL     1       0.045   0.657  -0.853  1.00  0.00     0.092 C 
ENDROOT
BRANCH  13  16
HETATM   16  O5  UNL     1       2.975  -0.085  -0.517  1.00  0.00    -0.264 OA
BRANCH  16  17
HETATM   17  S1  UNL     1       4.578   0.328  -0.252  1.00  0.00     0.262 S 
HETATM   18  C13 UNL     1       5.515  -1.031   0.399  1.00  0.00     0.194 C 
HETATM   19  O6  UNL     1       4.711   1.486   0.692  1.00  0.00    -0.199 OA
HETATM   20  O7  UNL     1       5.178   0.691  -1.587  1.00  0.00    -0.199 OA
ENDBRANCH  16  17
ENDBRANCH  13  16
BRANCH  14  21
HETATM   21  O8  UNL     1       1.801   2.267  -0.789  1.00  0.00    -0.392 OA
ATOM     22  H8  UNL     1       1.144   2.872  -1.113  1.00  0.00     0.210 HD
ENDBRANCH  14  21
BRANCH  10  23
HETATM   23  O4  UNL     1       0.619  -1.613  -1.631  1.00  0.00    -0.384 OA
ATOM     24  H4  UNL     1       1.543  -1.712  -1.436  1.00  0.00     0.211 HD
ENDBRANCH  10  23
BRANCH   8  25
HETATM   25  O3  UNL     1      -1.970   1.456  -1.806  1.00  0.00    -0.388 OA
ATOM     26  H3  UNL     1      -1.478   1.132  -2.551  1.00  0.00     0.210 HD
ENDBRANCH   8  25
BRANCH   5  27
HETATM   27  O2  UNL     1      -4.467   1.592   0.971  1.00  0.00    -0.387 OA
ATOM     28  H2  UNL     1      -4.441   2.532   0.836  1.00  0.00     0.210 HD
ENDBRANCH   5  27
TORSDOF 6
