REMARK  6 active torsions:
REMARK  status: ('A' for Active; 'I' for Inactive)
REMARK    1  A    between atoms: C2_2  and  C3_3 
REMARK    2  A    between atoms: C7_8  and  C8_9 
REMARK    3  A    between atoms: C8_9  and  O2_12 
REMARK    4  A    between atoms: C12_15  and  O3_16 
REMARK    5  A    between atoms: C15_20  and  C16_21 
REMARK    6  A    between atoms: C16_21  and  O4_22 
ROOT
HETATM    1  C3  UNL     1      -0.592   2.843   0.830  1.00  0.00    -0.007 C 
HETATM    2  C4  UNL     1       0.777   3.450   1.179  1.00  0.00     0.007 C 
HETATM    3  C5  UNL     1       1.701   2.923   0.060  1.00  0.00     0.033 C 
HETATM    4  C6  UNL     1       1.300   1.496   0.144  1.00  0.00     0.127 C 
HETATM    5  O1  UNL     1       1.698   0.604  -0.696  1.00  0.00    -0.377 OA
HETATM    6  C7  UNL     1       2.364  -0.538  -0.542  1.00  0.00     0.158 C 
HETATM    7  C11 UNL     1       1.680  -1.773  -1.160  1.00  0.00     0.069 C 
HETATM    8  C12 UNL     1       0.630  -2.425  -0.391  1.00  0.00     0.151 C 
HETATM    9  C13 UNL     1      -0.790  -2.341  -0.782  1.00  0.00     0.088 A 
HETATM   10  C14 UNL     1      -1.898  -2.461   0.206  1.00  0.00     0.072 C 
HETATM   11  C15 UNL     1      -2.544  -1.180   0.619  1.00  0.00    -0.057 C 
HETATM   12  C17 UNL     1      -2.138   0.116   0.557  1.00  0.00    -0.009 C 
HETATM   13  C18 UNL     1      -0.815   0.437  -0.013  1.00  0.00     0.088 C 
HETATM   14  C19 UNL     1      -0.889  -0.117  -1.402  1.00  0.00     0.165 C 
HETATM   15  O5  UNL     1      -0.574   0.604  -2.323  1.00  0.00    -0.294 OA
HETATM   16  C20 UNL     1      -1.299  -1.428  -1.797  1.00  0.00     0.112 A 
HETATM   17  C21 UNL     1      -2.818  -1.427  -2.119  1.00  0.00     0.049 C 
HETATM   18  N1  UNL     1      -0.853  -2.639  -2.160  1.00  0.00    -0.391 N 
ATOM     19  H1  UNL     1      -0.680  -3.309  -2.910  1.00  0.00     0.155 HD
HETATM   20  C22 UNL     1      -0.242   1.729  -0.064  1.00  0.00     0.033 C 
ENDROOT
BRANCH   6  21
HETATM   21  C8  UNL     1       3.102  -0.816   0.707  1.00  0.00     0.077 C 
HETATM   22  C9  UNL     1       4.222   0.237   0.847  1.00  0.00     0.048 C 
HETATM   23  C10 UNL     1       3.842  -2.128   0.540  1.00  0.00     0.048 C 
BRANCH  21  24
HETATM   24  O2  UNL     1       2.400  -0.868   1.871  1.00  0.00    -0.388 OA
ATOM     25  H2  UNL     1       2.875  -1.047   2.674  1.00  0.00     0.210 HD
ENDBRANCH  21  24
ENDBRANCH   6  21
BRANCH   8  26
HETATM   26  O3  UNL     1       0.848  -3.849  -0.487  1.00  0.00    -0.393 OA
ATOM     27  H3  UNL     1       0.163  -4.275   0.015  1.00  0.00     0.210 HD
ENDBRANCH   8  26
BRANCH   1  28
HETATM   28  C2  UNL     1      -1.279   4.000   0.090  1.00  0.00     0.000 C 
HETATM   29  C1  UNL     1      -2.645   3.684  -0.371  1.00  0.00     0.005 C 
ENDBRANCH   1  28
BRANCH  11  30
HETATM   30  C16 UNL     1      -3.917  -1.313   1.225  1.00  0.00     0.198 C 
BRANCH  30  31
HETATM   31  O4  UNL     1      -3.806  -2.106   2.364  1.00  0.00    -0.397 OA
ATOM     32  H4  UNL     1      -4.672  -2.190   2.746  1.00  0.00     0.209 HD
ENDBRANCH  30  31
ENDBRANCH  11  30
TORSDOF 6
