REMARK  7 active torsions:
REMARK  status: ('A' for Active; 'I' for Inactive)
REMARK    1  A    between atoms: C4_4  and  O1_5 
REMARK    2  A    between atoms: C6_8  and  O2_9 
REMARK    3  A    between atoms: O2_9  and  C7_10 
REMARK    4  A    between atoms: C12_16  and  C13_17 
REMARK    5  A    between atoms: C13_17  and  O4_18 
REMARK    6  A    between atoms: C17_26  and  C19_28 
REMARK    7  A    between atoms: C19_28  and  C20_29 
REMARK       I    between atoms: C20_29  and  N2_31 
ROOT
HETATM    1  C1  UNL     1       0.170   1.614  -1.489  1.00  0.00     0.016 C 
HETATM    2  C2  UNL     1      -0.136   1.261  -0.249  1.00  0.00    -0.065 C 
HETATM    3  C3  UNL     1       0.508   0.618   0.912  1.00  0.00     0.090 C 
HETATM    4  C4  UNL     1      -0.869   0.279   1.433  1.00  0.00     0.088 C 
HETATM    5  C5  UNL     1      -1.232  -1.026   0.762  1.00  0.00     0.058 C 
HETATM    6  C6  UNL     1      -2.188  -0.686  -0.312  1.00  0.00     0.148 C 
HETATM    7  C9  UNL     1      -2.615   0.784  -0.047  1.00  0.00    -0.004 C 
HETATM    8  C10 UNL     1      -3.047   1.432  -1.319  1.00  0.00     0.019 C 
HETATM    9  C11 UNL     1      -3.721   0.857   0.954  1.00  0.00     0.019 C 
HETATM   10  C12 UNL     1      -1.378   1.379   0.561  1.00  0.00     0.046 C 
HETATM   11  C14 UNL     1       0.074  -1.677   0.316  1.00  0.00     0.030 C 
HETATM   12  C15 UNL     1      -0.010  -2.252  -1.058  1.00  0.00     0.013 C 
HETATM   13  C16 UNL     1       1.153  -0.725   0.599  1.00  0.00     0.173 A 
HETATM   14  N1  UNL     1       1.942  -1.148   1.840  1.00  0.00    -0.051 N 
ATOM     15  H11 UNL     1       1.955  -1.937   2.487  1.00  0.00     0.279 HD
ATOM     16  H12 UNL     1       2.018  -0.856   2.814  1.00  0.00     0.279 HD
HETATM   17  C17 UNL     1       2.575  -0.789   0.533  1.00  0.00     0.165 A 
HETATM   18  C18 UNL     1       3.316  -1.898  -0.161  1.00  0.00     0.049 C 
ENDROOT
BRANCH  17  19
HETATM   19  C19 UNL     1       3.291   0.524   0.618  1.00  0.00     0.143 C 
BRANCH  19  20
HETATM   20  C20 UNL     1       4.753   0.357   0.600  1.00  0.00     0.219 C 
HETATM   21  O5  UNL     1       5.365  -0.735   0.726  1.00  0.00    -0.274 OA
HETATM   22  N2  UNL     1       5.578   1.532   0.422  1.00  0.00    -0.365 N 
HETATM   23  C21 UNL     1       7.000   1.366   0.405  1.00  0.00     0.149 C 
ATOM     24  H2  UNL     1       5.158   2.455   0.311  1.00  0.00     0.161 HD
ENDBRANCH  19  20
ENDBRANCH  17  19
BRANCH   4  25
HETATM   25  O1  UNL     1      -1.069   0.370   2.784  1.00  0.00    -0.387 OA
ATOM     26  H1  UNL     1      -1.935   0.157   3.112  1.00  0.00     0.210 HD
ENDBRANCH   4  25
BRANCH  10  27
HETATM   27  C13 UNL     1      -1.536   2.723   1.175  1.00  0.00     0.182 C 
BRANCH  27  28
HETATM   28  O4  UNL     1      -0.488   3.034   2.024  1.00  0.00    -0.400 OA
ATOM     29  H4  UNL     1      -0.589   3.893   2.417  1.00  0.00     0.209 HD
ENDBRANCH  27  28
ENDBRANCH  10  27
BRANCH   6  30
HETATM   30  O2  UNL     1      -3.430  -1.394  -0.158  1.00  0.00    -0.315 OA
BRANCH  30  31
HETATM   31  C7  UNL     1      -4.118  -1.978  -1.183  1.00  0.00     0.255 C 
HETATM   32  C8  UNL     1      -5.380  -2.678  -0.903  1.00  0.00     0.126 C 
HETATM   33  O3  UNL     1      -3.686  -1.921  -2.345  1.00  0.00    -0.266 OA
ENDBRANCH  30  31
ENDBRANCH   6  30
TORSDOF 7
