REMARK  7 active torsions:
REMARK  status: ('A' for Active; 'I' for Inactive)
REMARK    1  A    between atoms: C2_2  and  C4_4 
REMARK    2  A    between atoms: C4_4  and  O1_5 
REMARK    3  A    between atoms: C4_4  and  C5_7 
REMARK    4  A    between atoms: C14_16  and  O2_17 
REMARK    5  A    between atoms: C15_19  and  N1_20 
REMARK    6  A    between atoms: C20_26  and  O4_27 
REMARK    7  A    between atoms: C22_30  and  O5_31 
ROOT
HETATM    1  C5  UNL     1      -2.808  -0.420   0.427  1.00  0.00     0.045 C 
HETATM    2  C6  UNL     1      -1.536  -1.233   0.066  1.00  0.00     0.020 C 
HETATM    3  C7  UNL     1      -0.513  -0.383   0.789  1.00  0.00    -0.031 C 
HETATM    4  C8  UNL     1      -0.741  -0.554   2.249  1.00  0.00     0.016 C 
HETATM    5  C9  UNL     1       0.904  -0.634   0.433  1.00  0.00    -0.001 C 
HETATM    6  C10 UNL     1       1.172  -1.921  -0.282  1.00  0.00     0.007 C 
HETATM    7  C11 UNL     1       2.655  -2.188  -0.148  1.00  0.00     0.012 C 
HETATM    8  C12 UNL     1       3.516  -1.081  -0.621  1.00  0.00    -0.011 C 
HETATM    9  C13 UNL     1       4.267  -1.409  -1.918  1.00  0.00     0.018 C 
HETATM   10  C14 UNL     1       4.555  -0.717   0.434  1.00  0.00     0.147 C 
HETATM   11  C15 UNL     1       3.842   0.584   0.701  1.00  0.00     0.123 C 
HETATM   12  C17 UNL     1       3.006   0.282  -0.525  1.00  0.00     0.023 C 
HETATM   13  C18 UNL     1       1.534   0.475  -0.381  1.00  0.00    -0.001 C 
HETATM   14  C19 UNL     1       1.327   1.849   0.215  1.00  0.00     0.037 C 
HETATM   15  C20 UNL     1      -0.079   2.009   0.813  1.00  0.00     0.126 C 
HETATM   16  C21 UNL     1      -0.902   0.950   0.228  1.00  0.00     0.052 C 
HETATM   17  C22 UNL     1      -2.384   1.008   0.417  1.00  0.00     0.132 C 
ENDROOT
BRANCH   1  18
HETATM   18  C4  UNL     1      -3.930  -0.818  -0.469  1.00  0.00     0.128 C 
BRANCH  18  19
HETATM   19  C2  UNL     1      -5.203  -0.099  -0.192  1.00  0.00     0.006 C 
HETATM   20  C1  UNL     1      -6.396  -0.904  -0.790  1.00  0.00     0.012 C 
HETATM   21  C3  UNL     1      -5.326   1.246  -0.929  1.00  0.00     0.012 C 
ENDBRANCH  18  19
BRANCH  18  22
HETATM   22  O1  UNL     1      -3.616  -0.973  -1.802  1.00  0.00    -0.395 OA
ATOM     23  H1  UNL     1      -2.803  -1.432  -1.979  1.00  0.00     0.210 HD
ENDBRANCH  18  22
ENDBRANCH   1  18
BRANCH  17  24
HETATM   24  O5  UNL     1      -2.754   1.698   1.567  1.00  0.00    -0.395 OA
ATOM     25  H5  UNL     1      -2.484   2.609   1.561  1.00  0.00     0.210 HD
ENDBRANCH  17  24
BRANCH  15  26
HETATM   26  O4  UNL     1      -0.569   3.297   0.601  1.00  0.00    -0.395 OA
ATOM     27  H4  UNL     1      -1.438   3.396   0.971  1.00  0.00     0.210 HD
ENDBRANCH  15  26
BRANCH  11  28
HETATM   28  N1  UNL     1       4.640   1.791   0.570  1.00  0.00    -0.163 NA
HETATM   29  C16 UNL     1       5.223   2.242  -0.563  1.00  0.00     0.315 A 
HETATM   30  O3  UNL     1       5.985   1.665   0.509  1.00  0.00    -0.284 OA
ENDBRANCH  11  28
BRANCH  10  31
HETATM   31  O2  UNL     1       4.582  -1.590   1.526  1.00  0.00    -0.393 OA
ATOM     32  H2  UNL     1       5.229  -1.363   2.183  1.00  0.00     0.210 HD
ENDBRANCH  10  31
TORSDOF 7
