REMARK  7 active torsions:
REMARK  status: ('A' for Active; 'I' for Inactive)
REMARK    1  A    between atoms: C3_5  and  N2_6 
REMARK    2  A    between atoms: N2_6  and  C4_8 
REMARK    3  A    between atoms: C4_8  and  C5_9 
REMARK    4  A    between atoms: C5_9  and  N3_10 
REMARK    5  A    between atoms: C8_14  and  C9_15 
REMARK    6  A    between atoms: C10_16  and  C11_17 
REMARK    7  A    between atoms: C12_18  and  O1_19 
ROOT
HETATM    1  C1  UNL     1      -0.938  -2.409  -0.809  1.00  0.00     0.070 C 
HETATM    2  C2  UNL     1      -0.242  -1.152  -0.318  1.00  0.00     0.033 A 
HETATM    3  N1  UNL     1       1.055  -1.037  -0.327  1.00  0.00    -0.339 N 
ATOM      4  H1  UNL     1       1.642  -1.799  -0.666  1.00  0.00     0.168 HD
HETATM    5  C3  UNL     1       1.601   0.094   0.115  1.00  0.00     0.146 A 
HETATM    6  S1  UNL     1       0.234   1.026   0.559  1.00  0.00    -0.043 SA
HETATM    7  C8  UNL     1      -0.979  -0.098   0.148  1.00  0.00     0.084 A 
ENDROOT
BRANCH   7   8
HETATM    8  C9  UNL     1      -2.429   0.008   0.254  1.00  0.00    -0.051 C 
HETATM    9  C10 UNL     1      -3.630   0.088   0.320  1.00  0.00    -0.051 C 
BRANCH   9  10
HETATM   10  C11 UNL     1      -5.071   0.168   0.379  1.00  0.00     0.137 A 
HETATM   11  C12 UNL     1      -5.812   0.856  -0.564  1.00  0.00     0.168 A 
HETATM   12  N4  UNL     1      -7.168   0.931  -0.511  1.00  0.00    -0.288 N 
HETATM   13  C13 UNL     1      -7.835   0.310   0.504  1.00  0.00     0.329 A 
ATOM     14  H4  UNL     1      -7.683   1.447  -1.224  1.00  0.00     0.172 HD
HETATM   15  O2  UNL     1      -9.085   0.414   0.502  1.00  0.00    -0.247 OA
HETATM   16  N5  UNL     1      -7.136  -0.367   1.435  1.00  0.00    -0.274 N 
HETATM   17  C14 UNL     1      -5.780  -0.449   1.393  1.00  0.00     0.272 A 
ATOM     18  H5  UNL     1      -7.638  -0.831   2.192  1.00  0.00     0.173 HD
HETATM   19  O3  UNL     1      -5.105  -1.069   2.242  1.00  0.00    -0.266 OA
BRANCH  11  20
HETATM   20  O1  UNL     1      -5.180   1.500  -1.609  1.00  0.00    -0.345 OA
ATOM     21  H1  UNL     1      -5.689   1.973  -2.257  1.00  0.00     0.219 HD
ENDBRANCH  11  20
ENDBRANCH   9  10
ENDBRANCH   7   8
BRANCH   5  22
HETATM   22  N2  UNL     1       2.865   0.437   0.197  1.00  0.00    -0.366 N 
ATOM     23  H2  UNL     1       3.145   1.348   0.561  1.00  0.00     0.162 HD
BRANCH  22  24
HETATM   24  C4  UNL     1       3.840  -0.525  -0.248  1.00  0.00     0.166 C 
BRANCH  24  25
HETATM   25  C5  UNL     1       5.147   0.139  -0.635  1.00  0.00     0.076 C 
BRANCH  25  26
HETATM   26  N3  UNL     1       5.794   0.854   0.383  1.00  0.00    -0.400 N 
HETATM   27  C6  UNL     1       5.216   2.036   0.883  1.00  0.00     0.148 C 
HETATM   28  C7  UNL     1       6.833   0.259   1.117  1.00  0.00     0.148 C 
ENDBRANCH  25  26
ENDBRANCH  24  25
ENDBRANCH  22  24
ENDBRANCH   5  22
TORSDOF 7
