REMARK  7 active torsions:
REMARK  status: ('A' for Active; 'I' for Inactive)
REMARK    1  A    between atoms: C2_2  and  N1_4 
REMARK    2  A    between atoms: N1_4  and  C4_6 
REMARK    3  A    between atoms: C5_9  and  O1_10 
REMARK    4  A    between atoms: C6_12  and  C7_13 
REMARK    5  A    between atoms: C7_13  and  C8_14 
REMARK    6  A    between atoms: C11_20  and  C12_21 
REMARK    7  A    between atoms: C12_21  and  O3_24 
ROOT
HETATM    1  C8  UNL     1      -0.697  -1.463  -0.278  1.00  0.00     0.112 A 
HETATM    2  N3  UNL     1      -0.597  -0.125  -0.338  1.00  0.00    -0.309 N 
ATOM      3  H3  UNL     1       0.326   0.308  -0.358  1.00  0.00     0.170 HD
HETATM    4  C9  UNL     1      -1.689   0.650  -0.372  1.00  0.00     0.262 A 
HETATM    5  O2  UNL     1      -1.472   1.903  -0.429  1.00  0.00    -0.267 OA
HETATM    6  C10 UNL     1      -2.993   0.133  -0.347  1.00  0.00     0.099 A 
HETATM    7  C11 UNL     1      -3.980   0.974  -0.384  1.00  0.00     0.032 C 
HETATM    8  C15 UNL     1      -3.044  -1.237  -0.285  1.00  0.00     0.262 A 
HETATM    9  O4  UNL     1      -4.132  -1.823  -0.257  1.00  0.00    -0.267 OA
HETATM   10  N4  UNL     1      -1.914  -2.010  -0.252  1.00  0.00    -0.309 N 
ATOM     11  H4  UNL     1      -2.004  -3.025  -0.207  1.00  0.00     0.170 HD
ENDROOT
BRANCH   1  12
HETATM   12  C7  UNL     1       0.410  -2.192  -0.246  1.00  0.00     0.072 C 
BRANCH  12  13
HETATM   13  C6  UNL     1       1.753  -1.575  -0.276  1.00  0.00     0.062 A 
HETATM   14  C5  UNL     1       2.436  -0.986   0.758  1.00  0.00     0.159 A 
HETATM   15  N2  UNL     1       3.616  -0.502   0.509  1.00  0.00    -0.316 N 
HETATM   16  C4  UNL     1       4.105  -0.599  -0.728  1.00  0.00     0.147 A 
ATOM     17  H2  UNL     1       4.159  -0.055   1.248  1.00  0.00     0.170 HD
HETATM   18  S1  UNL     1       2.854  -1.402  -1.570  1.00  0.00    -0.050 SA
BRANCH  14  19
HETATM   19  O1  UNL     1       1.829  -0.930   2.048  1.00  0.00    -0.345 OA
ATOM     20  H1  UNL     1       0.966  -1.284   2.230  1.00  0.00     0.219 HD
ENDBRANCH  14  19
BRANCH  16  21
HETATM   21  N1  UNL     1       5.267  -0.175  -1.174  1.00  0.00    -0.366 N 
ATOM     22  H1  UNL     1       5.485  -0.331  -2.158  1.00  0.00     0.162 HD
BRANCH  21  23
HETATM   23  C2  UNL     1       6.240   0.486  -0.376  1.00  0.00     0.075 C 
HETATM   24  C1  UNL     1       6.822  -0.350   0.733  1.00  0.00     0.032 C 
HETATM   25  C3  UNL     1       5.795   1.834   0.156  1.00  0.00     0.032 C 
ENDBRANCH  21  23
ENDBRANCH  16  21
ENDBRANCH  12  13
ENDBRANCH   1  12
BRANCH   7  26
HETATM   26  C12 UNL     1      -5.432   0.749  -0.373  1.00  0.00     0.069 C 
HETATM   27  C13 UNL     1      -6.161   2.089  -0.636  1.00  0.00     0.050 C 
HETATM   28  C14 UNL     1      -5.996   0.213   0.898  1.00  0.00     0.050 C 
BRANCH  26  29
HETATM   29  O3  UNL     1      -5.814  -0.044  -1.451  1.00  0.00    -0.387 OA
ATOM     30  H3  UNL     1      -6.753  -0.189  -1.444  1.00  0.00     0.211 HD
ENDBRANCH  26  29
ENDBRANCH   7  26
TORSDOF 7
