REMARK  7 active torsions:
REMARK  status: ('A' for Active; 'I' for Inactive)
REMARK    1  A    between atoms: C2_2  and  C4_4 
REMARK    2  A    between atoms: C5_5  and  O1_6 
REMARK    3  A    between atoms: O1_6  and  C6_7 
REMARK    4  A    between atoms: C6_7  and  N2_12 
REMARK    5  A    between atoms: N1_8  and  O2_10 
REMARK    6  A    between atoms: N2_12  and  C7_14 
REMARK    7  A    between atoms: C16_31  and  O4_32 
ROOT
HETATM    1  C6  UNL     1       0.120   1.267  -0.917  1.00  0.00     0.240 C 
HETATM    2  N1  UNL     1       0.109   2.525  -1.024  1.00  0.00    -0.233 N 
ATOM      3  H1  UNL     1       0.953   2.964  -1.392  1.00  0.00     0.198 HD
ENDROOT
BRANCH   1   4
HETATM    4  O1  UNL     1      -0.955   0.562  -0.436  1.00  0.00    -0.315 OA
BRANCH   4   5
HETATM    5  C5  UNL     1      -2.290   0.913  -0.650  1.00  0.00     0.141 C 
HETATM    6  C4  UNL     1      -3.179  -0.143   0.003  1.00  0.00     0.049 C 
HETATM    7  C16 UNL     1      -3.108  -1.365  -0.848  1.00  0.00     0.157 C 
HETATM    8  C15 UNL     1      -3.737  -1.099  -2.172  1.00  0.00     0.245 A 
HETATM    9  C14 UNL     1      -3.384   0.117  -2.777  1.00  0.00     0.222 A 
HETATM   10  N5  UNL     1      -4.754  -0.129  -2.364  1.00  0.00    -0.060 N 
HETATM   11  C13 UNL     1      -2.569   1.128  -2.075  1.00  0.00     0.068 C 
ATOM     12  H52 UNL     1      -5.436   0.344  -1.771  1.00  0.00     0.278 HD
ATOM     13  H51 UNL     1      -5.669  -0.107  -2.814  1.00  0.00     0.278 HD
BRANCH   6  14
HETATM   14  C2  UNL     1      -2.610  -0.426   1.381  1.00  0.00    -0.014 C 
HETATM   15  C1  UNL     1      -2.594   0.827   2.232  1.00  0.00     0.010 C 
HETATM   16  C3  UNL     1      -3.427  -1.455   2.121  1.00  0.00     0.010 C 
ENDBRANCH   6  14
BRANCH   7  17
HETATM   17  O4  UNL     1      -1.762  -1.655  -1.073  1.00  0.00    -0.393 OA
ATOM     18  H4  UNL     1      -1.717  -2.434  -1.615  1.00  0.00     0.210 HD
ENDBRANCH   7  17
ENDBRANCH   4   5
ENDBRANCH   1   4
BRANCH   1  19
HETATM   19  N2  UNL     1       1.324   0.550  -1.322  1.00  0.00    -0.337 N 
ATOM     20  H2  UNL     1       1.269  -0.121  -2.088  1.00  0.00     0.164 HD
BRANCH  19  21
HETATM   21  C7  UNL     1       2.584   0.766  -0.669  1.00  0.00     0.215 C 
HETATM   22  C8  UNL     1       2.541   0.449   0.780  1.00  0.00     0.092 C 
HETATM   23  N3  UNL     1       3.535  -0.027   1.385  1.00  0.00    -0.375 N 
HETATM   24  C9  UNL     1       4.814  -0.337   0.837  1.00  0.00     0.098 C 
ATOM     25  H3  UNL     1       3.412  -0.212   2.381  1.00  0.00     0.161 HD
HETATM   26  C10 UNL     1       5.769   0.824   1.144  1.00  0.00     0.062 C 
HETATM   27  C11 UNL     1       5.435  -1.561   1.483  1.00  0.00     0.062 C 
HETATM   28  N4  UNL     1       4.789  -0.493  -0.584  1.00  0.00    -0.333 N 
HETATM   29  C12 UNL     1       3.644  -0.068  -1.302  1.00  0.00     0.247 C 
ATOM     30  H4  UNL     1       5.584  -0.904  -1.074  1.00  0.00     0.165 HD
HETATM   31  O3  UNL     1       3.529  -0.411  -2.505  1.00  0.00    -0.271 OA
ENDBRANCH  19  21
ENDBRANCH   1  19
BRANCH   2  32
HETATM   32  O2  UNL     1      -0.903   3.336  -0.701  1.00  0.00    -0.287 OA
ATOM     33  H2  UNL     1      -0.911   4.283  -0.782  1.00  0.00     0.244 HD
ENDBRANCH   2  32
TORSDOF 7
