REMARK  7 active torsions:
REMARK  status: ('A' for Active; 'I' for Inactive)
REMARK    1  A    between atoms: O1_2  and  C2_3 
REMARK    2  A    between atoms: C5_6  and  C6_7 
REMARK    3  A    between atoms: C6_7  and  O2_8 
REMARK    4  A    between atoms: C8_11  and  C9_12 
REMARK    5  A    between atoms: C11_15  and  O4_16 
REMARK    6  A    between atoms: C15_21  and  O5_22 
REMARK    7  A    between atoms: C16_24  and  O6_25 
ROOT
HETATM    1  C2  UNL     1      -2.474  -0.845   0.215  1.00  0.00     0.128 C 
HETATM    2  C3  UNL     1      -1.333  -0.726   1.223  1.00  0.00     0.043 C 
HETATM    3  C4  UNL     1      -0.116  -0.567   0.378  1.00  0.00    -0.022 C 
HETATM    4  C5  UNL     1       0.882  -1.676   0.581  1.00  0.00     0.019 C 
HETATM    5  C7  UNL     1       2.311  -1.201   0.447  1.00  0.00     0.022 C 
HETATM    6  C8  UNL     1       2.504  -0.206  -0.662  1.00  0.00     0.090 C 
HETATM    7  C11 UNL     1       1.386   0.816  -0.747  1.00  0.00     0.073 C 
HETATM    8  C12 UNL     1       0.377   0.375  -1.794  1.00  0.00     0.045 C 
HETATM    9  C13 UNL     1      -0.597  -0.405  -1.031  1.00  0.00     0.007 C 
HETATM   10  C14 UNL     1      -1.964   0.132  -0.865  1.00  0.00     0.051 C 
HETATM   11  C15 UNL     1      -2.215   1.497  -0.483  1.00  0.00     0.153 C 
HETATM   12  C16 UNL     1      -1.137   2.401  -0.062  1.00  0.00     0.147 C 
HETATM   13  C17 UNL     1      -0.140   1.919   0.901  1.00  0.00     0.042 C 
HETATM   14  C18 UNL     1       0.631   0.711   0.581  1.00  0.00     0.033 C 
ENDROOT
BRANCH   4  15
HETATM   15  C6  UNL     1       0.692  -2.871  -0.287  1.00  0.00     0.169 C 
BRANCH  15  16
HETATM   16  O2  UNL     1       1.708  -3.799   0.051  1.00  0.00    -0.400 OA
ATOM     17  H2  UNL     1       1.587  -4.561  -0.503  1.00  0.00     0.209 HD
ENDBRANCH  15  16
ENDBRANCH   4  15
BRANCH   6  18
HETATM   18  C9  UNL     1       3.838   0.400  -0.562  1.00  0.00     0.130 C 
HETATM   19  C10 UNL     1       4.311   1.173   0.620  1.00  0.00     0.091 C 
HETATM   20  O3  UNL     1       4.664   0.298  -1.483  1.00  0.00    -0.298 OA
ENDBRANCH   6  18
BRANCH   1  21
HETATM   21  O1  UNL     1      -3.676  -0.455   0.723  1.00  0.00    -0.390 OA
HETATM   22  C1  UNL     1      -4.582  -1.505   0.585  1.00  0.00     0.202 C 
ENDBRANCH   1  21
BRANCH   7  23
HETATM   23  O4  UNL     1       1.854   2.096  -0.969  1.00  0.00    -0.389 OA
ATOM     24  H4  UNL     1       1.154   2.736  -1.022  1.00  0.00     0.210 HD
ENDBRANCH   7  23
BRANCH  11  25
HETATM   25  O5  UNL     1      -2.882   2.161  -1.551  1.00  0.00    -0.393 OA
ATOM     26  H5  UNL     1      -3.048   3.062  -1.299  1.00  0.00     0.210 HD
ENDBRANCH  11  25
BRANCH  12  27
HETATM   27  O6  UNL     1      -1.775   3.504   0.579  1.00  0.00    -0.393 OA
ATOM     28  H6  UNL     1      -1.078   4.089   0.851  1.00  0.00     0.210 HD
ENDBRANCH  12  27
TORSDOF 7
