REMARK  6 active torsions:
REMARK  status: ('A' for Active; 'I' for Inactive)
REMARK    1  A    between atoms: O1_2  and  C2_3 
REMARK    2  A    between atoms: C2_3  and  C3_4 
REMARK    3  A    between atoms: C3_4  and  O2_5 
REMARK    4  A    between atoms: C8_17  and  C9_18 
REMARK    5  A    between atoms: C9_18  and  C10_19 
REMARK    6  A    between atoms: C15_25  and  O6_26 
ROOT
HETATM    1  C3  UNL     1      -2.037   0.175  -0.664  1.00  0.00     0.188 C 
HETATM    2  C4  UNL     1      -1.141   0.891  -1.580  1.00  0.00     0.258 C 
HETATM    3  O3  UNL     1      -1.562   1.032  -2.796  1.00  0.00    -0.270 OA
HETATM    4  N1  UNL     1       0.119   1.449  -1.328  1.00  0.00    -0.345 N 
ATOM      5  H1  UNL     1       0.877   1.092  -1.909  1.00  0.00     0.163 HD
HETATM    6  C5  UNL     1       0.501   2.455  -0.367  1.00  0.00     0.172 C 
HETATM    7  C6  UNL     1       0.567   3.769  -1.185  1.00  0.00     0.042 C 
HETATM    8  C7  UNL     1       1.877   2.245   0.154  1.00  0.00     0.240 C 
HETATM    9  O4  UNL     1       2.473   3.323   0.521  1.00  0.00    -0.271 OA
HETATM   10  N2  UNL     1       2.552   1.010   0.273  1.00  0.00    -0.354 N 
ATOM     11  H2  UNL     1       3.475   0.948  -0.158  1.00  0.00     0.162 HD
HETATM   12  C8  UNL     1       2.067  -0.176   0.944  1.00  0.00     0.093 C 
HETATM   13  C11 UNL     1       2.091  -1.417   0.088  1.00  0.00     0.061 C 
HETATM   14  C12 UNL     1       0.767  -1.708  -0.551  1.00  0.00     0.146 C 
HETATM   15  C13 UNL     1       0.409  -3.173  -0.532  1.00  0.00     0.003 C 
HETATM   16  C14 UNL     1      -0.837  -3.415  -0.986  1.00  0.00     0.006 C 
HETATM   17  C15 UNL     1      -1.592  -2.201  -1.408  1.00  0.00     0.173 C 
HETATM   18  C16 UNL     1      -1.489  -1.206  -0.290  1.00  0.00     0.200 C 
HETATM   19  O7  UNL     1      -0.199  -0.995   0.096  1.00  0.00    -0.370 OA
ENDROOT
BRANCH   1  20
HETATM   20  C2  UNL     1      -2.361   0.885   0.620  1.00  0.00     0.217 C 
BRANCH  20  21
HETATM   21  O1  UNL     1      -3.228  -0.009   1.310  1.00  0.00    -0.392 OA
HETATM   22  C1  UNL     1      -3.615   0.529   2.525  1.00  0.00     0.201 C 
ENDBRANCH  20  21
ENDBRANCH   1  20
BRANCH   1  23
HETATM   23  O2  UNL     1      -3.267  -0.056  -1.288  1.00  0.00    -0.376 OA
ATOM     24  H2  UNL     1      -3.062  -0.505  -2.100  1.00  0.00     0.211 HD
ENDBRANCH   1  23
BRANCH  17  25
HETATM   25  O6  UNL     1      -2.908  -2.556  -1.678  1.00  0.00    -0.389 OA
ATOM     26  H6  UNL     1      -3.389  -1.782  -1.947  1.00  0.00     0.210 HD
ENDBRANCH  17  25
BRANCH  12  27
HETATM   27  C9  UNL     1       3.017  -0.446   2.125  1.00  0.00     0.094 C 
BRANCH  27  28
HETATM   28  C10 UNL     1       4.370  -0.648   1.538  1.00  0.00     0.233 C 
HETATM   29  O5  UNL     1       4.710  -1.666   0.981  1.00  0.00    -0.307 OA
ENDBRANCH  27  28
ENDBRANCH  12  27
TORSDOF 6
