REMARK  7 active torsions:
REMARK  status: ('A' for Active; 'I' for Inactive)
REMARK    1  A    between atoms: C2_2  and  C4_4 
REMARK    2  A    between atoms: C6_6  and  O1_7 
REMARK    3  A    between atoms: C8_11  and  O3_13 
REMARK    4  A    between atoms: O3_13  and  C10_14 
REMARK    5  A    between atoms: C14_20  and  O5_21 
REMARK    6  A    between atoms: C15_23  and  O6_24 
REMARK    7  A    between atoms: C16_26  and  O7_27 
ROOT
HETATM    1  C10 UNL     1       0.650   0.282  -0.325  1.00  0.00     0.223 C 
HETATM    2  C11 UNL     1       1.279   1.282   0.584  1.00  0.00     0.249 C 
HETATM    3  O4  UNL     1       0.887   2.450   0.810  1.00  0.00    -0.270 OA
HETATM    4  N1  UNL     1       2.438   0.663   1.170  1.00  0.00    -0.346 N 
HETATM    5  C12 UNL     1       3.249   1.301   2.169  1.00  0.00     0.153 C 
HETATM    6  C13 UNL     1       2.599  -0.630   0.590  1.00  0.00     0.127 C 
HETATM    7  C14 UNL     1       4.008  -0.919   0.145  1.00  0.00     0.172 C 
HETATM    8  C15 UNL     1       4.229   0.100  -0.923  1.00  0.00     0.178 C 
HETATM    9  C16 UNL     1       2.858   0.341  -1.534  1.00  0.00     0.158 C 
HETATM   10  C17 UNL     1       1.891  -0.488  -0.743  1.00  0.00     0.081 C 
ENDROOT
BRANCH   1  11
HETATM   11  O3  UNL     1      -0.103  -0.562   0.447  1.00  0.00    -0.357 OA
BRANCH  11  12
HETATM   12  C8  UNL     1      -1.398  -0.776   0.047  1.00  0.00     0.125 C 
HETATM   13  C4  UNL     1      -2.251   0.432  -0.023  1.00  0.00     0.034 C 
HETATM   14  C5  UNL     1      -2.826   0.572   1.349  1.00  0.00     0.048 C 
HETATM   15  C6  UNL     1      -2.897  -0.775   1.982  1.00  0.00     0.191 C 
HETATM   16  C7  UNL     1      -2.031  -1.618   1.135  1.00  0.00     0.189 C 
HETATM   17  O2  UNL     1      -1.833  -2.806   1.262  1.00  0.00    -0.292 OA
HETATM   18  C9  UNL     1      -1.385  -1.633  -1.182  1.00  0.00     0.055 C 
BRANCH  13  19
HETATM   19  C2  UNL     1      -3.248   0.492  -1.131  1.00  0.00    -0.015 C 
HETATM   20  C1  UNL     1      -3.930   1.844  -1.046  1.00  0.00     0.010 C 
HETATM   21  C3  UNL     1      -4.284  -0.558  -1.161  1.00  0.00     0.010 C 
ENDBRANCH  13  19
BRANCH  15  22
HETATM   22  O1  UNL     1      -2.377  -0.732   3.277  1.00  0.00    -0.388 OA
ATOM     23  H1  UNL     1      -2.422  -1.591   3.681  1.00  0.00     0.210 HD
ENDBRANCH  15  22
ENDBRANCH  11  12
ENDBRANCH   1  11
BRANCH   9  24
HETATM   24  O7  UNL     1       2.566   1.682  -1.582  1.00  0.00    -0.392 OA
ATOM     25  H7  UNL     1       1.709   1.833  -1.964  1.00  0.00     0.210 HD
ENDBRANCH   9  24
BRANCH   7  26
HETATM   26  O5  UNL     1       4.923  -0.842   1.189  1.00  0.00    -0.391 OA
ATOM     27  H5  UNL     1       5.812  -1.024   0.908  1.00  0.00     0.210 HD
ENDBRANCH   7  26
BRANCH   8  28
HETATM   28  O6  UNL     1       5.110  -0.433  -1.878  1.00  0.00    -0.390 OA
ATOM     29  H6  UNL     1       5.251   0.216  -2.558  1.00  0.00     0.210 HD
ENDBRANCH   8  28
TORSDOF 7
