REMARK  6 active torsions:
REMARK  status: ('A' for Active; 'I' for Inactive)
REMARK    1  A    between atoms: C2_3  and  O1_4 
REMARK    2  A    between atoms: O1_4  and  C3_5 
REMARK    3  A    between atoms: C10_13  and  O2_14 
REMARK    4  A    between atoms: C11_16  and  O3_17 
REMARK    5  A    between atoms: C13_20  and  O4_21 
REMARK    6  A    between atoms: C14_23  and  O5_24 
ROOT
HETATM    1  C1  UNL     1       0.950   1.562   0.522  1.00  0.00     0.146 C 
HETATM    2  N1  UNL     1       0.885   0.162   0.724  1.00  0.00    -0.382 N 
HETATM    3  C2  UNL     1       0.148  -0.582  -0.237  1.00  0.00     0.251 C 
HETATM    4  C10 UNL     1       0.968  -1.010  -1.433  1.00  0.00     0.195 C 
HETATM    5  C11 UNL     1       2.251  -1.712  -0.993  1.00  0.00     0.159 C 
HETATM    6  C12 UNL     1       2.973  -0.952   0.068  1.00  0.00     0.073 C 
HETATM    7  C13 UNL     1       3.788   0.144  -0.537  1.00  0.00     0.158 C 
HETATM    8  C14 UNL     1       4.695   0.752   0.489  1.00  0.00     0.178 C 
HETATM    9  C15 UNL     1       4.110   0.855   1.853  1.00  0.00     0.184 A 
HETATM   10  O6  UNL     1       4.010  -0.313   2.646  1.00  0.00    -0.370 OA
HETATM   11  C16 UNL     1       2.816   0.405   2.126  1.00  0.00     0.176 A 
HETATM   12  C17 UNL     1       2.083  -0.463   1.179  1.00  0.00     0.122 C 
ENDROOT
BRANCH   3  13
HETATM   13  O1  UNL     1      -0.941   0.110  -0.700  1.00  0.00    -0.356 OA
BRANCH  13  14
HETATM   14  C3  UNL     1      -2.104  -0.570  -0.441  1.00  0.00     0.163 C 
HETATM   15  C4  UNL     1      -2.874  -0.901  -1.725  1.00  0.00     0.065 C 
HETATM   16  C5  UNL     1      -4.224  -1.257  -1.136  1.00  0.00     0.275 C 
HETATM   17  N2  UNL     1      -4.441  -0.297  -0.075  1.00  0.00     0.095 N 
HETATM   18  C6  UNL     1      -5.370   0.683  -0.547  1.00  0.00     0.310 C 
HETATM   19  C7  UNL     1      -3.151   0.243   0.290  1.00  0.00     0.178 C 
HETATM   20  C8  UNL     1      -3.104   1.675  -0.189  1.00  0.00     0.051 C 
HETATM   21  C9  UNL     1      -2.937   0.244   1.785  1.00  0.00     0.051 C 
ENDBRANCH  13  14
ENDBRANCH   3  13
BRANCH   4  22
HETATM   22  O2  UNL     1       1.204   0.084  -2.224  1.00  0.00    -0.389 OA
ATOM     23  H2  UNL     1       1.719  -0.185  -2.975  1.00  0.00     0.210 HD
ENDBRANCH   4  22
BRANCH   5  24
HETATM   24  O3  UNL     1       1.870  -2.945  -0.459  1.00  0.00    -0.392 OA
ATOM     25  H3  UNL     1       2.668  -3.382  -0.185  1.00  0.00     0.210 HD
ENDBRANCH   5  24
BRANCH   7  26
HETATM   26  O4  UNL     1       4.618  -0.443  -1.516  1.00  0.00    -0.392 OA
ATOM     27  H4  UNL     1       5.136   0.254  -1.901  1.00  0.00     0.210 HD
ENDBRANCH   7  26
BRANCH   8  28
HETATM   28  O5  UNL     1       5.023   2.037   0.047  1.00  0.00    -0.390 OA
ATOM     29  H5  UNL     1       5.598   2.422   0.698  1.00  0.00     0.210 HD
ENDBRANCH   8  28
TORSDOF 6
