REMARK  8 active torsions:
REMARK  status: ('A' for Active; 'I' for Inactive)
REMARK    1  A    between atoms: S1_2  and  N1_4 
REMARK    2  A    between atoms: S1_2  and  C10_26 
REMARK    3  A    between atoms: N1_4  and  C1_6 
REMARK    4  A    between atoms: C3_11  and  C4_12 
REMARK    5  A    between atoms: C4_12  and  O5_13 
REMARK    6  A    between atoms: C5_16  and  N2_17 
REMARK    7  A    between atoms: C6_18  and  O7_19 
REMARK    8  A    between atoms: C9_23  and  O8_24 
ROOT
HETATM    1  C1  UNL     1      -0.131   0.159  -0.709  1.00  0.00     0.156 C 
HETATM    2  C2  UNL     1       0.305   1.585  -0.630  1.00  0.00     0.173 C 
HETATM    3  S2  UNL     1      -0.785   2.649   0.215  1.00  0.00     0.175 S 
HETATM    4  O3  UNL     1      -0.985   3.948  -0.553  1.00  0.00    -0.225 OA
HETATM    5  O4  UNL     1      -0.243   3.080   1.570  1.00  0.00    -0.225 OA
HETATM    6  C3  UNL     1      -2.293   1.791   0.489  1.00  0.00     0.269 C 
HETATM    7  O6  UNL     1      -2.469   0.767  -0.327  1.00  0.00    -0.342 OA
HETATM    8  C5  UNL     1      -1.568  -0.116  -0.718  1.00  0.00     0.258 C 
ENDROOT
BRANCH   1   9
HETATM    9  N1  UNL     1       0.513  -0.398  -1.881  1.00  0.00    -0.305 N 
ATOM     10  H1  UNL     1       0.258  -0.108  -2.825  1.00  0.00     0.173 HD
BRANCH   9  11
HETATM   11  S1  UNL     1       1.710  -1.555  -1.594  1.00  0.00     0.259 S 
HETATM   12  O1  UNL     1       2.316  -1.965  -2.912  1.00  0.00    -0.201 OA
HETATM   13  O2  UNL     1       1.252  -2.747  -0.809  1.00  0.00    -0.201 OA
BRANCH  11  14
HETATM   14  C10 UNL     1       2.990  -0.802  -0.670  1.00  0.00     0.079 A 
HETATM   15  C11 UNL     1       4.038  -0.123  -1.267  1.00  0.00     0.025 A 
HETATM   16  C12 UNL     1       5.038   0.459  -0.513  1.00  0.00     0.002 A 
HETATM   17  C13 UNL     1       5.034   0.388   0.864  1.00  0.00     0.000 A 
HETATM   18  C14 UNL     1       3.994  -0.285   1.466  1.00  0.00     0.002 A 
HETATM   19  C15 UNL     1       2.993  -0.867   0.699  1.00  0.00     0.025 A 
ENDBRANCH  11  14
ENDBRANCH   9  11
ENDBRANCH   1   9
BRANCH   8  20
HETATM   20  N2  UNL     1      -1.811  -1.380   0.005  1.00  0.00    -0.279 N 
HETATM   21  C6  UNL     1      -2.372  -2.516  -0.460  1.00  0.00     0.146 A 
HETATM   22  C7  UNL     1      -2.439  -3.485   0.488  1.00  0.00     0.060 A 
HETATM   23  C8  UNL     1      -1.887  -2.935   1.626  1.00  0.00     0.060 A 
HETATM   24  C9  UNL     1      -1.515  -1.649   1.295  1.00  0.00     0.146 A 
BRANCH  21  25
HETATM   25  O7  UNL     1      -2.838  -2.692  -1.769  1.00  0.00    -0.346 OA
ATOM     26  H7  UNL     1      -3.233  -3.492  -2.096  1.00  0.00     0.219 HD
ENDBRANCH  21  25
BRANCH  24  27
HETATM   27  O8  UNL     1      -0.920  -0.798   2.212  1.00  0.00    -0.346 OA
ATOM     28  H8  UNL     1      -0.712  -0.987   3.119  1.00  0.00     0.219 HD
ENDBRANCH  24  27
ENDBRANCH   8  20
BRANCH   6  29
HETATM   29  C4  UNL     1      -3.406   2.821   0.198  1.00  0.00     0.212 C 
BRANCH  29  30
HETATM   30  O5  UNL     1      -3.330   3.247  -1.126  1.00  0.00    -0.397 OA
ATOM     31  H5  UNL     1      -4.015   3.881  -1.305  1.00  0.00     0.209 HD
ENDBRANCH  29  30
ENDBRANCH   6  29
TORSDOF 8
