REMARK  2 active torsions:
REMARK  status: ('A' for Active; 'I' for Inactive)
REMARK       I    between atoms: N2_12  and  C10_13 
REMARK    1  A    between atoms: C10_13  and  O3_15 
REMARK    2  A    between atoms: O3_15  and  C11_16 
ROOT
HETATM    1  C1  UNL     1      -3.814   0.060  -2.692  1.00  0.00     0.023 C 
HETATM    2  C2  UNL     1      -3.341   0.303  -1.525  1.00  0.00    -0.017 C 
HETATM    3  C3  UNL     1      -4.199   0.903  -0.452  1.00  0.00     0.157 C 
HETATM    4  O1  UNL     1      -5.462   0.858  -0.527  1.00  0.00    -0.293 OA
HETATM    5  C4  UNL     1      -3.438   1.531   0.663  1.00  0.00     0.112 C 
HETATM    6  C5  UNL     1      -2.423   0.589   1.323  1.00  0.00     0.074 C 
HETATM    7  C6  UNL     1      -2.974   0.097   2.586  1.00  0.00     0.073 C 
HETATM    8  N1  UNL     1      -3.392  -0.287   3.590  1.00  0.00    -0.196 NA
HETATM    9  C7  UNL     1      -1.044   1.109   1.408  1.00  0.00    -0.004 C 
HETATM   10  C8  UNL     1       0.027   0.823   0.478  1.00  0.00    -0.003 C 
HETATM   11  C9  UNL     1       0.157  -0.388  -0.322  1.00  0.00     0.121 C 
HETATM   12  N2  UNL     1       1.419  -0.334  -1.055  1.00  0.00    -0.319 N 
HETATM   13  C10 UNL     1       2.737  -0.258  -0.498  1.00  0.00     0.363 C 
HETATM   14  O2  UNL     1       3.698  -0.199  -1.340  1.00  0.00    -0.238 OA
HETATM   15  C14 UNL     1       1.185  -0.402  -2.481  1.00  0.00     0.130 C 
HETATM   16  C15 UNL     1      -0.187   0.185  -2.624  1.00  0.00     0.032 C 
HETATM   17  C16 UNL     1      -0.876  -0.517  -1.471  1.00  0.00    -0.011 C 
HETATM   18  C17 UNL     1      -1.085  -1.967  -1.811  1.00  0.00     0.018 C 
HETATM   19  C18 UNL     1      -2.030   0.113  -0.938  1.00  0.00     0.034 C 
HETATM   20  C19 UNL     1      -2.352  -0.582   0.371  1.00  0.00     0.039 C 
ENDROOT
BRANCH  13  21
HETATM   21  O3  UNL     1       3.046  -0.247   0.832  1.00  0.00    -0.299 OA
BRANCH  21  22
HETATM   22  C11 UNL     1       4.400  -0.170   1.221  1.00  0.00     0.125 C 
HETATM   23  C12 UNL     1       4.808  -1.375   2.046  1.00  0.00     0.040 C 
HETATM   24  C13 UNL     1       4.675   1.054   2.066  1.00  0.00     0.040 C 
ENDBRANCH  21  22
ENDBRANCH  13  21
TORSDOF 2
