REMARK  7 active torsions:
REMARK  status: ('A' for Active; 'I' for Inactive)
REMARK    1  A    between atoms: C6_6  and  C7_7 
REMARK    2  A    between atoms: C7_7  and  O1_8 
REMARK    3  A    between atoms: C11_14  and  O2_15 
REMARK    4  A    between atoms: C13_18  and  O3_19 
REMARK    5  A    between atoms: C14_21  and  O4_22 
REMARK    6  A    between atoms: N2_26  and  C17_27 
REMARK    7  A    between atoms: C17_27  and  C18_28 
ROOT
HETATM    1  C1  UNL     1       3.539   0.123  -1.196  1.00  0.00     0.038 C 
HETATM    2  C2  UNL     1       2.455   0.303  -0.203  1.00  0.00     0.025 C 
HETATM    3  C3  UNL     1       3.083   0.460   1.189  1.00  0.00     0.038 C 
HETATM    4  C4  UNL     1       1.761   1.650  -0.430  1.00  0.00     0.039 C 
HETATM    5  C5  UNL     1       0.615   1.499   0.488  1.00  0.00     0.049 C 
HETATM    6  C6  UNL     1      -0.615   2.241   0.076  1.00  0.00     0.254 C 
HETATM    7  N1  UNL     1      -1.634   1.275   0.268  1.00  0.00     0.113 N 
HETATM    8  C8  UNL     1      -2.271   1.478   1.534  1.00  0.00     0.274 C 
HETATM    9  C9  UNL     1      -1.970   0.534   2.636  1.00  0.00     0.033 C 
HETATM   10  C10 UNL     1      -1.897  -0.926   2.245  1.00  0.00     0.042 C 
HETATM   11  C11 UNL     1      -2.090  -0.949   0.771  1.00  0.00     0.101 C 
HETATM   12  C12 UNL     1      -2.118  -2.285   0.130  1.00  0.00     0.075 C 
HETATM   13  C13 UNL     1      -2.048  -1.892  -1.316  1.00  0.00     0.152 C 
HETATM   14  C14 UNL     1      -1.297  -0.565  -1.369  1.00  0.00     0.191 C 
HETATM   15  C15 UNL     1      -1.116  -0.054   0.013  1.00  0.00     0.238 C 
HETATM   16  C16 UNL     1       0.261   0.003   0.519  1.00  0.00     0.135 C 
HETATM   17  N2  UNL     1       1.342  -0.569  -0.190  1.00  0.00    -0.376 N 
ENDROOT
BRANCH   6  18
HETATM   18  C7  UNL     1      -0.524   2.964  -1.202  1.00  0.00     0.200 C 
BRANCH  18  19
HETATM   19  O1  UNL     1       0.561   3.873  -1.071  1.00  0.00    -0.399 OA
ATOM     20  H1  UNL     1       0.620   4.340  -1.896  1.00  0.00     0.209 HD
ENDBRANCH  18  19
ENDBRANCH   6  18
BRANCH  17  21
HETATM   21  C17 UNL     1       1.685  -1.909   0.015  1.00  0.00     0.070 C 
BRANCH  21  22
HETATM   22  C18 UNL     1       2.309  -2.698  -1.101  1.00  0.00     0.129 C 
HETATM   23 BR1  UNL     1       2.603  -4.550  -0.512  1.00  0.00    -0.091 Br
ENDBRANCH  21  22
ENDBRANCH  17  21
BRANCH  11  24
HETATM   24  O2  UNL     1      -3.430  -0.499   0.574  1.00  0.00    -0.387 OA
ATOM     25  H2  UNL     1      -3.553  -0.514  -0.368  1.00  0.00     0.210 HD
ENDBRANCH  11  24
BRANCH  14  26
HETATM   26  O4  UNL     1      -2.102   0.253  -2.192  1.00  0.00    -0.390 OA
ATOM     27  H4  UNL     1      -1.634   1.079  -2.225  1.00  0.00     0.210 HD
ENDBRANCH  14  26
BRANCH  13  28
HETATM   28  O3  UNL     1      -1.519  -2.850  -2.143  1.00  0.00    -0.393 OA
ATOM     29  H3  UNL     1      -1.475  -2.601  -3.059  1.00  0.00     0.210 HD
ENDBRANCH  13  28
TORSDOF 7
