REMARK  6 active torsions:
REMARK  status: ('A' for Active; 'I' for Inactive)
REMARK    1  A    between atoms: C3_3  and  O1_4 
REMARK    2  A    between atoms: C6_8  and  C7_9 
REMARK    3  A    between atoms: C7_9  and  O2_10 
REMARK    4  A    between atoms: C13_18  and  O3_19 
REMARK    5  A    between atoms: C15_23  and  C16_24 
REMARK    6  A    between atoms: C16_24  and  C17_25 
ROOT
HETATM    1  C1  UNL     1       1.070   3.773   0.404  1.00  0.00     0.018 C 
HETATM    2  C2  UNL     1       1.231   2.468   0.397  1.00  0.00    -0.042 C 
HETATM    3  C3  UNL     1       0.902   1.681  -0.801  1.00  0.00     0.155 C 
HETATM    4  C4  UNL     1       0.233   0.431  -0.422  1.00  0.00     0.064 C 
HETATM    5  C5  UNL     1      -1.159   0.501   0.090  1.00  0.00     0.035 C 
HETATM    6  C6  UNL     1      -2.223   0.926  -0.856  1.00  0.00     0.112 C 
HETATM    7  N1  UNL     1      -3.466   0.153  -0.680  1.00  0.00    -0.387 N 
HETATM    8  C8  UNL     1      -4.457   0.221  -1.732  1.00  0.00     0.149 C 
HETATM    9  C9  UNL     1      -3.701  -0.635   0.481  1.00  0.00     0.082 C 
HETATM   10  C10 UNL     1      -2.646  -1.230   1.023  1.00  0.00     0.002 C 
HETATM   11  C11 UNL     1      -1.374  -1.000   0.357  1.00  0.00     0.010 C 
HETATM   12  C12 UNL     1      -1.250  -1.793  -0.928  1.00  0.00     0.023 C 
HETATM   13  C13 UNL     1      -0.152  -1.287   1.177  1.00  0.00     0.166 C 
HETATM   14  C14 UNL     1       0.949  -0.414   0.595  1.00  0.00     0.100 C 
HETATM   15  O4  UNL     1       1.865  -1.272  -0.015  1.00  0.00    -0.371 OA
HETATM   16  C15 UNL     1       2.881  -1.546   0.874  1.00  0.00     0.133 C 
HETATM   17  C18 UNL     1       3.140  -0.193   1.499  1.00  0.00     0.042 C 
HETATM   18  C19 UNL     1       1.714   0.323   1.615  1.00  0.00     0.048 C 
HETATM   19  C20 UNL     1       1.747   1.784   1.572  1.00  0.00     0.120 C 
HETATM   20 CL1  UNL     1       0.852   2.428   3.001  1.00  0.00    -0.120 Cl
ENDROOT
BRANCH  16  21
HETATM   21  C16 UNL     1       4.066  -2.056   0.098  1.00  0.00     0.145 C 
BRANCH  21  22
HETATM   22  C17 UNL     1       3.666  -3.288  -0.627  1.00  0.00     0.175 C 
HETATM   23  O5  UNL     1       3.598  -4.359   0.026  1.00  0.00    -0.648 OA
HETATM   24  O6  UNL     1       3.365  -3.329  -1.974  1.00  0.00    -0.648 OA
ENDBRANCH  21  22
ENDBRANCH  16  21
BRANCH  13  25
HETATM   25  O3  UNL     1       0.120  -2.651   0.992  1.00  0.00    -0.391 OA
ATOM     26  H3  UNL     1       0.894  -2.833   1.512  1.00  0.00     0.210 HD
ENDBRANCH  13  25
BRANCH   3  27
HETATM   27  O1  UNL     1       2.059   1.363  -1.527  1.00  0.00    -0.391 OA
ATOM     28  H1  UNL     1       1.846   0.855  -2.301  1.00  0.00     0.210 HD
ENDBRANCH   3  27
BRANCH   6  29
HETATM   29  C7  UNL     1      -2.651   2.377  -0.592  1.00  0.00     0.189 C 
BRANCH  29  30
HETATM   30  O2  UNL     1      -3.639   2.743  -1.517  1.00  0.00    -0.399 OA
ATOM     31  H2  UNL     1      -3.904   3.641  -1.354  1.00  0.00     0.209 HD
ENDBRANCH  29  30
ENDBRANCH   6  29
TORSDOF 6
