REMARK  7 active torsions:
REMARK  status: ('A' for Active; 'I' for Inactive)
REMARK    1  A    between atoms: C3_3  and  C4_4 
REMARK    2  A    between atoms: C4_4  and  O1_5 
REMARK    3  A    between atoms: C6_10  and  N1_11 
REMARK       I    between atoms: N1_11  and  C7_13 
REMARK    4  A    between atoms: C7_13  and  C8_15 
REMARK    5  A    between atoms: C8_15  and  O4_16 
REMARK    6  A    between atoms: C12_20  and  O5_21 
REMARK    7  A    between atoms: C15_25  and  O6_26 
ROOT
HETATM    1  C1  UNL     1      -5.130   3.108  -1.027  1.00  0.00     0.112 C 
HETATM    2  C2  UNL     1      -3.806   2.564  -0.702  1.00  0.00    -0.108 C 
HETATM    3  C3  UNL     1      -2.722   2.106  -0.427  1.00  0.00    -0.065 C 
ENDROOT
BRANCH   3   4
HETATM    4  C4  UNL     1      -1.377   1.564  -0.104  1.00  0.00     0.163 C 
HETATM    5  C5  UNL     1      -0.393   1.986  -1.167  1.00  0.00     0.242 C 
HETATM    6 BR1  UNL     1      -0.505   3.936  -1.258  1.00  0.00    -0.057 Br
HETATM    7  O2  UNL     1       0.862   1.645  -0.775  1.00  0.00    -0.346 OA
HETATM    8  C6  UNL     1       0.996   0.418  -0.174  1.00  0.00     0.236 C 
HETATM    9  C10 UNL     1      -0.144  -0.526  -0.401  1.00  0.00     0.036 C 
HETATM   10  C11 UNL     1      -0.078  -1.032  -1.826  1.00  0.00     0.023 C 
HETATM   11  C12 UNL     1       0.085  -1.737   0.497  1.00  0.00     0.131 C 
HETATM   12  C16 UNL     1      -1.489   0.075  -0.165  1.00  0.00     0.080 C 
HETATM   13  C13 UNL     1      -1.161  -2.597   0.405  1.00  0.00     0.035 C 
HETATM   14  C14 UNL     1      -2.233  -1.904   1.195  1.00  0.00     0.035 C 
HETATM   15  C15 UNL     1      -2.157  -0.403   1.096  1.00  0.00     0.127 C 
BRANCH   4  16
HETATM   16  O1  UNL     1      -0.954   1.999   1.138  1.00  0.00    -0.373 OA
ATOM     17  H1  UNL     1      -0.094   1.652   1.345  1.00  0.00     0.212 HD
ENDBRANCH   4  16
BRANCH   8  18
HETATM   18  N1  UNL     1       2.256  -0.146  -0.600  1.00  0.00    -0.332 N 
HETATM   19  C7  UNL     1       3.288  -0.348   0.390  1.00  0.00     0.243 C 
HETATM   20  O3  UNL     1       3.052  -0.024   1.597  1.00  0.00    -0.271 OA
ATOM     21  H1  UNL     1       2.413  -0.396  -1.576  1.00  0.00     0.165 HD
BRANCH  19  22
HETATM   22  C8  UNL     1       4.570  -0.919  -0.032  1.00  0.00     0.269 C 
BRANCH  22  23
HETATM   23  O4  UNL     1       5.505  -0.997   0.953  1.00  0.00    -0.387 OA
HETATM   24  C9  UNL     1       5.956   0.187   1.491  1.00  0.00     0.202 C 
ENDBRANCH  22  23
ENDBRANCH  19  22
ENDBRANCH   8  18
BRANCH  11  25
HETATM   25  O5  UNL     1       1.132  -2.533  -0.014  1.00  0.00    -0.395 OA
ATOM     26  H5  UNL     1       1.275  -3.287   0.545  1.00  0.00     0.210 HD
ENDBRANCH  11  25
BRANCH  15  27
HETATM   27  O6  UNL     1      -3.474   0.058   1.076  1.00  0.00    -0.395 OA
ATOM     28  H6  UNL     1      -3.426   1.005   1.014  1.00  0.00     0.210 HD
ENDBRANCH  15  27
ENDBRANCH   3   4
TORSDOF 7
