REMARK  6 active torsions:
REMARK  status: ('A' for Active; 'I' for Inactive)
REMARK    1  A    between atoms: C2_2  and  C3_3 
REMARK    2  A    between atoms: C4_4  and  O1_5 
REMARK    3  A    between atoms: C5_7  and  O2_8 
REMARK    4  A    between atoms: C11_16  and  O3_18 
REMARK    5  A    between atoms: C14_21  and  C15_22 
REMARK    6  A    between atoms: C15_22  and  O4_23 
REMARK       I    between atoms: N1_30  and  C21_31 
ROOT
HETATM    1  C3  UNL     1       3.095  -0.374   0.629  1.00  0.00     0.118 C 
HETATM    2  C4  UNL     1       2.424  -1.522  -0.050  1.00  0.00     0.170 C 
HETATM    3  C5  UNL     1       1.007  -1.269  -0.489  1.00  0.00     0.155 C 
HETATM    4  C6  UNL     1       0.687   0.065  -0.991  1.00  0.00     0.052 C 
HETATM    5  C7  UNL     1       1.536   1.183  -0.352  1.00  0.00     0.098 C 
HETATM    6  C8  UNL     1       0.769   1.336   0.946  1.00  0.00     0.070 C 
HETATM    7  C9  UNL     1      -0.603   1.655   0.322  1.00  0.00     0.116 C 
HETATM    8  F1  UNL     1      -0.388   2.929  -0.238  1.00  0.00    -0.242 F 
HETATM    9  C10 UNL     1      -1.613   1.755   1.347  1.00  0.00     0.082 C 
HETATM   10  C11 UNL     1      -2.685   0.710   1.408  1.00  0.00     0.065 C 
HETATM   11  C12 UNL     1      -2.292  -0.423   2.311  1.00  0.00     0.046 C 
HETATM   12  C13 UNL     1      -3.000   0.300   0.019  1.00  0.00     0.056 C 
HETATM   13  C14 UNL     1      -4.022  -0.741  -0.143  1.00  0.00    -0.053 C 
HETATM   14  C16 UNL     1      -3.692  -1.453  -1.229  1.00  0.00    -0.021 C 
HETATM   15  C17 UNL     1      -2.420  -0.892  -1.825  1.00  0.00     0.033 C 
HETATM   16  C18 UNL     1      -1.766  -0.387  -0.554  1.00  0.00     0.012 C 
HETATM   17  C19 UNL     1      -0.694   0.608  -0.739  1.00  0.00     0.005 C 
HETATM   18  C20 UNL     1      -1.046   1.383  -2.030  1.00  0.00     0.019 C 
HETATM   19  N1  UNL     1       2.905   0.796  -0.166  1.00  0.00    -0.340 N 
HETATM   20  C21 UNL     1       3.931   1.570  -0.758  1.00  0.00     0.216 C 
HETATM   21  C22 UNL     1       3.593   2.771  -1.567  1.00  0.00     0.117 C 
HETATM   22  O5  UNL     1       5.161   1.312  -0.651  1.00  0.00    -0.274 OA
ENDROOT
BRANCH  10  23
HETATM   23  O3  UNL     1      -3.855   1.270   1.950  1.00  0.00    -0.389 OA
ATOM     24  H3  UNL     1      -4.535   0.607   1.989  1.00  0.00     0.210 HD
ENDBRANCH  10  23
BRANCH  13  25
HETATM   25  C15 UNL     1      -5.227  -1.042   0.675  1.00  0.00     0.198 C 
BRANCH  25  26
HETATM   26  O4  UNL     1      -5.915  -2.128   0.147  1.00  0.00    -0.397 OA
ATOM     27  H4  UNL     1      -6.685  -2.320   0.670  1.00  0.00     0.209 HD
ENDBRANCH  25  26
ENDBRANCH  13  25
BRANCH   3  28
HETATM   28  O2  UNL     1       0.819  -2.216  -1.537  1.00  0.00    -0.392 OA
ATOM     29  H2  UNL     1      -0.076  -2.056  -1.814  1.00  0.00     0.210 HD
ENDBRANCH   3  28
BRANCH   1  30
HETATM   30  C2  UNL     1       4.542  -0.761   0.848  1.00  0.00     0.023 C 
HETATM   31  C1  UNL     1       4.545  -2.019   1.729  1.00  0.00     0.007 C 
ENDBRANCH   1  30
BRANCH   2  32
HETATM   32  O1  UNL     1       3.247  -1.898  -1.122  1.00  0.00    -0.391 OA
ATOM     33  H1  UNL     1       2.820  -2.628  -1.554  1.00  0.00     0.210 HD
ENDBRANCH   2  32
TORSDOF 6
