REMARK  8 active torsions:
REMARK  status: ('A' for Active; 'I' for Inactive)
REMARK    1  A    between atoms: C7_7  and  C8_8 
REMARK       I    between atoms: C8_8  and  N1_10 
REMARK    2  A    between atoms: C10_12  and  S1_13 
REMARK    3  A    between atoms: S1_13  and  C11_16 
REMARK    4  A    between atoms: C18_25  and  C19_26 
REMARK       I    between atoms: C19_26  and  N2_28 
REMARK    5  A    between atoms: N2_28  and  C20_30 
REMARK    6  A    between atoms: C20_30  and  C23_33 
REMARK    7  A    between atoms: C23_33  and  C24_34 
REMARK    8  A    between atoms: C24_34  and  C25_35 
ROOT
HETATM    1  C8  UNL     1      -1.232  -1.087  -1.342  1.00  0.00     0.229 C 
HETATM    2  O1  UNL     1      -0.519  -2.054  -1.615  1.00  0.00    -0.272 OA
HETATM    3  N1  UNL     1      -0.468   0.069  -0.906  1.00  0.00    -0.337 N 
HETATM    4  C9  UNL     1      -1.160   1.328  -0.629  1.00  0.00     0.147 C 
HETATM    5  C10 UNL     1      -0.131   2.279  -0.091  1.00  0.00     0.134 C 
HETATM    6  C17 UNL     1       1.026   1.400   0.289  1.00  0.00     0.057 C 
HETATM    7  C18 UNL     1       0.904   0.237  -0.700  1.00  0.00     0.180 C 
ENDROOT
BRANCH   5   8
HETATM    8  S1  UNL     1      -0.743   3.140   1.343  1.00  0.00     0.181 S 
HETATM    9  O2  UNL     1      -1.171   2.104   2.364  1.00  0.00    -0.222 OA
HETATM   10  O3  UNL     1       0.379   3.977   1.892  1.00  0.00    -0.222 OA
BRANCH   8  11
HETATM   11  C11 UNL     1      -2.106   4.108   0.884  1.00  0.00     0.065 A 
HETATM   12  C12 UNL     1      -3.378   3.573   0.975  1.00  0.00     0.065 A 
HETATM   13  C13 UNL     1      -4.483   4.335   0.611  1.00  0.00     0.120 A 
HETATM   14  F1  UNL     1      -5.695   3.753   0.723  1.00  0.00    -0.206 F 
HETATM   15  C14 UNL     1      -4.287   5.617   0.162  1.00  0.00     0.084 A 
HETATM   16  C15 UNL     1      -3.006   6.148   0.074  1.00  0.00     0.120 A 
HETATM   17  F2  UNL     1      -2.826   7.410  -0.364  1.00  0.00    -0.206 F 
HETATM   18  C16 UNL     1      -1.906   5.407   0.430  1.00  0.00     0.065 A 
ENDBRANCH   8  11
ENDBRANCH   5   8
BRANCH   7  19
HETATM   19  C19 UNL     1       1.690  -0.841  -0.103  1.00  0.00     0.241 C 
HETATM   20  O4  UNL     1       1.218  -1.823   0.492  1.00  0.00    -0.271 OA
HETATM   21  N2  UNL     1       3.119  -0.756  -0.218  1.00  0.00    -0.351 N 
ATOM     22  H2  UNL     1       3.538   0.038  -0.702  1.00  0.00     0.163 HD
BRANCH  21  23
HETATM   23  C20 UNL     1       3.973  -1.782   0.344  1.00  0.00     0.025 C 
HETATM   24  C21 UNL     1       3.580  -3.099  -0.326  1.00  0.00     0.038 C 
HETATM   25  C22 UNL     1       3.782  -1.944   1.826  1.00  0.00     0.038 C 
BRANCH  23  26
HETATM   26  C23 UNL     1       5.402  -1.540  -0.024  1.00  0.00     0.031 C 
BRANCH  26  27
HETATM   27  C24 UNL     1       5.928  -0.220   0.461  1.00  0.00     0.013 C 
BRANCH  27  28
HETATM   28  C25 UNL     1       7.394  -0.095   0.018  1.00  0.00     0.086 C 
HETATM   29  S2  UNL     1       8.110   1.476   0.564  1.00  0.00    -0.098 SA
ENDBRANCH  27  28
ENDBRANCH  26  27
ENDBRANCH  23  26
ENDBRANCH  21  23
ENDBRANCH   7  19
BRANCH   1  30
HETATM   30  C7  UNL     1      -2.671  -0.902  -1.374  1.00  0.00     0.046 A 
HETATM   31  C5  UNL     1      -3.655  -1.791  -2.177  1.00  0.00     0.005 A 
HETATM   32  C4  UNL     1      -3.283  -3.016  -1.503  1.00  0.00     0.014 C 
HETATM   33  C6  UNL     1      -3.137  -0.597  -2.695  1.00  0.00     0.025 A 
HETATM   34  C2  UNL     1      -3.589  -2.622  -0.061  1.00  0.00    -0.046 C 
HETATM   35  C1  UNL     1      -5.076  -2.798   0.231  1.00  0.00     0.015 C 
HETATM   36  C3  UNL     1      -2.824  -3.342   0.950  1.00  0.00     0.015 C 
HETATM   37  C26 UNL     1      -3.340  -1.105  -0.081  1.00  0.00     0.028 C 
ENDBRANCH   1  30
TORSDOF 8
