REMARK  8 active torsions:
REMARK  status: ('A' for Active; 'I' for Inactive)
REMARK    1  A    between atoms: C2_2  and  C4_4 
REMARK       I    between atoms: C4_4  and  N1_6 
REMARK    2  A    between atoms: C7_9  and  C8_10 
REMARK    3  A    between atoms: C8_10  and  C9_11 
REMARK    4  A    between atoms: C9_11  and  N2_12 
REMARK    5  A    between atoms: N3_15  and  C12_16 
REMARK    6  A    between atoms: C15_20  and  C16_21 
REMARK    7  A    between atoms: C18_28  and  S1_29 
REMARK    8  A    between atoms: S1_29  and  C19_32 
ROOT
HETATM    1  C12 UNL     1      -2.832   1.581   0.872  1.00  0.00     0.094 A 
HETATM    2  C13 UNL     1      -2.967   2.402   2.013  1.00  0.00     0.145 A 
HETATM    3  F1  UNL     1      -2.041   2.380   3.005  1.00  0.00    -0.204 F 
HETATM    4  C14 UNL     1      -4.041   3.246   2.149  1.00  0.00     0.062 A 
HETATM    5  C15 UNL     1      -5.003   3.302   1.170  1.00  0.00     0.048 A 
HETATM    6  C17 UNL     1      -4.881   2.512   0.068  1.00  0.00     0.153 A 
HETATM    7  F2  UNL     1      -5.795   2.542  -0.936  1.00  0.00    -0.203 F 
HETATM    8  C18 UNL     1      -3.781   1.630  -0.096  1.00  0.00     0.129 A 
ENDROOT
BRANCH   1   9
HETATM    9  N3  UNL     1      -1.617   0.825   0.905  1.00  0.00    -0.371 N 
HETATM   10  C11 UNL     1      -0.454   1.493   0.356  1.00  0.00     0.167 C 
HETATM   11  C10 UNL     1       0.751   0.667   0.086  1.00  0.00     0.083 C 
HETATM   12  N2  UNL     1       0.790  -0.614   0.635  1.00  0.00    -0.367 N 
HETATM   13  C24 UNL     1      -0.022  -0.773   1.837  1.00  0.00     0.147 C 
HETATM   14  C23 UNL     1      -1.489  -0.477   1.473  1.00  0.00     0.143 C 
BRANCH  12  15
HETATM   15  C9  UNL     1       0.935  -1.763  -0.115  1.00  0.00     0.086 C 
BRANCH  15  16
HETATM   16  C8  UNL     1       2.167  -2.227  -0.740  1.00  0.00    -0.005 C 
BRANCH  16  17
HETATM   17  C7  UNL     1       2.963  -1.522  -1.741  1.00  0.00     0.012 C 
HETATM   18  C6  UNL     1       4.119  -2.531  -2.149  1.00  0.00     0.028 C 
HETATM   19  C5  UNL     1       5.033  -2.775  -1.011  1.00  0.00     0.126 C 
HETATM   20  N1  UNL     1       5.417  -1.616  -0.233  1.00  0.00    -0.352 N 
HETATM   21  C4  UNL     1       6.714  -1.561   0.325  1.00  0.00     0.223 C 
HETATM   22  C26 UNL     1       4.481  -0.542  -0.015  1.00  0.00     0.126 C 
HETATM   23  O1  UNL     1       7.440  -2.606   0.074  1.00  0.00    -0.273 OA
HETATM   24  C25 UNL     1       3.762  -0.328  -1.331  1.00  0.00     0.028 C 
BRANCH  21  25
HETATM   25  C2  UNL     1       7.291  -0.471   1.132  1.00  0.00     0.070 C 
HETATM   26  C1  UNL     1       7.490   0.760   0.315  1.00  0.00     0.019 C 
HETATM   27  C3  UNL     1       6.428  -0.137   2.350  1.00  0.00     0.019 C 
ENDBRANCH  21  25
ENDBRANCH  16  17
ENDBRANCH  15  16
ENDBRANCH  12  15
ENDBRANCH   1   9
BRANCH   8  28
HETATM   28  S1  UNL     1      -3.727   0.594  -1.455  1.00  0.00     0.188 S 
HETATM   29  O2  UNL     1      -4.041   1.428  -2.694  1.00  0.00    -0.222 OA
HETATM   30  O3  UNL     1      -2.322   0.118  -1.663  1.00  0.00    -0.222 OA
BRANCH  28  31
HETATM   31  C19 UNL     1      -4.745  -0.821  -1.472  1.00  0.00     0.058 C 
HETATM   32  C20 UNL     1      -4.563  -1.803  -0.375  1.00  0.00     0.031 C 
HETATM   33  C21 UNL     1      -4.353  -1.596  -2.762  1.00  0.00     0.031 C 
HETATM   34  C22 UNL     1      -6.219  -0.495  -1.714  1.00  0.00     0.031 C 
ENDBRANCH  28  31
ENDBRANCH   8  28
BRANCH   5  35
HETATM   35  C16 UNL     1      -6.146   4.200   1.316  1.00  0.00     0.123 C 
HETATM   36  N4  UNL     1      -6.245   4.939   2.362  1.00  0.00    -0.387 N 
ATOM     37  H42 UNL     1      -5.534   4.905   3.092  1.00  0.00     0.157 HD
ATOM     38  H41 UNL     1      -7.043   5.566   2.464  1.00  0.00     0.157 HD
HETATM   39  N5  UNL     1      -7.128   4.247   0.308  1.00  0.00    -0.082 NA
ENDBRANCH   5  35
TORSDOF 8
