REMARK  8 active torsions:
REMARK  status: ('A' for Active; 'I' for Inactive)
REMARK    1  A    between atoms: C2_2  and  C5_5 
REMARK    2  A    between atoms: C5_5  and  C6_6 
REMARK    3  A    between atoms: C6_6  and  C7_7 
REMARK    4  A    between atoms: C7_7  and  C8_8 
REMARK    5  A    between atoms: C8_8  and  N1_9 
REMARK       I    between atoms: N1_9  and  C9_11 
REMARK       I    between atoms: C9_11  and  N2_13 
REMARK    6  A    between atoms: C12_16  and  C13_17 
REMARK    7  A    between atoms: C15_19  and  C16_20 
REMARK    8  A    between atoms: C22_32  and  C23_33 
REMARK       I    between atoms: C23_33  and  N6_35 
ROOT
HETATM    1  N1  UNL     1      -1.706  -0.480   0.935  1.00  0.00    -0.342 N 
ATOM      2  H1  UNL     1      -2.004   0.449   0.636  1.00  0.00     0.164 HD
HETATM    3  C9  UNL     1      -0.546  -1.051   0.377  1.00  0.00     0.337 C 
HETATM    4  O1  UNL     1      -0.254  -2.217   0.796  1.00  0.00    -0.245 OA
HETATM    5  N2  UNL     1       0.240  -0.389  -0.575  1.00  0.00    -0.233 N 
HETATM    6  C10 UNL     1       1.407  -1.113  -1.144  1.00  0.00     0.147 C 
HETATM    7  C11 UNL     1       2.408  -1.486  -0.046  1.00  0.00     0.068 C 
HETATM    8  C12 UNL     1       3.643  -1.532  -0.961  1.00  0.00     0.175 C 
HETATM    9  O2  UNL     1       3.531  -0.232  -1.502  1.00  0.00    -0.370 OA
HETATM   10  C20 UNL     1       2.207  -0.136  -1.927  1.00  0.00     0.167 C 
HETATM   11  C21 UNL     1       1.562   1.189  -1.535  1.00  0.00     0.182 C 
HETATM   12  N5  UNL     1       0.233   0.809  -1.110  1.00  0.00    -0.289 N 
HETATM   13  C22 UNL     1      -0.717   1.772  -1.267  1.00  0.00     0.184 C 
ENDROOT
BRANCH   1  14
HETATM   14  C8  UNL     1      -2.497  -1.210   1.948  1.00  0.00     0.124 C 
BRANCH  14  15
HETATM   15  C7  UNL     1      -3.710  -0.417   2.298  1.00  0.00     0.020 C 
BRANCH  15  16
HETATM   16  C6  UNL     1      -4.631  -0.215   1.108  1.00  0.00     0.002 C 
BRANCH  16  17
HETATM   17  C5  UNL     1      -5.843   0.589   1.499  1.00  0.00     0.008 C 
BRANCH  17  18
HETATM   18  C2  UNL     1      -6.760   0.728   0.283  1.00  0.00    -0.051 C 
HETATM   19  C1  UNL     1      -7.163  -0.666  -0.150  1.00  0.00     0.014 C 
HETATM   20  C3  UNL     1      -7.947   1.564   0.711  1.00  0.00     0.014 C 
HETATM   21  C4  UNL     1      -6.017   1.436  -0.826  1.00  0.00     0.014 C 
ENDBRANCH  17  18
ENDBRANCH  16  17
ENDBRANCH  15  16
ENDBRANCH  14  15
ENDBRANCH   1  14
BRANCH  13  22
HETATM   22  C23 UNL     1      -0.555   2.905  -0.297  1.00  0.00     0.260 C 
HETATM   23  O3  UNL     1       0.379   2.852   0.513  1.00  0.00    -0.267 OA
HETATM   24  N6  UNL     1      -1.495   3.976  -0.366  1.00  0.00    -0.342 N 
HETATM   25  C24 UNL     1      -2.577   4.081  -1.278  1.00  0.00     0.132 C 
HETATM   26  C27 UNL     1      -1.463   5.100   0.513  1.00  0.00     0.205 C 
HETATM   27  C25 UNL     1      -2.953   5.527  -1.301  1.00  0.00     0.100 C 
HETATM   28  C26 UNL     1      -2.307   6.162  -0.105  1.00  0.00     0.261 C 
HETATM   29  F1  UNL     1      -1.571   7.285  -0.454  1.00  0.00    -0.204 F 
HETATM   30  F2  UNL     1      -3.298   6.528   0.802  1.00  0.00    -0.204 F 
ENDBRANCH  13  22
BRANCH   8  31
HETATM   31  C13 UNL     1       4.885  -1.817  -0.305  1.00  0.00     0.056 A 
HETATM   32  C14 UNL     1       5.613  -2.996  -0.503  1.00  0.00     0.056 A 
HETATM   33  C15 UNL     1       6.770  -2.979   0.264  1.00  0.00     0.035 A 
HETATM   34  N3  UNL     1       6.721  -1.801   0.908  1.00  0.00    -0.304 N 
HETATM   35  N4  UNL     1       5.615  -1.126   0.569  1.00  0.00    -0.302 N 
ATOM     36  H3  UNL     1       7.428  -1.467   1.564  1.00  0.00     0.186 HD
ATOM     37  H4  UNL     1       5.365  -0.206   0.932  1.00  0.00     0.186 HD
BRANCH  33  38
HETATM   38  C16 UNL     1       7.801  -4.037   0.317  1.00  0.00    -0.007 C 
HETATM   39  C17 UNL     1       7.758  -4.842  -0.963  1.00  0.00     0.021 C 
HETATM   40  C18 UNL     1       9.179  -3.440   0.430  1.00  0.00     0.021 C 
HETATM   41  C19 UNL     1       7.560  -5.021   1.444  1.00  0.00     0.021 C 
ENDBRANCH  33  38
ENDBRANCH   8  31
TORSDOF 8
