REMARK  6 active torsions:
REMARK  status: ('A' for Active; 'I' for Inactive)
REMARK    1  A    between atoms: C2_2  and  C3_3 
REMARK    2  A    between atoms: C3_3  and  S1_4 
REMARK    3  A    between atoms: S1_4  and  N1_7 
REMARK    4  A    between atoms: N2_15  and  N3_17 
REMARK    5  A    between atoms: N3_17  and  C11_19 
REMARK    6  A    between atoms: C11_19  and  N4_21 
ROOT
HETATM    1  C3  UNL     1       0.976  -0.911  -0.012  1.00  0.00     0.217 C 
ENDROOT
BRANCH   1   2
HETATM    2  C2  UNL     1       1.942  -1.087  -1.101  1.00  0.00     0.015 C 
HETATM    3  C1  UNL     1       1.937  -2.333  -1.908  1.00  0.00     0.066 C 
HETATM    4  N2  UNL     1       2.810  -0.193  -1.385  1.00  0.00    -0.306 N 
ATOM      5  H2  UNL     1       3.468  -0.357  -2.147  1.00  0.00     0.186 HD
BRANCH   4   6
HETATM    6  N3  UNL     1       2.873   0.993  -0.677  1.00  0.00    -0.276 N 
ATOM      7  H3  UNL     1       2.022   1.543  -0.556  1.00  0.00     0.189 HD
BRANCH   6   8
HETATM    8  C11 UNL     1       4.076   1.464  -0.119  1.00  0.00     0.188 C 
HETATM    9  S2  UNL     1       3.960   2.902   0.701  1.00  0.00    -0.039 SA
BRANCH   8  10
HETATM   10  N4  UNL     1       5.321   0.840  -0.197  1.00  0.00    -0.366 N 
HETATM   11  C12 UNL     1       5.553  -0.403  -0.877  1.00  0.00     0.151 C 
HETATM   12  C13 UNL     1       6.482   1.471   0.448  1.00  0.00     0.151 C 
ENDBRANCH   8  10
ENDBRANCH   6   8
ENDBRANCH   4   6
ENDBRANCH   1   2
BRANCH   1  13
HETATM   13  S1  UNL     1      -0.668  -0.960  -0.742  1.00  0.00     0.237 S 
HETATM   14  O1  UNL     1      -0.734   0.174  -1.725  1.00  0.00    -0.205 OA
HETATM   15  O2  UNL     1      -0.780  -2.265  -1.450  1.00  0.00    -0.205 OA
BRANCH  13  16
HETATM   16  N1  UNL     1      -1.790  -0.759   0.491  1.00  0.00    -0.290 N 
HETATM   17  C4  UNL     1      -1.747   0.436   1.209  1.00  0.00     0.076 C 
HETATM   18  C5  UNL     1      -3.022   0.950   1.766  1.00  0.00     0.045 C 
HETATM   19  C6  UNL     1      -3.818   1.783   0.802  1.00  0.00     0.005 C 
HETATM   20  C7  UNL     1      -5.184   1.234   0.524  1.00  0.00     0.000 C 
HETATM   21  C8  UNL     1      -5.226  -0.266   0.430  1.00  0.00     0.002 C 
HETATM   22  C9  UNL     1      -4.072  -0.744  -0.411  1.00  0.00     0.021 C 
HETATM   23  C10 UNL     1      -3.013  -1.455   0.386  1.00  0.00     0.140 C 
ENDBRANCH  13  16
ENDBRANCH   1  13
TORSDOF 6
