REMARK  5 active torsions:
REMARK  status: ('A' for Active; 'I' for Inactive)
REMARK    1  A    between atoms: C3_3  and  C4_4 
REMARK    2  A    between atoms: C4_4  and  N1_5 
REMARK    3  A    between atoms: N2_15  and  C12_17 
REMARK    4  A    between atoms: C12_17  and  C13_18 
REMARK    5  A    between atoms: C13_18  and  C14_19 
ROOT
HETATM    1  C1  UNL     1      -3.380   5.102  -0.853  1.00  0.00     0.112 C 
HETATM    2  C2  UNL     1      -2.933   3.987   0.002  1.00  0.00    -0.109 C 
HETATM    3  C3  UNL     1      -2.569   3.064   0.683  1.00  0.00    -0.087 C 
ENDROOT
BRANCH   3   4
HETATM    4  C4  UNL     1      -2.127   1.931   1.490  1.00  0.00     0.218 C 
BRANCH   4   5
HETATM    5  N1  UNL     1      -2.306   0.696   0.714  1.00  0.00    -0.358 N 
HETATM    6  C5  UNL     1      -3.686   0.320   0.467  1.00  0.00     0.151 C 
HETATM    7  C6  UNL     1      -3.882  -0.482  -0.778  1.00  0.00     0.187 C 
HETATM    8  O1  UNL     1      -4.468  -1.732  -0.558  1.00  0.00    -0.387 OA
HETATM    9  C7  UNL     1      -3.743  -2.759  -1.136  1.00  0.00     0.193 C 
HETATM   10  C8  UNL     1      -2.993  -3.516  -0.045  1.00  0.00     0.193 C 
HETATM   11  O2  UNL     1      -2.946  -2.717   1.065  1.00  0.00    -0.389 OA
HETATM   12  C9  UNL     1      -1.733  -2.189   1.393  1.00  0.00     0.175 C 
HETATM   13  C10 UNL     1      -0.982  -1.491   0.318  1.00  0.00     0.102 C 
HETATM   14  C11 UNL     1      -1.158  -0.018   0.270  1.00  0.00     0.081 C 
HETATM   15  N2  UNL     1      -0.210   0.724  -0.212  1.00  0.00    -0.359 N 
ATOM     16  H2  UNL     1      -0.401   1.726  -0.215  1.00  0.00     0.166 HD
BRANCH  15  17
HETATM   17  C12 UNL     1       1.044   0.351  -0.732  1.00  0.00     0.062 C 
BRANCH  17  18
HETATM   18  C13 UNL     1       2.209   0.963   0.015  1.00  0.00     0.051 C 
BRANCH  18  19
HETATM   19  C14 UNL     1       3.520   0.549  -0.577  1.00  0.00     0.016 C 
HETATM   20  C15 UNL     1       3.672  -0.936  -0.522  1.00  0.00     0.008 C 
HETATM   21  C16 UNL     1       5.141  -1.262  -0.748  1.00  0.00     0.028 C 
HETATM   22  C17 UNL     1       5.953  -0.707   0.372  1.00  0.00     0.232 C 
HETATM   23  N3  UNL     1       5.346   0.454   1.002  1.00  0.00    -0.075 N 
HETATM   24  C18 UNL     1       4.687   1.300   0.017  1.00  0.00     0.237 C 
ATOM     25  H32 UNL     1       4.709   0.185   1.752  1.00  0.00     0.277 HD
ATOM     26  H31 UNL     1       6.024   0.979   1.555  1.00  0.00     0.277 HD
ENDBRANCH  18  19
ENDBRANCH  17  18
ENDBRANCH  15  17
ENDBRANCH   4   5
ENDBRANCH   3   4
TORSDOF 5
