REMARK  4 active torsions:
REMARK  status: ('A' for Active; 'I' for Inactive)
REMARK    1  A    between atoms: C3_5  and  C4_6 
REMARK    2  A    between atoms: C4_6  and  N2_7 
REMARK       I    between atoms: N3_14  and  C11_15 
REMARK    3  A    between atoms: C11_15  and  C12_17 
REMARK    4  A    between atoms: C12_17  and  C13_18 
ROOT
HETATM    1  N2  UNL     1       1.145   0.288   0.625  1.00  0.00     0.095 N 
HETATM    2  C5  UNL     1       1.165  -1.147   0.750  1.00  0.00     0.273 C 
HETATM    3  C6  UNL     1      -0.108  -1.726   0.186  1.00  0.00     0.041 C 
HETATM    4  C7  UNL     1      -0.949  -0.721  -0.533  1.00  0.00    -0.021 C 
HETATM    5  C8  UNL     1      -1.899  -1.459  -1.453  1.00  0.00     0.013 C 
HETATM    6  C9  UNL     1      -2.752  -2.453  -0.729  1.00  0.00     0.021 C 
HETATM    7  C10 UNL     1      -3.594  -1.743   0.293  1.00  0.00     0.126 C 
HETATM    8  N3  UNL     1      -3.211  -0.346   0.331  1.00  0.00    -0.351 N 
HETATM    9  C11 UNL     1      -4.199   0.650   0.211  1.00  0.00     0.226 C 
HETATM   10  O1  UNL     1      -5.387   0.332   0.052  1.00  0.00    -0.273 OA
HETATM   11  C14 UNL     1      -1.836   0.025   0.479  1.00  0.00     0.135 C 
HETATM   12  C15 UNL     1      -0.168   0.249  -1.365  1.00  0.00     0.041 C 
HETATM   13  C16 UNL     1       1.166   0.614  -0.766  1.00  0.00     0.273 C 
ENDROOT
BRANCH   1  14
HETATM   14  C4  UNL     1       2.134   0.957   1.402  1.00  0.00     0.349 C 
BRANCH  14  15
HETATM   15  C3  UNL     1       3.513   0.595   1.084  1.00  0.00     0.126 A 
HETATM   16  N1  UNL     1       4.265   1.127   0.116  1.00  0.00    -0.332 N 
HETATM   17  C2  UNL     1       5.477   0.550   0.117  1.00  0.00     0.093 A 
ATOM     18  H1  UNL     1       3.964   1.860  -0.526  1.00  0.00     0.168 HD
HETATM   19  C1  UNL     1       6.578   0.868  -0.804  1.00  0.00     0.090 C 
HETATM   20  N5  UNL     1       5.456  -0.365   1.124  1.00  0.00    -0.288 N 
HETATM   21  N4  UNL     1       4.264  -0.325   1.697  1.00  0.00    -0.286 N 
ATOM     22  H5  UNL     1       6.227  -0.977   1.391  1.00  0.00     0.188 HD
ATOM     23  H4  UNL     1       3.966  -0.904   2.482  1.00  0.00     0.188 HD
ENDBRANCH  14  15
ENDBRANCH   1  14
BRANCH   9  24
HETATM   24  C12 UNL     1      -3.812   2.080   0.275  1.00  0.00     0.172 C 
BRANCH  24  25
HETATM   25  C13 UNL     1      -5.029   2.937   0.106  1.00  0.00     0.240 C 
HETATM   26  O2  UNL     1      -5.709   2.780  -0.891  1.00  0.00    -0.306 OA
ENDBRANCH  24  25
ENDBRANCH   9  24
TORSDOF 4
