REMARK  8 active torsions:
REMARK  status: ('A' for Active; 'I' for Inactive)
REMARK    1  A    between atoms: C2_2  and  C4_4 
REMARK    2  A    between atoms: C4_4  and  C5_5 
REMARK       I    between atoms: C5_5  and  N1_7 
REMARK    3  A    between atoms: N1_7  and  C6_9 
REMARK    4  A    between atoms: C6_9  and  C7_10 
REMARK    5  A    between atoms: C6_9  and  C13_16 
REMARK    6  A    between atoms: C7_10  and  C8_11 
REMARK       I    between atoms: C13_16  and  N2_18 
REMARK    7  A    between atoms: N2_18  and  C14_19 
REMARK    8  A    between atoms: N2_18  and  C20_25 
ROOT
HETATM    1  C13 UNL     1       0.592   0.297   0.217  1.00  0.00     0.243 C 
HETATM    2  O2  UNL     1       0.399   1.371  -0.397  1.00  0.00    -0.271 OA
HETATM    3  N2  UNL     1       1.918  -0.164   0.364  1.00  0.00    -0.339 N 
ENDROOT
BRANCH   1   4
HETATM    4  C6  UNL     1      -0.622  -0.400   0.742  1.00  0.00     0.177 C 
BRANCH   4   5
HETATM    5  N1  UNL     1      -1.749   0.464   0.943  1.00  0.00    -0.348 N 
HETATM    6  C5  UNL     1      -2.443   1.192  -0.063  1.00  0.00     0.218 C 
HETATM    7  O1  UNL     1      -2.192   1.189  -1.280  1.00  0.00    -0.274 OA
ATOM      8  H1  UNL     1      -2.086   0.566   1.900  1.00  0.00     0.163 HD
BRANCH   6   9
HETATM    9  C4  UNL     1      -3.591   2.053   0.371  1.00  0.00     0.106 C 
BRANCH   9  10
HETATM   10  C2  UNL     1      -4.173   2.832  -0.764  1.00  0.00    -0.014 C 
HETATM   11  C1  UNL     1      -5.325   3.671  -0.234  1.00  0.00     0.010 C 
HETATM   12  C3  UNL     1      -3.142   3.837  -1.295  1.00  0.00     0.010 C 
ENDBRANCH   9  10
ENDBRANCH   6   9
ENDBRANCH   4   5
BRANCH   4  13
HETATM   13  C7  UNL     1      -0.894  -1.687   0.060  1.00  0.00     0.039 C 
BRANCH  13  14
HETATM   14  C8  UNL     1      -1.785  -2.673   0.729  1.00  0.00    -0.012 C 
HETATM   15  C9  UNL     1      -1.909  -3.941  -0.137  1.00  0.00     0.005 C 
HETATM   16  C10 UNL     1      -3.330  -4.011  -0.619  1.00  0.00     0.000 C 
HETATM   17  C11 UNL     1      -3.894  -2.612  -0.384  1.00  0.00     0.000 C 
HETATM   18  C12 UNL     1      -3.212  -2.297   0.954  1.00  0.00     0.005 C 
ENDBRANCH  13  14
ENDBRANCH   4  13
ENDBRANCH   1   4
BRANCH   3  19
HETATM   19  C14 UNL     1       2.992   0.583  -0.259  1.00  0.00     0.087 C 
HETATM   20  C15 UNL     1       2.874   0.558  -1.779  1.00  0.00     0.025 C 
HETATM   21  C16 UNL     1       4.215   1.105  -2.292  1.00  0.00     0.002 C 
HETATM   22  C17 UNL     1       4.306   2.569  -1.969  1.00  0.00     0.000 C 
HETATM   23  C18 UNL     1       3.281   2.982  -0.941  1.00  0.00     0.002 C 
HETATM   24  C19 UNL     1       3.128   1.996   0.193  1.00  0.00     0.025 C 
ENDBRANCH   3  19
BRANCH   3  25
HETATM   25  C20 UNL     1       2.275  -1.316   1.150  1.00  0.00     0.114 C 
HETATM   26  C21 UNL     1       3.190  -0.943   2.309  1.00  0.00     0.054 C 
HETATM   27  C22 UNL     1       3.671  -2.333   2.716  1.00  0.00     0.234 C 
HETATM   28  N3  UNL     1       3.986  -2.927   1.456  1.00  0.00    -0.073 N 
HETATM   29  C23 UNL     1       3.094  -2.344   0.449  1.00  0.00     0.257 C 
ATOM     30  H32 UNL     1       4.972  -2.836   1.211  1.00  0.00     0.277 HD
ATOM     31  H31 UNL     1       3.945  -3.946   1.478  1.00  0.00     0.277 HD
ENDBRANCH   3  25
TORSDOF 8
