REMARK  10 active torsions:
REMARK  status: ('A' for Active; 'I' for Inactive)
REMARK    1  A    between atoms: O1_1  and  C1_3 
REMARK    2  A    between atoms: C1_3  and  N1_4 
REMARK    3  A    between atoms: C1_3  and  N7_33 
REMARK    4  A    between atoms: C2_6  and  C3_7 
REMARK    5  A    between atoms: C3_7  and  O2_8 
REMARK    6  A    between atoms: O2_8  and  N2_9 
REMARK    7  A    between atoms: N2_9  and  C4_10 
REMARK    8  A    between atoms: C4_10  and  C5_11 
REMARK    9  A    between atoms: N7_33  and  C16_34 
REMARK   10  A    between atoms: C16_34  and  C17_35 
ROOT
HETATM    1  C5  UNL     1      -1.200   0.084   1.293  1.00  0.00     0.229 C 
HETATM    2  N3  UNL     1      -1.799  -0.487   0.098  1.00  0.00    -0.395 N 
ATOM      3  H3  UNL     1      -1.756   0.025  -0.783  1.00  0.00     0.155 HD
HETATM    4  C6  UNL     1      -2.435  -1.736   0.147  1.00  0.00     0.135 C 
HETATM    5  C7  UNL     1      -3.382  -1.788  -1.054  1.00  0.00     0.133 C 
HETATM    6  N4  UNL     1      -3.240  -0.732  -1.986  1.00  0.00    -0.418 N 
ATOM      7  H4  UNL     1      -2.333  -0.480  -2.379  1.00  0.00     0.153 HD
HETATM    8  C8  UNL     1      -4.456  -0.027  -2.352  1.00  0.00     0.141 C 
HETATM    9  C9  UNL     1      -5.652  -0.887  -2.614  1.00  0.00     0.251 C 
HETATM   10  N5  UNL     1      -6.887  -0.259  -2.183  1.00  0.00    -0.072 N 
ATOM     11  H51 UNL     1      -7.609  -0.323  -2.901  1.00  0.00     0.277 HD
ATOM     12  H52 UNL     1      -6.795   0.756  -2.141  1.00  0.00     0.277 HD
HETATM   13  C10 UNL     1      -7.346  -0.805  -0.916  1.00  0.00     0.258 C 
HETATM   14  C11 UNL     1      -7.240   0.281   0.145  1.00  0.00     0.195 C 
HETATM   15  O3  UNL     1      -6.799  -0.246   1.340  1.00  0.00    -0.387 OA
HETATM   16  C12 UNL     1      -5.498   0.130   1.691  1.00  0.00     0.193 C 
HETATM   17  C13 UNL     1      -5.431   1.418   2.433  1.00  0.00     0.193 C 
HETATM   18  O4  UNL     1      -4.886   2.421   1.604  1.00  0.00    -0.387 OA
HETATM   19  C14 UNL     1      -3.628   2.822   2.000  1.00  0.00     0.187 C 
HETATM   20  C15 UNL     1      -2.499   2.128   1.208  1.00  0.00     0.142 C 
HETATM   21  N6  UNL     1      -2.098   0.982   1.957  1.00  0.00    -0.395 N 
ATOM     22  H6  UNL     1      -2.430   0.812   2.906  1.00  0.00     0.155 HD
ENDROOT
BRANCH   1  23
HETATM   23  C4  UNL     1      -0.079   0.867   0.626  1.00  0.00     0.236 C 
BRANCH  23  24
HETATM   24  N2  UNL     1       0.787   0.266   0.142  1.00  0.00    -0.294 NA
BRANCH  24  25
HETATM   25  O2  UNL     1       1.710  -0.420  -0.372  1.00  0.00    -0.205 OA
BRANCH  25  26
HETATM   26  C3  UNL     1       2.875  -0.644   0.616  1.00  0.00     0.262 C 
BRANCH  26  27
HETATM   27  C2  UNL     1       3.932  -0.037  -0.264  1.00  0.00     0.095 C 
HETATM   28  N1  UNL     1       5.186   0.098   0.235  1.00  0.00    -0.322 N 
ATOM     29  H1  UNL     1       5.452   1.065   0.422  1.00  0.00     0.169 HD
BRANCH  28  30
HETATM   30  C1  UNL     1       6.217  -0.862   0.553  1.00  0.00     0.292 C 
BRANCH  30  31
HETATM   31  O1  UNL     1       5.859  -2.115   0.376  1.00  0.00    -0.322 OA
ATOM     32  H1  UNL     1       6.537  -2.746   0.585  1.00  0.00     0.222 HD
ENDBRANCH  30  31
BRANCH  30  33
HETATM   33  N7  UNL     1       7.349  -0.440   0.934  1.00  0.00    -0.405 NA
BRANCH  33  34
HETATM   34  C16 UNL     1       8.706  -0.440   1.329  1.00  0.00     0.262 C 
BRANCH  34  35
HETATM   35  C17 UNL     1       9.384  -0.459  -0.050  1.00  0.00    -0.013 A 
HETATM   36  C18 UNL     1       9.559   0.720  -0.674  1.00  0.00     0.012 A 
HETATM   37  C19 UNL     1       9.850   0.667  -2.036  1.00  0.00     0.018 A 
HETATM   38  C20 UNL     1       9.953  -0.573  -2.674  1.00  0.00     0.087 A 
HETATM   39  N8  UNL     1       9.779  -1.702  -1.990  1.00  0.00    -0.375 N 
HETATM   40  C21 UNL     1       9.490  -1.666  -0.655  1.00  0.00     0.097 A 
ATOM     41  H8  UNL     1       9.862  -2.600  -2.466  1.00  0.00     0.164 HD
ENDBRANCH  34  35
ENDBRANCH  33  34
ENDBRANCH  30  33
ENDBRANCH  28  30
ENDBRANCH  26  27
ENDBRANCH  25  26
ENDBRANCH  24  25
ENDBRANCH  23  24
ENDBRANCH   1  23
TORSDOF 10
