REMARK  5 active torsions:
REMARK  status: ('A' for Active; 'I' for Inactive)
REMARK    1  A    between atoms: O1_2  and  C2_3 
REMARK    2  A    between atoms: C3_4  and  N1_5 
REMARK       I    between atoms: N1_5  and  C4_7 
REMARK    3  A    between atoms: C4_7  and  C5_9 
REMARK    4  A    between atoms: C11_15  and  C12_16 
REMARK    5  A    between atoms: C12_16  and  C13_17 
ROOT
HETATM    1  C2  UNL     1      -0.420   1.393   0.942  1.00  0.00     0.117 A 
HETATM    2  C3  UNL     1      -0.138   0.284   0.135  1.00  0.00     0.070 A 
HETATM    3  C10 UNL     1      -1.197  -0.393  -0.437  1.00  0.00     0.040 A 
HETATM    4  C11 UNL     1      -2.539  -0.026  -0.250  1.00  0.00    -0.041 A 
HETATM    5  C15 UNL     1      -2.778   1.066   0.548  1.00  0.00    -0.031 A 
HETATM    6  C16 UNL     1      -4.173   1.517   0.796  1.00  0.00     0.050 C 
HETATM    7  C17 UNL     1      -1.733   1.753   1.127  1.00  0.00     0.076 A 
HETATM    8 CL1  UNL     1      -2.030   3.161   2.156  1.00  0.00    -0.081 Cl
ENDROOT
BRANCH   2   9
HETATM    9  N1  UNL     1       1.226  -0.056  -0.034  1.00  0.00    -0.324 N 
HETATM   10  C4  UNL     1       1.716  -1.137  -0.791  1.00  0.00     0.226 C 
HETATM   11  O2  UNL     1       1.043  -1.972  -1.436  1.00  0.00    -0.273 OA
ATOM     12  H1  UNL     1       1.914   0.534   0.434  1.00  0.00     0.169 HD
BRANCH  10  13
HETATM   13  C5  UNL     1       3.224  -1.298  -0.820  1.00  0.00     0.078 C 
HETATM   14  C6  UNL     1       3.676  -1.541   0.584  1.00  0.00     0.014 C 
HETATM   15  C7  UNL     1       4.637  -0.444   0.912  1.00  0.00     0.001 C 
HETATM   16  C8  UNL     1       5.162   0.035  -0.416  1.00  0.00     0.001 C 
HETATM   17  C9  UNL     1       3.895  -0.018  -1.295  1.00  0.00     0.014 C 
ENDBRANCH  10  13
ENDBRANCH   2   9
BRANCH   1  18
HETATM   18  O1  UNL     1       0.627   2.091   1.529  1.00  0.00    -0.352 OA
HETATM   19  C1  UNL     1       1.241   3.182   0.867  1.00  0.00     0.210 C 
ENDBRANCH   1  18
BRANCH   4  20
HETATM   20  C12 UNL     1      -3.619  -0.806  -0.901  1.00  0.00     0.117 C 
BRANCH  20  21
HETATM   21  C13 UNL     1      -4.322  -1.690   0.056  1.00  0.00     0.127 C 
HETATM   22  C14 UNL     1      -5.444  -2.583  -0.320  1.00  0.00     0.091 C 
HETATM   23  O3  UNL     1      -3.958  -1.682   1.215  1.00  0.00    -0.298 OA
ENDBRANCH  20  21
ENDBRANCH   4  20
TORSDOF 5
