REMARK  6 active torsions:
REMARK  status: ('A' for Active; 'I' for Inactive)
REMARK    1  A    between atoms: C2_2  and  O1_3 
REMARK    2  A    between atoms: O1_3  and  C3_4 
REMARK    3  A    between atoms: C3_4  and  C4_6 
REMARK    4  A    between atoms: C5_7  and  N1_8 
REMARK       I    between atoms: N1_8  and  C6_10 
REMARK    5  A    between atoms: C6_10  and  C7_12 
REMARK    6  A    between atoms: C7_12  and  C8_13 
ROOT
HETATM    1  C4  UNL     1       0.128   0.040   0.212  1.00  0.00     0.080 A 
HETATM    2  C5  UNL     1      -0.353  -0.866   1.082  1.00  0.00     0.094 A 
HETATM    3  S1  UNL     1       1.097  -1.735   1.564  1.00  0.00    -0.075 SA
HETATM    4  C9  UNL     1       2.220  -0.901   0.618  1.00  0.00    -0.008 A 
HETATM    5  C10 UNL     1       1.480   0.025  -0.046  1.00  0.00    -0.026 A 
HETATM    6  C11 UNL     1       2.191   0.925  -1.046  1.00  0.00     0.041 C 
HETATM    7  C12 UNL     1       3.430   0.361  -1.585  1.00  0.00     0.009 C 
HETATM    8  C13 UNL     1       3.923  -0.931  -1.055  1.00  0.00    -0.014 C 
HETATM    9  C14 UNL     1       5.431  -0.997  -1.277  1.00  0.00     0.010 C 
HETATM   10  C15 UNL     1       3.727  -1.024   0.453  1.00  0.00     0.051 C 
ENDROOT
BRANCH   2  11
HETATM   11  N1  UNL     1      -1.649  -1.381   1.440  1.00  0.00    -0.320 N 
HETATM   12  C6  UNL     1      -2.813  -1.467   0.685  1.00  0.00     0.223 C 
HETATM   13  O3  UNL     1      -2.973  -1.141  -0.512  1.00  0.00    -0.273 OA
ATOM     14  H1  UNL     1      -1.725  -1.737   2.393  1.00  0.00     0.169 HD
BRANCH  12  15
HETATM   15  C7  UNL     1      -4.030  -2.031   1.427  1.00  0.00     0.118 C 
BRANCH  15  16
HETATM   16  C8  UNL     1      -5.211  -2.070   0.511  1.00  0.00     0.124 C 
HETATM   17 CL1  UNL     1      -6.587  -2.724   1.406  1.00  0.00    -0.130 Cl
ENDBRANCH  15  16
ENDBRANCH  12  15
ENDBRANCH   2  11
BRANCH   1  18
HETATM   18  C3  UNL     1      -0.739   1.214  -0.197  1.00  0.00     0.296 C 
HETATM   19  O2  UNL     1      -0.357   2.036  -1.053  1.00  0.00    -0.259 OA
BRANCH  18  20
HETATM   20  O1  UNL     1      -1.976   1.453   0.354  1.00  0.00    -0.318 OA
BRANCH  20  21
HETATM   21  C2  UNL     1      -2.802   2.528   0.022  1.00  0.00     0.174 C 
HETATM   22  C1  UNL     1      -2.037   3.818   0.342  1.00  0.00     0.034 C 
ENDBRANCH  20  21
ENDBRANCH  18  20
ENDBRANCH   1  18
TORSDOF 6
