REMARK  5 active torsions:
REMARK  status: ('A' for Active; 'I' for Inactive)
REMARK    1  A    between atoms: C2_2  and  C3_3 
REMARK    2  A    between atoms: C3_3  and  C4_4 
REMARK    3  A    between atoms: C4_4  and  C5_5 
REMARK    4  A    between atoms: N1_7  and  C7_8 
REMARK    5  A    between atoms: C12_19  and  C13_20 
ROOT
HETATM    1  C13 UNL     1      -1.709  -1.539  -0.085  1.00  0.00     0.049 C 
HETATM    2  C14 UNL     1      -2.014  -2.162   0.988  1.00  0.00     0.021 C 
HETATM    3  C15 UNL     1      -3.333  -2.899   1.086  1.00  0.00     0.060 C 
HETATM    4  C16 UNL     1      -1.222  -2.200   2.165  1.00  0.00     0.094 C 
HETATM    5  N4  UNL     1      -0.589  -2.227   3.164  1.00  0.00    -0.192 NA
ENDROOT
BRANCH   1   6
HETATM    6  C12 UNL     1      -0.503  -0.775  -0.397  1.00  0.00     0.064 A 
HETATM    7  N1  UNL     1      -0.551   0.520  -0.855  1.00  0.00    -0.157 N 
HETATM    8  C6  UNL     1       0.716   0.892  -1.076  1.00  0.00     0.123 A 
HETATM    9  C5  UNL     1       1.572  -0.127  -0.773  1.00  0.00    -0.033 A 
HETATM   10  C17 UNL     1       0.799  -1.206  -0.335  1.00  0.00    -0.026 A 
HETATM   11  C18 UNL     1       1.385  -2.493   0.051  1.00  0.00     0.051 C 
BRANCH   7  12
HETATM   12  C7  UNL     1      -1.719   1.316  -1.061  1.00  0.00     0.692 A 
HETATM   13  N2  UNL     1      -2.717   1.354  -0.141  1.00  0.00    -0.192 N 
HETATM   14  C8  UNL     1      -3.824   2.099  -0.319  1.00  0.00     0.067 A 
ATOM     15  H2  UNL     1      -2.625   0.801   0.711  1.00  0.00     0.184 HD
HETATM   16  C9  UNL     1      -4.925   2.151   0.681  1.00  0.00     0.072 C 
HETATM   17  C10 UNL     1      -3.966   2.856  -1.472  1.00  0.00     0.207 A 
HETATM   18  F1  UNL     1      -5.070   3.619  -1.684  1.00  0.00    -0.198 F 
HETATM   19  C11 UNL     1      -2.946   2.814  -2.406  1.00  0.00     0.300 A 
HETATM   20  O1  UNL     1      -3.010   3.483  -3.487  1.00  0.00    -0.264 OA
HETATM   21  N3  UNL     1      -1.862   2.054  -2.180  1.00  0.00    -0.153 N 
ATOM     22  H3  UNL     1      -1.120   2.035  -2.880  1.00  0.00     0.187 HD
ENDBRANCH   7  12
BRANCH   9  23
HETATM   23  C4  UNL     1       3.051  -0.083  -0.900  1.00  0.00     0.040 C 
BRANCH  23  24
HETATM   24  C3  UNL     1       3.643   0.061   0.486  1.00  0.00     0.004 C 
BRANCH  24  25
HETATM   25  C2  UNL     1       5.169   0.104   0.381  1.00  0.00    -0.004 C 
HETATM   26  C1  UNL     1       5.736   0.240   1.758  1.00  0.00     0.005 C 
ENDBRANCH  24  25
ENDBRANCH  23  24
ENDBRANCH   9  23
ENDBRANCH   1   6
TORSDOF 5
