REMARK  5 active torsions:
REMARK  status: ('A' for Active; 'I' for Inactive)
REMARK    1  A    between atoms: C3_4  and  C4_5 
REMARK    2  A    between atoms: C6_8  and  C7_9 
REMARK    3  A    between atoms: C7_9  and  C8_10 
REMARK    4  A    between atoms: C8_10  and  N1_11 
REMARK       I    between atoms: N1_11  and  C9_13 
REMARK    5  A    between atoms: C9_13  and  C10_15 
ROOT
HETATM    1  C4  UNL     1       1.075  -0.629  -0.370  1.00  0.00     0.059 A 
HETATM    2  C5  UNL     1       0.354  -0.683  -1.539  1.00  0.00     0.082 A 
HETATM    3  S2  UNL     1      -1.213  -1.036  -0.965  1.00  0.00    -0.086 SA
HETATM    4  C6  UNL     1      -0.861  -1.093   0.704  1.00  0.00     0.052 A 
HETATM    5  N2  UNL     1       0.433  -0.840   0.735  1.00  0.00    -0.352 N 
ATOM      6  H2  UNL     1       0.927  -0.811   1.627  1.00  0.00     0.166 HD
ENDROOT
BRANCH   4   7
HETATM    7  C7  UNL     1      -1.796  -1.366   1.860  1.00  0.00     0.084 C 
BRANCH   7   8
HETATM    8  C8  UNL     1      -2.337  -0.016   2.289  1.00  0.00     0.129 C 
BRANCH   8   9
HETATM    9  N1  UNL     1      -3.051   0.679   1.265  1.00  0.00    -0.360 N 
HETATM   10  C9  UNL     1      -4.224   0.163   0.635  1.00  0.00     0.221 C 
HETATM   11  O1  UNL     1      -4.686  -0.949   0.965  1.00  0.00    -0.273 OA
ATOM     12  H1  UNL     1      -2.705   1.591   0.968  1.00  0.00     0.162 HD
BRANCH  10  13
HETATM   13  C10 UNL     1      -4.890   0.969  -0.420  1.00  0.00     0.078 A 
HETATM   14  C11 UNL     1      -5.489   0.167  -1.531  1.00  0.00     0.015 A 
HETATM   15  C12 UNL     1      -6.376   0.899  -0.558  1.00  0.00     0.015 A 
ENDBRANCH  10  13
ENDBRANCH   8   9
ENDBRANCH   7   8
ENDBRANCH   4   7
BRANCH   1  16
HETATM   16  C3  UNL     1       2.540  -0.339  -0.384  1.00  0.00     0.071 A 
HETATM   17  S1  UNL     1       3.514  -0.043  -1.747  1.00  0.00    -0.089 SA
HETATM   18  C2  UNL     1       5.012   0.193  -0.965  1.00  0.00    -0.011 A 
HETATM   19  C1  UNL     1       6.365   0.505  -1.558  1.00  0.00     0.057 C 
HETATM   20  C14 UNL     1       4.695   0.030   0.359  1.00  0.00    -0.009 A 
HETATM   21  C13 UNL     1       3.415  -0.245   0.651  1.00  0.00     0.142 A 
HETATM   22  C15 UNL     1       5.778   0.163   1.418  1.00  0.00     0.052 C 
HETATM   23  F1  UNL     1       2.960  -0.434   1.953  1.00  0.00    -0.204 F 
ENDBRANCH   1  16
TORSDOF 5
