REMARK  2 active torsions:
REMARK  status: ('A' for Active; 'I' for Inactive)
REMARK    1  A    between atoms: C1_2  and  C2_4 
REMARK    2  A    between atoms: C13_16  and  C14_17 
ROOT
HETATM    1  C2  UNL     1       0.067   2.603   0.129  1.00  0.00     0.245 C 
HETATM    2  O3  UNL     1       1.247   1.870   0.191  1.00  0.00    -0.332 OA
HETATM    3  C3  UNL     1       1.364   0.515  -0.059  1.00  0.00     0.088 A 
HETATM    4  C4  UNL     1       0.219  -0.258   0.016  1.00  0.00    -0.014 A 
HETATM    5  C5  UNL     1       0.263  -1.603  -0.219  1.00  0.00     0.011 A 
HETATM    6  C6  UNL     1       1.481  -2.178  -0.535  1.00  0.00     0.013 A 
HETATM    7  C7  UNL     1       2.616  -1.414  -0.610  1.00  0.00    -0.023 A 
HETATM    8  C8  UNL     1       3.842  -2.012  -0.931  1.00  0.00     0.012 A 
HETATM    9  C9  UNL     1       4.988  -1.286  -1.015  1.00  0.00     0.001 A 
HETATM   10  C10 UNL     1       4.946   0.076  -0.777  1.00  0.00     0.001 A 
HETATM   11  C11 UNL     1       3.741   0.677  -0.459  1.00  0.00     0.015 A 
HETATM   12  C12 UNL     1       2.585  -0.058  -0.375  1.00  0.00     0.008 A 
HETATM   13  C13 UNL     1      -1.038   0.441   0.356  1.00  0.00     0.072 C 
HETATM   14  C20 UNL     1      -1.129   1.787  -0.332  1.00  0.00     0.111 C 
HETATM   15  S1  UNL     1      -1.055   1.711  -2.117  1.00  0.00    -0.088 SA
ENDROOT
BRANCH  13  16
HETATM   16  C14 UNL     1      -2.245  -0.369   0.334  1.00  0.00    -0.048 A 
HETATM   17  C15 UNL     1      -2.815  -0.858   1.512  1.00  0.00     0.008 A 
HETATM   18  C16 UNL     1      -3.941  -1.629   1.579  1.00  0.00     0.001 A 
HETATM   19  C17 UNL     1      -4.581  -1.962   0.404  1.00  0.00     0.000 A 
HETATM   20  C18 UNL     1      -4.071  -1.512  -0.796  1.00  0.00     0.001 A 
HETATM   21  C19 UNL     1      -2.920  -0.728  -0.812  1.00  0.00     0.008 A 
ENDBRANCH  13  16
BRANCH   1  22
HETATM   22  C1  UNL     1      -0.240   3.188   1.470  1.00  0.00     0.204 C 
HETATM   23  O1  UNL     1      -1.279   3.888   1.602  1.00  0.00    -0.646 OA
HETATM   24  O2  UNL     1       0.553   3.005   2.578  1.00  0.00    -0.646 OA
ENDBRANCH   1  22
TORSDOF 2
