REMARK  5 active torsions:
REMARK  status: ('A' for Active; 'I' for Inactive)
REMARK    1  A    between atoms: S1_2  and  N1_5 
REMARK    2  A    between atoms: N1_5  and  C2_7 
REMARK    3  A    between atoms: C4_11  and  S3_12 
REMARK    4  A    between atoms: S3_12  and  N3_13 
REMARK    5  A    between atoms: C5_18  and  C6_19 
ROOT
HETATM    1  C2  UNL     1       0.364  -0.702   0.202  1.00  0.00     0.090 A 
HETATM    2  C3  UNL     1       0.822  -0.715   1.490  1.00  0.00     0.116 A 
HETATM    3  N2  UNL     1       1.948  -1.439   2.035  1.00  0.00    -0.092 NA
HETATM    4  S2  UNL     1      -0.257   0.311   2.295  1.00  0.00    -0.058 SA
HETATM    5  C4  UNL     1      -1.288   0.745   0.963  1.00  0.00     0.139 A 
HETATM    6  C5  UNL     1      -0.730   0.054  -0.064  1.00  0.00     0.089 A 
ENDROOT
BRANCH   1   7
HETATM    7  N1  UNL     1       1.123  -1.457  -0.793  1.00  0.00    -0.281 N 
ATOM      8  H1  UNL     1       0.846  -2.410  -1.027  1.00  0.00     0.178 HD
BRANCH   7   9
HETATM    9  S1  UNL     1       2.473  -0.749  -1.565  1.00  0.00     0.227 S 
HETATM   10  C1  UNL     1       3.778  -0.319  -0.415  1.00  0.00     0.186 C 
HETATM   11  O1  UNL     1       3.094  -1.718  -2.559  1.00  0.00    -0.206 OA
HETATM   12  O2  UNL     1       2.170   0.493  -2.336  1.00  0.00    -0.206 OA
ENDBRANCH   7   9
ENDBRANCH   1   7
BRANCH   6  13
HETATM   13  C6  UNL     1      -1.346   0.048  -1.417  1.00  0.00     0.269 C 
HETATM   14  N4  UNL     1      -2.451   0.810  -1.794  1.00  0.00    -0.057 NA
HETATM   15  O5  UNL     1      -0.888  -0.682  -2.355  1.00  0.00    -0.271 OA
ENDBRANCH   6  13
BRANCH   5  16
HETATM   16  S3  UNL     1      -2.655   1.811   1.137  1.00  0.00     0.264 S 
HETATM   17  O3  UNL     1      -2.754   2.895   0.125  1.00  0.00    -0.200 OA
HETATM   18  O4  UNL     1      -2.447   2.603   2.460  1.00  0.00    -0.200 OA
BRANCH  16  19
HETATM   19  N3  UNL     1      -4.148   1.026   1.378  1.00  0.00    -0.324 N 
ATOM     20  H32 UNL     1      -4.219   0.009   1.415  1.00  0.00     0.169 HD
ATOM     21  H31 UNL     1      -4.948   1.650   1.480  1.00  0.00     0.169 HD
ENDBRANCH  16  19
ENDBRANCH   5  16
TORSDOF 5
