REMARK  9 active torsions:
REMARK  status: ('A' for Active; 'I' for Inactive)
REMARK    1  A    between atoms: N1_2  and  C3_4 
REMARK    2  A    between atoms: C3_4  and  N2_6 
REMARK    3  A    between atoms: C6_11  and  N4_12 
REMARK    4  A    between atoms: C7_17  and  N6_18 
REMARK    5  A    between atoms: N6_18  and  C8_20 
REMARK    6  A    between atoms: C8_20  and  C9_21 
REMARK    7  A    between atoms: C9_21  and  C10_22 
REMARK    8  A    between atoms: C10_22  and  C11_23 
REMARK    9  A    between atoms: C11_23  and  N7_24 
ROOT
HETATM    1  N2  UNL     1      -3.041   0.854   1.591  1.00  0.00    -0.268 N 
HETATM    2  C4  UNL     1      -3.113   1.540   2.731  1.00  0.00     0.193 A 
HETATM    3  N3  UNL     1      -1.891   1.676   3.282  1.00  0.00    -0.346 N 
ATOM      4  H3  UNL     1      -1.679   2.160   4.155  1.00  0.00     0.167 HD
HETATM    5  C5  UNL     1      -1.005   1.068   2.489  1.00  0.00     0.123 A 
HETATM    6  C6  UNL     1       0.358   0.860   2.496  1.00  0.00     0.145 A 
HETATM    7  N5  UNL     1       0.900   0.172   1.477  1.00  0.00    -0.175 N 
ATOM      8  H5  UNL     1       1.908   0.018   1.483  1.00  0.00     0.186 HD
HETATM    9  C7  UNL     1       0.188  -0.325   0.450  1.00  0.00     0.681 A 
HETATM   10  N8  UNL     1      -1.144  -0.130   0.428  1.00  0.00    -0.174 N 
ATOM     11  H8  UNL     1      -1.705  -0.498  -0.341  1.00  0.00     0.186 HD
HETATM   12  C12 UNL     1      -1.729   0.553   1.427  1.00  0.00     0.161 A 
ENDROOT
BRANCH   9  13
HETATM   13  N6  UNL     1       0.749  -0.992  -0.530  1.00  0.00    -0.226 N 
ATOM     14  H6  UNL     1       0.205  -1.367  -1.307  1.00  0.00     0.177 HD
BRANCH  13  15
HETATM   15  C8  UNL     1       2.207  -1.169  -0.445  1.00  0.00     0.138 C 
BRANCH  15  16
HETATM   16  C9  UNL     1       2.578  -2.043  -1.620  1.00  0.00     0.022 C 
BRANCH  16  17
HETATM   17  C10 UNL     1       4.059  -2.334  -1.692  1.00  0.00     0.029 C 
BRANCH  17  18
HETATM   18  C11 UNL     1       4.864  -1.060  -1.827  1.00  0.00     0.229 C 
BRANCH  18  19
HETATM   19  N7  UNL     1       6.274  -1.455  -1.890  1.00  0.00    -0.079 N 
ATOM     20  H73 UNL     1       6.565  -2.033  -1.102  1.00  0.00     0.274 HD
ATOM     21  H72 UNL     1       6.469  -2.134  -2.626  1.00  0.00     0.274 HD
ATOM     22  H71 UNL     1       6.817  -0.596  -1.981  1.00  0.00     0.274 HD
ENDBRANCH  18  19
ENDBRANCH  17  18
ENDBRANCH  16  17
ENDBRANCH  15  16
ENDBRANCH  13  15
ENDBRANCH   9  13
BRANCH   6  23
HETATM   23  N4  UNL     1       1.072   1.323   3.465  1.00  0.00    -0.383 N 
ATOM     24  H42 UNL     1       0.661   1.845   4.239  1.00  0.00     0.157 HD
ATOM     25  H41 UNL     1       2.080   1.169   3.470  1.00  0.00     0.157 HD
ENDBRANCH   6  23
BRANCH   1  26
HETATM   26  C3  UNL     1      -4.101   0.483   0.684  1.00  0.00     0.182 C 
HETATM   27  S1  UNL     1      -5.085  -0.774   1.023  1.00  0.00    -0.040 SA
BRANCH  26  28
HETATM   28  N1  UNL     1      -4.314   1.192  -0.515  1.00  0.00    -0.366 N 
HETATM   29  C1  UNL     1      -5.379   0.795  -1.396  1.00  0.00     0.151 C 
HETATM   30  C2  UNL     1      -3.476   2.308  -0.864  1.00  0.00     0.151 C 
ENDBRANCH  26  28
ENDBRANCH   1  26
TORSDOF 9
