REMARK  8 active torsions:
REMARK  status: ('A' for Active; 'I' for Inactive)
REMARK    1  A    between atoms: N1_1  and  C1_4 
REMARK    2  A    between atoms: N3_8  and  C3_9 
REMARK    3  A    between atoms: C4_11  and  C5_12 
REMARK    4  A    between atoms: C5_12  and  C6_13 
REMARK    5  A    between atoms: C6_13  and  C7_14 
REMARK       I    between atoms: C7_14  and  N4_16 
REMARK    6  A    between atoms: C9_23  and  O3_24 
REMARK    7  A    between atoms: C9_23  and  O4_26 
REMARK    8  A    between atoms: C10_28  and  O5_29 
ROOT
HETATM    1  C3  UNL     1      -1.132   0.028  -0.468  1.00  0.00     0.272 C 
HETATM    2  O1  UNL     1      -0.560  -0.781   0.487  1.00  0.00    -0.339 OA
HETATM    3  C4  UNL     1      -0.134  -2.002   0.029  1.00  0.00     0.223 C 
HETATM    4  N7  UNL     1      -1.076  -2.724  -0.756  1.00  0.00    -0.341 N 
ATOM      5  H7  UNL     1      -0.856  -3.621  -1.190  1.00  0.00     0.161 HD
HETATM    6  C9  UNL     1      -2.354  -2.097  -0.890  1.00  0.00     0.273 C 
HETATM    7  C10 UNL     1      -2.124  -0.667  -1.349  1.00  0.00     0.252 C 
ENDROOT
BRANCH   1   8
HETATM    8  N3  UNL     1      -1.715   1.170   0.223  1.00  0.00    -0.265 N 
HETATM    9  C2  UNL     1      -2.044   1.126   1.538  1.00  0.00     0.208 A 
HETATM   10  N2  UNL     1      -2.580   2.179   2.171  1.00  0.00    -0.188 N 
HETATM   11  C1  UNL     1      -2.811   3.313   1.527  1.00  0.00     0.680 A 
ATOM     12  H2  UNL     1      -2.813   2.106   3.161  1.00  0.00     0.185 HD
HETATM   13  N8  UNL     1      -2.503   3.405   0.228  1.00  0.00    -0.141 N 
HETATM   14  C11 UNL     1      -1.968   2.342  -0.389  1.00  0.00     0.344 A 
ATOM     15  H8  UNL     1      -2.673   4.270  -0.285  1.00  0.00     0.189 HD
HETATM   16  O6  UNL     1      -1.658   2.384  -1.628  1.00  0.00    -0.246 OA
BRANCH  11  17
HETATM   17  N1  UNL     1      -3.332   4.301   2.191  1.00  0.00    -0.234 N 
ATOM     18  H12 UNL     1      -3.567   4.231   3.181  1.00  0.00     0.174 HD
ATOM     19  H11 UNL     1      -3.510   5.174   1.695  1.00  0.00     0.174 HD
ENDBRANCH  11  17
ENDBRANCH   1   8
BRANCH   7  20
HETATM   20  O5  UNL     1      -3.374  -0.007  -1.344  1.00  0.00    -0.384 OA
ATOM     21  H5  UNL     1      -4.003  -0.448  -1.903  1.00  0.00     0.210 HD
ENDBRANCH   7  20
BRANCH   3  22
HETATM   22  C5  UNL     1       1.176  -1.858  -0.720  1.00  0.00     0.062 C 
BRANCH  22  23
HETATM   23  C6  UNL     1       2.240  -1.289   0.185  1.00  0.00     0.107 C 
BRANCH  23  24
HETATM   24  C7  UNL     1       3.508  -1.151  -0.546  1.00  0.00     0.223 C 
HETATM   25  O2  UNL     1       3.587  -1.483  -1.734  1.00  0.00    -0.273 OA
HETATM   26  N4  UNL     1       4.632  -0.635   0.125  1.00  0.00    -0.304 N 
HETATM   27  C8  UNL     1       4.794   0.628   0.224  1.00  0.00     0.203 C 
ATOM     28  H4  UNL     1       5.318  -1.270   0.533  1.00  0.00     0.171 HD
HETATM   29  N5  UNL     1       3.851   1.505  -0.337  1.00  0.00    -0.066 NA
HETATM   30  N6  UNL     1       5.954   1.115   0.916  1.00  0.00    -0.066 NA
ENDBRANCH  23  24
ENDBRANCH  22  23
ENDBRANCH   3  22
BRANCH   6  31
HETATM   31  O3  UNL     1      -3.108  -2.114   0.282  1.00  0.00    -0.347 OA
ATOM     32  H3  UNL     1      -3.957  -1.697   0.193  1.00  0.00     0.215 HD
ENDBRANCH   6  31
BRANCH   6  33
HETATM   33  O4  UNL     1      -3.053  -2.741  -1.912  1.00  0.00    -0.347 OA
ATOM     34  H4  UNL     1      -3.902  -2.324  -2.001  1.00  0.00     0.215 HD
ENDBRANCH   6  33
TORSDOF 8
