REMARK  3 active torsions:
REMARK  status: ('A' for Active; 'I' for Inactive)
REMARK    1  A    between atoms: C15_17  and  C16_18 
REMARK    2  A    between atoms: C16_18  and  O2_19 
REMARK    3  A    between atoms: C20_24  and  O3_25 
ROOT
HETATM    1  C1  UNL     1      -4.629  -0.301   1.808  1.00  0.00     0.020 C 
HETATM    2  C2  UNL     1      -3.559   0.387   0.941  1.00  0.00     0.005 C 
HETATM    3  C3  UNL     1      -3.315   1.749   1.350  1.00  0.00     0.179 C 
HETATM    4  O1  UNL     1      -3.731   2.190   0.074  1.00  0.00    -0.384 OA
HETATM    5  C4  UNL     1      -4.255   0.975  -0.265  1.00  0.00     0.133 C 
HETATM    6  C5  UNL     1      -3.754   0.274  -1.471  1.00  0.00     0.053 C 
HETATM    7  C6  UNL     1      -2.224   0.363  -1.619  1.00  0.00     0.107 C 
HETATM    8  C7  UNL     1      -1.942   1.767  -1.838  1.00  0.00     0.065 C 
HETATM    9  N1  UNL     1      -1.716   2.881  -2.035  1.00  0.00    -0.197 NA
HETATM   10  C8  UNL     1      -1.550  -0.291  -0.489  1.00  0.00     0.016 C 
HETATM   11  C9  UNL     1      -1.134  -1.708  -0.994  1.00  0.00     0.015 C 
HETATM   12  C10 UNL     1       0.031  -1.511  -1.867  1.00  0.00     0.009 C 
HETATM   13  C11 UNL     1       0.619  -0.211  -1.328  1.00  0.00     0.034 C 
HETATM   14  C12 UNL     1       2.070  -0.314  -1.232  1.00  0.00     0.002 C 
HETATM   15  C13 UNL     1       2.764   0.901  -1.865  1.00  0.00     0.006 C 
HETATM   16  C14 UNL     1       3.586   1.498  -0.773  1.00  0.00     0.008 C 
HETATM   17  C15 UNL     1       3.959   0.276   0.045  1.00  0.00     0.018 C 
HETATM   18  C17 UNL     1       2.672  -0.507   0.115  1.00  0.00    -0.032 C 
HETATM   19  C18 UNL     1       3.057  -1.951   0.400  1.00  0.00     0.016 C 
HETATM   20  C19 UNL     1       1.832  -0.008   1.218  1.00  0.00     0.045 C 
HETATM   21  C20 UNL     1       0.365  -0.443   1.122  1.00  0.00     0.160 C 
HETATM   22  C21 UNL     1      -0.184   0.183  -0.128  1.00  0.00     0.142 C 
HETATM   23  F1  UNL     1      -0.022   1.528   0.041  1.00  0.00    -0.239 F 
HETATM   24  C22 UNL     1      -2.522  -0.601   0.584  1.00  0.00     0.028 C 
ENDROOT
BRANCH  21  25
HETATM   25  O3  UNL     1      -0.159   0.184   2.282  1.00  0.00    -0.392 OA
ATOM     26  H3  UNL     1      -1.068  -0.086   2.223  1.00  0.00     0.210 HD
ENDBRANCH  21  25
BRANCH  17  27
HETATM   27  C16 UNL     1       4.508   0.660   1.378  1.00  0.00     0.169 C 
BRANCH  27  28
HETATM   28  O2  UNL     1       4.831  -0.496   2.078  1.00  0.00    -0.400 OA
ATOM     29  H2  UNL     1       5.181  -0.251   2.927  1.00  0.00     0.209 HD
ENDBRANCH  27  28
ENDBRANCH  17  27
TORSDOF 3
