REMARK  3 active torsions:
REMARK  status: ('A' for Active; 'I' for Inactive)
REMARK    1  A    between atoms: C13_16  and  O2_17 
REMARK    2  A    between atoms: C15_20  and  C17_22 
REMARK    3  A    between atoms: C21_26  and  O3_27 
ROOT
HETATM    1  C1  UNL     1       0.077   3.658  -1.063  1.00  0.00     0.021 C 
HETATM    2  C2  UNL     1       0.221   2.405  -0.730  1.00  0.00    -0.038 C 
HETATM    3  C3  UNL     1       1.385   2.032   0.055  1.00  0.00     0.013 C 
HETATM    4  C4  UNL     1       1.836   0.836   0.287  1.00  0.00    -0.059 C 
HETATM    5  C5  UNL     1       3.067   0.955   1.150  1.00  0.00     0.113 C 
HETATM    6  C6  UNL     1       4.193   0.213   0.468  1.00  0.00     0.132 C 
HETATM    7  O1  UNL     1       5.324   0.645   0.480  1.00  0.00    -0.298 OA
HETATM    8  C7  UNL     1       3.896  -1.054  -0.220  1.00  0.00     0.099 C 
HETATM    9  C8  UNL     1       2.593  -0.915  -1.026  1.00  0.00     0.115 C 
HETATM   10  C9  UNL     1       2.470  -2.083  -1.820  1.00  0.00     0.065 C 
HETATM   11  N1  UNL     1       2.398  -3.024  -2.486  1.00  0.00    -0.197 NA
HETATM   12  C10 UNL     1       1.467  -0.545  -0.110  1.00  0.00     0.035 C 
HETATM   13  C11 UNL     1       1.530  -1.339   1.211  1.00  0.00     0.025 C 
HETATM   14  C12 UNL     1       0.091  -0.751  -0.615  1.00  0.00     0.148 C 
HETATM   15  F1  UNL     1       0.147  -0.995  -1.976  1.00  0.00    -0.238 F 
HETATM   16  C13 UNL     1      -0.652  -1.928  -0.010  1.00  0.00     0.160 C 
HETATM   17  C14 UNL     1      -2.069  -1.643  -0.546  1.00  0.00     0.049 C 
HETATM   18  C15 UNL     1      -2.257  -0.251  -0.069  1.00  0.00    -0.010 C 
HETATM   19  C16 UNL     1      -3.290   0.394  -1.005  1.00  0.00     0.021 C 
HETATM   20  C20 UNL     1      -0.898   0.346  -0.282  1.00  0.00     0.075 C 
HETATM   21  C21 UNL     1      -0.878   1.506  -1.228  1.00  0.00     0.158 C 
ENDROOT
BRANCH  16  22
HETATM   22  O2  UNL     1      -0.349  -3.162  -0.485  1.00  0.00    -0.392 OA
ATOM     23  H2  UNL     1      -0.814  -3.899  -0.106  1.00  0.00     0.210 HD
ENDBRANCH  16  22
BRANCH  18  24
HETATM   24  C17 UNL     1      -2.761  -0.162   1.285  1.00  0.00    -0.084 C 
HETATM   25  C18 UNL     1      -3.070  -1.220   1.996  1.00  0.00     0.015 C 
HETATM   26  C19 UNL     1      -2.984   1.160   1.984  1.00  0.00     0.043 C 
ENDBRANCH  18  24
BRANCH  21  27
HETATM   27  O3  UNL     1      -0.687   1.171  -2.558  1.00  0.00    -0.390 OA
ATOM     28  H3  UNL     1      -1.381   0.603  -2.872  1.00  0.00     0.210 HD
ENDBRANCH  21  27
TORSDOF 3
