REMARK  6 active torsions:
REMARK  status: ('A' for Active; 'I' for Inactive)
REMARK    1  A    between atoms: N1_2  and  C3_4 
REMARK    2  A    between atoms: C3_4  and  C4_5 
REMARK    3  A    between atoms: C4_5  and  N2_6 
REMARK    4  A    between atoms: N6_13  and  C5_14 
REMARK    5  A    between atoms: C5_14  and  N7_15 
REMARK    6  A    between atoms: C6_19  and  O1_20 
ROOT
HETATM    1  N2  UNL     1       0.598   0.589  -0.550  1.00  0.00    -0.238 N 
HETATM    2  N3  UNL     1       0.747   0.906  -1.826  1.00  0.00    -0.222 N 
ATOM      3  H3  UNL     1      -0.064   1.284  -2.317  1.00  0.00     0.210 HD
HETATM    4  N4  UNL     1       1.855   0.771  -2.503  1.00  0.00    -0.213 N 
ATOM      5  H4  UNL     1       1.899   1.036  -3.487  1.00  0.00     0.211 HD
HETATM    6  N5  UNL     1       2.918   0.284  -1.887  1.00  0.00    -0.220 N 
ATOM      7  H5  UNL     1       3.799   0.166  -2.388  1.00  0.00     0.210 HD
HETATM    8  N6  UNL     1       2.820  -0.048  -0.609  1.00  0.00    -0.213 N 
HETATM    9  C6  UNL     1       1.674   0.093   0.086  1.00  0.00     0.259 A 
ENDROOT
BRANCH   1  10
HETATM   10  C4  UNL     1      -0.670   0.771   0.126  1.00  0.00     0.184 C 
BRANCH  10  11
HETATM   11  C3  UNL     1      -1.542  -0.459   0.019  1.00  0.00     0.293 C 
BRANCH  11  12
HETATM   12  N1  UNL     1      -2.787  -0.272   0.687  1.00  0.00     0.081 N 
HETATM   13  C1  UNL     1      -3.627  -1.428   0.597  1.00  0.00     0.309 C 
HETATM   14  C2  UNL     1      -3.496   0.908   0.319  1.00  0.00     0.309 C 
ENDBRANCH  11  12
ENDBRANCH  10  11
ENDBRANCH   1  10
BRANCH   9  15
HETATM   15  O1  UNL     1       1.605  -0.269   1.437  1.00  0.00    -0.330 OA
ATOM     16  H1  UNL     1       2.365  -0.619   1.886  1.00  0.00     0.221 HD
ENDBRANCH   9  15
BRANCH   8  17
HETATM   17  C5  UNL     1       4.000  -0.586   0.066  1.00  0.00     0.383 C 
BRANCH  17  18
HETATM   18  N7  UNL     1       4.792   0.487   0.664  1.00  0.00    -0.061 N 
ATOM     19  H73 UNL     1       5.042   1.199  -0.023  1.00  0.00     0.276 HD
ATOM     20  H72 UNL     1       4.231   1.066   1.289  1.00  0.00     0.276 HD
ATOM     21  H71 UNL     1       5.615   0.112   1.135  1.00  0.00     0.276 HD
ENDBRANCH  17  18
ENDBRANCH   8  17
TORSDOF 6
