REMARK  8 active torsions:
REMARK  status: ('A' for Active; 'I' for Inactive)
REMARK    1  A    between atoms: O1_1  and  C1_3 
REMARK    2  A    between atoms: N1_5  and  C3_6 
REMARK    3  A    between atoms: C3_6  and  O2_7 
REMARK    4  A    between atoms: O2_7  and  N2_8 
REMARK    5  A    between atoms: N2_8  and  C4_9 
REMARK    6  A    between atoms: C4_9  and  C5_10 
REMARK    7  A    between atoms: C5_10  and  O3_11 
REMARK    8  A    between atoms: N5_17  and  O4_18 
ROOT
HETATM    1  C1  UNL     1      -4.054   0.114  -0.036  1.00  0.00     0.204 A 
HETATM    2  C2  UNL     1      -2.818  -0.482  -0.107  1.00  0.00     0.174 A 
HETATM    3  N1  UNL     1      -1.721   0.164  -0.559  1.00  0.00    -0.258 N 
HETATM    4  N3  UNL     1      -1.926   1.419  -0.930  1.00  0.00    -0.222 N 
ATOM      5  H3  UNL     1      -1.131   1.954  -1.279  1.00  0.00     0.210 HD
HETATM    6  N4  UNL     1      -3.099   2.013  -0.873  1.00  0.00    -0.199 N 
ATOM      7  H4  UNL     1      -3.181   2.983  -1.177  1.00  0.00     0.212 HD
HETATM    8  N5  UNL     1      -4.167   1.387  -0.434  1.00  0.00    -0.122 N 
ENDROOT
BRANCH   3   9
HETATM    9  C3  UNL     1      -0.414  -0.461  -0.635  1.00  0.00     0.345 C 
BRANCH   9  10
HETATM   10  O2  UNL     1       0.238  -0.237   0.574  1.00  0.00    -0.265 OA
BRANCH  10  11
HETATM   11  N2  UNL     1       1.469  -0.786   0.594  1.00  0.00    -0.097 NA
BRANCH  11  12
HETATM   12  C4  UNL     1       2.448   0.086  -0.010  1.00  0.00     0.168 C 
BRANCH  12  13
HETATM   13  C5  UNL     1       3.801  -0.604   0.053  1.00  0.00     0.182 C 
BRANCH  13  14
HETATM   14  O3  UNL     1       4.713   0.288  -0.547  1.00  0.00    -0.400 OA
ATOM     15  H3  UNL     1       5.559  -0.143  -0.508  1.00  0.00     0.209 HD
ENDBRANCH  13  14
ENDBRANCH  12  13
ENDBRANCH  11  12
ENDBRANCH  10  11
ENDBRANCH   9  10
ENDBRANCH   3   9
BRANCH   1  16
HETATM   16  O1  UNL     1      -5.149  -0.604   0.440  1.00  0.00    -0.342 OA
ATOM     17  H1  UNL     1      -6.004  -0.192   0.489  1.00  0.00     0.219 HD
ENDBRANCH   1  16
BRANCH   8  18
HETATM   18  O4  UNL     1      -5.402   2.038  -0.382  1.00  0.00    -0.265 OA
ATOM     19  H4  UNL     1      -5.482   2.941  -0.664  1.00  0.00     0.247 HD
ENDBRANCH   8  18
TORSDOF 8
