REMARK  5 active torsions:
REMARK  status: ('A' for Active; 'I' for Inactive)
REMARK    1  A    between atoms: N1_4  and  O1_5 
REMARK    2  A    between atoms: C4_7  and  S1_8 
REMARK    3  A    between atoms: S1_8  and  C5_9 
REMARK    4  A    between atoms: C5_9  and  C7_11 
REMARK    5  A    between atoms: C9_15  and  C10_16 
ROOT
HETATM    1  C1  UNL     1      -2.457  -2.369  -0.209  1.00  0.00     0.050 C 
HETATM    2  C2  UNL     1      -1.236  -1.562  -0.246  1.00  0.00    -0.037 A 
HETATM    3  C3  UNL     1       0.027  -2.110  -0.276  1.00  0.00     0.131 A 
HETATM    4  N1  UNL     1       1.159  -1.373  -0.305  1.00  0.00    -0.229 N 
HETATM    5  C4  UNL     1       1.104  -0.042  -0.306  1.00  0.00     0.100 A 
HETATM    6  C8  UNL     1      -0.159   0.524  -0.277  1.00  0.00     0.048 A 
HETATM    7  C9  UNL     1      -1.338  -0.185  -0.247  1.00  0.00    -0.041 A 
ENDROOT
BRANCH   5   8
HETATM    8  S1  UNL     1       2.500   1.053  -0.363  1.00  0.00    -0.095 SA
BRANCH   8   9
HETATM    9  C5  UNL     1       4.091   0.276  -0.243  1.00  0.00     0.150 C 
HETATM   10  C6  UNL     1       4.295  -0.269   1.161  1.00  0.00     0.033 C 
BRANCH   9  11
HETATM   11  C7  UNL     1       5.181   1.247  -0.564  1.00  0.00     0.187 C 
HETATM   12  O2  UNL     1       6.052   1.499   0.306  1.00  0.00    -0.647 OA
HETATM   13  O3  UNL     1       5.233   1.860  -1.797  1.00  0.00    -0.647 OA
ENDBRANCH   9  11
ENDBRANCH   8   9
ENDBRANCH   5   8
BRANCH   4  14
HETATM   14  O1  UNL     1       2.360  -2.021  -0.351  1.00  0.00    -0.282 OA
ATOM     15  H1  UNL     1       3.156  -1.503  -0.371  1.00  0.00     0.245 HD
ENDBRANCH   4  14
BRANCH   7  16
HETATM   16  C10 UNL     1      -2.613   0.529  -0.226  1.00  0.00    -0.024 C 
HETATM   17  C11 UNL     1      -3.435   0.193   1.000  1.00  0.00     0.019 C 
HETATM   18  C12 UNL     1      -3.418   0.409  -1.497  1.00  0.00     0.019 C 
HETATM   19  C13 UNL     1      -2.303   2.012  -0.101  1.00  0.00     0.019 C 
ENDBRANCH   7  16
TORSDOF 5
