REMARK  3 active torsions:
REMARK  status: ('A' for Active; 'I' for Inactive)
REMARK    1  A    between atoms: C2_2  and  C3_3 
REMARK    2  A    between atoms: C12_18  and  C13_19 
REMARK    3  A    between atoms: C13_19  and  C14_20 
ROOT
HETATM    1  C3  UNL     1       0.218   1.915  -0.789  1.00  0.00     0.272 C 
HETATM    2  C4  UNL     1       1.255   0.897  -0.425  1.00  0.00     0.052 A 
HETATM    3  N1  UNL     1       2.579   0.982  -0.155  1.00  0.00    -0.355 N 
ATOM      4  H1  UNL     1       3.113   1.851  -0.166  1.00  0.00     0.166 HD
HETATM    5  C5  UNL     1       3.102  -0.224   0.129  1.00  0.00     0.063 A 
HETATM    6  C6  UNL     1       4.362  -0.691   0.464  1.00  0.00     0.058 A 
HETATM    7  C7  UNL     1       4.608  -2.026   0.708  1.00  0.00     0.024 A 
HETATM    8  C8  UNL     1       5.959  -2.543   1.070  1.00  0.00     0.070 C 
HETATM    9  N2  UNL     1       3.562  -2.860   0.604  1.00  0.00    -0.305 N 
ATOM     10  H2  UNL     1       3.700  -3.856   0.775  1.00  0.00     0.186 HD
HETATM   11  N3  UNL     1       2.357  -2.421   0.285  1.00  0.00    -0.298 N 
ATOM     12  H3  UNL     1       1.606  -3.108   0.225  1.00  0.00     0.187 HD
HETATM   13  C9  UNL     1       2.047  -1.142   0.035  1.00  0.00     0.083 A 
HETATM   14  C10 UNL     1       0.938  -0.423  -0.304  1.00  0.00    -0.001 A 
HETATM   15  C11 UNL     1      -0.456  -0.866  -0.540  1.00  0.00     0.079 C 
HETATM   16  C12 UNL     1      -1.460   0.180  -0.707  1.00  0.00     0.228 C 
HETATM   17  N4  UNL     1      -1.070   1.527  -0.378  1.00  0.00     0.099 N 
HETATM   18  C17 UNL     1      -2.034   2.476  -0.923  1.00  0.00     0.311 C 
ENDROOT
BRANCH  16  19
HETATM   19  C13 UNL     1      -2.761  -0.116  -0.072  1.00  0.00     0.040 C 
BRANCH  19  20
HETATM   20  C14 UNL     1      -3.551  -1.279  -0.490  1.00  0.00    -0.021 C 
HETATM   21  C15 UNL     1      -4.871  -1.296   0.341  1.00  0.00     0.009 C 
HETATM   22  C16 UNL     1      -3.004  -2.644  -0.333  1.00  0.00     0.009 C 
ENDBRANCH  19  20
ENDBRANCH  16  19
BRANCH   1  23
HETATM   23  C2  UNL     1       0.594   3.226  -0.095  1.00  0.00     0.038 C 
HETATM   24  C1  UNL     1       0.639   3.088   1.393  1.00  0.00     0.007 C 
ENDBRANCH   1  23
TORSDOF 3
