REMARK  11 active torsions:
REMARK  status: ('A' for Active; 'I' for Inactive)
REMARK    1  A    between atoms: C2_2  and  C4_4 
REMARK    2  A    between atoms: C4_4  and  N1_5 
REMARK    3  A    between atoms: C4_4  and  C11_28 
REMARK       I    between atoms: N1_5  and  C5_6 
REMARK    4  A    between atoms: C5_6  and  C6_8 
REMARK    5  A    between atoms: C6_8  and  N2_9 
REMARK    6  A    between atoms: C6_8  and  C7_13 
REMARK    7  A    between atoms: C7_13  and  C8_14 
REMARK    8  A    between atoms: C8_14  and  C9_15 
REMARK    9  A    between atoms: C9_15  and  N3_16 
REMARK       I    between atoms: N3_16  and  C10_19 
REMARK       I    between atoms: C10_19  and  N4_20 
REMARK       I    between atoms: C10_19  and  N5_24 
REMARK   10  A    between atoms: C11_28  and  C13_30 
REMARK   11  A    between atoms: C18_39  and  O3_40 
ROOT
HETATM    1  O3  UNL     1       4.734   1.239  -2.102  1.00  0.00    -0.273 OA
HETATM    2  C19 UNL     1       4.448   1.937  -3.218  1.00  0.00     0.229 C 
HETATM    3  N7  UNL     1       4.197   2.547  -4.179  1.00  0.00    -0.164 NA
ENDROOT
BRANCH   1   4
HETATM    4  C18 UNL     1       4.473   1.748  -0.790  1.00  0.00     0.203 C 
HETATM    5  C16 UNL     1       5.803   1.983  -0.030  1.00  0.00     0.153 C 
HETATM    6  O2  UNL     1       5.889   1.033   0.963  1.00  0.00    -0.349 OA
HETATM    7  C17 UNL     1       5.862   3.398   0.480  1.00  0.00     0.042 C 
HETATM    8  C15 UNL     1       5.197  -0.037   0.470  1.00  0.00     0.353 C 
HETATM    9  N6  UNL     1       4.749  -0.988   1.417  1.00  0.00    -0.044 N 
HETATM   10  C20 UNL     1       3.880   0.646   0.038  1.00  0.00     0.211 C 
HETATM   11  C14 UNL     1       4.155  -2.036   0.611  1.00  0.00     0.267 C 
ATOM     12  H62 UNL     1       4.129  -0.607   2.132  1.00  0.00     0.280 HD
ATOM     13  H61 UNL     1       5.472  -1.312   2.059  1.00  0.00     0.280 HD
HETATM   14  C13 UNL     1       2.942  -1.490  -0.167  1.00  0.00     0.154 C 
HETATM   15  O4  UNL     1       3.020  -0.199  -0.516  1.00  0.00    -0.371 OA
BRANCH  14  16
HETATM   16  C11 UNL     1       1.791  -2.011   0.592  1.00  0.00     0.048 C 
HETATM   17  C12 UNL     1       1.947  -3.561   0.530  1.00  0.00     0.016 C 
BRANCH  16  18
HETATM   18  C4  UNL     1       0.387  -1.732   0.183  1.00  0.00     0.176 C 
BRANCH  18  19
HETATM   19  C2  UNL     1      -0.431  -2.475   1.216  1.00  0.00     0.014 C 
HETATM   20  C1  UNL     1      -1.806  -2.868   0.840  1.00  0.00     0.012 C 
HETATM   21  C3  UNL     1      -0.570  -1.634   2.477  1.00  0.00     0.012 C 
ENDBRANCH  18  19
BRANCH  18  22
HETATM   22  N1  UNL     1      -0.081  -0.477  -0.161  1.00  0.00    -0.407 NA
HETATM   23  C5  UNL     1      -0.534   0.777  -0.495  1.00  0.00     0.317 C 
HETATM   24  O1  UNL     1       0.043   1.828  -0.162  1.00  0.00    -0.255 OA
BRANCH  23  25
HETATM   25  C6  UNL     1      -1.799   0.969  -1.315  1.00  0.00     0.289 C 
BRANCH  25  26
HETATM   26  N2  UNL     1      -1.737   0.227  -2.531  1.00  0.00    -0.065 N 
ATOM     27  H23 UNL     1      -0.901   0.456  -3.069  1.00  0.00     0.275 HD
ATOM     28  H22 UNL     1      -1.546  -0.760  -2.360  1.00  0.00     0.275 HD
ATOM     29  H21 UNL     1      -2.586   0.356  -3.081  1.00  0.00     0.275 HD
ENDBRANCH  25  26
BRANCH  25  30
HETATM   30  C7  UNL     1      -2.963   0.636  -0.452  1.00  0.00     0.045 C 
BRANCH  30  31
HETATM   31  C8  UNL     1      -4.280   0.666  -1.221  1.00  0.00     0.030 C 
BRANCH  31  32
HETATM   32  C9  UNL     1      -5.347   0.183  -0.226  1.00  0.00     0.237 C 
BRANCH  32  33
HETATM   33  N3  UNL     1      -5.601   1.057   0.846  1.00  0.00    -0.022 N 
HETATM   34  C10 UNL     1      -6.329   2.258   0.437  1.00  0.00     0.575 C 
HETATM   35  N4  UNL     1      -7.612   1.849  -0.141  1.00  0.00    -0.026 N 
HETATM   36  N5  UNL     1      -6.619   3.023   1.622  1.00  0.00    -0.026 N 
ATOM     37  H43 UNL     1      -7.503   1.179  -0.902  1.00  0.00     0.278 HD
ATOM     38  H42 UNL     1      -8.154   1.258   0.489  1.00  0.00     0.278 HD
ATOM     39  H41 UNL     1      -8.120   2.686  -0.426  1.00  0.00     0.278 HD
ATOM     40  H53 UNL     1      -7.115   2.482   2.331  1.00  0.00     0.278 HD
ATOM     41  H52 UNL     1      -5.785   3.233   2.171  1.00  0.00     0.278 HD
ATOM     42  H51 UNL     1      -7.127   3.860   1.337  1.00  0.00     0.278 HD
ATOM     43  H32 UNL     1      -6.086   0.576   1.603  1.00  0.00     0.281 HD
ATOM     44  H31 UNL     1      -4.738   1.301   1.331  1.00  0.00     0.281 HD
ENDBRANCH  32  33
ENDBRANCH  31  32
ENDBRANCH  30  31
ENDBRANCH  25  30
ENDBRANCH  23  25
ENDBRANCH  18  22
ENDBRANCH  16  18
ENDBRANCH  14  16
ENDBRANCH   1   4
TORSDOF 11
