REMARK  17 active torsions:
REMARK  status: ('A' for Active; 'I' for Inactive)
REMARK    1  A    between atoms: C2_2  and  C3_3 
REMARK    2  A    between atoms: C3_3  and  C4_4 
REMARK    3  A    between atoms: C8_8  and  C9_9 
REMARK    4  A    between atoms: C9_9  and  C10_10 
REMARK    5  A    between atoms: C9_9  and  O2_13 
REMARK    6  A    between atoms: C10_10  and  O1_11 
REMARK    7  A    between atoms: O2_13  and  C11_14 
REMARK    8  A    between atoms: C11_14  and  O3_15 
REMARK    9  A    between atoms: C11_14  and  C12_17 
REMARK   10  A    between atoms: C12_17  and  N1_18 
REMARK   11  A    between atoms: N1_18  and  C13_21 
REMARK   12  A    between atoms: C14_22  and  O4_23 
REMARK   13  A    between atoms: C15_25  and  N2_26 
REMARK       I    between atoms: N2_26  and  C16_28 
REMARK   14  A    between atoms: C18_31  and  O6_32 
REMARK   15  A    between atoms: C19_34  and  N3_35 
REMARK   16  A    between atoms: N3_35  and  N4_37 
REMARK   17  A    between atoms: N4_37  and  N5_38 
ROOT
HETATM    1  N1  UNL     1       1.830  -2.175  -0.313  1.00  0.00    -0.062 N 
ATOM      2  H11 UNL     1       1.944  -1.810  -1.259  1.00  0.00     0.277 HD
ATOM      3  H12 UNL     1       1.980  -3.166  -0.503  1.00  0.00     0.277 HD
ENDROOT
BRANCH   1   4
HETATM    4  C12 UNL     1       0.495  -1.933   0.184  1.00  0.00     0.293 C 
BRANCH   4   5
HETATM    5  C11 UNL     1      -0.457  -2.532  -0.852  1.00  0.00     0.283 C 
BRANCH   5   6
HETATM    6  O2  UNL     1      -1.780  -2.389  -0.527  1.00  0.00    -0.350 OA
BRANCH   6   7
HETATM    7  C9  UNL     1      -2.526  -1.710  -1.453  1.00  0.00     0.177 C 
BRANCH   7   8
HETATM    8  C8  UNL     1      -3.218  -0.462  -0.863  1.00  0.00     0.153 C 
HETATM    9  C7  UNL     1      -4.125   0.077  -1.908  1.00  0.00     0.035 C 
HETATM   10  C6  UNL     1      -4.335   1.540  -1.896  1.00  0.00     0.005 C 
HETATM   11  C5  UNL     1      -3.241   2.341  -1.256  1.00  0.00     0.032 C 
HETATM   12  C4  UNL     1      -2.500   1.660  -0.167  1.00  0.00     0.122 C 
HETATM   13  O7  UNL     1      -2.229   0.336  -0.407  1.00  0.00    -0.378 OA
BRANCH  12  14
HETATM   14  C3  UNL     1      -2.951   1.992   1.220  1.00  0.00     0.032 C 
BRANCH  14  15
HETATM   15  C2  UNL     1      -4.341   1.703   1.594  1.00  0.00    -0.002 C 
HETATM   16  C1  UNL     1      -4.543   2.142   3.055  1.00  0.00     0.005 C 
ENDBRANCH  14  15
ENDBRANCH  12  14
ENDBRANCH   7   8
BRANCH   7  17
HETATM   17  C10 UNL     1      -3.609  -2.656  -1.976  1.00  0.00     0.198 C 
BRANCH  17  18
HETATM   18  O1  UNL     1      -2.917  -3.739  -2.548  1.00  0.00    -0.398 OA
ATOM     19  H1  UNL     1      -3.589  -4.326  -2.873  1.00  0.00     0.209 HD
ENDBRANCH  17  18
ENDBRANCH   7  17
ENDBRANCH   6   7
ENDBRANCH   5   6
BRANCH   5  20
HETATM   20  O3  UNL     1      -0.058  -3.858  -1.028  1.00  0.00    -0.370 OA
ATOM     21  H3  UNL     1       0.860  -3.957  -1.253  1.00  0.00     0.212 HD
ENDBRANCH   5  20
ENDBRANCH   4   5
ENDBRANCH   1   4
BRANCH   1  22
HETATM   22  C13 UNL     1       2.845  -1.652   0.578  1.00  0.00     0.244 C 
HETATM   23  C14 UNL     1       2.660  -0.151   0.643  1.00  0.00     0.176 C 
HETATM   24  C15 UNL     1       4.004   0.467   0.329  1.00  0.00     0.146 C 
HETATM   25  C18 UNL     1       5.017  -0.643   0.510  1.00  0.00     0.170 C 
HETATM   26  C19 UNL     1       4.230  -1.860   0.066  1.00  0.00     0.178 C 
BRANCH  23  27
HETATM   27  O4  UNL     1       2.187   0.242   1.887  1.00  0.00    -0.391 OA
ATOM     28  H4  UNL     1       2.071   1.184   1.928  1.00  0.00     0.210 HD
ENDBRANCH  23  27
BRANCH  24  29
HETATM   29  N2  UNL     1       4.226   1.573   1.205  1.00  0.00    -0.352 N 
HETATM   30  C16 UNL     1       4.463   2.862   0.671  1.00  0.00     0.214 C 
HETATM   31  C17 UNL     1       4.696   4.023   1.563  1.00  0.00     0.117 C 
HETATM   32  O5  UNL     1       4.483   3.057  -0.571  1.00  0.00    -0.274 OA
ATOM     33  H2  UNL     1       4.214   1.434   2.215  1.00  0.00     0.163 HD
ENDBRANCH  24  29
BRANCH  25  34
HETATM   34  O6  UNL     1       6.058  -0.409  -0.395  1.00  0.00    -0.391 OA
ATOM     35  H6  UNL     1       6.694  -1.106  -0.281  1.00  0.00     0.210 HD
ENDBRANCH  25  34
BRANCH  26  36
HETATM   36  N3  UNL     1       4.865  -3.036   0.648  1.00  0.00    -0.243 N 
ATOM     37  H3  UNL     1       4.562  -3.424   1.541  1.00  0.00     0.197 HD
BRANCH  36  38
HETATM   38  N4  UNL     1       5.786  -3.535   0.003  1.00  0.00    -0.248 NA
BRANCH  38  39
HETATM   39  N5  UNL     1       6.552  -4.196  -0.731  1.00  0.00    -0.261 N 
ATOM     40  H52 UNL     1       5.770  -4.792  -1.003  1.00  0.00     0.193 HD
ATOM     41  H51 UNL     1       7.316  -4.610  -1.266  1.00  0.00     0.193 HD
ENDBRANCH  38  39
ENDBRANCH  36  38
ENDBRANCH  26  36
ENDBRANCH   1  22
TORSDOF 17
