REMARK  6 active torsions:
REMARK  status: ('A' for Active; 'I' for Inactive)
REMARK    1  A    between atoms: C2_2  and  O1_3 
REMARK    2  A    between atoms: O1_3  and  C3_4 
REMARK    3  A    between atoms: C3_4  and  N1_5 
REMARK    4  A    between atoms: C5_12  and  N4_13 
REMARK    5  A    between atoms: C8_18  and  O2_19 
REMARK    6  A    between atoms: C9_21  and  O3_22 
ROOT
HETATM    1  N4  UNL     1      -1.925  -2.957  -0.197  1.00  0.00    -0.278 N 
ATOM      2  H4  UNL     1      -2.837  -2.501  -0.184  1.00  0.00     0.179 HD
HETATM    3  C6  UNL     1      -1.889  -4.332  -0.333  1.00  0.00     0.183 C 
HETATM    4  N5  UNL     1      -1.854  -5.480  -0.463  1.00  0.00    -0.172 NA
ENDROOT
BRANCH   1   5
HETATM    5  C5  UNL     1      -0.889  -2.225  -0.087  1.00  0.00     0.145 A 
HETATM    6  N3  UNL     1       0.315  -2.819  -0.103  1.00  0.00    -0.175 N 
HETATM    7  C4  UNL     1       1.422  -2.094   0.010  1.00  0.00     0.682 A 
ATOM      8  H3  UNL     1       0.380  -3.832  -0.202  1.00  0.00     0.186 HD
HETATM    9  N1  UNL     1       1.429  -0.731   0.146  1.00  0.00    -0.155 N 
HETATM   10  N2  UNL     1       2.603  -2.651  -0.008  1.00  0.00    -0.234 N 
HETATM   11  C13 UNL     1       0.214  -0.118   0.162  1.00  0.00     0.139 A 
HETATM   12  C7  UNL     1      -0.975  -0.868   0.045  1.00  0.00     0.080 A 
HETATM   13  C12 UNL     1       0.134   1.251   0.289  1.00  0.00     0.278 A 
HETATM   14  C8  UNL     1      -2.179  -0.195   0.063  1.00  0.00     0.134 A 
HETATM   15  C9  UNL     1      -2.207   1.217   0.197  1.00  0.00     0.181 A 
HETATM   16  N6  UNL     1      -1.066   1.866   0.302  1.00  0.00    -0.295 N 
HETATM   17  C11 UNL     1      -1.057   3.329   0.441  1.00  0.00     0.162 C 
HETATM   18  O4  UNL     1       1.176   1.927   0.392  1.00  0.00    -0.265 OA
ATOM     19  H22 UNL     1       3.453  -2.094   0.079  1.00  0.00     0.174 HD
ATOM     20  H21 UNL     1       2.598  -3.666  -0.109  1.00  0.00     0.174 HD
BRANCH   9  21
HETATM   21  C3  UNL     1       2.644  -0.006   0.265  1.00  0.00     0.324 C 
BRANCH  21  22
HETATM   22  O1  UNL     1       3.186   0.443  -0.963  1.00  0.00    -0.344 OA
BRANCH  22  23
HETATM   23  C2  UNL     1       4.355   1.151  -1.102  1.00  0.00     0.126 C 
HETATM   24  C1  UNL     1       5.218   1.167  -0.114  1.00  0.00     0.037 C 
ENDBRANCH  22  23
ENDBRANCH  21  22
ENDBRANCH   9  21
BRANCH  14  25
HETATM   25  O2  UNL     1      -3.359  -0.812  -0.041  1.00  0.00    -0.356 OA
ATOM     26  H2  UNL     1      -4.188  -0.349  -0.029  1.00  0.00     0.218 HD
ENDBRANCH  14  25
BRANCH  15  27
HETATM   27  O3  UNL     1      -3.388   1.876   0.214  1.00  0.00    -0.338 OA
HETATM   28  C10 UNL     1      -4.684   1.393   0.119  1.00  0.00     0.211 C 
ENDBRANCH  15  27
ENDBRANCH   1   5
TORSDOF 6
