REMARK  7 active torsions:
REMARK  status: ('A' for Active; 'I' for Inactive)
REMARK    1  A    between atoms: N1_2  and  C2_4 
REMARK    2  A    between atoms: N3_8  and  C4_9 
REMARK    3  A    between atoms: C4_9  and  C5_10 
REMARK    4  A    between atoms: C5_10  and  C6_11 
REMARK    5  A    between atoms: C6_11  and  N4_12 
REMARK    6  A    between atoms: N4_12  and  C7_14 
REMARK    7  A    between atoms: C10_21  and  N7_22 
ROOT
HETATM    1  C7  UNL     1      -2.130   0.556  -1.009  1.00  0.00     0.131 A 
HETATM    2  N5  UNL     1      -2.721   1.402  -1.907  1.00  0.00    -0.337 N 
ATOM      3  H5  UNL     1      -2.156   1.817  -2.648  1.00  0.00     0.168 HD
HETATM    4  C8  UNL     1      -4.025   1.697  -1.835  1.00  0.00     0.182 A 
HETATM    5  N6  UNL     1      -4.846   1.199  -0.897  1.00  0.00    -0.347 N 
ATOM      6  H6  UNL     1      -5.835   1.447  -0.874  1.00  0.00     0.167 HD
HETATM    7  C9  UNL     1      -4.321   0.367   0.005  1.00  0.00     0.108 A 
HETATM    8  C10 UNL     1      -5.149  -0.155   0.977  1.00  0.00     0.129 A 
HETATM    9  N8  UNL     1      -4.613  -0.988   1.877  1.00  0.00    -0.337 N 
ATOM     10  H8  UNL     1      -5.202  -1.389   2.607  1.00  0.00     0.168 HD
HETATM   11  C11 UNL     1      -3.296  -1.305   1.829  1.00  0.00     0.182 A 
HETATM   12  N9  UNL     1      -2.520  -0.786   0.880  1.00  0.00    -0.347 N 
ATOM     13  H9  UNL     1      -1.533  -1.042   0.869  1.00  0.00     0.167 HD
HETATM   14  C12 UNL     1      -2.960   0.042  -0.047  1.00  0.00     0.108 A 
ENDROOT
BRANCH   1  15
HETATM   15  N4  UNL     1      -0.922   0.337  -1.147  1.00  0.00    -0.374 N 
ATOM     16  H4  UNL     1      -0.540   0.845  -1.945  1.00  0.00     0.161 HD
BRANCH  15  17
HETATM   17  C6  UNL     1       0.066  -0.421  -0.504  1.00  0.00     0.123 C 
BRANCH  17  18
HETATM   18  C5  UNL     1       0.768   0.498   0.507  1.00  0.00     0.041 C 
BRANCH  18  19
HETATM   19  C4  UNL     1       1.844  -0.204   1.264  1.00  0.00     0.152 C 
BRANCH  19  20
HETATM   20  N3  UNL     1       2.894  -0.735   0.452  1.00  0.00    -0.273 N 
HETATM   21  C3  UNL     1       3.018  -1.941  -0.125  1.00  0.00     0.218 A 
HETATM   22  N2  UNL     1       4.171  -2.008  -0.799  1.00  0.00    -0.185 N 
HETATM   23  C2  UNL     1       4.794  -0.819  -0.648  1.00  0.00     0.693 A 
ATOM     24  H2  UNL     1       4.516  -2.808  -1.329  1.00  0.00     0.185 HD
HETATM   25  N10 UNL     1       3.984  -0.071   0.120  1.00  0.00    -0.129 N 
ATOM     26  H10 UNL     1       4.186   0.886   0.409  1.00  0.00     0.206 HD
BRANCH  23  27
HETATM   27  N1  UNL     1       5.943  -0.524  -1.168  1.00  0.00    -0.229 N 
HETATM   28  C1  UNL     1       6.461   0.815  -0.896  1.00  0.00     0.165 C 
ATOM     29  H1  UNL     1       6.460  -1.193  -1.739  1.00  0.00     0.177 HD
ENDBRANCH  23  27
ENDBRANCH  19  20
ENDBRANCH  18  19
ENDBRANCH  17  18
ENDBRANCH  15  17
ENDBRANCH   1  15
BRANCH   8  30
HETATM   30  N7  UNL     1      -6.420   0.142   1.035  1.00  0.00    -0.384 N 
ATOM     31  H72 UNL     1      -6.829   0.777   0.349  1.00  0.00     0.157 HD
ATOM     32  H71 UNL     1      -7.032  -0.244   1.754  1.00  0.00     0.157 HD
ENDBRANCH   8  30
TORSDOF 7
