REMARK  6 active torsions:
REMARK  status: ('A' for Active; 'I' for Inactive)
REMARK    1  A    between atoms: C2_3  and  N2_4 
REMARK    2  A    between atoms: C5_15  and  S1_16 
REMARK    3  A    between atoms: S1_16  and  C6_17 
REMARK    4  A    between atoms: C6_17  and  C7_18 
REMARK    5  A    between atoms: C7_18  and  N6_19 
REMARK    6  A    between atoms: C11_26  and  N8_27 
ROOT
HETATM    1  C1  UNL     1       4.374  -0.440   1.672  1.00  0.00     0.176 C 
HETATM    2  N1  UNL     1       4.405   0.249   0.386  1.00  0.00    -0.181 N 
HETATM    3  C2  UNL     1       5.422   0.962  -0.134  1.00  0.00     0.680 A 
HETATM    4  N3  UNL     1       5.072   1.443  -1.346  1.00  0.00    -0.174 N 
ATOM      5  H3  UNL     1       5.658   2.015  -1.954  1.00  0.00     0.186 HD
HETATM    6  C3  UNL     1       3.800   1.032  -1.618  1.00  0.00     0.152 A 
HETATM    7  N4  UNL     1       2.994   1.239  -2.692  1.00  0.00    -0.336 N 
ATOM      8  H4  UNL     1       3.308   1.791  -3.490  1.00  0.00     0.168 HD
HETATM    9  C4  UNL     1       1.768   0.690  -2.665  1.00  0.00     0.183 A 
HETATM   10  N5  UNL     1       1.400  -0.022  -1.609  1.00  0.00    -0.345 N 
ATOM     11  H5  UNL     1       0.462  -0.421  -1.633  1.00  0.00     0.167 HD
HETATM   12  C5  UNL     1       2.125  -0.272  -0.519  1.00  0.00     0.102 A 
HETATM   13  C13 UNL     1       3.412   0.297  -0.533  1.00  0.00     0.129 A 
ENDROOT
BRANCH  12  14
HETATM   14  S1  UNL     1       1.676  -1.195   0.879  1.00  0.00    -0.108 SA
BRANCH  14  15
HETATM   15  C6  UNL     1       0.114  -1.959   1.026  1.00  0.00     0.100 C 
BRANCH  15  16
HETATM   16  C7  UNL     1      -1.106  -1.113   1.142  1.00  0.00     0.127 C 
BRANCH  16  17
HETATM   17  N6  UNL     1      -1.456  -0.348   0.006  1.00  0.00    -0.408 N 
HETATM   18  C8  UNL     1      -1.979  -1.147  -1.087  1.00  0.00     0.144 C 
HETATM   19  C9  UNL     1      -3.483  -1.112  -1.152  1.00  0.00     0.251 C 
HETATM   20  N7  UNL     1      -4.008   0.203  -1.363  1.00  0.00    -0.072 N 
HETATM   21  C10 UNL     1      -4.541   0.802  -0.154  1.00  0.00     0.266 C 
ATOM     22  H72 UNL     1      -3.309   0.809  -1.792  1.00  0.00     0.277 HD
ATOM     23  H71 UNL     1      -4.706   0.201  -2.107  1.00  0.00     0.277 HD
HETATM   24  C11 UNL     1      -3.462   0.618   0.922  1.00  0.00     0.226 C 
HETATM   25  C12 UNL     1      -2.145   0.867   0.249  1.00  0.00     0.151 C 
BRANCH  24  26
HETATM   26  N8  UNL     1      -3.672   1.555   2.011  1.00  0.00    -0.072 N 
ATOM     27  H83 UNL     1      -3.719   2.519   1.680  1.00  0.00     0.274 HD
ATOM     28  H82 UNL     1      -4.613   1.483   2.399  1.00  0.00     0.274 HD
ATOM     29  H81 UNL     1      -2.955   1.433   2.726  1.00  0.00     0.274 HD
ENDBRANCH  24  26
ENDBRANCH  16  17
ENDBRANCH  15  16
ENDBRANCH  14  15
ENDBRANCH  12  14
BRANCH   3  30
HETATM   30  N2  UNL     1       6.580   1.192   0.389  1.00  0.00    -0.234 N 
ATOM     31  H22 UNL     1       6.844   0.829   1.305  1.00  0.00     0.174 HD
ATOM     32  H21 UNL     1       7.350   1.732  -0.005  1.00  0.00     0.174 HD
ENDBRANCH   3  30
TORSDOF 6
