REMARK  5 active torsions:
REMARK  status: ('A' for Active; 'I' for Inactive)
REMARK    1  A    between atoms: C2_2  and  C3_3 
REMARK    2  A    between atoms: N3_11  and  N4_13 
REMARK       I    between atoms: N4_13  and  C7_15 
REMARK       I    between atoms: C7_15  and  N5_17 
REMARK    3  A    between atoms: N5_17  and  C8_19 
REMARK    4  A    between atoms: N6_22  and  N7_23 
REMARK    5  A    between atoms: N7_23  and  C11_25 
ROOT
HETATM    1  C3  UNL     1      -2.677  -1.917  -0.495  1.00  0.00     0.122 A 
HETATM    2  N1  UNL     1      -1.914  -2.800  -1.159  1.00  0.00    -0.333 N 
ATOM      3  H1  UNL     1      -2.319  -3.698  -1.424  1.00  0.00     0.168 HD
HETATM    4  C4  UNL     1      -0.647  -2.547  -1.485  1.00  0.00     0.095 A 
HETATM    5  C5  UNL     1       0.234  -3.496  -2.229  1.00  0.00     0.089 C 
HETATM    6  N2  UNL     1      -0.156  -1.366  -1.122  1.00  0.00    -0.178 N 
ATOM      7  H2  UNL     1       0.811  -1.144  -1.358  1.00  0.00     0.185 HD
HETATM    8  C6  UNL     1      -0.888  -0.448  -0.452  1.00  0.00     0.721 A 
HETATM    9  N3  UNL     1      -0.361   0.648  -0.138  1.00  0.00    -0.126 N 
ATOM     10  H3  UNL     1      -0.979   1.286   0.363  1.00  0.00     0.206 HD
HETATM   11  N6  UNL     1      -2.188  -0.724  -0.125  1.00  0.00    -0.070 N 
ENDROOT
BRANCH   9  12
HETATM   12  N4  UNL     1       0.882   1.124  -0.351  1.00  0.00    -0.237 N 
HETATM   13  C7  UNL     1       2.130   0.532  -0.111  1.00  0.00     0.335 C 
HETATM   14  O1  UNL     1       2.216  -0.619   0.375  1.00  0.00    -0.246 OA
HETATM   15  N5  UNL     1       3.338   1.204  -0.405  1.00  0.00    -0.338 N 
ATOM     16  H5  UNL     1       3.269   2.141  -0.801  1.00  0.00     0.164 HD
ATOM     17  H4  UNL     1       0.921   2.062  -0.749  1.00  0.00     0.192 HD
BRANCH  15  18
HETATM   18  C8  UNL     1       4.659   0.672  -0.190  1.00  0.00     0.078 C 
HETATM   19  C9  UNL     1       5.417   0.811  -1.522  1.00  0.00     0.032 C 
HETATM   20  C10 UNL     1       5.361   1.526   0.860  1.00  0.00     0.032 C 
ENDBRANCH  15  18
ENDBRANCH   9  12
BRANCH  11  21
HETATM   21  N7  UNL     1      -2.961   0.173   0.546  1.00  0.00    -0.249 N 
ATOM     22  H7  UNL     1      -3.920  -0.115   0.738  1.00  0.00     0.191 HD
BRANCH  21  23
HETATM   23  C11 UNL     1      -2.588   1.470   1.013  1.00  0.00     0.191 C 
HETATM   24  N8  UNL     1      -2.734   2.602   0.369  1.00  0.00    -0.360 N 
HETATM   25  C12 UNL     1      -2.237   3.699   1.167  1.00  0.00     0.142 C 
ATOM     26  H8  UNL     1      -3.140   2.695  -0.562  1.00  0.00     0.162 HD
HETATM   27  C13 UNL     1      -2.065   3.124   2.543  1.00  0.00     0.142 C 
HETATM   28  N9  UNL     1      -1.997   1.694   2.282  1.00  0.00    -0.360 N 
ATOM     29  H9  UNL     1      -1.598   0.985   2.897  1.00  0.00     0.162 HD
ENDBRANCH  21  23
ENDBRANCH  11  21
BRANCH   1  30
HETATM   30  C2  UNL     1      -4.080  -2.315  -0.180  1.00  0.00     0.075 C 
HETATM   31  C1  UNL     1      -4.346  -3.701  -0.685  1.00  0.00     0.013 C 
ENDBRANCH   1  30
TORSDOF 5
