REMARK  5 active torsions:
REMARK  status: ('A' for Active; 'I' for Inactive)
REMARK    1  A    between atoms: C2_2  and  N1_4 
REMARK    2  A    between atoms: N1_4  and  N2_5 
REMARK       I    between atoms: N2_5  and  C4_7 
REMARK    3  A    between atoms: C4_7  and  C5_9 
REMARK    4  A    between atoms: C5_9  and  C6_10 
REMARK    5  A    between atoms: C5_9  and  N3_13 
ROOT
HETATM    1  C5  UNL     1      -0.399  -1.013  -0.652  1.00  0.00     0.203 C 
ENDROOT
BRANCH   1   2
HETATM    2  C4  UNL     1       0.986  -0.677  -0.849  1.00  0.00     0.258 C 
HETATM    3  N2  UNL     1       1.589   0.544  -0.512  1.00  0.00    -0.272 N 
ATOM      4  H2  UNL     1       1.006   1.262  -0.083  1.00  0.00     0.185 HD
HETATM    5  O1  UNL     1       1.752  -1.555  -1.382  1.00  0.00    -0.270 OA
BRANCH   3   6
HETATM    6  N1  UNL     1       2.928   0.836  -0.726  1.00  0.00    -0.135 NA
BRANCH   6   7
HETATM    7  C2  UNL     1       3.622   1.300   0.434  1.00  0.00     0.091 C 
HETATM    8  C1  UNL     1       3.605   0.158   1.459  1.00  0.00     0.029 C 
HETATM    9  C3  UNL     1       5.050   1.686   0.142  1.00  0.00     0.029 C 
ENDBRANCH   6   7
ENDBRANCH   3   6
ENDBRANCH   1   2
BRANCH   1  10
HETATM   10  C6  UNL     1      -0.641  -2.402  -0.042  1.00  0.00     0.011 C 
HETATM   11  C7  UNL     1      -2.149  -2.609   0.092  1.00  0.00     0.012 C 
HETATM   12  C8  UNL     1      -0.108  -3.488  -0.933  1.00  0.00     0.012 C 
ENDBRANCH   1  10
BRANCH   1  13
HETATM   13  N3  UNL     1      -1.258  -0.128   0.008  1.00  0.00    -0.287 N 
HETATM   14  C9  UNL     1      -1.571   1.135  -0.524  1.00  0.00     0.109 C 
HETATM   15  C10 UNL     1      -3.079   1.343  -0.380  1.00  0.00     0.122 C 
HETATM   16  C11 UNL     1      -3.400   2.821  -0.378  1.00  0.00     0.038 C 
HETATM   17  N4  UNL     1      -3.556   0.822   0.878  1.00  0.00    -0.333 N 
HETATM   18  C12 UNL     1      -2.654   0.301   1.873  1.00  0.00     0.335 C 
ATOM     19  H4  UNL     1      -4.558   0.823   1.068  1.00  0.00     0.165 HD
HETATM   20  O2  UNL     1      -2.931   0.369   3.091  1.00  0.00    -0.246 OA
HETATM   21  N5  UNL     1      -1.462  -0.278   1.355  1.00  0.00    -0.249 N 
ATOM     22  H5  UNL     1      -0.799  -0.775   1.950  1.00  0.00     0.192 HD
ENDBRANCH   1  13
TORSDOF 5
