REMARK  6 active torsions:
REMARK  status: ('A' for Active; 'I' for Inactive)
REMARK    1  A    between atoms: C2_2  and  N1_5 
REMARK       I    between atoms: N1_5  and  C5_7 
REMARK    2  A    between atoms: C5_7  and  C6_9 
REMARK    3  A    between atoms: C6_9  and  N2_10 
REMARK    4  A    between atoms: C6_9  and  N3_14 
REMARK    5  A    between atoms: N2_10  and  C7_12 
REMARK       I    between atoms: N3_14  and  C8_16 
REMARK    6  A    between atoms: C8_16  and  C9_18 
ROOT
HETATM    1  C6  UNL     1       0.709  -1.263   0.943  1.00  0.00     0.280 C 
ENDROOT
BRANCH   1   2
HETATM    2  C5  UNL     1       1.533  -0.061   0.587  1.00  0.00     0.261 C 
HETATM    3  N1  UNL     1       2.893  -0.319   0.284  1.00  0.00    -0.350 N 
ATOM      4  H1  UNL     1       3.202  -1.289   0.347  1.00  0.00     0.163 HD
HETATM    5  O1  UNL     1       1.072   1.082   0.531  1.00  0.00    -0.269 OA
BRANCH   3   6
HETATM    6  C2  UNL     1       3.879   0.650  -0.103  1.00  0.00     0.022 C 
HETATM    7  C1  UNL     1       5.086  -0.100  -0.720  1.00  0.00     0.037 C 
HETATM    8  C3  UNL     1       4.470   1.409   1.095  1.00  0.00     0.037 C 
HETATM    9  C4  UNL     1       3.326   1.623  -1.060  1.00  0.00     0.037 C 
ENDBRANCH   3   6
ENDBRANCH   1   2
BRANCH   1  10
HETATM   10  N2  UNL     1       0.737  -2.132  -0.263  1.00  0.00    -0.339 N 
ATOM     11  H2  UNL     1       0.561  -1.753  -1.194  1.00  0.00     0.164 HD
BRANCH  10  12
HETATM   12  C7  UNL     1       1.023  -3.534  -0.065  1.00  0.00     0.350 C 
HETATM   13  O2  UNL     1       1.237  -3.961   1.079  1.00  0.00    -0.284 OA
ENDBRANCH  10  12
ENDBRANCH   1  10
BRANCH   1  14
HETATM   14  N3  UNL     1      -0.704  -0.922   1.073  1.00  0.00    -0.332 N 
HETATM   15  C8  UNL     1      -1.448  -0.460  -0.037  1.00  0.00     0.225 C 
HETATM   16  O3  UNL     1      -0.852  -0.277  -1.165  1.00  0.00    -0.273 OA
ATOM     17  H3  UNL     1      -1.162  -1.019   1.979  1.00  0.00     0.165 HD
BRANCH  15  18
HETATM   18  C9  UNL     1      -2.878  -0.147  -0.104  1.00  0.00     0.103 C 
HETATM   19  C10 UNL     1      -3.038   1.372  -0.169  1.00  0.00     0.017 C 
HETATM   20  C11 UNL     1      -4.398   1.567  -0.860  1.00  0.00     0.028 C 
HETATM   21  C12 UNL     1      -5.398   0.776  -0.086  1.00  0.00     0.232 C 
HETATM   22  N4  UNL     1      -4.875   0.265   1.153  1.00  0.00    -0.074 N 
HETATM   23  C13 UNL     1      -3.762  -0.658   0.959  1.00  0.00     0.246 C 
ATOM     24  H42 UNL     1      -4.614   1.025   1.781  1.00  0.00     0.277 HD
ATOM     25  H41 UNL     1      -5.613  -0.164   1.711  1.00  0.00     0.277 HD
ENDBRANCH  15  18
ENDBRANCH   1  14
TORSDOF 6
