REMARK  4 active torsions:
REMARK  status: ('A' for Active; 'I' for Inactive)
REMARK       I    between atoms: C1_2  and  N1_3 
REMARK       I    between atoms: C1_2  and  N2_12 
REMARK    1  A    between atoms: N1_3  and  C2_5 
REMARK    2  A    between atoms: C2_5  and  C3_6 
REMARK    3  A    between atoms: C2_5  and  C4_9 
REMARK    4  A    between atoms: N2_12  and  C5_14 
ROOT
HETATM    1  O1  UNL     1       1.016   1.609  -0.843  1.00  0.00    -0.247 OA
HETATM    2  C1  UNL     1       1.059   0.502  -0.251  1.00  0.00     0.317 C 
HETATM    3  N1  UNL     1       2.336  -0.010   0.075  1.00  0.00    -0.320 N 
ATOM      4  H1  UNL     1       2.390  -0.907   0.557  1.00  0.00     0.165 HD
HETATM    5  N2  UNL     1      -0.092  -0.216   0.086  1.00  0.00    -0.338 N 
ATOM      6  H2  UNL     1       0.033  -1.107   0.566  1.00  0.00     0.164 HD
ENDROOT
BRANCH   3   7
HETATM    7  C2  UNL     1       3.571   0.676  -0.242  1.00  0.00     0.289 C 
BRANCH   7   8
HETATM    8  C3  UNL     1       4.398   0.927   0.954  1.00  0.00     0.207 C 
HETATM    9  O2  UNL     1       3.980   0.545   2.067  1.00  0.00    -0.646 OA
HETATM   10  O3  UNL     1       5.611   1.567   0.871  1.00  0.00    -0.646 OA
ENDBRANCH   7   8
BRANCH   7  11
HETATM   11  C4  UNL     1       4.350  -0.171  -1.176  1.00  0.00     0.207 C 
HETATM   12  O4  UNL     1       3.939  -1.281  -1.576  1.00  0.00    -0.646 OA
HETATM   13  O5  UNL     1       5.588   0.279  -1.629  1.00  0.00    -0.646 OA
ENDBRANCH   7  11
ENDBRANCH   3   7
BRANCH   5  14
HETATM   14  C5  UNL     1      -1.442   0.206  -0.193  1.00  0.00     0.098 C 
HETATM   15  C6  UNL     1      -2.285   0.318   1.069  1.00  0.00     0.033 C 
HETATM   16  C7  UNL     1      -2.593  -1.151   1.375  1.00  0.00     0.009 C 
HETATM   17  C11 UNL     1      -3.575   1.010   0.642  1.00  0.00     0.174 C 
HETATM   18  C8  UNL     1      -2.597  -1.856   0.039  1.00  0.00     0.009 C 
HETATM   19  C9  UNL     1      -2.227  -0.815  -0.978  1.00  0.00     0.033 C 
HETATM   20  C10 UNL     1      -3.538  -0.123  -1.379  1.00  0.00     0.174 C 
HETATM   21  O6  UNL     1      -3.712   1.072  -0.725  1.00  0.00    -0.390 OA
ENDBRANCH   5  14
TORSDOF 4
