REMARK  5 active torsions:
REMARK  status: ('A' for Active; 'I' for Inactive)
REMARK    1  A    between atoms: N1_1  and  N2_4 
REMARK       I    between atoms: N2_4  and  C1_6 
REMARK    2  A    between atoms: C1_6  and  C2_8 
REMARK    3  A    between atoms: C2_8  and  C5_18 
REMARK    4  A    between atoms: N3_9  and  N4_11 
REMARK       I    between atoms: N4_11  and  C3_13 
REMARK    5  A    between atoms: C3_13  and  C4_15 
ROOT
HETATM    1  C2  UNL     1       0.224   0.822  -0.191  1.00  0.00     0.129 C 
HETATM    2  N3  UNL     1       1.497   0.641  -0.467  1.00  0.00    -0.292 N 
ATOM      3  H3  UNL     1       2.046   1.494  -0.575  1.00  0.00     0.187 HD
ENDROOT
BRANCH   1   4
HETATM    4  C1  UNL     1      -0.084   2.258  -0.113  1.00  0.00     0.288 C 
HETATM    5  N2  UNL     1       0.971   3.218  -0.423  1.00  0.00    -0.271 N 
ATOM      6  H2  UNL     1       1.885   2.853  -0.692  1.00  0.00     0.189 HD
HETATM    7  O1  UNL     1      -1.149   2.813   0.202  1.00  0.00    -0.264 OA
BRANCH   5   8
HETATM    8  N1  UNL     1       0.813   4.578  -0.376  1.00  0.00    -0.342 N 
ATOM      9  H12 UNL     1      -0.107   4.925  -0.105  1.00  0.00     0.176 HD
ATOM     10  H11 UNL     1       1.550   5.249  -0.593  1.00  0.00     0.176 HD
ENDBRANCH   5   8
ENDBRANCH   1   4
BRANCH   1  11
HETATM   11  C5  UNL     1      -0.667  -0.219   0.251  1.00  0.00     0.009 A 
HETATM   12  C6  UNL     1      -0.107  -1.141   1.186  1.00  0.00     0.015 A 
HETATM   13  C7  UNL     1      -0.912  -1.971   1.893  1.00  0.00     0.002 A 
HETATM   14  C8  UNL     1      -2.270  -1.947   1.728  1.00  0.00     0.012 A 
HETATM   15  C9  UNL     1      -2.834  -1.050   0.808  1.00  0.00    -0.025 A 
HETATM   16  C10 UNL     1      -4.189  -1.090   0.591  1.00  0.00     0.012 A 
HETATM   17  C14 UNL     1      -2.025  -0.194   0.074  1.00  0.00    -0.013 A 
HETATM   18  C11 UNL     1      -4.759  -0.285  -0.367  1.00  0.00     0.001 A 
HETATM   19  C12 UNL     1      -3.973   0.568  -1.118  1.00  0.00     0.001 A 
HETATM   20  C13 UNL     1      -2.625   0.612  -0.902  1.00  0.00     0.013 A 
ENDBRANCH   1  11
BRANCH   2  21
HETATM   21  N4  UNL     1       2.184  -0.516  -0.629  1.00  0.00    -0.262 N 
HETATM   22  C3  UNL     1       3.560  -0.706  -0.393  1.00  0.00     0.325 C 
HETATM   23  O2  UNL     1       4.254   0.260   0.006  1.00  0.00    -0.261 OA
ATOM     24  H4  UNL     1       1.655  -1.326  -0.952  1.00  0.00     0.190 HD
BRANCH  22  25
HETATM   25  C4  UNL     1       4.193  -1.998  -0.601  1.00  0.00     0.324 C 
HETATM   26  N5  UNL     1       5.570  -2.234  -0.377  1.00  0.00    -0.053 NA
HETATM   27  O3  UNL     1       3.527  -3.006  -1.006  1.00  0.00    -0.266 OA
ENDBRANCH  22  25
ENDBRANCH   2  21
TORSDOF 5
