REMARK  7 active torsions:
REMARK  status: ('A' for Active; 'I' for Inactive)
REMARK       I    between atoms: C2_2  and  N1_4 
REMARK    1  A    between atoms: N1_4  and  N2_5 
REMARK       I    between atoms: N2_5  and  C3_7 
REMARK    2  A    between atoms: C3_7  and  C4_9 
REMARK    3  A    between atoms: C6_16  and  C7_17 
REMARK    4  A    between atoms: C7_17  and  C8_18 
REMARK    5  A    between atoms: C8_18  and  C9_19 
REMARK    6  A    between atoms: C9_19  and  O5_21 
REMARK    7  A    between atoms: O5_21  and  C10_22 
ROOT
HETATM    1  C4  UNL     1      -1.514  -1.742  -0.162  1.00  0.00     0.134 A 
HETATM    2  N3  UNL     1      -2.163  -2.940  -0.204  1.00  0.00    -0.302 N 
ATOM      3  H3  UNL     1      -3.174  -3.066  -0.148  1.00  0.00     0.171 HD
HETATM    4  C5  UNL     1      -1.256  -3.934  -0.331  1.00  0.00     0.325 A 
HETATM    5  O3  UNL     1      -1.492  -5.196  -0.402  1.00  0.00    -0.247 OA
HETATM    6  N4  UNL     1      -0.057  -3.347  -0.366  1.00  0.00    -0.306 N 
ATOM      7  H4  UNL     1       0.829  -3.844  -0.460  1.00  0.00     0.171 HD
HETATM    8  C6  UNL     1      -0.179  -1.985  -0.258  1.00  0.00     0.069 A 
ENDROOT
BRANCH   1   9
HETATM    9  C3  UNL     1      -2.198  -0.470  -0.169  1.00  0.00     0.299 C 
HETATM   10  N2  UNL     1      -3.657  -0.428  -0.200  1.00  0.00    -0.194 N 
ATOM     11  H2  UNL     1      -4.194  -1.295  -0.209  1.00  0.00     0.205 HD
HETATM   12  O2  UNL     1      -1.678   0.657  -0.160  1.00  0.00    -0.263 OA
BRANCH  10  13
HETATM   13  N1  UNL     1      -4.269   0.716  -0.216  1.00  0.00    -0.284 NA
HETATM   14  C2  UNL     1      -4.900   1.920  -0.245  1.00  0.00     0.308 C 
HETATM   15  C1  UNL     1      -6.093   2.125   0.688  1.00  0.00     0.137 C 
HETATM   16  O1  UNL     1      -4.639   2.900  -0.949  1.00  0.00    -0.256 OA
ENDBRANCH  10  13
ENDBRANCH   1   9
BRANCH   8  17
HETATM   17  C7  UNL     1       0.947  -1.096  -0.111  1.00  0.00     0.038 C 
BRANCH  17  18
HETATM   18  C8  UNL     1       1.075  -0.035   0.653  1.00  0.00     0.084 C 
BRANCH  18  19
HETATM   19  C9  UNL     1       2.287   0.770   0.670  1.00  0.00     0.283 C 
HETATM   20  O4  UNL     1       2.362   1.759   1.422  1.00  0.00    -0.260 OA
BRANCH  19  21
HETATM   21  O5  UNL     1       3.332   0.433  -0.158  1.00  0.00    -0.314 OA
BRANCH  21  22
HETATM   22  C10 UNL     1       4.499   1.199  -0.180  1.00  0.00     0.124 C 
HETATM   23  C11 UNL     1       4.548   1.818  -1.582  1.00  0.00     0.040 C 
HETATM   24  C12 UNL     1       5.672   0.307   0.056  1.00  0.00     0.040 C 
ENDBRANCH  21  22
ENDBRANCH  19  21
ENDBRANCH  18  19
ENDBRANCH  17  18
ENDBRANCH   8  17
TORSDOF 7
