REMARK  8 active torsions:
REMARK  status: ('A' for Active; 'I' for Inactive)
REMARK    1  A    between atoms: C2_2  and  C5_5 
REMARK    2  A    between atoms: C5_5  and  N1_6 
REMARK    3  A    between atoms: C5_5  and  C15_24 
REMARK       I    between atoms: N1_6  and  C6_8 
REMARK    4  A    between atoms: C6_8  and  C7_10 
REMARK    5  A    between atoms: C7_10  and  C8_11 
REMARK    6  A    between atoms: C7_10  and  N2_15 
REMARK    7  A    between atoms: C8_11  and  C9_12 
REMARK       I    between atoms: N2_15  and  C10_17 
REMARK    8  A    between atoms: C10_17  and  C11_19 
ROOT
HETATM    1  C7  UNL     1       1.280   0.216   0.257  1.00  0.00     0.187 C 
ENDROOT
BRANCH   1   2
HETATM    2  C6  UNL     1      -0.193   0.105   0.288  1.00  0.00     0.241 C 
HETATM    3  N1  UNL     1      -1.034   0.568  -0.747  1.00  0.00    -0.344 N 
ATOM      4  H1  UNL     1      -0.588   1.000  -1.556  1.00  0.00     0.163 HD
HETATM    5  O1  UNL     1      -0.722  -0.429   1.290  1.00  0.00    -0.271 OA
BRANCH   3   6
HETATM    6  C5  UNL     1      -2.469   0.479  -0.752  1.00  0.00     0.193 C 
BRANCH   6   7
HETATM    7  C2  UNL     1      -2.996  -0.321  -1.923  1.00  0.00    -0.021 C 
HETATM    8  C1  UNL     1      -4.503  -0.348  -1.813  1.00  0.00     0.017 C 
HETATM    9  C3  UNL     1      -2.641   0.271  -3.252  1.00  0.00     0.017 C 
HETATM   10  C4  UNL     1      -2.543  -1.779  -1.822  1.00  0.00     0.017 C 
ENDBRANCH   6   7
BRANCH   6  11
HETATM   11  C15 UNL     1      -3.016   1.848  -0.852  1.00  0.00     0.197 C 
HETATM   12  O6  UNL     1      -2.224   2.834  -0.936  1.00  0.00    -0.646 OA
HETATM   13  O7  UNL     1      -4.361   2.175  -0.863  1.00  0.00    -0.646 OA
ENDBRANCH   6  11
ENDBRANCH   3   6
ENDBRANCH   1   2
BRANCH   1  14
HETATM   14  C8  UNL     1       1.872  -0.373  -0.999  1.00  0.00     0.147 C 
BRANCH  14  15
HETATM   15  C9  UNL     1       3.331  -0.277  -1.053  1.00  0.00     0.175 C 
HETATM   16  O2  UNL     1       4.107  -0.915  -0.289  1.00  0.00    -0.648 OA
HETATM   17  O3  UNL     1       3.941   0.557  -1.986  1.00  0.00    -0.648 OA
ENDBRANCH  14  15
ENDBRANCH   1  14
BRANCH   1  18
HETATM   18  N2  UNL     1       1.899  -0.337   1.436  1.00  0.00    -0.342 N 
HETATM   19  C10 UNL     1       2.647   0.461   2.352  1.00  0.00     0.276 C 
HETATM   20  O4  UNL     1       2.800   1.699   2.168  1.00  0.00    -0.265 OA
ATOM     21  H2  UNL     1       1.798  -1.335   1.622  1.00  0.00     0.163 HD
BRANCH  19  22
HETATM   22  C11 UNL     1       3.257  -0.125   3.525  1.00  0.00     0.142 A 
HETATM   23  C12 UNL     1       3.986   0.531   4.479  1.00  0.00     0.045 A 
HETATM   24  C13 UNL     1       4.383  -0.394   5.422  1.00  0.00     0.027 A 
HETATM   25  C14 UNL     1       3.863  -1.591   4.984  1.00  0.00     0.143 A 
HETATM   26  O5  UNL     1       3.204  -1.394   3.860  1.00  0.00    -0.317 OA
ENDBRANCH  19  22
ENDBRANCH   1  18
TORSDOF 8
