REMARK  7 active torsions:
REMARK  status: ('A' for Active; 'I' for Inactive)
REMARK    1  A    between atoms: C2_2  and  C10_17 
REMARK    2  A    between atoms: N1_3  and  N2_5 
REMARK       I    between atoms: N2_5  and  C3_7 
REMARK       I    between atoms: C3_7  and  N3_9 
REMARK    3  A    between atoms: N3_9  and  C4_11 
REMARK    4  A    between atoms: C10_17  and  C11_21 
REMARK    5  A    between atoms: C11_21  and  C12_23 
REMARK    6  A    between atoms: C12_23  and  N5_24 
REMARK    7  A    between atoms: N5_24  and  S1_26 
ROOT
HETATM    1  C1  UNL     1       1.201   2.987  -2.252  1.00  0.00     0.072 C 
HETATM    2  C2  UNL     1       0.652   1.691  -1.779  1.00  0.00     0.052 C 
HETATM    3  N1  UNL     1      -0.454   1.312  -2.295  1.00  0.00    -0.299 N 
ATOM      4  H1  UNL     1      -0.877   1.926  -2.992  1.00  0.00     0.186 HD
ENDROOT
BRANCH   2   5
HETATM    5  C10 UNL     1       1.311   0.885  -0.790  1.00  0.00     0.097 C 
HETATM    6  N4  UNL     1       0.799  -0.252  -0.395  1.00  0.00    -0.395 N 
ATOM      7  H42 UNL     1      -0.083  -0.556  -0.807  1.00  0.00     0.156 HD
ATOM      8  H41 UNL     1       1.267  -0.825   0.308  1.00  0.00     0.156 HD
BRANCH   5   9
HETATM    9  C11 UNL     1       2.563   1.317  -0.206  1.00  0.00     0.195 C 
HETATM   10  O2  UNL     1       3.076   2.396  -0.561  1.00  0.00    -0.289 OA
BRANCH   9  11
HETATM   11  C12 UNL     1       3.227   0.474   0.811  1.00  0.00     0.217 C 
BRANCH  11  12
HETATM   12  N5  UNL     1       4.453   1.109   1.243  1.00  0.00    -0.312 N 
ATOM     13  H5  UNL     1       4.790   2.004   0.887  1.00  0.00     0.172 HD
BRANCH  12  14
HETATM   14  S1  UNL     1       5.275   0.169   2.433  1.00  0.00     0.223 S 
HETATM   15  C13 UNL     1       5.695  -1.390   1.690  1.00  0.00     0.185 C 
HETATM   16  O3  UNL     1       6.509   0.822   2.922  1.00  0.00    -0.206 OA
HETATM   17  O4  UNL     1       4.349  -0.056   3.592  1.00  0.00    -0.206 OA
ENDBRANCH  12  14
ENDBRANCH  11  12
ENDBRANCH   9  11
ENDBRANCH   5   9
ENDBRANCH   2   5
BRANCH   3  18
HETATM   18  N2  UNL     1      -1.119   0.159  -1.996  1.00  0.00    -0.251 N 
HETATM   19  C3  UNL     1      -2.293   0.205  -1.167  1.00  0.00     0.339 C 
HETATM   20  O1  UNL     1      -2.628   1.332  -0.767  1.00  0.00    -0.245 OA
HETATM   21  N3  UNL     1      -2.958  -0.992  -0.874  1.00  0.00    -0.308 N 
ATOM     22  H3  UNL     1      -2.579  -1.857  -1.258  1.00  0.00     0.170 HD
ATOM     23  H2  UNL     1      -0.784  -0.733  -2.360  1.00  0.00     0.191 HD
BRANCH  21  24
HETATM   24  C4  UNL     1      -4.111  -1.073  -0.086  1.00  0.00     0.036 A 
HETATM   25  C5  UNL     1      -4.444  -2.336   0.439  1.00  0.00     0.029 A 
HETATM   26  C6  UNL     1      -5.561  -2.543   1.209  1.00  0.00     0.002 A 
HETATM   27  C7  UNL     1      -6.409  -1.503   1.499  1.00  0.00     0.000 A 
HETATM   28  C8  UNL     1      -6.124  -0.262   1.010  1.00  0.00     0.002 A 
HETATM   29  C9  UNL     1      -4.988  -0.066   0.231  1.00  0.00     0.029 A 
ENDBRANCH  21  24
ENDBRANCH   3  18
TORSDOF 7
