REMARK  2 active torsions:
REMARK  status: ('A' for Active; 'I' for Inactive)
REMARK    1  A    between atoms: N1_4  and  C3_6 
REMARK    2  A    between atoms: C8_14  and  C9_15 
ROOT
HETATM    1  C1  UNL     1       0.718  -2.364  -0.880  1.00  0.00     0.085 A 
HETATM    2  S1  UNL     1      -0.904  -1.850  -0.897  1.00  0.00    -0.064 SA
HETATM    3  C2  UNL     1      -0.687  -0.300  -0.252  1.00  0.00     0.145 A 
HETATM    4  N1  UNL     1      -1.552   0.658   0.011  1.00  0.00    -0.364 N 
ATOM      5  H1  UNL     1      -1.178   1.521   0.405  1.00  0.00     0.162 HD
HETATM    6  N2  UNL     1       0.632  -0.231  -0.045  1.00  0.00    -0.334 N 
ATOM      7  H2  UNL     1       1.055   0.610   0.347  1.00  0.00     0.168 HD
HETATM    8  C8  UNL     1       1.369  -1.270  -0.357  1.00  0.00     0.071 A 
ENDROOT
BRANCH   8   9
HETATM    9  C9  UNL     1       2.859  -1.338  -0.181  1.00  0.00     0.108 A 
HETATM   10  C10 UNL     1       3.654  -2.415  -0.501  1.00  0.00     0.124 A 
HETATM   11  N3  UNL     1       4.910  -2.065  -0.189  1.00  0.00    -0.343 N 
HETATM   12  C11 UNL     1       4.902  -0.853   0.292  1.00  0.00     0.172 A 
ATOM     13  H3  UNL     1       5.736  -2.651  -0.308  1.00  0.00     0.167 HD
HETATM   14  N4  UNL     1       3.644  -0.375   0.310  1.00  0.00    -0.196 N 
HETATM   15  S2  UNL     1       6.217   0.189   0.891  1.00  0.00    -0.089 SA
HETATM   16  O2  UNL     1       3.362   0.880   0.767  1.00  0.00    -0.270 OA
HETATM   17  C12 UNL     1       4.161   2.003   0.626  1.00  0.00     0.212 C 
HETATM   18  C13 UNL     1       5.615   1.874   0.824  1.00  0.00     0.111 C 
ENDBRANCH   8   9
BRANCH   4  19
HETATM   19  C3  UNL     1      -2.933   0.606  -0.198  1.00  0.00     0.107 C 
HETATM   20  C4  UNL     1      -3.654   0.471   1.137  1.00  0.00     0.029 C 
HETATM   21  C5  UNL     1      -5.049  -0.057   0.767  1.00  0.00     0.028 C 
HETATM   22  C6  UNL     1      -5.425   0.604  -0.537  1.00  0.00     0.167 C 
HETATM   23  O1  UNL     1      -4.735  -0.023  -1.570  1.00  0.00    -0.389 OA
HETATM   24  C7  UNL     1      -3.439  -0.397  -1.187  1.00  0.00     0.192 C 
ENDBRANCH   4  19
TORSDOF 2
