REMARK  3 active torsions:
REMARK  status: ('A' for Active; 'I' for Inactive)
REMARK       I    between atoms: C1_2  and  N1_3 
REMARK       I    between atoms: C1_2  and  N2_11 
REMARK    1  A    between atoms: N1_3  and  C2_5 
REMARK    2  A    between atoms: C9_17  and  C10_18 
REMARK    3  A    between atoms: C10_18  and  C11_19 
ROOT
HETATM    1  O1  UNL     1       0.124   0.674  -0.399  1.00  0.00    -0.246 OA
HETATM    2  C1  UNL     1       0.269  -0.500  -0.823  1.00  0.00     0.329 C 
HETATM    3  N1  UNL     1       1.629  -0.925  -1.009  1.00  0.00    -0.338 N 
ATOM      4  H1  UNL     1       1.788  -1.872  -1.353  1.00  0.00     0.164 HD
HETATM    5  N2  UNL     1      -0.823  -1.357  -1.103  1.00  0.00    -0.247 N 
HETATM    6  C8  UNL     1      -0.750  -2.618  -1.555  1.00  0.00     0.211 A 
HETATM    7  N3  UNL     1      -1.994  -3.128  -1.706  1.00  0.00    -0.294 N 
ATOM      8  H3  UNL     1      -2.231  -4.064  -2.035  1.00  0.00     0.187 HD
HETATM    9  N4  UNL     1      -2.839  -2.188  -1.349  1.00  0.00    -0.287 N 
ATOM     10  H4  UNL     1      -3.856  -2.266  -1.352  1.00  0.00     0.188 HD
HETATM   11  C9  UNL     1      -2.123  -1.089  -0.974  1.00  0.00     0.107 A 
ENDROOT
BRANCH  11  12
HETATM   12  C10 UNL     1      -2.717   0.163  -0.513  1.00  0.00     0.083 C 
BRANCH  12  13
HETATM   13  C11 UNL     1      -2.912   0.174   1.008  1.00  0.00    -0.007 C 
HETATM   14  C12 UNL     1      -3.532   1.512   1.385  1.00  0.00     0.005 C 
HETATM   15  C13 UNL     1      -4.315   1.144   2.633  1.00  0.00     0.000 C 
HETATM   16  C14 UNL     1      -5.026  -0.124   2.156  1.00  0.00     0.000 C 
HETATM   17  C15 UNL     1      -3.938  -0.864   1.409  1.00  0.00     0.005 C 
ENDBRANCH  12  13
ENDBRANCH  11  12
BRANCH   3  18
HETATM   18  C2  UNL     1       2.763  -0.119  -0.748  1.00  0.00     0.086 C 
HETATM   19  C3  UNL     1       3.690  -0.680   0.308  1.00  0.00     0.025 C 
HETATM   20  C4  UNL     1       4.532   0.484   0.805  1.00  0.00     0.002 C 
HETATM   21  C5  UNL     1       4.570   1.625  -0.158  1.00  0.00     0.000 C 
HETATM   22  C6  UNL     1       4.618   1.215  -1.595  1.00  0.00     0.002 C 
HETATM   23  C7  UNL     1       3.619   0.162  -1.965  1.00  0.00     0.025 C 
ENDBRANCH   3  18
TORSDOF 3
