REMARK  3 active torsions:
REMARK  status: ('A' for Active; 'I' for Inactive)
REMARK    1  A    between atoms: C2_2  and  C3_3 
REMARK    2  A    between atoms: C10_10  and  O1_11 
REMARK    3  A    between atoms: C12_13  and  C13_14 
ROOT
HETATM    1  C3  UNL     1       3.510  -0.484  -0.222  1.00  0.00     0.005 C 
HETATM    2  C4  UNL     1       2.305  -0.708  -0.663  1.00  0.00    -0.049 C 
HETATM    3  C5  UNL     1       1.682  -1.685  -1.568  1.00  0.00     0.040 C 
HETATM    4  C6  UNL     1       0.723  -0.578  -1.944  1.00  0.00     0.044 C 
HETATM    5  C7  UNL     1       0.968  -0.125  -0.503  1.00  0.00     0.068 C 
HETATM    6  C8  UNL     1       0.880   1.314  -0.289  1.00  0.00     0.007 C 
HETATM    7  C9  UNL     1      -0.145   1.844   0.344  1.00  0.00     0.006 C 
HETATM    8  C10 UNL     1      -1.284   1.032   0.886  1.00  0.00     0.172 C 
HETATM    9  C12 UNL     1      -1.093  -0.438   0.756  1.00  0.00     0.168 C 
HETATM   10  N2  UNL     1       0.192  -0.910   0.409  1.00  0.00    -0.393 N 
ATOM     11  H2  UNL     1       0.555  -1.781   0.795  1.00  0.00     0.155 HD
ENDROOT
BRANCH   1  12
HETATM   12  C2  UNL     1       3.868   0.583   0.697  1.00  0.00    -0.010 C 
HETATM   13  C1  UNL     1       5.123   0.718   1.078  1.00  0.00     0.011 C 
ENDBRANCH   1  12
BRANCH   9  14
HETATM   14  C13 UNL     1      -2.186  -1.000  -0.130  1.00  0.00     0.076 A 
HETATM   15  N1  UNL     1      -3.173  -0.333  -0.711  1.00  0.00    -0.361 N 
HETATM   16  C14 UNL     1      -4.034  -0.969  -1.438  1.00  0.00     0.096 A 
ATOM     17  H1  UNL     1      -3.253   0.676  -0.586  1.00  0.00     0.165 HD
HETATM   18  C15 UNL     1      -3.877  -2.328  -1.570  1.00  0.00     0.068 A 
HETATM   19  S1  UNL     1      -2.482  -2.605  -0.629  1.00  0.00    -0.085 SA
ENDBRANCH   9  14
BRANCH   8  20
HETATM   20  O1  UNL     1      -1.501   1.349   2.229  1.00  0.00    -0.384 OA
HETATM   21  C11 UNL     1      -2.752   1.920   2.362  1.00  0.00     0.202 C 
ENDBRANCH   8  20
TORSDOF 3
