REMARK  3 active torsions:
REMARK  status: ('A' for Active; 'I' for Inactive)
REMARK    1  A    between atoms: C4_4  and  C5_5 
REMARK    2  A    between atoms: C7_8  and  C8_9 
REMARK       I    between atoms: C8_9  and  N1_11 
REMARK    3  A    between atoms: N1_11  and  C9_13 
ROOT
HETATM    1  C9  UNL     1      -3.040   0.002   1.021  1.00  0.00     0.102 C 
HETATM    2  C10 UNL     1      -3.428  -1.167   1.829  1.00  0.00     0.026 C 
HETATM    3  C11 UNL     1      -3.562  -2.299   0.848  1.00  0.00     0.004 C 
HETATM    4  C12 UNL     1      -4.265  -1.607  -0.318  1.00  0.00     0.021 C 
HETATM    5  C13 UNL     1      -3.832  -0.161  -0.265  1.00  0.00     0.115 C 
HETATM    6  C14 UNL     1      -4.995   0.727  -0.296  1.00  0.00     0.066 C 
HETATM    7  N2  UNL     1      -5.923   1.416  -0.324  1.00  0.00    -0.197 NA
ENDROOT
BRANCH   1   8
HETATM    8  N1  UNL     1      -1.659   0.226   0.808  1.00  0.00    -0.349 N 
HETATM    9  C8  UNL     1      -0.912   1.362   1.145  1.00  0.00     0.275 C 
HETATM   10  O1  UNL     1      -1.442   2.337   1.700  1.00  0.00    -0.265 OA
ATOM     11  H1  UNL     1      -1.146  -0.530   0.355  1.00  0.00     0.163 HD
BRANCH   9  12
HETATM   12  C7  UNL     1       0.529   1.472   0.867  1.00  0.00     0.142 A 
HETATM   13  S1  UNL     1       1.591   2.790   1.214  1.00  0.00    -0.077 SA
HETATM   14  C6  UNL     1       3.037   2.126   0.589  1.00  0.00     0.077 A 
HETATM   15  C5  UNL     1       2.605   0.901   0.141  1.00  0.00     0.021 A 
HETATM   16  N3  UNL     1       1.347   0.622   0.302  1.00  0.00    -0.349 N 
ATOM     17  H3  UNL     1       0.990  -0.278  -0.019  1.00  0.00     0.166 HD
BRANCH  15  18
HETATM   18  C4  UNL     1       3.574  -0.065  -0.503  1.00  0.00     0.040 A 
HETATM   19  C2  UNL     1       4.558   0.603  -1.416  1.00  0.00    -0.008 A 
HETATM   20  C1  UNL     1       4.797  -0.086  -2.717  1.00  0.00     0.011 C 
HETATM   21  C3  UNL     1       4.996   0.007  -0.118  1.00  0.00     0.016 A 
ENDBRANCH  15  18
ENDBRANCH   9  12
ENDBRANCH   1   8
TORSDOF 3
