REMARK  3 active torsions:
REMARK  status: ('A' for Active; 'I' for Inactive)
REMARK    1  A    between atoms: C3_4  and  O2_5 
REMARK    2  A    between atoms: O2_5  and  C4_6 
REMARK    3  A    between atoms: C9_13  and  C10_14 
ROOT
HETATM    1  O1  UNL     1      -0.493   1.768   4.198  1.00  0.00    -0.268 OA
HETATM    2  C1  UNL     1      -0.331   1.257   3.054  1.00  0.00     0.250 A 
HETATM    3  C2  UNL     1       0.916   0.887   2.578  1.00  0.00     0.130 A 
HETATM    4  C3  UNL     1       1.075   0.330   1.327  1.00  0.00     0.149 A 
HETATM    5  N1  UNL     1      -0.029   0.157   0.579  1.00  0.00    -0.324 N 
ATOM      6  H1  UNL     1       0.062  -0.252  -0.351  1.00  0.00     0.169 HD
HETATM    7  C9  UNL     1      -1.268   0.514   1.029  1.00  0.00     0.115 A 
HETATM    8  N2  UNL     1      -1.401   1.057   2.255  1.00  0.00    -0.311 N 
ATOM      9  H2  UNL     1      -2.329   1.322   2.586  1.00  0.00     0.170 HD
ENDROOT
BRANCH   4  10
HETATM   10  O2  UNL     1       2.332  -0.043   0.845  1.00  0.00    -0.330 OA
BRANCH  10  11
HETATM   11  C4  UNL     1       2.539  -0.608  -0.410  1.00  0.00     0.130 C 
HETATM   12  C5  UNL     1       3.290  -1.911  -0.231  1.00  0.00     0.032 C 
HETATM   13  C6  UNL     1       4.723  -1.458   0.013  1.00  0.00     0.002 C 
HETATM   14  C7  UNL     1       4.817  -0.047  -0.474  1.00  0.00     0.002 C 
HETATM   15  C8  UNL     1       3.546   0.185  -1.248  1.00  0.00     0.032 C 
ENDBRANCH  10  11
ENDBRANCH   4  10
BRANCH   7  16
HETATM   16  C10 UNL     1      -2.478   0.330   0.224  1.00  0.00     0.189 C 
HETATM   17  C11 UNL     1      -2.194   0.005  -1.221  1.00  0.00     0.040 C 
HETATM   18  C12 UNL     1      -3.479  -0.428  -1.859  1.00  0.00     0.005 C 
HETATM   19  C13 UNL     1      -4.686   0.291  -1.404  1.00  0.00     0.026 C 
HETATM   20  C14 UNL     1      -4.582   0.996  -0.105  1.00  0.00     0.168 C 
HETATM   21  O3  UNL     1      -3.327   1.437   0.232  1.00  0.00    -0.378 OA
ENDBRANCH   7  16
TORSDOF 3
