REMARK  4 active torsions:
REMARK  status: ('A' for Active; 'I' for Inactive)
REMARK    1  A    between atoms: C2_2  and  C4_5 
REMARK    2  A    between atoms: C5_6  and  C6_7 
REMARK    3  A    between atoms: C6_7  and  N2_8 
REMARK    4  A    between atoms: C14_17  and  O2_18 
ROOT
HETATM    1  C1  UNL     1       5.895  -0.662  -0.115  1.00  0.00     0.029 C 
HETATM    2  C2  UNL     1       4.605  -0.331  -0.837  1.00  0.00     0.111 C 
HETATM    3  C3  UNL     1       4.702   0.940  -1.555  1.00  0.00     0.067 C 
HETATM    4  N1  UNL     1       4.776   1.935  -2.137  1.00  0.00    -0.197 NA
ENDROOT
BRANCH   2   5
HETATM    5  C4  UNL     1       3.505  -0.270   0.151  1.00  0.00    -0.010 C 
HETATM    6  C5  UNL     1       2.492  -1.109   0.080  1.00  0.00     0.000 C 
BRANCH   6   7
HETATM    7  C6  UNL     1       1.357  -1.070   1.072  1.00  0.00     0.299 C 
BRANCH   7   8
HETATM    8  N2  UNL     1       0.143  -0.821   0.350  1.00  0.00     0.092 N 
HETATM    9  C7  UNL     1       0.212   0.534  -0.167  1.00  0.00     0.273 C 
HETATM   10  C8  UNL     1      -1.171   0.979  -0.593  1.00  0.00     0.036 C 
HETATM   11  C9  UNL     1      -1.921  -0.286  -0.985  1.00  0.00     0.002 C 
HETATM   12  C10 UNL     1      -3.284   0.147  -1.443  1.00  0.00     0.049 C 
HETATM   13  C15 UNL     1      -2.280  -0.975   0.337  1.00  0.00     0.054 C 
HETATM   14  C11 UNL     1      -3.868   0.684  -0.183  1.00  0.00     0.009 A 
HETATM   15  C12 UNL     1      -3.279   0.023   0.869  1.00  0.00    -0.018 A 
HETATM   16  C14 UNL     1      -4.766   1.581   0.353  1.00  0.00     0.189 A 
HETATM   17  C13 UNL     1      -3.845   0.545   2.011  1.00  0.00     0.153 A 
HETATM   18  O1  UNL     1      -4.715   1.460   1.656  1.00  0.00    -0.299 OA
HETATM   19  C16 UNL     1      -1.034  -1.039   1.153  1.00  0.00     0.282 C 
BRANCH  16  20
HETATM   20  O2  UNL     1      -5.596   2.473  -0.359  1.00  0.00    -0.340 OA
ATOM     21  H2  UNL     1      -6.215   3.091   0.011  1.00  0.00     0.220 HD
ENDBRANCH  16  20
ENDBRANCH   7   8
ENDBRANCH   6   7
ENDBRANCH   2   5
TORSDOF 4
