REMARK  6 active torsions:
REMARK  status: ('A' for Active; 'I' for Inactive)
REMARK       I    between atoms: C1_2  and  N1_3 
REMARK    1  A    between atoms: C1_2  and  C9_12 
REMARK    2  A    between atoms: N1_3  and  C2_5 
REMARK    3  A    between atoms: C9_12  and  N2_13 
REMARK    4  A    between atoms: N2_13  and  C10_15 
REMARK    5  A    between atoms: C10_15  and  C11_16 
REMARK    6  A    between atoms: C11_16  and  C12_17 
ROOT
HETATM    1  C9  UNL     1       0.046  -0.969  -0.451  1.00  0.00     0.111 C 
HETATM    2  C18 UNL     1      -0.241  -2.002  -1.553  1.00  0.00     0.041 C 
HETATM    3  C19 UNL     1      -0.655  -3.337  -1.074  1.00  0.00     0.003 C 
HETATM    4  C20 UNL     1       0.411  -3.852  -0.083  1.00  0.00     0.000 C 
HETATM    5  C21 UNL     1       0.205  -2.971   1.131  1.00  0.00     0.003 C 
HETATM    6  C22 UNL     1       0.601  -1.560   0.757  1.00  0.00     0.041 C 
ENDROOT
BRANCH   1   7
HETATM    7  C1  UNL     1      -1.228  -0.183  -0.271  1.00  0.00     0.246 C 
HETATM    8  O1  UNL     1      -1.334   0.765  -1.132  1.00  0.00    -0.271 OA
HETATM    9  N1  UNL     1      -2.209  -0.373   0.663  1.00  0.00    -0.350 N 
ATOM     10  H1  UNL     1      -2.036  -1.155   1.294  1.00  0.00     0.163 HD
BRANCH   9  11
HETATM   11  C2  UNL     1      -3.427   0.320   0.917  1.00  0.00     0.117 C 
HETATM   12  C3  UNL     1      -3.375   1.841   0.612  1.00  0.00     0.109 C 
HETATM   13  C4  UNL     1      -4.515   2.129  -0.164  1.00  0.00    -0.180 C 
HETATM   14  C5  UNL     1      -5.657   2.337  -0.948  1.00  0.00     0.083 C 
HETATM   15  C6  UNL     1      -6.414   0.962  -0.971  1.00  0.00     0.038 C 
HETATM   16  C7  UNL     1      -5.897   0.022   0.112  1.00  0.00    -0.028 C 
HETATM   17  C8  UNL     1      -4.535  -0.411   0.200  1.00  0.00    -0.005 C 
ENDBRANCH   9  11
ENDBRANCH   1   7
BRANCH   1  18
HETATM   18  N2  UNL     1       1.025  -0.098  -1.115  1.00  0.00    -0.385 N 
ATOM     19  H2  UNL     1       1.383  -0.342  -2.039  1.00  0.00     0.159 HD
BRANCH  18  20
HETATM   20  C10 UNL     1       1.460   1.053  -0.485  1.00  0.00     0.057 C 
BRANCH  20  21
HETATM   21  C11 UNL     1       2.462   1.006   0.599  1.00  0.00     0.049 C 
BRANCH  21  22
HETATM   22  C12 UNL     1       3.822   0.482   0.101  1.00  0.00    -0.010 C 
HETATM   23  C13 UNL     1       4.305   1.418  -0.973  1.00  0.00     0.005 C 
HETATM   24  C14 UNL     1       5.749   1.279  -1.292  1.00  0.00     0.000 C 
HETATM   25  C15 UNL     1       6.600   1.507  -0.063  1.00  0.00     0.000 C 
HETATM   26  C16 UNL     1       6.194   0.487   0.995  1.00  0.00     0.000 C 
HETATM   27  C17 UNL     1       4.735   0.531   1.289  1.00  0.00     0.005 C 
ENDBRANCH  21  22
ENDBRANCH  20  21
ENDBRANCH  18  20
ENDBRANCH   1  18
TORSDOF 6
