REMARK  8 active torsions:
REMARK  status: ('A' for Active; 'I' for Inactive)
REMARK    1  A    between atoms: C3_3  and  C4_4 
REMARK    2  A    between atoms: C4_4  and  O1_5 
REMARK    3  A    between atoms: C4_4  and  C5_7 
REMARK    4  A    between atoms: C13_15  and  C14_16 
REMARK    5  A    between atoms: C14_16  and  C16_18 
REMARK    6  A    between atoms: C16_18  and  C17_19 
REMARK    7  A    between atoms: C17_19  and  C18_20 
REMARK    8  A    between atoms: C18_20  and  N1_21 
ROOT
HETATM    1  C5  UNL     1      -3.127   0.115  -0.227  1.00  0.00    -0.007 C 
HETATM    2  C6  UNL     1      -4.062   0.848  -1.178  1.00  0.00     0.019 C 
HETATM    3  C7  UNL     1      -3.247   0.566   1.198  1.00  0.00     0.013 C 
HETATM    4  C8  UNL     1      -1.873   0.260   1.821  1.00  0.00     0.007 C 
HETATM    5  C9  UNL     1      -0.906   0.483   0.720  1.00  0.00    -0.001 C 
HETATM    6  C10 UNL     1       0.222  -0.521   0.689  1.00  0.00    -0.005 C 
HETATM    7  C11 UNL     1       1.014  -0.324   1.970  1.00  0.00     0.006 C 
HETATM    8  C12 UNL     1       1.822   0.918   1.648  1.00  0.00     0.006 C 
HETATM    9  C13 UNL     1       2.075   0.888   0.182  1.00  0.00    -0.006 C 
HETATM   10  C19 UNL     1       1.202  -0.204  -0.392  1.00  0.00    -0.006 C 
HETATM   11  C20 UNL     1       0.436   0.253  -1.609  1.00  0.00     0.006 C 
HETATM   12  C21 UNL     1      -1.004  -0.300  -1.554  1.00  0.00     0.011 C 
HETATM   13  C22 UNL     1      -1.707   0.521  -0.537  1.00  0.00    -0.030 C 
HETATM   14  C23 UNL     1      -1.681   1.973  -1.046  1.00  0.00     0.016 C 
ENDROOT
BRANCH   9  15
HETATM   15  C14 UNL     1       3.519   0.741  -0.189  1.00  0.00    -0.014 C 
HETATM   16  C15 UNL     1       3.768   0.710  -1.658  1.00  0.00     0.010 C 
BRANCH  15  17
HETATM   17  C16 UNL     1       4.146  -0.498   0.420  1.00  0.00     0.006 C 
BRANCH  17  18
HETATM   18  C17 UNL     1       5.595  -0.605   0.022  1.00  0.00     0.027 C 
BRANCH  18  19
HETATM   19  C18 UNL     1       6.420   0.571   0.469  1.00  0.00     0.229 C 
BRANCH  19  20
HETATM   20  N1  UNL     1       7.788   0.318   0.011  1.00  0.00    -0.079 N 
ATOM     21  H13 UNL     1       8.160  -0.579   0.325  1.00  0.00     0.274 HD
ATOM     22  H12 UNL     1       7.851   0.138  -0.991  1.00  0.00     0.274 HD
ATOM     23  H11 UNL     1       8.347   1.115   0.314  1.00  0.00     0.274 HD
ENDBRANCH  19  20
ENDBRANCH  18  19
ENDBRANCH  17  18
ENDBRANCH  15  17
ENDBRANCH   9  15
BRANCH   1  24
HETATM   24  C4  UNL     1      -3.379  -1.336  -0.324  1.00  0.00     0.149 C 
BRANCH  24  25
HETATM   25  C3  UNL     1      -4.722  -1.817   0.022  1.00  0.00     0.001 C 
HETATM   26  C2  UNL     1      -5.797  -1.153   0.356  1.00  0.00    -0.033 C 
HETATM   27  C1  UNL     1      -7.101  -1.828   0.680  1.00  0.00     0.036 C 
ENDBRANCH  24  25
BRANCH  24  28
HETATM   28  O1  UNL     1      -3.178  -1.804  -1.663  1.00  0.00    -0.391 OA
ATOM     29  H1  UNL     1      -2.309  -1.493  -1.887  1.00  0.00     0.210 HD
ENDBRANCH  24  28
ENDBRANCH   1  24
TORSDOF 8
