REMARK  9 active torsions:
REMARK  status: ('A' for Active; 'I' for Inactive)
REMARK    1  A    between atoms: C4_4  and  C5_5 
REMARK    2  A    between atoms: C5_5  and  C6_6 
REMARK    3  A    between atoms: C6_6  and  C7_7 
REMARK    4  A    between atoms: C7_7  and  C8_8 
REMARK    5  A    between atoms: C8_8  and  C9_9 
REMARK    6  A    between atoms: C8_8  and  C21_26 
REMARK    7  A    between atoms: C10_10  and  C11_11 
REMARK    8  A    between atoms: C11_11  and  C12_15 
REMARK    9  A    between atoms: C17_20  and  O1_21 
ROOT
HETATM    1  C11 UNL     1       0.887   1.509   0.262  1.00  0.00     0.007 C 
HETATM    2  N1  UNL     1       0.222   1.918   1.247  1.00  0.00    -0.402 N 
ATOM      3  H11 UNL     1       0.668   2.403   2.026  1.00  0.00     0.156 HD
ATOM      4  H12 UNL     1      -0.788   1.779   1.280  1.00  0.00     0.156 HD
ENDROOT
BRANCH   1   5
HETATM    5  C10 UNL     1       0.243   0.810  -0.861  1.00  0.00     0.026 C 
HETATM    6  C9  UNL     1      -1.026   0.598  -0.826  1.00  0.00     0.017 C 
BRANCH   6   7
HETATM    7  C8  UNL     1      -1.769  -0.107  -1.937  1.00  0.00    -0.014 C 
BRANCH   7   8
HETATM    8  C7  UNL     1      -3.013  -0.193  -1.711  1.00  0.00    -0.148 C 
BRANCH   8   9
HETATM    9  C6  UNL     1      -4.403  -0.291  -1.459  1.00  0.00     0.089 C 
BRANCH   9  10
HETATM   10  C5  UNL     1      -4.800  -1.108  -0.223  1.00  0.00     0.039 C 
BRANCH  10  11
HETATM   11  C4  UNL     1      -4.240  -0.523   1.013  1.00  0.00    -0.024 C 
HETATM   12  C2  UNL     1      -5.020  -0.100   1.975  1.00  0.00    -0.091 C 
HETATM   13  C1  UNL     1      -6.491  -0.176   1.897  1.00  0.00     0.042 C 
HETATM   14  C3  UNL     1      -4.407   0.501   3.206  1.00  0.00     0.042 C 
ENDBRANCH  10  11
ENDBRANCH   9  10
ENDBRANCH   8   9
ENDBRANCH   7   8
BRANCH   7  15
HETATM   15  C21 UNL     1      -0.928  -0.517  -3.042  1.00  0.00     0.018 C 
HETATM   16  C22 UNL     1       0.008  -1.682  -2.573  1.00  0.00     0.015 C 
HETATM   17  C23 UNL     1      -1.645  -1.063  -4.254  1.00  0.00     0.015 C 
ENDBRANCH   7  15
ENDBRANCH   6   7
ENDBRANCH   1   5
BRANCH   1  18
HETATM   18  C12 UNL     1       2.335   1.709   0.215  1.00  0.00     0.039 C 
HETATM   19  C13 UNL     1       2.750   2.625   1.392  1.00  0.00     0.011 C 
HETATM   20  C14 UNL     1       4.272   2.390   1.457  1.00  0.00     0.006 C 
HETATM   21  C15 UNL     1       4.524   1.129   0.657  1.00  0.00    -0.007 C 
HETATM   22  C16 UNL     1       5.466   0.164   1.270  1.00  0.00     0.036 C 
HETATM   23  C20 UNL     1       3.129   0.487   0.660  1.00  0.00    -0.000 C 
HETATM   24  C17 UNL     1       5.455  -1.132   0.518  1.00  0.00     0.118 C 
HETATM   25  C18 UNL     1       4.076  -1.697   0.307  1.00  0.00     0.032 C 
HETATM   26  C19 UNL     1       3.140  -0.648  -0.283  1.00  0.00     0.008 C 
BRANCH  24  27
HETATM   27  O1  UNL     1       6.167  -2.053   1.303  1.00  0.00    -0.396 OA
ATOM     28  H1  UNL     1       6.160  -2.875   0.826  1.00  0.00     0.210 HD
ENDBRANCH  24  27
ENDBRANCH   1  18
TORSDOF 9
