REMARK  14 active torsions:
REMARK  status: ('A' for Active; 'I' for Inactive)
REMARK    1  A    between atoms: N2_5  and  C4_6 
REMARK    2  A    between atoms: C4_6  and  C5_7 
REMARK    3  A    between atoms: C5_7  and  O1_8 
REMARK    4  A    between atoms: O1_8  and  C6_9 
REMARK    5  A    between atoms: C6_9  and  C7_10 
REMARK    6  A    between atoms: C7_10  and  O2_11 
REMARK    7  A    between atoms: O2_11  and  C8_12 
REMARK    8  A    between atoms: C10_14  and  N3_15 
REMARK    9  A    between atoms: N3_15  and  C11_17 
REMARK   10  A    between atoms: C11_17  and  C12_18 
REMARK   11  A    between atoms: C12_18  and  N4_19 
REMARK   12  A    between atoms: C18_26  and  N5_27 
REMARK   13  A    between atoms: N5_27  and  C19_29 
REMARK   14  A    between atoms: C26_37  and  N7_38 
ROOT
HETATM    1  C8  UNL     1       0.883   0.090  -2.568  1.00  0.00     0.073 A 
HETATM    2  C9  UNL     1       0.306  -0.058  -1.336  1.00  0.00     0.067 A 
HETATM    3  C10 UNL     1      -0.886   0.627  -0.985  1.00  0.00     0.045 A 
HETATM    4  C17 UNL     1      -1.468   1.457  -1.895  1.00  0.00     0.045 A 
HETATM    5  C18 UNL     1      -2.655   2.192  -1.600  1.00  0.00     0.070 A 
HETATM    6  C31 UNL     1      -3.120   2.986  -2.621  1.00  0.00     0.087 A 
HETATM    7  C32 UNL     1      -4.321   3.765  -2.450  1.00  0.00     0.103 C 
HETATM    8  N8  UNL     1      -5.267   4.380  -2.359  1.00  0.00    -0.191 NA
HETATM    9  C33 UNL     1      -2.461   3.060  -3.843  1.00  0.00     0.113 A 
HETATM   10  N9  UNL     1      -1.356   2.372  -4.084  1.00  0.00    -0.363 N 
ATOM     11  H9  UNL     1      -0.892   2.447  -4.989  1.00  0.00     0.165 HD
HETATM   12  C34 UNL     1      -0.854   1.581  -3.136  1.00  0.00     0.049 A 
HETATM   13  C35 UNL     1       0.311   0.919  -3.501  1.00  0.00     0.067 A 
ENDROOT
BRANCH   5  14
HETATM   14  N5  UNL     1      -3.088   2.162  -0.462  1.00  0.00    -0.352 N 
ATOM     15  H5  UNL     1      -2.492   1.583   0.129  1.00  0.00     0.166 HD
BRANCH  14  16
HETATM   16  C19 UNL     1      -4.132   2.669   0.267  1.00  0.00     0.063 A 
HETATM   17  C20 UNL     1      -3.937   3.898   0.945  1.00  0.00     0.049 A 
HETATM   18  C21 UNL     1      -4.862   4.480   1.754  1.00  0.00     0.099 A 
HETATM   19  N6  UNL     1      -6.050   3.823   1.912  1.00  0.00    -0.331 N 
HETATM   20  C22 UNL     1      -7.123   4.162   2.643  1.00  0.00     0.097 A 
HETATM   21  C25 UNL     1      -6.275   2.656   1.287  1.00  0.00     0.067 A 
HETATM   22  C23 UNL     1      -8.072   3.184   2.487  1.00  0.00     0.020 A 
HETATM   23  C24 UNL     1      -7.559   2.229   1.639  1.00  0.00     0.034 A 
HETATM   24  C26 UNL     1      -5.356   2.037   0.457  1.00  0.00     0.085 A 
BRANCH  24  25
HETATM   25  N7  UNL     1      -5.676   0.821  -0.161  1.00  0.00    -0.377 N 
HETATM   26  C27 UNL     1      -5.431  -0.556   0.289  1.00  0.00     0.123 C 
HETATM   27  C28 UNL     1      -4.997  -1.232  -0.997  1.00  0.00     0.021 C 
HETATM   28  C29 UNL     1      -5.605  -0.411  -2.132  1.00  0.00     0.021 C 
HETATM   29  C30 UNL     1      -6.399   0.647  -1.424  1.00  0.00     0.123 C 
ENDBRANCH  24  25
ENDBRANCH  14  16
ENDBRANCH   5  14
BRANCH   3  30
HETATM   30  N3  UNL     1      -1.471   0.316   0.255  1.00  0.00    -0.387 N 
ATOM     31  H3  UNL     1      -2.459   0.517   0.410  1.00  0.00     0.159 HD
BRANCH  30  32
HETATM   32  C11 UNL     1      -0.665  -0.305   1.350  1.00  0.00     0.150 C 
BRANCH  32  33
HETATM   33  C12 UNL     1      -0.817  -1.773   1.353  1.00  0.00     0.292 C 
BRANCH  33  34
HETATM   34  N4  UNL     1      -0.090  -2.458   2.362  1.00  0.00     0.094 N 
HETATM   35  C13 UNL     1      -0.288  -3.890   2.169  1.00  0.00     0.298 C 
HETATM   36  C14 UNL     1      -1.657  -4.378   2.460  1.00  0.00     0.198 C 
HETATM   37  O3  UNL     1      -2.162  -3.763   3.569  1.00  0.00    -0.388 OA
HETATM   38  C15 UNL     1      -1.274  -3.138   4.394  1.00  0.00     0.198 C 
HETATM   39  C16 UNL     1      -0.452  -2.069   3.713  1.00  0.00     0.298 C 
ENDBRANCH  33  34
ENDBRANCH  32  33
ENDBRANCH  30  32
ENDBRANCH   3  30
BRANCH   1  40
HETATM   40  O2  UNL     1       2.019  -0.582  -2.887  1.00  0.00    -0.349 OA
BRANCH  40  41
HETATM   41  C7  UNL     1       2.698  -1.521  -2.064  1.00  0.00     0.201 C 
BRANCH  41  42
HETATM   42  C6  UNL     1       3.901  -2.096  -2.729  1.00  0.00     0.194 C 
BRANCH  42  43
HETATM   43  O1  UNL     1       4.888  -1.232  -3.087  1.00  0.00    -0.387 OA
BRANCH  43  44
HETATM   44  C5  UNL     1       5.508  -0.533  -2.083  1.00  0.00     0.198 C 
BRANCH  44  45
HETATM   45  C4  UNL     1       6.141  -1.506  -1.145  1.00  0.00     0.298 C 
BRANCH  45  46
HETATM   46  N2  UNL     1       6.831  -0.745  -0.090  1.00  0.00     0.093 N 
HETATM   47  C3  UNL     1       7.439  -1.729   0.798  1.00  0.00     0.302 C 
HETATM   48  C2  UNL     1       8.022  -1.016   1.979  1.00  0.00     0.302 C 
HETATM   49  N1  UNL     1       8.654   0.220   1.625  1.00  0.00     0.087 N 
HETATM   50  C1  UNL     1       7.940   1.377   2.097  1.00  0.00     0.310 C 
HETATM   51  C37 UNL     1       9.029   0.305   0.234  1.00  0.00     0.302 C 
HETATM   52  C36 UNL     1       7.877   0.065  -0.697  1.00  0.00     0.302 C 
ENDBRANCH  45  46
ENDBRANCH  44  45
ENDBRANCH  43  44
ENDBRANCH  42  43
ENDBRANCH  41  42
ENDBRANCH  40  41
ENDBRANCH   1  40
TORSDOF 14
