REMARK  15 active torsions:
REMARK  status: ('A' for Active; 'I' for Inactive)
REMARK    1  A    between atoms: C2_2  and  C3_3 
REMARK    2  A    between atoms: C3_3  and  C4_4 
REMARK    3  A    between atoms: C4_4  and  C5_5 
REMARK    4  A    between atoms: C5_5  and  C6_6 
REMARK    5  A    between atoms: N1_9  and  C9_10 
REMARK    6  A    between atoms: N3_24  and  C20_25 
REMARK    7  A    between atoms: C20_25  and  C21_26 
REMARK    8  A    between atoms: C21_26  and  O1_27 
REMARK    9  A    between atoms: C21_26  and  C22_29 
REMARK   10  A    between atoms: C22_29  and  N4_30 
REMARK   11  A    between atoms: N5_37  and  C28_39 
REMARK   12  A    between atoms: C28_39  and  C29_40 
REMARK   13  A    between atoms: C29_40  and  C30_41 
REMARK   14  A    between atoms: C30_41  and  N6_42 
REMARK   15  A    between atoms: C35_48  and  O4_49 
ROOT
HETATM    1  C1  UNL     1      -1.504  -0.369  -2.225  1.00  0.00     0.030 C 
HETATM    2  C2  UNL     1      -0.531  -0.004  -1.073  1.00  0.00     0.042 C 
HETATM    3  S1  UNL     1      -1.246   1.567  -0.417  1.00  0.00    -0.097 SA
HETATM    4  C17 UNL     1      -2.855   1.100   0.144  1.00  0.00     0.103 A 
HETATM    5  C18 UNL     1      -3.128  -0.226   0.367  1.00  0.00     0.092 A 
HETATM    6  N2  UNL     1      -4.410  -0.303   0.785  1.00  0.00    -0.348 N 
ATOM      7  H2  UNL     1      -4.902  -1.162   1.030  1.00  0.00     0.167 HD
HETATM    8  C19 UNL     1      -4.941   0.950   0.827  1.00  0.00     0.184 A 
HETATM    9  N3  UNL     1      -3.955   1.774   0.427  1.00  0.00    -0.333 N 
HETATM   10  C27 UNL     1      -2.157  -1.303   0.160  1.00  0.00     0.065 C 
HETATM   11  N5  UNL     1      -2.599  -2.480   0.104  1.00  0.00    -0.389 N 
ATOM     12  H5  UNL     1      -3.612  -2.526   0.212  1.00  0.00     0.159 HD
HETATM   13  C35 UNL     1      -0.710  -1.021  -0.000  1.00  0.00     0.188 C 
ENDROOT
BRANCH   2  14
HETATM   14  C3  UNL     1       0.788   0.149  -1.678  1.00  0.00     0.023 C 
BRANCH  14  15
HETATM   15  C4  UNL     1       1.979   0.452  -0.878  1.00  0.00     0.002 C 
BRANCH  15  16
HETATM   16  C5  UNL     1       1.892   1.722  -0.101  1.00  0.00     0.005 C 
BRANCH  16  17
HETATM   17  C6  UNL     1       3.195   1.973   0.679  1.00  0.00    -0.005 C 
HETATM   18  C7  UNL     1       4.319   2.081  -0.257  1.00  0.00     0.049 C 
HETATM   19  C8  UNL     1       5.363   1.033  -0.194  1.00  0.00     0.064 C 
HETATM   20  N1  UNL     1       5.511   0.292   0.985  1.00  0.00    -0.369 N 
HETATM   21  C15 UNL     1       4.374  -0.006   1.746  1.00  0.00     0.064 C 
HETATM   22  C16 UNL     1       3.342   1.056   1.826  1.00  0.00     0.049 C 
BRANCH  20  23
HETATM   23  C9  UNL     1       6.790  -0.032   1.460  1.00  0.00     0.088 C 
HETATM   24  C10 UNL     1       7.645   1.154   1.841  1.00  0.00     0.026 C 
HETATM   25  C11 UNL     1       8.798   0.614   2.666  1.00  0.00     0.002 C 
HETATM   26  C12 UNL     1       9.652  -0.216   1.704  1.00  0.00     0.000 C 
HETATM   27  C13 UNL     1       8.817  -1.367   1.170  1.00  0.00     0.002 C 
HETATM   28  C14 UNL     1       7.629  -0.801   0.423  1.00  0.00     0.026 C 
ENDBRANCH  20  23
ENDBRANCH  16  17
ENDBRANCH  15  16
ENDBRANCH  14  15
ENDBRANCH   2  14
BRANCH  13  29
HETATM   29  O4  UNL     1      -0.047  -2.159  -0.360  1.00  0.00    -0.388 OA
ATOM     30  H4  UNL     1      -0.161  -2.808   0.325  1.00  0.00     0.210 HD
ENDBRANCH  13  29
BRANCH   9  31
HETATM   31  C20 UNL     1      -4.115   3.217   0.321  1.00  0.00     0.167 C 
BRANCH  31  32
HETATM   32  C21 UNL     1      -4.593   3.624  -1.032  1.00  0.00     0.174 C 
BRANCH  32  33
HETATM   33  O1  UNL     1      -3.712   3.281  -2.047  1.00  0.00    -0.389 OA
ATOM     34  H1  UNL     1      -4.016   3.540  -2.909  1.00  0.00     0.210 HD
ENDBRANCH  32  33
BRANCH  32  35
HETATM   35  C22 UNL     1      -5.030   5.042  -1.102  1.00  0.00     0.091 C 
BRANCH  35  36
HETATM   36  N4  UNL     1      -4.103   6.064  -1.009  1.00  0.00    -0.387 N 
HETATM   37  C23 UNL     1      -3.419   6.410   0.146  1.00  0.00     0.148 C 
HETATM   38  C24 UNL     1      -3.566   7.883   0.533  1.00  0.00     0.187 C 
HETATM   39  O2  UNL     1      -3.383   8.723  -0.539  1.00  0.00    -0.388 OA
HETATM   40  C25 UNL     1      -4.250   8.398  -1.606  1.00  0.00     0.187 C 
HETATM   41  C26 UNL     1      -3.951   6.976  -2.081  1.00  0.00     0.148 C 
ENDBRANCH  35  36
ENDBRANCH  32  35
ENDBRANCH  31  32
ENDBRANCH   9  31
BRANCH  11  42
HETATM   42  C28 UNL     1      -2.014  -3.743  -0.073  1.00  0.00     0.121 C 
BRANCH  42  43
HETATM   43  C29 UNL     1      -3.104  -4.801   0.140  1.00  0.00     0.050 C 
BRANCH  43  44
HETATM   44  C30 UNL     1      -2.546  -6.206  -0.035  1.00  0.00     0.274 C 
BRANCH  44  45
HETATM   45  N6  UNL     1      -3.628  -7.130   0.181  1.00  0.00     0.092 N 
HETATM   46  C31 UNL     1      -3.145  -8.474   0.024  1.00  0.00     0.298 C 
HETATM   47  C32 UNL     1      -4.220  -9.492   0.367  1.00  0.00     0.198 C 
HETATM   48  O3  UNL     1      -5.485  -8.903   0.255  1.00  0.00    -0.388 OA
HETATM   49  C33 UNL     1      -5.527  -8.136  -0.892  1.00  0.00     0.198 C 
HETATM   50  C34 UNL     1      -4.782  -6.828  -0.613  1.00  0.00     0.298 C 
ENDBRANCH  44  45
ENDBRANCH  43  44
ENDBRANCH  42  43
ENDBRANCH  11  42
TORSDOF 15
