REMARK  12 active torsions:
REMARK  status: ('A' for Active; 'I' for Inactive)
REMARK    1  A    between atoms: C2_2  and  C3_3 
REMARK    2  A    between atoms: C3_3  and  C4_5 
REMARK    3  A    between atoms: C4_5  and  O2_6 
REMARK    4  A    between atoms: C4_5  and  N1_8 
REMARK    5  A    between atoms: N1_8  and  C5_9 
REMARK    6  A    between atoms: N1_8  and  C16_25 
REMARK    7  A    between atoms: C5_9  and  C6_10 
REMARK       I    between atoms: C6_10  and  N2_12 
REMARK    8  A    between atoms: N2_12  and  C7_14 
REMARK    9  A    between atoms: C7_14  and  C8_15 
REMARK   10  A    between atoms: C7_14  and  C15_22 
REMARK   11  A    between atoms: C8_15  and  C9_16 
REMARK   12  A    between atoms: C16_25  and  C17_26 
ROOT
HETATM    1  N1  UNL     1      -0.928   0.989   1.686  1.00  0.00    -0.325 N 
ENDROOT
BRANCH   1   2
HETATM    2  C4  UNL     1      -1.064   2.324   1.305  1.00  0.00     0.190 C 
BRANCH   2   3
HETATM    3  C3  UNL     1      -2.251   3.149   1.252  1.00  0.00     0.208 C 
HETATM    4  O1  UNL     1      -3.383   2.742   1.613  1.00  0.00    -0.288 OA
BRANCH   3   5
HETATM    5  C2  UNL     1      -2.166   4.569   0.746  1.00  0.00     0.025 C 
HETATM    6  C1  UNL     1      -1.637   4.601  -0.660  1.00  0.00     0.024 C 
HETATM    7  C29 UNL     1      -3.554   5.172   0.727  1.00  0.00     0.017 C 
HETATM    8  C30 UNL     1      -3.890   5.606   2.139  1.00  0.00     0.001 C 
HETATM    9  C31 UNL     1      -3.109   6.856   2.431  1.00  0.00     0.000 C 
HETATM   10  C32 UNL     1      -1.739   6.774   1.828  1.00  0.00     0.001 C 
HETATM   11  C33 UNL     1      -1.274   5.321   1.695  1.00  0.00     0.017 C 
ENDBRANCH   3   5
ENDBRANCH   2   3
BRANCH   2  12
HETATM   12  O2  UNL     1       0.013   2.959   0.937  1.00  0.00    -0.343 OA
ATOM     13  H2  UNL     1       0.793   2.417   0.972  1.00  0.00     0.219 HD
ENDBRANCH   2  12
ENDBRANCH   1   2
BRANCH   1  14
HETATM   14  C5  UNL     1       0.438   0.449   1.702  1.00  0.00     0.233 C 
BRANCH  14  15
HETATM   15  C6  UNL     1       0.845  -0.026   0.369  1.00  0.00     0.236 C 
HETATM   16  O3  UNL     1       0.075   0.092  -0.598  1.00  0.00    -0.272 OA
HETATM   17  N2  UNL     1       2.116  -0.624   0.157  1.00  0.00    -0.345 N 
ATOM     18  H2  UNL     1       2.742  -0.719   0.957  1.00  0.00     0.163 HD
BRANCH  17  19
HETATM   19  C7  UNL     1       2.576  -1.109  -1.136  1.00  0.00     0.185 C 
BRANCH  19  20
HETATM   20  C8  UNL     1       3.676  -0.237  -1.612  1.00  0.00     0.041 C 
BRANCH  20  21
HETATM   21  C9  UNL     1       4.883  -0.095  -0.763  1.00  0.00    -0.012 C 
HETATM   22  C10 UNL     1       5.818   0.875  -1.510  1.00  0.00     0.005 C 
HETATM   23  C11 UNL     1       6.971   0.065  -2.032  1.00  0.00     0.000 C 
HETATM   24  C12 UNL     1       7.829  -0.307  -0.834  1.00  0.00     0.000 C 
HETATM   25  C13 UNL     1       6.991  -1.144   0.075  1.00  0.00     0.000 C 
HETATM   26  C14 UNL     1       5.583  -1.376  -0.471  1.00  0.00     0.005 C 
ENDBRANCH  20  21
ENDBRANCH  19  20
BRANCH  19  27
HETATM   27  C15 UNL     1       2.780  -2.541  -1.112  1.00  0.00     0.196 C 
HETATM   28  O4  UNL     1       2.581  -3.210  -0.069  1.00  0.00    -0.646 OA
HETATM   29  O5  UNL     1       3.200  -3.217  -2.247  1.00  0.00    -0.646 OA
ENDBRANCH  19  27
ENDBRANCH  17  19
ENDBRANCH  14  15
ENDBRANCH   1  14
BRANCH   1  30
HETATM   30  C16 UNL     1      -1.972   0.125   2.067  1.00  0.00     0.105 C 
BRANCH  30  31
HETATM   31  C17 UNL     1      -2.483  -0.844   1.087  1.00  0.00    -0.020 A 
HETATM   32  C18 UNL     1      -3.385  -0.543   0.109  1.00  0.00     0.013 A 
HETATM   33  C19 UNL     1      -3.856  -1.512  -0.786  1.00  0.00     0.008 A 
HETATM   34  C20 UNL     1      -3.389  -2.801  -0.666  1.00  0.00    -0.052 A 
HETATM   35  C21 UNL     1      -2.485  -3.154   0.296  1.00  0.00    -0.051 A 
HETATM   36  C28 UNL     1      -4.068  -3.572  -1.739  1.00  0.00     0.039 C 
HETATM   37  C22 UNL     1      -2.040  -2.179   1.162  1.00  0.00     0.020 A 
HETATM   38  C23 UNL     1      -1.741  -4.340   0.780  1.00  0.00     0.039 C 
HETATM   39  C24 UNL     1      -2.033  -5.613   0.081  1.00  0.00     0.005 C 
HETATM   40  C25 UNL     1      -2.108  -5.546  -1.405  1.00  0.00     0.000 C 
HETATM   41  C26 UNL     1      -3.542  -5.942  -1.788  1.00  0.00     0.000 C 
HETATM   42  C27 UNL     1      -4.508  -4.910  -1.229  1.00  0.00     0.005 C 
ENDBRANCH  30  31
ENDBRANCH   1  30
TORSDOF 12
