REMARK  12 active torsions:
REMARK  status: ('A' for Active; 'I' for Inactive)
REMARK    1  A    between atoms: O1_2  and  C2_3 
REMARK    2  A    between atoms: C6_7  and  O2_8 
REMARK    3  A    between atoms: N1_11  and  C8_12 
REMARK    4  A    between atoms: C8_12  and  C9_13 
REMARK    5  A    between atoms: C9_13  and  N2_14 
REMARK    6  A    between atoms: N2_14  and  O3_15 
REMARK    7  A    between atoms: N2_14  and  O4_17 
REMARK    8  A    between atoms: C10_19  and  N3_20 
REMARK    9  A    between atoms: N3_20  and  N4_22 
REMARK   10  A    between atoms: N4_22  and  N5_23 
REMARK   11  A    between atoms: C11_26  and  O5_27 
REMARK   12  A    between atoms: O5_27  and  C12_28 
ROOT
HETATM    1  C2  UNL     1      -1.838  -0.806   0.514  1.00  0.00     0.098 C 
HETATM    2  C3  UNL     1      -2.234  -2.181  -0.052  1.00  0.00     0.042 C 
HETATM    3  C4  UNL     1      -1.066  -3.109   0.324  1.00  0.00     0.012 C 
HETATM    4  C5  UNL     1      -0.082  -2.150   0.964  1.00  0.00     0.052 C 
HETATM    5  C6  UNL     1      -1.096  -1.313   1.735  1.00  0.00     0.160 C 
HETATM    6  C7  UNL     1       0.381  -1.218  -0.125  1.00  0.00     0.246 C 
HETATM    7  N1  UNL     1       1.480  -0.375   0.273  1.00  0.00     0.123 N 
HETATM    8  C10 UNL     1       1.207   0.944  -0.267  1.00  0.00     0.380 C 
HETATM    9  C11 UNL     1      -0.320   1.094  -0.196  1.00  0.00     0.200 C 
HETATM   10  C14 UNL     1      -0.780  -0.289  -0.416  1.00  0.00     0.052 C 
HETATM   11  C15 UNL     1      -1.184  -0.425  -1.876  1.00  0.00     0.023 C 
ENDROOT
BRANCH   7  12
HETATM   12  C8  UNL     1       2.682  -0.919  -0.330  1.00  0.00     0.295 C 
BRANCH  12  13
HETATM   13  C9  UNL     1       3.902  -0.105   0.042  1.00  0.00     0.183 C 
BRANCH  13  14
HETATM   14  N2  UNL     1       4.032  -0.139   1.506  1.00  0.00    -0.072 NA
BRANCH  14  15
HETATM   15  O3  UNL     1       4.007   1.111   2.004  1.00  0.00    -0.289 OA
ATOM     16  H3  UNL     1       4.091   1.089   2.950  1.00  0.00     0.239 HD
ENDBRANCH  14  15
BRANCH  14  17
HETATM   17  O4  UNL     1       5.166  -0.776   1.884  1.00  0.00    -0.289 OA
ATOM     18  H4  UNL     1       5.250  -0.798   2.830  1.00  0.00     0.239 HD
ENDBRANCH  14  17
ENDBRANCH  13  14
ENDBRANCH  12  13
ENDBRANCH   7  12
BRANCH   8  19
HETATM   19  N3  UNL     1       1.599   1.044  -1.655  1.00  0.00    -0.216 N 
ATOM     20  H3  UNL     1       1.739   0.173  -2.167  1.00  0.00     0.199 HD
BRANCH  19  21
HETATM   21  N4  UNL     1       1.774   2.076  -2.256  1.00  0.00    -0.246 NA
BRANCH  21  22
HETATM   22  N5  UNL     1       2.021   3.217  -2.658  1.00  0.00    -0.261 N 
ATOM     23  H52 UNL     1       2.292   3.487  -1.712  1.00  0.00     0.193 HD
ATOM     24  H51 UNL     1       2.169   4.089  -3.166  1.00  0.00     0.193 HD
ENDBRANCH  21  22
ENDBRANCH  19  21
ENDBRANCH   8  19
BRANCH   9  25
HETATM   25  O5  UNL     1      -0.763   1.995  -1.223  1.00  0.00    -0.311 OA
BRANCH  25  26
HETATM   26  C12 UNL     1      -1.361   3.212  -0.926  1.00  0.00     0.255 C 
HETATM   27  C13 UNL     1      -1.823   4.149  -1.998  1.00  0.00     0.126 C 
HETATM   28  O6  UNL     1      -1.532   3.561   0.271  1.00  0.00    -0.266 OA
ENDBRANCH  25  26
ENDBRANCH   9  25
BRANCH   5  29
HETATM   29  O2  UNL     1      -0.522  -0.360   2.519  1.00  0.00    -0.392 OA
ATOM     30  H2  UNL     1      -0.057  -0.678   3.284  1.00  0.00     0.210 HD
ENDBRANCH   5  29
BRANCH   1  31
HETATM   31  O1  UNL     1      -2.867   0.028   0.741  1.00  0.00    -0.381 OA
HETATM   32  C1  UNL     1      -3.848  -0.348   1.608  1.00  0.00     0.202 C 
ENDBRANCH   1  31
TORSDOF 12
