REMARK  10 active torsions:
REMARK  status: ('A' for Active; 'I' for Inactive)
REMARK    1  A    between atoms: C2_2  and  C3_3 
REMARK    2  A    between atoms: C2_2  and  C8_15 
REMARK    3  A    between atoms: C3_3  and  O1_4 
REMARK    4  A    between atoms: O1_4  and  C4_5 
REMARK    5  A    between atoms: C4_5  and  C5_7 
REMARK    6  A    between atoms: C10_17  and  O4_18 
REMARK    7  A    between atoms: O4_18  and  C11_19 
REMARK    8  A    between atoms: C13_22  and  O6_23 
REMARK    9  A    between atoms: C14_25  and  C15_26 
REMARK   10  A    between atoms: C15_26  and  O8_28 
ROOT
HETATM    1  C8  UNL     1      -0.950   0.974   0.691  1.00  0.00     0.034 C 
HETATM    2  C9  UNL     1      -1.756  -0.283   1.057  1.00  0.00     0.045 C 
HETATM    3  C10 UNL     1      -3.150   0.178   0.846  1.00  0.00     0.162 C 
HETATM    4  C13 UNL     1      -3.086   1.347  -0.059  1.00  0.00     0.162 C 
HETATM    5  C14 UNL     1      -1.608   1.370  -0.563  1.00  0.00     0.125 C 
ENDROOT
BRANCH   1   6
HETATM    6  C2  UNL     1       0.495   0.725   0.709  1.00  0.00    -0.060 C 
HETATM    7  C1  UNL     1       1.223   1.530   1.462  1.00  0.00     0.017 C 
BRANCH   6   8
HETATM    8  C3  UNL     1       1.166  -0.379  -0.001  1.00  0.00     0.212 C 
BRANCH   8   9
HETATM    9  O1  UNL     1       2.538  -0.507   0.145  1.00  0.00    -0.314 OA
BRANCH   9  10
HETATM   10  C4  UNL     1       3.515   0.315  -0.401  1.00  0.00     0.308 C 
HETATM   11  O2  UNL     1       3.155   1.272  -1.116  1.00  0.00    -0.260 OA
BRANCH  10  12
HETATM   12  C5  UNL     1       4.955   0.066  -0.153  1.00  0.00     0.197 C 
HETATM   13  C6  UNL     1       5.333  -1.318   0.249  1.00  0.00     0.075 C 
HETATM   14  N1  UNL     1       5.832   0.733  -1.117  1.00  0.00    -0.308 N 
HETATM   15  C7  UNL     1       6.605   1.328  -0.084  1.00  0.00     0.320 C 
ATOM     16  H1  UNL     1       5.872   0.760  -2.136  1.00  0.00     0.167 HD
HETATM   17  O3  UNL     1       7.747   1.872   0.022  1.00  0.00    -0.247 OA
HETATM   18  N2  UNL     1       5.522   1.038   0.788  1.00  0.00    -0.308 N 
ATOM     19  H2  UNL     1       5.246   1.375   1.710  1.00  0.00     0.167 HD
ENDBRANCH  10  12
ENDBRANCH   9  10
ENDBRANCH   8   9
ENDBRANCH   6   8
ENDBRANCH   1   6
BRANCH   5  20
HETATM   20  C15 UNL     1      -1.454   0.581  -1.760  1.00  0.00     0.265 C 
HETATM   21  O7  UNL     1      -0.986   1.098  -2.809  1.00  0.00    -0.265 OA
BRANCH  20  22
HETATM   22  O8  UNL     1      -1.784  -0.765  -1.890  1.00  0.00    -0.326 OA
HETATM   23  C16 UNL     1      -1.627  -1.513  -3.053  1.00  0.00     0.213 C 
ENDBRANCH  20  22
ENDBRANCH   5  20
BRANCH   3  24
HETATM   24  O4  UNL     1      -4.039  -0.829   0.432  1.00  0.00    -0.314 OA
BRANCH  24  25
HETATM   25  C11 UNL     1      -5.093  -1.250   1.213  1.00  0.00     0.255 C 
HETATM   26  C12 UNL     1      -6.047  -2.309   0.788  1.00  0.00     0.126 C 
HETATM   27  O5  UNL     1      -5.230  -0.704   2.314  1.00  0.00    -0.266 OA
ENDBRANCH  24  25
ENDBRANCH   3  24
BRANCH   4  28
HETATM   28  O6  UNL     1      -3.238   2.543   0.676  1.00  0.00    -0.392 OA
ATOM     29  H6  UNL     1      -3.197   3.293   0.095  1.00  0.00     0.210 HD
ENDBRANCH   4  28
TORSDOF 10
