REMARK  7 active torsions:
REMARK  status: ('A' for Active; 'I' for Inactive)
REMARK    1  A    between atoms: C2_2  and  O1_3 
REMARK    2  A    between atoms: O1_3  and  C3_4 
REMARK    3  A    between atoms: C6_8  and  C8_10 
REMARK    4  A    between atoms: C10_14  and  O5_15 
REMARK    5  A    between atoms: O5_15  and  C11_16 
REMARK    6  A    between atoms: C13_19  and  C14_20 
REMARK    7  A    between atoms: C16_25  and  O10_26 
ROOT
HETATM    1  C3  UNL     1      -1.044  -0.464   0.182  1.00  0.00     0.144 C 
HETATM    2  C4  UNL     1      -1.692   0.271   1.288  1.00  0.00     0.297 C 
HETATM    3  O2  UNL     1      -2.168   1.532   0.844  1.00  0.00    -0.357 OA
HETATM    4  C5  UNL     1      -1.086   2.360   0.534  1.00  0.00     0.192 C 
HETATM    5  C6  UNL     1      -0.429   1.772  -0.695  1.00  0.00     0.075 C 
HETATM    6  C7  UNL     1      -1.545   1.686  -1.748  1.00  0.00     0.029 C 
HETATM    7  C9  UNL     1       0.060   0.372  -0.494  1.00  0.00     0.080 C 
HETATM    8  C10 UNL     1       1.232   0.220   0.421  1.00  0.00     0.164 C 
HETATM    9  C13 UNL     1       0.840  -0.801   1.473  1.00  0.00     0.125 C 
HETATM   10  C15 UNL     1       0.199  -0.098   2.630  1.00  0.00     0.197 C 
HETATM   11  O9  UNL     1      -0.961   0.521   2.406  1.00  0.00    -0.357 OA
HETATM   12  C16 UNL     1      -0.205  -1.607   0.708  1.00  0.00     0.182 C 
ENDROOT
BRANCH   5  13
HETATM   13  C8  UNL     1       0.612   2.630  -1.256  1.00  0.00     0.184 C 
HETATM   14  O3  UNL     1       0.923   3.718  -0.734  1.00  0.00    -0.647 OA
HETATM   15  O4  UNL     1       1.281   2.232  -2.402  1.00  0.00    -0.647 OA
ENDBRANCH   5  13
BRANCH   1  16
HETATM   16  O1  UNL     1      -1.910  -0.822  -0.800  1.00  0.00    -0.372 OA
BRANCH  16  17
HETATM   17  C2  UNL     1      -2.953  -1.638  -0.490  1.00  0.00     0.164 C 
HETATM   18  C1  UNL     1      -3.725  -1.867  -1.804  1.00  0.00     0.033 C 
ENDBRANCH  16  17
ENDBRANCH   1  16
BRANCH   8  19
HETATM   19  O5  UNL     1       2.292  -0.399  -0.325  1.00  0.00    -0.314 OA
BRANCH  19  20
HETATM   20  C11 UNL     1       3.541   0.135  -0.468  1.00  0.00     0.255 C 
HETATM   21  C12 UNL     1       4.564  -0.599  -1.267  1.00  0.00     0.126 C 
HETATM   22  O6  UNL     1       3.813   1.221   0.065  1.00  0.00    -0.266 OA
ENDBRANCH  19  20
ENDBRANCH   8  19
BRANCH  12  23
HETATM   23  O10 UNL     1      -0.913  -2.450   1.557  1.00  0.00    -0.391 OA
ATOM     24  H10 UNL     1      -0.386  -3.168   1.887  1.00  0.00     0.210 HD
ENDBRANCH  12  23
BRANCH   9  25
HETATM   25  C14 UNL     1       1.977  -1.644   1.883  1.00  0.00     0.189 C 
HETATM   26  O7  UNL     1       1.975  -2.894   1.729  1.00  0.00    -0.647 OA
HETATM   27  O8  UNL     1       3.087  -1.073   2.454  1.00  0.00    -0.647 OA
ENDBRANCH   9  25
TORSDOF 7
