REMARK  10 active torsions:
REMARK  status: ('A' for Active; 'I' for Inactive)
REMARK    1  A    between atoms: C2_2  and  C3_3 
REMARK    2  A    between atoms: C5_5  and  N1_6 
REMARK    3  A    between atoms: N1_6  and  C6_7 
REMARK       I    between atoms: N1_6  and  C10_11 
REMARK    4  A    between atoms: C6_7  and  C7_8 
REMARK    5  A    between atoms: C10_11  and  O2_13 
REMARK    6  A    between atoms: C13_16  and  O3_17 
REMARK    7  A    between atoms: O3_17  and  C14_18 
REMARK    8  A    between atoms: C16_21  and  O5_22 
REMARK    9  A    between atoms: C17_24  and  O6_25 
REMARK   10  A    between atoms: C18_27  and  O7_28 
ROOT
HETATM    1  C3  UNL     1      -0.473   1.575  -2.157  1.00  0.00     0.126 C 
HETATM    2  C4  UNL     1      -1.636   1.296  -1.231  1.00  0.00     0.057 C 
HETATM    3  C5  UNL     1      -1.268   0.240  -0.205  1.00  0.00     0.096 C 
HETATM    4  C12 UNL     1      -0.116   0.849   0.563  1.00  0.00     0.086 C 
HETATM    5  C13 UNL     1       1.019   0.868  -0.482  1.00  0.00     0.265 C 
HETATM    6  O8  UNL     1       0.734   1.669  -1.537  1.00  0.00    -0.356 OA
ENDROOT
BRANCH   5   7
HETATM    7  O3  UNL     1       2.161   1.370   0.135  1.00  0.00    -0.329 OA
BRANCH   7   8
HETATM    8  C14 UNL     1       3.116   0.385   0.221  1.00  0.00     0.294 C 
HETATM    9  O4  UNL     1       4.270   0.723  -0.523  1.00  0.00    -0.356 OA
HETATM   10  C15 UNL     1       4.961  -0.490  -0.707  1.00  0.00     0.205 C 
HETATM   11  C16 UNL     1       5.541  -0.906   0.613  1.00  0.00     0.173 C 
HETATM   12  C17 UNL     1       4.433  -1.100   1.627  1.00  0.00     0.182 C 
HETATM   13  C18 UNL     1       3.606   0.182   1.645  1.00  0.00     0.204 C 
BRANCH  11  14
HETATM   14  O5  UNL     1       6.449   0.058   1.046  1.00  0.00    -0.391 OA
ATOM     15  H5  UNL     1       6.816  -0.205   1.882  1.00  0.00     0.210 HD
ENDBRANCH  11  14
BRANCH  12  16
HETATM   16  O6  UNL     1       3.591  -2.099   1.141  1.00  0.00    -0.390 OA
ATOM     17  H6  UNL     1       2.896  -2.221   1.777  1.00  0.00     0.210 HD
ENDBRANCH  12  16
BRANCH  13  18
HETATM   18  O7  UNL     1       4.378   1.282   1.990  1.00  0.00    -0.388 OA
ATOM     19  H7  UNL     1       4.684   1.155   2.880  1.00  0.00     0.210 HD
ENDBRANCH  13  18
ENDBRANCH   7   8
ENDBRANCH   5   7
BRANCH   3  20
HETATM   20  N1  UNL     1      -2.383  -0.155   0.580  1.00  0.00    -0.323 N 
HETATM   21  C10 UNL     1      -3.095   0.773   1.366  1.00  0.00     0.362 C 
HETATM   22  O1  UNL     1      -4.099   0.390   2.072  1.00  0.00    -0.238 OA
BRANCH  20  23
HETATM   23  C6  UNL     1      -2.817  -1.532   0.569  1.00  0.00     0.133 C 
BRANCH  23  24
HETATM   24  C7  UNL     1      -3.776  -1.907  -0.495  1.00  0.00     0.004 A 
HETATM   25  C8  UNL     1      -5.101  -1.348  -0.722  1.00  0.00     0.007 A 
HETATM   26  C9  UNL     1      -5.038  -2.654   0.031  1.00  0.00     0.007 A 
ENDBRANCH  23  24
ENDBRANCH  20  23
BRANCH  21  27
HETATM   27  O2  UNL     1      -2.823   2.129   1.475  1.00  0.00    -0.309 OA
HETATM   28  C11 UNL     1      -3.589   3.002   2.292  1.00  0.00     0.215 C 
ENDBRANCH  21  27
ENDBRANCH   3  20
BRANCH   1  29
HETATM   29  C2  UNL     1      -0.480   0.791  -3.419  1.00  0.00     0.027 C 
HETATM   30  C1  UNL     1      -0.443  -0.676  -3.347  1.00  0.00     0.007 C 
ENDBRANCH   1  29
TORSDOF 10
