REMARK  9 active torsions:
REMARK  status: ('A' for Active; 'I' for Inactive)
REMARK    1  A    between atoms: C2_2  and  C3_3 
REMARK    2  A    between atoms: N1_6  and  C6_7 
REMARK    3  A    between atoms: C8_9  and  C9_10 
REMARK    4  A    between atoms: C9_10  and  C10_11 
REMARK    5  A    between atoms: C11_13  and  O2_14 
REMARK    6  A    between atoms: C13_16  and  O3_17 
REMARK    7  A    between atoms: C14_19  and  O4_20 
REMARK    8  A    between atoms: C15_22  and  C16_23 
REMARK    9  A    between atoms: C16_23  and  O5_24 
ROOT
HETATM    1  C10 UNL     1      -2.603   0.282   0.810  1.00  0.00     0.136 C 
HETATM    2  O1  UNL     1      -2.984  -0.514  -0.246  1.00  0.00    -0.353 OA
HETATM    3  C11 UNL     1      -4.276  -0.982  -0.031  1.00  0.00     0.290 C 
HETATM    4  C13 UNL     1      -5.079  -0.240   0.959  1.00  0.00     0.202 C 
HETATM    5  C14 UNL     1      -4.802   1.219   1.085  1.00  0.00     0.160 C 
HETATM    6  C15 UNL     1      -3.362   1.580   0.675  1.00  0.00     0.070 C 
ENDROOT
BRANCH   1   7
HETATM    7  C9  UNL     1      -1.167   0.389   1.093  1.00  0.00     0.065 C 
BRANCH   7   8
HETATM    8  C8  UNL     1      -0.247   0.916   0.068  1.00  0.00     0.130 C 
HETATM    9  C7  UNL     1       1.146   0.903   0.653  1.00  0.00     0.096 C 
HETATM   10  C6  UNL     1       2.227   0.542  -0.295  1.00  0.00     0.362 C 
HETATM   11  O7  UNL     1       1.808   0.175  -1.563  1.00  0.00    -0.332 OA
HETATM   12  C17 UNL     1       0.679  -0.654  -1.351  1.00  0.00     0.341 C 
HETATM   13  O6  UNL     1      -0.374   0.217  -1.100  1.00  0.00    -0.361 OA
BRANCH  10  14
HETATM   14  N1  UNL     1       3.034  -0.583   0.206  1.00  0.00     0.117 N 
HETATM   15  C5  UNL     1       3.697  -0.230   1.439  1.00  0.00     0.276 C 
HETATM   16  C4  UNL     1       5.163  -0.451   1.249  1.00  0.00     0.036 C 
HETATM   17  C3  UNL     1       5.315  -0.205  -0.246  1.00  0.00     0.015 C 
HETATM   18  C18 UNL     1       4.062  -0.841  -0.781  1.00  0.00     0.280 C 
BRANCH  17  19
HETATM   19  C2  UNL     1       6.559  -0.896  -0.774  1.00  0.00     0.002 C 
HETATM   20  C1  UNL     1       6.663  -0.620  -2.251  1.00  0.00     0.005 C 
ENDBRANCH  17  19
ENDBRANCH  10  14
ENDBRANCH   7   8
ENDBRANCH   1   7
BRANCH   6  21
HETATM   21  C16 UNL     1      -3.490   2.038  -0.776  1.00  0.00     0.174 C 
BRANCH  21  22
HETATM   22  O5  UNL     1      -4.208   3.257  -0.801  1.00  0.00    -0.400 OA
ATOM     23  H5  UNL     1      -4.288   3.542  -1.704  1.00  0.00     0.209 HD
ENDBRANCH  21  22
ENDBRANCH   6  21
BRANCH   3  24
HETATM   24  O2  UNL     1      -4.167  -2.333   0.269  1.00  0.00    -0.363 OA
HETATM   25  C12 UNL     1      -4.705  -3.157  -0.704  1.00  0.00     0.204 C 
ENDBRANCH   3  24
BRANCH   5  26
HETATM   26  O4  UNL     1      -4.898   1.638   2.434  1.00  0.00    -0.392 OA
ATOM     27  H4  UNL     1      -4.721   2.568   2.514  1.00  0.00     0.210 HD
ENDBRANCH   5  26
BRANCH   4  28
HETATM   28  O3  UNL     1      -6.444  -0.356   0.599  1.00  0.00    -0.388 OA
ATOM     29  H3  UNL     1      -6.961   0.122   1.237  1.00  0.00     0.210 HD
ENDBRANCH   4  28
TORSDOF 9
