REMARK  19 active torsions:
REMARK  status: ('A' for Active; 'I' for Inactive)
REMARK    1  A    between atoms: O1_2  and  C2_3 
REMARK    2  A    between atoms: C2_3  and  C3_5 
REMARK    3  A    between atoms: C4_6  and  C5_7 
REMARK    4  A    between atoms: C7_10  and  O4_11 
REMARK    5  A    between atoms: C8_13  and  O5_14 
REMARK    6  A    between atoms: C9_16  and  N1_17 
REMARK    7  A    between atoms: C10_20  and  S1_21 
REMARK    8  A    between atoms: S1_21  and  C11_22 
REMARK    9  A    between atoms: C11_22  and  C12_23 
REMARK   10  A    between atoms: C12_23  and  C13_24 
REMARK   11  A    between atoms: C13_24  and  C14_25 
REMARK   12  A    between atoms: C14_25  and  C15_26 
REMARK   13  A    between atoms: C15_26  and  N3_27 
REMARK   14  A    between atoms: C16_33  and  N5_34 
REMARK   15  A    between atoms: N5_34  and  C17_36 
REMARK   16  A    between atoms: C17_36  and  N6_37 
REMARK   17  A    between atoms: C24_48  and  N9_49 
REMARK   18  A    between atoms: N9_49  and  N10_51 
REMARK   19  A    between atoms: N11_54  and  N12_55 
ROOT
HETATM    1  C5  UNL     1       3.111  -0.457  -1.165  1.00  0.00     0.235 C 
HETATM    2  O3  UNL     1       2.373  -1.597  -1.000  1.00  0.00    -0.360 OA
HETATM    3  C6  UNL     1       1.722  -1.617   0.202  1.00  0.00     0.170 C 
HETATM    4  C7  UNL     1       0.739  -2.749   0.196  1.00  0.00     0.179 C 
HETATM    5  C8  UNL     1      -0.523  -2.199  -0.436  1.00  0.00     0.176 C 
HETATM    6  C9  UNL     1      -0.231  -0.744  -0.735  1.00  0.00     0.174 C 
HETATM    7  C23 UNL     1       0.800  -0.411   0.250  1.00  0.00     0.110 C 
HETATM    8  S2  UNL     1       2.028   0.808  -0.383  1.00  0.00    -0.121 SA
ENDROOT
BRANCH   6   9
HETATM    9  N1  UNL     1      -1.466  -0.008  -0.663  1.00  0.00    -0.113 N 
HETATM   10  N2  UNL     1      -2.564  -0.439  -1.284  1.00  0.00    -0.262 N 
HETATM   11  C10 UNL     1      -3.566   0.401  -1.075  1.00  0.00     0.174 A 
ATOM     12  H2  UNL     1      -2.624  -1.292  -1.840  1.00  0.00     0.190 HD
HETATM   13  N4  UNL     1      -3.073   1.377  -0.305  1.00  0.00    -0.168 N 
HETATM   14  C16 UNL     1      -1.779   1.124  -0.051  1.00  0.00     0.699 A 
ATOM     15  H4  UNL     1      -3.596   2.184   0.035  1.00  0.00     0.186 HD
BRANCH  11  16
HETATM   16  S1  UNL     1      -5.242   0.246  -1.713  1.00  0.00    -0.092 SA
BRANCH  16  17
HETATM   17  C11 UNL     1      -6.230  -0.681  -0.518  1.00  0.00     0.082 C 
BRANCH  17  18
HETATM   18  C12 UNL     1      -5.725  -2.107  -0.451  1.00  0.00     0.010 C 
BRANCH  18  19
HETATM   19  C13 UNL     1      -6.512  -2.925   0.527  1.00  0.00     0.002 C 
BRANCH  19  20
HETATM   20  C14 UNL     1      -6.067  -4.354   0.637  1.00  0.00     0.027 C 
BRANCH  20  21
HETATM   21  C15 UNL     1      -4.643  -4.455   1.083  1.00  0.00     0.229 C 
BRANCH  21  22
HETATM   22  N3  UNL     1      -4.221  -5.857   1.191  1.00  0.00    -0.079 N 
ATOM     23  H33 UNL     1      -4.843  -6.391   1.798  1.00  0.00     0.274 HD
ATOM     24  H32 UNL     1      -4.379  -6.365   0.321  1.00  0.00     0.274 HD
ATOM     25  H31 UNL     1      -3.250  -5.926   1.495  1.00  0.00     0.274 HD
ENDBRANCH  21  22
ENDBRANCH  20  21
ENDBRANCH  19  20
ENDBRANCH  18  19
ENDBRANCH  17  18
ENDBRANCH  16  17
ENDBRANCH  11  16
BRANCH  14  26
HETATM   26  N5  UNL     1      -0.952   1.840   0.657  1.00  0.00    -0.197 N 
ATOM     27  H5  UNL     1       0.021   1.563   0.788  1.00  0.00     0.179 HD
BRANCH  26  28
HETATM   28  C17 UNL     1      -1.487   3.050   1.249  1.00  0.00     0.411 C 
BRANCH  28  29
HETATM   29  N6  UNL     1      -1.817   4.032   0.239  1.00  0.00     0.109 N 
HETATM   30  C18 UNL     1      -0.607   4.368  -0.468  1.00  0.00     0.304 C 
HETATM   31  C19 UNL     1      -0.142   5.732   0.020  1.00  0.00     0.302 C 
HETATM   32  N7  UNL     1      -1.087   6.707  -0.453  1.00  0.00     0.087 N 
HETATM   33  C20 UNL     1      -0.722   8.060  -0.077  1.00  0.00     0.310 C 
HETATM   34  C21 UNL     1      -2.438   6.381  -0.104  1.00  0.00     0.302 C 
HETATM   35  C22 UNL     1      -2.560   5.138   0.743  1.00  0.00     0.304 C 
ENDBRANCH  28  29
ENDBRANCH  26  28
ENDBRANCH  14  26
ENDBRANCH   6   9
BRANCH   5  36
HETATM   36  O5  UNL     1      -0.842  -2.895  -1.604  1.00  0.00    -0.391 OA
ATOM     37  H5  UNL     1      -1.633  -2.550  -2.000  1.00  0.00     0.210 HD
ENDBRANCH   5  36
BRANCH   4  38
HETATM   38  O4  UNL     1       0.541  -3.347   1.416  1.00  0.00    -0.390 OA
ATOM     39  H4  UNL     1      -0.082  -4.064   1.412  1.00  0.00     0.210 HD
ENDBRANCH   4  38
BRANCH   1  40
HETATM   40  C4  UNL     1       4.408  -0.562  -0.501  1.00  0.00     0.087 A 
HETATM   41  C3  UNL     1       5.170  -1.691  -0.674  1.00  0.00     0.136 A 
HETATM   42  C25 UNL     1       6.403  -1.809  -0.039  1.00  0.00     0.300 A 
HETATM   43  N11 UNL     1       6.816  -0.784   0.743  1.00  0.00    -0.052 N 
HETATM   44  O6  UNL     1       7.115  -2.835  -0.184  1.00  0.00    -0.264 OA
HETATM   45  C24 UNL     1       6.081   0.325   0.919  1.00  0.00     0.720 A 
HETATM   46  N8  UNL     1       4.897   0.414   0.297  1.00  0.00    -0.188 N 
ATOM     47  H8  UNL     1       4.339   1.257   0.432  1.00  0.00     0.184 HD
BRANCH  41  48
HETATM   48  C2  UNL     1       4.796  -2.827  -1.507  1.00  0.00     0.300 C 
HETATM   49  O2  UNL     1       4.172  -3.832  -1.148  1.00  0.00    -0.259 OA
BRANCH  48  50
HETATM   50  O1  UNL     1       5.191  -2.756  -2.842  1.00  0.00    -0.322 OA
HETATM   51  C1  UNL     1       4.902  -3.778  -3.760  1.00  0.00     0.213 C 
ENDBRANCH  48  50
ENDBRANCH  41  48
BRANCH  43  52
HETATM   52  N12 UNL     1       8.058  -0.956   1.368  1.00  0.00    -0.321 N 
ATOM     53 2H12 UNL     1       8.369  -0.184   1.957  1.00  0.00     0.178 HD
ATOM     54 1H12 UNL     1       8.617  -1.799   1.234  1.00  0.00     0.178 HD
ENDBRANCH  43  52
BRANCH  45  55
HETATM   55  N9  UNL     1       6.516   1.278   1.667  1.00  0.00    -0.137 N 
ATOM     56  H9  UNL     1       5.910   2.094   1.756  1.00  0.00     0.205 HD
BRANCH  55  57
HETATM   57  N10 UNL     1       7.703   1.325   2.361  1.00  0.00    -0.331 N 
ATOM     58 2H10 UNL     1       8.295   0.501   2.260  1.00  0.00     0.177 HD
ATOM     59 1H10 UNL     1       8.048   2.080   2.954  1.00  0.00     0.177 HD
ENDBRANCH  55  57
ENDBRANCH  45  55
ENDBRANCH   1  40
TORSDOF 19
