REMARK  14 active torsions:
REMARK  status: ('A' for Active; 'I' for Inactive)
REMARK    1  A    between atoms: C2_2  and  O1_3 
REMARK    2  A    between atoms: O1_3  and  C3_4 
REMARK    3  A    between atoms: C3_4  and  C4_6 
REMARK    4  A    between atoms: C4_6  and  C5_7 
REMARK    5  A    between atoms: C8_12  and  O3_13 
REMARK    6  A    between atoms: N2_15  and  C9_16 
REMARK    7  A    between atoms: C10_17  and  C11_18 
REMARK    8  A    between atoms: C13_22  and  O6_23 
REMARK    9  A    between atoms: O6_23  and  S1_24 
REMARK   10  A    between atoms: C14_28  and  N3_29 
REMARK   11  A    between atoms: N3_29  and  S2_31 
REMARK   12  A    between atoms: S2_31  and  N4_32 
REMARK   13  A    between atoms: C15_44  and  C16_45 
REMARK   14  A    between atoms: C17_48  and  N8_49 
REMARK       I    between atoms: N8_49  and  C18_51 
ROOT
HETATM    1  C9  UNL     1      -0.393   0.528  -0.911  1.00  0.00     0.065 C 
HETATM    2  C10 UNL     1       0.571  -0.262  -0.437  1.00  0.00     0.093 C 
HETATM    3  C12 UNL     1       1.741   0.480   0.131  1.00  0.00     0.085 C 
HETATM    4  C13 UNL     1       2.641  -0.203   1.040  1.00  0.00     0.250 C 
HETATM    5  C14 UNL     1       3.927  -0.768   0.525  1.00  0.00     0.309 C 
HETATM    6  O12 UNL     1       4.939   0.251   0.539  1.00  0.00    -0.186 OA
HETATM    7  O13 UNL     1       5.214   0.462  -0.756  1.00  0.00    -0.093 OA
HETATM    8  N5  UNL     1       4.517   1.185  -1.709  1.00  0.00    -0.161 N 
ATOM      9  H5  UNL     1       5.072   1.514  -2.499  1.00  0.00     0.220 HD
HETATM   10  N6  UNL     1       3.272   1.501  -1.741  1.00  0.00    -0.217 N 
ATOM     11  H6  UNL     1       3.035   2.044  -2.571  1.00  0.00     0.210 HD
HETATM   12  N7  UNL     1       2.183   1.288  -0.934  1.00  0.00    -0.259 N 
HETATM   13  C15 UNL     1       1.207   2.271  -1.431  1.00  0.00     0.239 C 
HETATM   14  C17 UNL     1      -0.168   2.027  -0.827  1.00  0.00     0.171 C 
ENDROOT
BRANCH   1  15
HETATM   15  N2  UNL     1      -1.597   0.095  -1.503  1.00  0.00    -0.280 N 
HETATM   16  C5  UNL     1      -2.786   0.010  -0.852  1.00  0.00     0.099 A 
HETATM   17  N1  UNL     1      -3.742  -0.392  -1.719  1.00  0.00    -0.345 N 
HETATM   18  C6  UNL     1      -3.163  -0.561  -2.912  1.00  0.00     0.058 A 
ATOM     19  H1  UNL     1      -4.728  -0.540  -1.502  1.00  0.00     0.167 HD
HETATM   20  C7  UNL     1      -3.869  -0.997  -4.136  1.00  0.00     0.072 C 
HETATM   21  C8  UNL     1      -1.845  -0.263  -2.785  1.00  0.00     0.171 A 
BRANCH  16  22
HETATM   22  C4  UNL     1      -3.106   0.324   0.558  1.00  0.00     0.188 C 
BRANCH  22  23
HETATM   23  C3  UNL     1      -3.287  -0.852   1.405  1.00  0.00     0.265 C 
HETATM   24  O2  UNL     1      -3.224  -2.050   1.067  1.00  0.00    -0.265 OA
BRANCH  23  25
HETATM   25  O1  UNL     1      -3.567  -0.637   2.770  1.00  0.00    -0.322 OA
BRANCH  25  26
HETATM   26  C2  UNL     1      -3.757  -1.701   3.654  1.00  0.00     0.174 C 
HETATM   27  C1  UNL     1      -4.907  -2.608   3.305  1.00  0.00     0.034 C 
ENDBRANCH  25  26
ENDBRANCH  23  25
ENDBRANCH  22  23
ENDBRANCH  16  22
BRANCH  21  28
HETATM   28  O3  UNL     1      -0.872  -0.302  -3.770  1.00  0.00    -0.344 OA
ATOM     29  H3  UNL     1       0.051  -0.093  -3.681  1.00  0.00     0.219 HD
ENDBRANCH  21  28
ENDBRANCH   1  15
BRANCH   2  30
HETATM   30  C11 UNL     1       0.425  -1.678  -0.512  1.00  0.00     0.213 C 
HETATM   31  O4  UNL     1       1.316  -2.479  -0.080  1.00  0.00    -0.644 OA
HETATM   32  O5  UNL     1      -0.676  -2.365  -1.049  1.00  0.00    -0.644 OA
ENDBRANCH   2  30
BRANCH  14  33
HETATM   33  N8  UNL     1      -1.135   2.725  -1.622  1.00  0.00    -0.349 N 
HETATM   34  C18 UNL     1      -1.999   3.689  -1.061  1.00  0.00     0.214 C 
HETATM   35  C19 UNL     1      -3.009   4.428  -1.857  1.00  0.00     0.117 C 
HETATM   36  O16 UNL     1      -1.908   3.932   0.169  1.00  0.00    -0.274 OA
ATOM     37  H8  UNL     1      -1.200   2.520  -2.619  1.00  0.00     0.163 HD
ENDBRANCH  14  33
BRANCH  13  38
HETATM   38  C16 UNL     1       1.673   3.644  -1.211  1.00  0.00     0.201 C 
HETATM   39  O14 UNL     1       1.005   4.647  -1.554  1.00  0.00    -0.646 OA
HETATM   40  O15 UNL     1       2.899   3.859  -0.602  1.00  0.00    -0.646 OA
ENDBRANCH  13  38
BRANCH   4  41
HETATM   41  O6  UNL     1       3.002   0.567   2.169  1.00  0.00    -0.241 OA
BRANCH  41  42
HETATM   42  S1  UNL     1       2.431   0.160   3.613  1.00  0.00     0.252 S 
HETATM   43  O7  UNL     1       1.490  -1.027   3.658  1.00  0.00    -0.572 OA
HETATM   44  O8  UNL     1       1.748   1.258   4.382  1.00  0.00    -0.572 OA
HETATM   45  O9  UNL     1       3.743  -0.301   4.593  1.00  0.00    -0.572 OA
ENDBRANCH  41  42
ENDBRANCH   4  41
BRANCH   5  46
HETATM   46  N3  UNL     1       4.498  -1.743   1.469  1.00  0.00    -0.270 N 
ATOM     47  H3  UNL     1       4.600  -1.548   2.465  1.00  0.00     0.176 HD
BRANCH  46  48
HETATM   48  S2  UNL     1       4.971  -3.210   0.777  1.00  0.00     0.315 S 
HETATM   49  O10 UNL     1       6.321  -3.680   1.243  1.00  0.00    -0.183 OA
HETATM   50  O11 UNL     1       5.039  -3.115  -0.742  1.00  0.00    -0.183 OA
BRANCH  48  51
HETATM   51  N4  UNL     1       3.848  -4.444   1.200  1.00  0.00    -0.312 N 
ATOM     52  H42 UNL     1       3.024  -4.296   1.783  1.00  0.00     0.170 HD
ATOM     53  H41 UNL     1       4.134  -5.330   0.782  1.00  0.00     0.170 HD
ENDBRANCH  48  51
ENDBRANCH  46  48
ENDBRANCH   5  46
TORSDOF 14
