REMARK  1 active torsions:
REMARK  status: ('A' for Active; 'I' for Inactive)
REMARK    1  A    between atoms: N1_1  and  C1_5 
ROOT
HETATM    1  C1  UNL     1      -1.540  -0.362  -0.275  1.00  0.00     0.183 C 
HETATM    2  C2  UNL     1      -1.026  -1.602   0.361  1.00  0.00     0.033 C 
HETATM    3  C3  UNL     1       0.424  -1.640   0.704  1.00  0.00     0.002 C 
HETATM    4  C4  UNL     1       1.315  -1.700  -0.488  1.00  0.00     0.002 C 
HETATM    5  C5  UNL     1       2.436  -0.722  -0.525  1.00  0.00     0.019 C 
HETATM    6  C6  UNL     1       2.109   0.666  -0.061  1.00  0.00     0.113 C 
HETATM    7  N2  UNL     1       1.077   1.198  -0.873  1.00  0.00    -0.421 N 
ATOM      8  H2  UNL     1       0.953   0.904  -1.842  1.00  0.00     0.153 HD
HETATM    9  C7  UNL     1       0.225   2.158  -0.273  1.00  0.00     0.113 C 
HETATM   10  C8  UNL     1      -0.591   1.708   0.872  1.00  0.00     0.021 C 
HETATM   11  C9  UNL     1      -1.723   0.806   0.599  1.00  0.00     0.034 C 
ENDROOT
BRANCH   1  12
HETATM   12  N1  UNL     1      -2.919  -0.761  -0.675  1.00  0.00    -0.075 N 
ATOM     13  H13 UNL     1      -2.974  -1.598  -1.256  1.00  0.00     0.274 HD
ATOM     14  H12 UNL     1      -3.497  -1.129   0.081  1.00  0.00     0.274 HD
ATOM     15  H11 UNL     1      -3.272   0.091  -1.112  1.00  0.00     0.274 HD
ENDBRANCH   1  12
TORSDOF 1
