REMARK  4 active torsions:
REMARK  status: ('A' for Active; 'I' for Inactive)
REMARK    1  A    between atoms: N2_7  and  N3_9 
REMARK    2  A    between atoms: C4_11  and  C5_12 
REMARK    3  A    between atoms: C6_13  and  O2_14 
REMARK    4  A    between atoms: C9_19  and  C10_20 
ROOT
HETATM    1  C5  UNL     1       1.384   0.284  -1.155  1.00  0.00     0.021 A 
HETATM    2  C6  UNL     1       2.451   0.623  -0.328  1.00  0.00     0.080 A 
HETATM    3  C7  UNL     1       3.644   1.078  -0.827  1.00  0.00     0.080 A 
HETATM    4  C8  UNL     1       3.747   1.186  -2.201  1.00  0.00     0.133 A 
HETATM    5  F1  UNL     1       4.918   1.631  -2.704  1.00  0.00    -0.205 F 
HETATM    6  C9  UNL     1       2.717   0.862  -3.075  1.00  0.00     0.054 A 
HETATM    7  C12 UNL     1       1.549   0.415  -2.510  1.00  0.00    -0.031 A 
HETATM    8  C13 UNL     1       0.391   0.117  -3.388  1.00  0.00     0.050 C 
ENDROOT
BRANCH   1   9
HETATM    9  C4  UNL     1       0.126  -0.221  -0.605  1.00  0.00     0.122 C 
HETATM   10  N3  UNL     1       0.013  -0.340   0.613  1.00  0.00    -0.309 N 
ATOM     11  H3  UNL     1       0.917  -0.020   0.961  1.00  0.00     0.186 HD
BRANCH  10  12
HETATM   12  N2  UNL     1      -0.625  -0.649   1.694  1.00  0.00    -0.278 N 
HETATM   13  C3  UNL     1      -1.839  -0.409   2.060  1.00  0.00     0.192 A 
HETATM   14  O1  UNL     1      -2.808   0.214   1.480  1.00  0.00    -0.218 OA
HETATM   15  C14 UNL     1      -2.351  -0.834   3.297  1.00  0.00     0.017 A 
HETATM   16  N1  UNL     1      -3.899   0.241   2.206  1.00  0.00    -0.263 N 
HETATM   17  C2  UNL     1      -3.648  -0.415   3.366  1.00  0.00     0.039 A 
ATOM     18  H1  UNL     1      -4.782   0.679   1.944  1.00  0.00     0.194 HD
HETATM   19  C1  UNL     1      -4.586  -0.636   4.514  1.00  0.00     0.071 C 
HETATM   20  C15 UNL     1      -1.575  -1.606   4.317  1.00  0.00     0.055 C 
ATOM     21  H2  UNL     1      -0.074  -1.172   2.375  1.00  0.00     0.189 HD
ENDBRANCH  10  12
ENDBRANCH   1   9
BRANCH   2  22
HETATM   22  O2  UNL     1       2.246   0.478   1.033  1.00  0.00    -0.360 OA
ATOM     23  H2  UNL     1       2.974   0.709   1.597  1.00  0.00     0.217 HD
ENDBRANCH   2  22
BRANCH   6  24
HETATM   24  C10 UNL     1       2.973   1.045  -4.495  1.00  0.00     0.197 C 
HETATM   25  F2  UNL     1       3.389   2.316  -4.898  1.00  0.00    -0.199 F 
HETATM   26  C11 UNL     1       2.865   0.165  -5.431  1.00  0.00     0.306 C 
HETATM   27  F3  UNL     1       2.489  -1.105  -5.232  1.00  0.00    -0.170 F 
HETATM   28  F4  UNL     1       3.140   0.503  -6.724  1.00  0.00    -0.170 F 
ENDBRANCH   6  24
TORSDOF 4
