REMARK  5 active torsions:
REMARK  status: ('A' for Active; 'I' for Inactive)
REMARK    1  A    between atoms: C2_2  and  C3_3 
REMARK    2  A    between atoms: C3_3  and  C4_5 
REMARK    3  A    between atoms: C5_7  and  C6_8 
REMARK    4  A    between atoms: C7_11  and  O4_12 
REMARK    5  A    between atoms: C8_14  and  C9_15 
ROOT
HETATM    1  C4  UNL     1       0.818   0.638  -0.182  1.00  0.00     0.065 A 
HETATM    2  S1  UNL     1       1.231   2.284  -0.213  1.00  0.00    -0.076 SA
HETATM    3  C5  UNL     1      -0.169   2.936   0.515  1.00  0.00     0.116 A 
HETATM    4  C7  UNL     1      -0.935   1.829   0.767  1.00  0.00     0.102 A 
HETATM    5  C8  UNL     1      -0.420   0.629   0.403  1.00  0.00     0.033 A 
ENDROOT
BRANCH   5   6
HETATM    6  C9  UNL     1      -1.147  -0.670   0.617  1.00  0.00     0.023 A 
HETATM    7  C10 UNL     1      -0.973  -1.370   1.782  1.00  0.00     0.061 A 
HETATM    8  C11 UNL     1      -1.642  -2.559   1.972  1.00  0.00     0.159 A 
HETATM    9  F1  UNL     1      -1.479  -3.261   3.120  1.00  0.00    -0.203 F 
HETATM   10  C12 UNL     1      -2.501  -3.075   0.998  1.00  0.00     0.196 A 
HETATM   11  F2  UNL     1      -3.159  -4.241   1.179  1.00  0.00    -0.199 F 
HETATM   12  C13 UNL     1      -2.672  -2.369  -0.172  1.00  0.00     0.197 A 
HETATM   13  F3  UNL     1      -3.506  -2.865  -1.123  1.00  0.00    -0.199 F 
HETATM   14  C14 UNL     1      -1.994  -1.182  -0.340  1.00  0.00     0.169 A 
HETATM   15  F4  UNL     1      -2.183  -0.513  -1.498  1.00  0.00    -0.202 F 
ENDBRANCH   5   6
BRANCH   1  16
HETATM   16  C3  UNL     1       1.591  -0.534  -0.665  1.00  0.00     0.167 C 
HETATM   17  O1  UNL     1       1.175  -1.703  -0.586  1.00  0.00    -0.292 OA
BRANCH  16  18
HETATM   18  C2  UNL     1       2.911  -0.243  -1.261  1.00  0.00     0.080 C 
HETATM   19  C1  UNL     1       3.637  -1.452  -1.726  1.00  0.00     0.013 C 
ENDBRANCH  16  18
ENDBRANCH   1  16
BRANCH   4  20
HETATM   20  O4  UNL     1      -2.205   2.024   1.388  1.00  0.00    -0.358 OA
ATOM     21  H4  UNL     1      -2.736   1.256   1.563  1.00  0.00     0.217 HD
ENDBRANCH   4  20
BRANCH   3  22
HETATM   22  C6  UNL     1      -0.477   4.357   0.803  1.00  0.00     0.219 C 
HETATM   23  O2  UNL     1      -1.559   4.629   1.342  1.00  0.00    -0.643 OA
HETATM   24  O3  UNL     1       0.404   5.361   0.487  1.00  0.00    -0.643 OA
ENDBRANCH   3  22
TORSDOF 5
