REMARK  4 active torsions:
REMARK  status: ('A' for Active; 'I' for Inactive)
REMARK    1  A    between atoms: N1_2  and  C1_4 
REMARK    2  A    between atoms: C2_9  and  S1_10 
REMARK    3  A    between atoms: S1_10  and  C3_11 
REMARK    4  A    between atoms: C3_11  and  C4_12 
ROOT
HETATM    1  S1  UNL     1       0.706  -1.374  -0.653  1.00  0.00    -0.099 SA
ENDROOT
BRANCH   1   2
HETATM    2  C2  UNL     1       2.441  -0.956  -0.479  1.00  0.00     0.130 A 
HETATM    3  N3  UNL     1       3.505  -1.692  -0.842  1.00  0.00    -0.286 N 
HETATM    4  N2  UNL     1       4.666  -1.232  -0.708  1.00  0.00    -0.278 N 
ATOM      5  H3  UNL     1       3.369  -2.627  -1.227  1.00  0.00     0.188 HD
HETATM    6  C1  UNL     1       4.838  -0.003  -0.191  1.00  0.00     0.176 A 
ATOM      7  H2  UNL     1       5.474  -1.788  -0.990  1.00  0.00     0.189 HD
HETATM    8  S2  UNL     1       3.227   0.475   0.093  1.00  0.00    -0.025 SA
BRANCH   6   9
HETATM    9  N1  UNL     1       5.942   0.682   0.052  1.00  0.00    -0.277 N 
HETATM   10 CL1  UNL     1       5.750   2.248   0.721  1.00  0.00     0.013 Cl
ATOM     11  H1  UNL     1       6.865   0.297  -0.149  1.00  0.00     0.182 HD
ENDBRANCH   6   9
ENDBRANCH   1   2
BRANCH   1  12
HETATM   12  C3  UNL     1      -0.224  -0.074   0.229  1.00  0.00     0.121 C 
BRANCH  12  13
HETATM   13  C4  UNL     1      -1.658  -0.050  -0.000  1.00  0.00    -0.025 A 
HETATM   14  C5  UNL     1      -2.207   0.812  -0.928  1.00  0.00     0.035 A 
HETATM   15  C6  UNL     1      -3.566   1.056  -1.042  1.00  0.00     0.056 A 
HETATM   16 CL2  UNL     1      -4.123   2.216  -2.216  1.00  0.00    -0.083 Cl
HETATM   17  C7  UNL     1      -4.405   0.417  -0.201  1.00  0.00     0.057 A 
HETATM   18 CL3  UNL     1      -6.143   0.736  -0.348  1.00  0.00    -0.082 Cl
HETATM   19  C8  UNL     1      -3.921  -0.450   0.735  1.00  0.00     0.050 A 
HETATM   20  C9  UNL     1      -2.551  -0.695   0.852  1.00  0.00     0.042 A 
HETATM   21 CL4  UNL     1      -1.922  -1.813   2.019  1.00  0.00    -0.084 Cl
ENDBRANCH  12  13
ENDBRANCH   1  12
TORSDOF 4
