REMARK  6 active torsions:
REMARK  status: ('A' for Active; 'I' for Inactive)
REMARK    1  A    between atoms: C2_2  and  N1_5 
REMARK    2  A    between atoms: C4_6  and  O1_7 
REMARK    3  A    between atoms: N2_10  and  N3_11 
REMARK    4  A    between atoms: C6_13  and  C7_15 
REMARK    5  A    between atoms: C7_15  and  C8_16 
REMARK    6  A    between atoms: C8_16  and  C9_17 
ROOT
HETATM    1  N1  UNL     1      -1.586  -0.108   0.217  1.00  0.00    -0.279 N 
HETATM    2  C4  UNL     1      -1.305  -1.415   0.353  1.00  0.00     0.164 A 
HETATM    3  C5  UNL     1      -0.107  -1.492   1.004  1.00  0.00     0.175 A 
HETATM    4  N2  UNL     1       0.358  -0.235   1.274  1.00  0.00    -0.236 N 
HETATM    5  C10 UNL     1      -0.567   0.593   0.782  1.00  0.00     0.203 A 
HETATM    6  S1  UNL     1      -0.546   2.229   0.830  1.00  0.00    -0.038 SA
ENDROOT
BRANCH   4   7
HETATM    7  N3  UNL     1       1.533   0.085   1.930  1.00  0.00    -0.285 N 
HETATM    8  C6  UNL     1       2.728  -0.235   1.616  1.00  0.00     0.099 C 
HETATM    9 CL2  UNL     1       4.039   0.342   2.689  1.00  0.00    -0.068 Cl
ATOM     10  H3  UNL     1       1.431   0.650   2.773  1.00  0.00     0.188 HD
BRANCH   8  11
HETATM   11  C7  UNL     1       3.145  -1.045   0.473  1.00  0.00     0.101 C 
BRANCH  11  12
HETATM   12  C8  UNL     1       3.780  -0.299  -0.614  1.00  0.00     0.017 C 
BRANCH  12  13
HETATM   13  C9  UNL     1       3.930   0.963  -0.821  1.00  0.00     0.100 C 
HETATM   14 CL3  UNL     1       4.780   1.501  -2.290  1.00  0.00    -0.071 Cl
HETATM   15 CL4  UNL     1       3.320   2.188   0.236  1.00  0.00    -0.071 Cl
ENDBRANCH  12  13
ENDBRANCH  11  12
ENDBRANCH   8  11
ENDBRANCH   4   7
BRANCH   2  16
HETATM   16  O1  UNL     1      -2.054  -2.509  -0.070  1.00  0.00    -0.345 OA
ATOM     17  H1  UNL     1      -1.855  -3.433   0.026  1.00  0.00     0.219 HD
ENDBRANCH   2  16
BRANCH   1  18
HETATM   18  C2  UNL     1      -2.773   0.384  -0.423  1.00  0.00     0.111 C 
HETATM   19  C1  UNL     1      -3.292   1.679   0.140  1.00  0.00     0.056 C 
HETATM   20  C3  UNL     1      -2.454   0.568  -1.892  1.00  0.00     0.056 C 
HETATM   21 CL1  UNL     1      -4.049  -0.842  -0.274  1.00  0.00    -0.096 Cl
ENDBRANCH   1  18
TORSDOF 6
