REMARK  2 active torsions:
REMARK  status: ('A' for Active; 'I' for Inactive)
REMARK    1  A    between atoms: C2_2  and  S1_4 
REMARK    2  A    between atoms: S1_4  and  C3_5 
ROOT
HETATM    1  C3  UNL     1      -0.492  -0.067   0.534  1.00  0.00     0.127 C 
HETATM    2  C4  UNL     1      -1.529  -1.138   0.531  1.00  0.00     0.065 C 
HETATM    3  N1  UNL     1      -1.375  -2.392   0.790  1.00  0.00    -0.398 N 
ATOM      4  H11 UNL     1      -2.085  -3.125   0.788  1.00  0.00     0.156 HD
ATOM      5  H12 UNL     1      -0.503  -2.857   1.042  1.00  0.00     0.156 HD
HETATM    6  C5  UNL     1      -2.777  -0.473   0.171  1.00  0.00     0.173 C 
HETATM    7  O2  UNL     1      -3.906  -1.002   0.043  1.00  0.00    -0.291 OA
HETATM    8  C6  UNL     1      -2.500   0.973  -0.028  1.00  0.00     0.107 C 
HETATM    9  C7  UNL     1      -1.036   0.905  -0.471  1.00  0.00     0.110 C 
HETATM   10 CL1  UNL     1      -1.026   0.194  -2.081  1.00  0.00    -0.123 Cl
ENDROOT
BRANCH   1  11
HETATM   11  S1  UNL     1       1.069  -0.803   0.016  1.00  0.00    -0.080 SA
BRANCH  11  12
HETATM   12  C2  UNL     1       2.394   0.372  -0.024  1.00  0.00     0.182 C 
HETATM   13  C1  UNL     1       3.742  -0.061  -0.426  1.00  0.00     0.104 C 
HETATM   14  O1  UNL     1       2.188   1.515   0.277  1.00  0.00    -0.286 OA
ENDBRANCH  11  12
ENDBRANCH   1  11
TORSDOF 2
