REMARK  3 active torsions:
REMARK  status: ('A' for Active; 'I' for Inactive)
REMARK    1  A    between atoms: O1_2  and  C2_3 
REMARK    2  A    between atoms: C2_3  and  O2_4 
REMARK    3  A    between atoms: C2_3  and  C3_6 
ROOT
HETATM    1  C3  UNL     1       0.687   0.219  -0.518  1.00  0.00     0.087 A 
HETATM    2  S1  UNL     1       1.048   1.559  -1.510  1.00  0.00    -0.045 SA
HETATM    3  S2  UNL     1       3.054   1.656  -0.951  1.00  0.00    -0.007 SA
HETATM    4  C4  UNL     1       2.954   0.334   0.109  1.00  0.00     0.259 A 
HETATM    5  O3  UNL     1       4.021  -0.034   0.752  1.00  0.00    -0.276 OA
HETATM    6  C5  UNL     1       1.734  -0.256   0.207  1.00  0.00     0.192 A 
HETATM    7  F1  UNL     1       1.589  -1.364   1.075  1.00  0.00    -0.200 F 
ENDROOT
BRANCH   1   8
HETATM    8  C2  UNL     1      -0.715  -0.394  -0.458  1.00  0.00     0.301 C 
BRANCH   8   9
HETATM    9  O1  UNL     1      -1.636   0.643  -0.362  1.00  0.00    -0.361 OA
HETATM   10  C1  UNL     1      -2.360   0.522   0.796  1.00  0.00     0.205 C 
ENDBRANCH   8   9
BRANCH   8  11
HETATM   11  O2  UNL     1      -0.933  -1.180  -1.579  1.00  0.00    -0.366 OA
ATOM     12  H2  UNL     1      -0.304  -1.889  -1.645  1.00  0.00     0.213 HD
ENDBRANCH   8  11
ENDBRANCH   1   8
TORSDOF 3
