REMARK  1 active torsions:
REMARK  status: ('A' for Active; 'I' for Inactive)
REMARK    1  A    between atoms: C1_2  and  C2_4 
ROOT
HETATM    1  C2  UNL     1       0.460  -0.329  -0.362  1.00  0.00     0.133 A 
HETATM    2  N2  UNL     1       1.199  -1.044  -1.189  1.00  0.00    -0.315 N 
ATOM      3  H2  UNL     1       0.755  -1.572  -1.940  1.00  0.00     0.175 HD
HETATM    4  S1  UNL     1       2.842  -1.088  -1.012  1.00  0.00     0.026 SA
HETATM    5  S2  UNL     1       2.801   0.163   0.613  1.00  0.00    -0.021 SA
HETATM    6  C3  UNL     1       1.097   0.365   0.634  1.00  0.00     0.112 A 
HETATM    7  S3  UNL     1       0.288   1.311   1.752  1.00  0.00    -0.069 SA
ENDROOT
BRANCH   1   8
HETATM    8  C1  UNL     1      -1.024  -0.305  -0.542  1.00  0.00     0.284 C 
HETATM    9  N1  UNL     1      -1.837   0.441   0.315  1.00  0.00    -0.056 NA
HETATM   10  O1  UNL     1      -1.557  -0.955  -1.466  1.00  0.00    -0.269 OA
ENDBRANCH   1   8
TORSDOF 1
