REMARK  2 active torsions:
REMARK  status: ('A' for Active; 'I' for Inactive)
REMARK    1  A    between atoms: C1_2  and  O2_4 
REMARK    2  A    between atoms: O2_4  and  N2_5 
ROOT
HETATM    1  N2  UNL     1       0.726  -0.513   0.987  1.00  0.00    -0.253 N 
ATOM      2  H2  UNL     1       0.870  -0.853   1.938  1.00  0.00     0.195 HD
HETATM    3  C2  UNL     1      -0.454  -0.409   0.535  1.00  0.00     0.087 C 
HETATM    4  S1  UNL     1      -1.977  -0.813   1.430  1.00  0.00    -0.113 SA
HETATM    5  C3  UNL     1      -3.164  -0.078   0.228  1.00  0.00     0.082 C 
HETATM    6  C4  UNL     1      -2.215   0.860  -0.513  1.00  0.00     0.037 C 
HETATM    7  C5  UNL     1      -0.975   0.046  -0.789  1.00  0.00     0.141 C 
HETATM    8 CL1  UNL     1      -1.396  -1.309  -1.840  1.00  0.00    -0.118 Cl
ENDROOT
BRANCH   1   9
HETATM    9  O2  UNL     1       1.809  -0.178   0.222  1.00  0.00    -0.183 OA
BRANCH   9  10
HETATM   10  C1  UNL     1       3.115  -0.329   0.625  1.00  0.00     0.394 C 
HETATM   11  N1  UNL     1       4.215   0.031  -0.203  1.00  0.00    -0.031 NA
HETATM   12  O1  UNL     1       3.347  -0.797   1.750  1.00  0.00    -0.240 OA
ENDBRANCH   9  10
ENDBRANCH   1   9
TORSDOF 2
