REMARK  13 active torsions:
REMARK  status: ('A' for Active; 'I' for Inactive)
REMARK    1  A    between atoms: C2_2  and  O1_3 
REMARK    2  A    between atoms: O1_3  and  C3_4 
REMARK    3  A    between atoms: C3_4  and  C4_5 
REMARK    4  A    between atoms: C4_5  and  O2_6 
REMARK    5  A    between atoms: O2_6  and  C5_7 
REMARK    6  A    between atoms: C5_7  and  C6_8 
REMARK    7  A    between atoms: C6_8  and  O3_9 
REMARK    8  A    between atoms: O3_9  and  C7_10 
REMARK    9  A    between atoms: C7_10  and  C8_11 
REMARK       I    between atoms: C8_11  and  N1_13 
REMARK   10  A    between atoms: N1_13  and  C9_15 
REMARK   11  A    between atoms: C12_18  and  N2_19 
REMARK   12  A    between atoms: N2_19  and  N3_21 
REMARK   13  A    between atoms: C17_29  and  C18_30 
ROOT
HETATM    1  N3  UNL     1       5.317  -2.194   1.643  1.00  0.00    -0.282 N 
ATOM      2  H3  UNL     1       4.726  -3.024   1.689  1.00  0.00     0.188 HD
HETATM    3  C13 UNL     1       6.598  -2.329   1.424  1.00  0.00     0.209 C 
HETATM    4  C14 UNL     1       7.195  -3.616   1.246  1.00  0.00     0.130 C 
HETATM    5  N4  UNL     1       7.684  -4.670   1.094  1.00  0.00    -0.189 NA
HETATM    6  C15 UNL     1       7.410  -1.151   1.364  1.00  0.00     0.130 C 
HETATM    7  N5  UNL     1       8.085  -0.195   1.325  1.00  0.00    -0.189 NA
ENDROOT
BRANCH   1   8
HETATM    8  N2  UNL     1       4.746  -0.939   1.814  1.00  0.00    -0.299 N 
ATOM      9  H2  UNL     1       5.152  -0.301   2.499  1.00  0.00     0.187 HD
BRANCH   8  10
HETATM   10  C12 UNL     1       3.606  -0.512   1.060  1.00  0.00     0.049 A 
HETATM   11  C11 UNL     1       3.018  -1.326   0.125  1.00  0.00     0.033 A 
HETATM   12  C10 UNL     1       1.899  -0.883  -0.600  1.00  0.00     0.033 A 
HETATM   13  C9  UNL     1       1.368   0.369  -0.396  1.00  0.00     0.050 A 
HETATM   14  C17 UNL     1       1.975   1.182   0.552  1.00  0.00     0.058 A 
HETATM   15  C16 UNL     1       3.093   0.735   1.277  1.00  0.00     0.050 A 
BRANCH  13  16
HETATM   16  N1  UNL     1       0.192   0.779  -1.052  1.00  0.00    -0.324 N 
HETATM   17  C8  UNL     1      -0.306   0.200  -2.224  1.00  0.00     0.245 C 
HETATM   18  O4  UNL     1       0.213  -0.722  -2.832  1.00  0.00    -0.271 OA
ATOM     19  H1  UNL     1      -0.334   1.552  -0.644  1.00  0.00     0.169 HD
BRANCH  17  20
HETATM   20  C7  UNL     1      -1.591   0.739  -2.809  1.00  0.00     0.270 C 
BRANCH  20  21
HETATM   21  O3  UNL     1      -2.007   1.760  -1.984  1.00  0.00    -0.380 OA
BRANCH  21  22
HETATM   22  C6  UNL     1      -3.167   2.383  -2.347  1.00  0.00     0.194 C 
BRANCH  22  23
HETATM   23  C5  UNL     1      -4.352   1.483  -2.244  1.00  0.00     0.193 C 
BRANCH  23  24
HETATM   24  O2  UNL     1      -4.600   1.040  -1.015  1.00  0.00    -0.387 OA
BRANCH  24  25
HETATM   25  C4  UNL     1      -3.775   0.321  -0.249  1.00  0.00     0.193 C 
BRANCH  25  26
HETATM   26  C3  UNL     1      -4.548   0.010   1.052  1.00  0.00     0.193 C 
BRANCH  26  27
HETATM   27  O1  UNL     1      -3.845  -0.718   1.953  1.00  0.00    -0.389 OA
BRANCH  27  28
HETATM   28  C2  UNL     1      -3.437  -1.958   1.538  1.00  0.00     0.163 C 
HETATM   29  C1  UNL     1      -2.690  -2.591   2.722  1.00  0.00     0.033 C 
ENDBRANCH  27  28
ENDBRANCH  26  27
ENDBRANCH  25  26
ENDBRANCH  24  25
ENDBRANCH  23  24
ENDBRANCH  22  23
ENDBRANCH  21  22
ENDBRANCH  20  21
ENDBRANCH  17  20
ENDBRANCH  13  16
BRANCH  14  30
HETATM   30  C18 UNL     1       1.567   2.550   0.819  1.00  0.00     0.267 C 
HETATM   31  N6  UNL     1       2.246   3.284   1.866  1.00  0.00    -0.057 NA
HETATM   32  O5  UNL     1       0.670   3.181   0.232  1.00  0.00    -0.271 OA
ENDBRANCH  14  30
ENDBRANCH   8  10
ENDBRANCH   1   8
TORSDOF 13
