REMARK  17 active torsions:
REMARK  status: ('A' for Active; 'I' for Inactive)
REMARK    1  A    between atoms: O1_1  and  N1_3 
REMARK    2  A    between atoms: N1_3  and  N2_5 
REMARK    3  A    between atoms: N2_5  and  C1_6 
REMARK    4  A    between atoms: N2_5  and  C13_31 
REMARK    5  A    between atoms: C1_6  and  C2_7 
REMARK    6  A    between atoms: C2_7  and  N3_8 
REMARK    7  A    between atoms: N3_8  and  C3_11 
REMARK    8  A    between atoms: C3_11  and  C4_12 
REMARK    9  A    between atoms: C4_12  and  C5_13 
REMARK   10  A    between atoms: C5_13  and  N4_14 
REMARK   11  A    between atoms: N4_14  and  C6_17 
REMARK   12  A    between atoms: C6_17  and  C7_18 
REMARK   13  A    between atoms: C7_18  and  O2_19 
REMARK   14  A    between atoms: C7_18  and  N5_21 
REMARK   15  A    between atoms: N5_21  and  N6_23 
REMARK       I    between atoms: N6_23  and  C8_24 
REMARK   16  A    between atoms: C8_24  and  C9_26 
REMARK   17  A    between atoms: C13_31  and  C14_32 
ROOT
HETATM    1  C3  UNL     1      -1.059  -0.493  -0.562  1.00  0.00     0.234 C 
ENDROOT
BRANCH   1   2
HETATM    2  N3  UNL     1      -2.096  -0.503  -1.490  1.00  0.00    -0.071 N 
ATOM      3  H32 UNL     1      -1.761  -0.700  -2.433  1.00  0.00     0.277 HD
ATOM      4  H31 UNL     1      -2.468   0.432  -1.654  1.00  0.00     0.277 HD
BRANCH   2   5
HETATM    5  C2  UNL     1      -3.155  -1.454  -1.070  1.00  0.00     0.278 C 
BRANCH   5   6
HETATM    6  C1  UNL     1      -3.585  -1.039   0.321  1.00  0.00     0.112 C 
BRANCH   6   7
HETATM    7  N2  UNL     1      -4.722  -1.664   0.861  1.00  0.00    -0.282 N 
BRANCH   7   8
HETATM    8  N1  UNL     1      -4.644  -2.795   1.691  1.00  0.00    -0.208 N 
ATOM      9  H1  UNL     1      -3.736  -3.244   1.809  1.00  0.00     0.216 HD
BRANCH   8  10
HETATM   10  O1  UNL     1      -5.625  -3.281   2.292  1.00  0.00    -0.274 OA
ATOM     11  H1  UNL     1      -5.572  -4.046   2.853  1.00  0.00     0.246 HD
ENDBRANCH   8  10
ENDBRANCH   7   8
BRANCH   7  12
HETATM   12  C13 UNL     1      -6.070  -1.214   0.497  1.00  0.00     0.188 C 
BRANCH  12  13
HETATM   13  C14 UNL     1      -6.130   0.252   0.429  1.00  0.00    -0.036 A 
HETATM   14  C15 UNL     1      -6.866   0.836  -0.559  1.00  0.00     0.026 A 
HETATM   15  C16 UNL     1      -6.895   2.207  -0.665  1.00  0.00     0.088 A 
HETATM   16  N7  UNL     1      -6.155   2.942   0.247  1.00  0.00    -0.375 N 
HETATM   17  C17 UNL     1      -5.432   2.408   1.214  1.00  0.00     0.088 A 
ATOM     18  H7  UNL     1      -6.170   3.959   0.166  1.00  0.00     0.164 HD
HETATM   19  C18 UNL     1      -5.419   1.048   1.315  1.00  0.00     0.026 A 
ENDBRANCH  12  13
ENDBRANCH   7  12
ENDBRANCH   6   7
ENDBRANCH   5   6
ENDBRANCH   2   5
ENDBRANCH   1   2
BRANCH   1  20
HETATM   20  C4  UNL     1      -0.264  -1.725  -0.286  1.00  0.00     0.055 C 
BRANCH  20  21
HETATM   21  C5  UNL     1       0.664  -1.300   0.892  1.00  0.00     0.234 C 
BRANCH  21  22
HETATM   22  N4  UNL     1       1.576  -0.307   0.326  1.00  0.00    -0.068 N 
ATOM     23  H42 UNL     1       2.131  -0.677  -0.446  1.00  0.00     0.277 HD
ATOM     24  H41 UNL     1       1.089   0.424  -0.192  1.00  0.00     0.277 HD
BRANCH  22  25
HETATM   25  C6  UNL     1       2.387   0.215   1.391  1.00  0.00     0.318 C 
BRANCH  25  26
HETATM   26  C7  UNL     1       3.789   0.262   0.951  1.00  0.00     0.167 C 
BRANCH  26  27
HETATM   27  O2  UNL     1       4.742   0.596   1.800  1.00  0.00    -0.347 OA
ATOM     28  H2  UNL     1       5.648   0.626   1.516  1.00  0.00     0.219 HD
ENDBRANCH  26  27
BRANCH  26  29
HETATM   29  N5  UNL     1       4.244  -0.017  -0.347  1.00  0.00    -0.211 N 
ATOM     30  H5  UNL     1       3.550  -0.223  -1.065  1.00  0.00     0.204 HD
BRANCH  29  31
HETATM   31  N6  UNL     1       5.521  -0.028  -0.694  1.00  0.00    -0.277 NA
HETATM   32  C8  UNL     1       6.790  -0.048  -1.046  1.00  0.00     0.369 C 
HETATM   33  O3  UNL     1       7.457  -0.643  -1.846  1.00  0.00    -0.247 OA
BRANCH  32  34
HETATM   34  C9  UNL     1       7.699   0.977  -0.303  1.00  0.00     0.159 A 
HETATM   35  C10 UNL     1       8.377   1.991  -1.015  1.00  0.00     0.046 A 
HETATM   36  C11 UNL     1       9.031   2.677  -0.052  1.00  0.00     0.027 A 
HETATM   37  C12 UNL     1       8.749   2.061   1.163  1.00  0.00     0.143 A 
HETATM   38  O4  UNL     1       7.950   1.068   0.899  1.00  0.00    -0.316 OA
ENDBRANCH  32  34
ENDBRANCH  29  31
ENDBRANCH  26  29
ENDBRANCH  25  26
ENDBRANCH  22  25
ENDBRANCH  21  22
ENDBRANCH  20  21
ENDBRANCH   1  20
TORSDOF 17
