REMARK  11 active torsions:
REMARK  status: ('A' for Active; 'I' for Inactive)
REMARK    1  A    between atoms: C3_4  and  O2_5 
REMARK    2  A    between atoms: O2_5  and  C4_6 
REMARK    3  A    between atoms: C12_14  and  O3_15 
REMARK    4  A    between atoms: C17_21  and  O4_23 
REMARK    5  A    between atoms: C20_26  and  O5_27 
REMARK    6  A    between atoms: C21_29  and  O6_30 
REMARK    7  A    between atoms: C25_36  and  C26_37 
REMARK    8  A    between atoms: C26_37  and  O8_38 
REMARK    9  A    between atoms: C27_40  and  O9_41 
REMARK   10  A    between atoms: O9_41  and  C28_42 
REMARK       I    between atoms: C28_42  and  N1_44 
REMARK   11  A    between atoms: N1_44  and  N2_46 
ROOT
HETATM    1  C4  UNL     1       1.854  -0.482  -0.126  1.00  0.00     0.127 C 
HETATM    2  C5  UNL     1       1.238  -1.587   0.701  1.00  0.00     0.033 C 
HETATM    3  C6  UNL     1      -0.000  -1.104   1.344  1.00  0.00     0.012 C 
HETATM    4  C7  UNL     1      -1.025  -0.583   0.341  1.00  0.00    -0.034 C 
HETATM    5  C8  UNL     1      -1.618  -1.840  -0.294  1.00  0.00     0.016 C 
HETATM    6  C9  UNL     1      -0.461   0.354  -0.657  1.00  0.00    -0.001 C 
HETATM    7  C10 UNL     1       0.909   0.060  -1.155  1.00  0.00     0.037 C 
HETATM    8  C11 UNL     1      -0.576   1.688   0.040  1.00  0.00     0.043 C 
HETATM    9  C12 UNL     1      -2.057   1.619   0.507  1.00  0.00     0.062 C 
HETATM   10  C13 UNL     1      -2.958   2.160  -0.499  1.00  0.00     0.038 C 
HETATM   11  C14 UNL     1      -3.941   1.344  -1.216  1.00  0.00     0.011 C 
HETATM   12  C15 UNL     1      -5.281   1.133  -0.584  1.00  0.00     0.025 C 
HETATM   13  C16 UNL     1      -5.882  -0.034  -1.348  1.00  0.00     0.045 C 
HETATM   14  C17 UNL     1      -6.956  -0.784  -0.683  1.00  0.00     0.057 C 
HETATM   15  C18 UNL     1      -8.326  -0.323  -1.205  1.00  0.00     0.045 C 
HETATM   16  C19 UNL     1      -6.944  -0.745   0.819  1.00  0.00     0.072 C 
HETATM   17  C20 UNL     1      -6.834   0.699   1.201  1.00  0.00     0.155 C 
HETATM   18  C21 UNL     1      -5.378   1.112   0.872  1.00  0.00     0.087 C 
HETATM   19  C22 UNL     1      -4.448   0.389   1.724  1.00  0.00     0.041 C 
HETATM   20  C23 UNL     1      -3.404  -0.474   1.110  1.00  0.00     0.011 C 
HETATM   21  C24 UNL     1      -2.102   0.259   1.020  1.00  0.00     0.028 C 
ENDROOT
BRANCH   1  22
HETATM   22  O2  UNL     1       2.930  -1.052  -0.807  1.00  0.00    -0.334 OA
BRANCH  22  23
HETATM   23  C3  UNL     1       4.142  -0.426  -0.439  1.00  0.00     0.414 C 
HETATM   24  O1  UNL     1       4.637   0.130  -1.630  1.00  0.00    -0.331 OA
HETATM   25  C2  UNL     1       5.867   0.714  -1.465  1.00  0.00     0.155 C 
HETATM   26  C1  UNL     1       5.848   1.980  -0.663  1.00  0.00     0.042 C 
HETATM   27  C27 UNL     1       6.871  -0.285  -0.884  1.00  0.00     0.193 C 
HETATM   28  C25 UNL     1       6.211  -0.848   0.347  1.00  0.00     0.182 C 
HETATM   29  O7  UNL     1       4.977  -1.437   0.025  1.00  0.00    -0.329 OA
BRANCH  27  30
HETATM   30  O9  UNL     1       8.055   0.359  -0.535  1.00  0.00    -0.292 OA
BRANCH  30  31
HETATM   31  C28 UNL     1       9.289   0.093  -1.122  1.00  0.00     0.379 C 
HETATM   32  O10 UNL     1       9.325  -0.782  -2.018  1.00  0.00    -0.237 OA
HETATM   33  N1  UNL     1      10.419   0.816  -0.679  1.00  0.00    -0.252 N 
ATOM     34  H1  UNL     1      10.330   1.518   0.056  1.00  0.00     0.191 HD
BRANCH  33  35
HETATM   35  N2  UNL     1      11.659   0.554  -1.263  1.00  0.00    -0.341 N 
ATOM     36  H22 UNL     1      11.731  -0.151  -1.996  1.00  0.00     0.177 HD
ATOM     37  H21 UNL     1      12.475   1.076  -0.943  1.00  0.00     0.177 HD
ENDBRANCH  33  35
ENDBRANCH  30  31
ENDBRANCH  27  30
BRANCH  28  38
HETATM   38  C26 UNL     1       7.115  -1.814   1.031  1.00  0.00     0.199 C 
BRANCH  38  39
HETATM   39  O8  UNL     1       8.335  -1.291   1.403  1.00  0.00    -0.398 OA
ATOM     40  H8  UNL     1       8.912  -1.907   1.839  1.00  0.00     0.209 HD
ENDBRANCH  38  39
ENDBRANCH  28  38
ENDBRANCH  22  23
ENDBRANCH   1  22
BRANCH   9  41
HETATM   41  O3  UNL     1      -2.024   2.572   1.574  1.00  0.00    -0.389 OA
ATOM     42  H3  UNL     1      -2.929   2.530   1.859  1.00  0.00     0.210 HD
ENDBRANCH   9  41
BRANCH  18  43
HETATM   43  O6  UNL     1      -5.410   2.465   1.335  1.00  0.00    -0.387 OA
ATOM     44  H6  UNL     1      -5.473   2.451   2.283  1.00  0.00     0.210 HD
ENDBRANCH  18  43
BRANCH  17  45
HETATM   45  O5  UNL     1      -7.076   0.938   2.547  1.00  0.00    -0.392 OA
ATOM     46  H5  UNL     1      -7.006   1.854   2.789  1.00  0.00     0.210 HD
ENDBRANCH  17  45
BRANCH  14  47
HETATM   47  O4  UNL     1      -6.896  -2.152  -1.037  1.00  0.00    -0.390 OA
ATOM     48  H4  UNL     1      -7.591  -2.637  -0.607  1.00  0.00     0.210 HD
ENDBRANCH  14  47
TORSDOF 11
