REMARK  10 active torsions:
REMARK  status: ('A' for Active; 'I' for Inactive)
REMARK    1  A    between atoms: C6_6  and  O1_7 
REMARK    2  A    between atoms: C16_20  and  O4_21 
REMARK    3  A    between atoms: O4_21  and  C17_22 
REMARK    4  A    between atoms: C18_24  and  C19_25 
REMARK    5  A    between atoms: C19_25  and  O6_26 
REMARK    6  A    between atoms: C20_28  and  O7_29 
REMARK    7  A    between atoms: C21_31  and  O8_32 
REMARK    8  A    between atoms: N1_35  and  O9_37 
REMARK    9  A    between atoms: C23_39  and  C24_40 
REMARK   10  A    between atoms: C24_40  and  O10_41 
ROOT
HETATM    1  C1  UNL     1      -8.080  -1.137   0.305  1.00  0.00     0.013 C 
HETATM    2  C2  UNL     1      -6.974  -0.093   0.120  1.00  0.00     0.019 C 
HETATM    3  C3  UNL     1      -7.250   0.597  -1.180  1.00  0.00     0.007 C 
HETATM    4  C4  UNL     1      -6.061   1.399  -1.557  1.00  0.00     0.004 C 
HETATM    5  C5  UNL     1      -4.983   1.390  -0.447  1.00  0.00     0.044 C 
HETATM    6  C6  UNL     1      -4.493   0.004  -0.351  1.00  0.00     0.123 C 
HETATM    7  C7  UNL     1      -5.693  -0.884  -0.031  1.00  0.00     0.095 C 
HETATM    8  C8  UNL     1      -5.873  -1.994  -1.055  1.00  0.00     0.050 C 
HETATM    9  O2  UNL     1      -5.447  -1.494   1.175  1.00  0.00    -0.368 OA
HETATM   10  C9  UNL     1      -4.161  -1.294   1.551  1.00  0.00     0.161 C 
HETATM   11  C10 UNL     1      -4.088  -0.011   2.418  1.00  0.00     0.043 C 
HETATM   12  C11 UNL     1      -2.856   0.213   1.684  1.00  0.00     0.029 C 
HETATM   13  C12 UNL     1      -2.221   1.452   1.306  1.00  0.00     0.020 C 
HETATM   14  C13 UNL     1      -1.422   1.215   0.056  1.00  0.00     0.051 C 
HETATM   15  C14 UNL     1       0.055   1.147   0.213  1.00  0.00    -0.020 C 
HETATM   16  C15 UNL     1       1.135   1.870   0.390  1.00  0.00     0.144 C 
HETATM   17  O3  UNL     1       2.450   1.400   0.494  1.00  0.00    -0.329 OA
HETATM   18  C16 UNL     1       2.940   0.220  -0.193  1.00  0.00     0.299 C 
HETATM   19  C23 UNL     1       2.104  -0.958   0.146  1.00  0.00     0.201 C 
HETATM   20  O11 UNL     1       0.970  -0.867  -0.707  1.00  0.00    -0.366 OA
HETATM   21  C25 UNL     1      -0.026  -0.333   0.106  1.00  0.00     0.183 C 
HETATM   22  C26 UNL     1      -1.385  -0.154  -0.489  1.00  0.00     0.164 C 
HETATM   23  O12 UNL     1      -2.372  -1.026  -0.149  1.00  0.00    -0.365 OA
HETATM   24  C27 UNL     1      -3.462  -0.457   0.499  1.00  0.00     0.125 C 
ENDROOT
BRANCH  18  25
HETATM   25  O4  UNL     1       4.256   0.098   0.171  1.00  0.00    -0.323 OA
BRANCH  25  26
HETATM   26  C17 UNL     1       5.065   0.382  -0.922  1.00  0.00     0.315 C 
HETATM   27  O5  UNL     1       5.878  -0.709  -1.178  1.00  0.00    -0.345 OA
HETATM   28  C18 UNL     1       6.946  -0.661  -0.283  1.00  0.00     0.180 C 
HETATM   29  C20 UNL     1       8.002   0.244  -0.919  1.00  0.00     0.183 C 
HETATM   30  C21 UNL     1       7.359   1.635  -0.947  1.00  0.00     0.202 C 
HETATM   31  C22 UNL     1       5.928   1.558  -0.576  1.00  0.00     0.095 C 
HETATM   32  N1  UNL     1       5.362   2.519   0.071  1.00  0.00    -0.270 N 
ATOM     33  H1  UNL     1       4.376   2.459   0.323  1.00  0.00     0.193 HD
BRANCH  28  34
HETATM   34  C19 UNL     1       7.514  -2.035  -0.003  1.00  0.00     0.198 C 
BRANCH  34  35
HETATM   35  O6  UNL     1       8.567  -1.876   0.894  1.00  0.00    -0.398 OA
ATOM     36  H6  UNL     1       8.924  -2.739   1.070  1.00  0.00     0.209 HD
ENDBRANCH  34  35
ENDBRANCH  28  34
BRANCH  29  37
HETATM   37  O7  UNL     1       9.156   0.280  -0.165  1.00  0.00    -0.390 OA
ATOM     38  H7  UNL     1       9.812   0.842  -0.560  1.00  0.00     0.210 HD
ENDBRANCH  29  37
BRANCH  30  39
HETATM   39  O8  UNL     1       7.462   2.156  -2.235  1.00  0.00    -0.387 OA
ATOM     40  H8  UNL     1       7.063   3.018  -2.252  1.00  0.00     0.210 HD
ENDBRANCH  30  39
BRANCH  32  41
HETATM   41  O9  UNL     1       6.104   3.630   0.419  1.00  0.00    -0.290 OA
ATOM     42  H9  UNL     1       5.687   4.338   0.896  1.00  0.00     0.244 HD
ENDBRANCH  32  41
ENDBRANCH  25  26
ENDBRANCH  18  25
BRANCH  19  43
HETATM   43  C24 UNL     1       2.827  -2.243   0.013  1.00  0.00     0.201 C 
BRANCH  43  44
HETATM   44  O10 UNL     1       3.880  -2.285   0.920  1.00  0.00    -0.398 OA
ATOM     45  H10 UNL     1       4.344  -3.110   0.835  1.00  0.00     0.209 HD
ENDBRANCH  43  44
ENDBRANCH  19  43
BRANCH   6  46
HETATM   46  O1  UNL     1      -4.177  -0.329  -1.705  1.00  0.00    -0.383 OA
ATOM     47  H1  UNL     1      -3.861  -1.223  -1.643  1.00  0.00     0.210 HD
ENDBRANCH   6  46
TORSDOF 10
