REMARK  10 active torsions:
REMARK  status: ('A' for Active; 'I' for Inactive)
REMARK    1  A    between atoms: C3_4  and  O2_5 
REMARK    2  A    between atoms: O2_5  and  C4_6 
REMARK    3  A    between atoms: C6_8  and  O3_9 
REMARK    4  A    between atoms: C7_11  and  O4_12 
REMARK    5  A    between atoms: C8_14  and  O5_15 
REMARK    6  A    between atoms: C16_24  and  C17_25 
REMARK    7  A    between atoms: C22_32  and  O8_33 
REMARK    8  A    between atoms: C25_38  and  O10_39 
REMARK    9  A    between atoms: C26_41  and  O11_42 
REMARK   10  A    between atoms: C27_44  and  O12_45 
ROOT
HETATM    1  C4  UNL     1       1.422  -0.517  -0.672  1.00  0.00     0.266 C 
HETATM    2  C5  UNL     1       0.332   0.090   0.117  1.00  0.00     0.102 C 
HETATM    3  C6  UNL     1      -1.085  -0.293  -0.285  1.00  0.00     0.107 C 
HETATM    4  C7  UNL     1      -1.234  -1.746   0.070  1.00  0.00     0.143 C 
HETATM    5  C8  UNL     1      -2.624  -2.237   0.319  1.00  0.00     0.159 C 
HETATM    6  C9  UNL     1      -3.524  -1.361   1.080  1.00  0.00     0.050 C 
HETATM    7  C10 UNL     1      -2.938   0.006   1.399  1.00  0.00     0.031 C 
HETATM    8  C11 UNL     1      -2.248  -0.088   2.704  1.00  0.00     0.022 C 
HETATM    9  C12 UNL     1      -4.169   0.880   1.673  1.00  0.00     0.238 A 
HETATM   10  C13 UNL     1      -3.724   2.226   2.254  1.00  0.00     0.075 C 
HETATM   11  C14 UNL     1      -2.521   2.760   1.570  1.00  0.00     0.006 C 
HETATM   12  C15 UNL     1      -1.578   1.891   0.890  1.00  0.00     0.014 C 
HETATM   13  C16 UNL     1      -2.155   0.611   0.252  1.00  0.00     0.010 C 
HETATM   14  O6  UNL     1      -5.029   0.221   2.587  1.00  0.00    -0.194 OA
HETATM   15  O7  UNL     1      -5.397   0.565   1.396  1.00  0.00    -0.194 OA
HETATM   16  C22 UNL     1      -0.720  -2.698  -0.998  1.00  0.00     0.186 C 
HETATM   17  C23 UNL     1       0.792  -2.784  -1.029  1.00  0.00     0.152 C 
HETATM   18  C24 UNL     1       1.375  -3.575   0.088  1.00  0.00     0.042 C 
HETATM   19  O9  UNL     1       1.312  -1.632  -1.355  1.00  0.00    -0.354 OA
ENDROOT
BRANCH   1  20
HETATM   20  O2  UNL     1       2.548  -0.659   0.184  1.00  0.00    -0.329 OA
BRANCH  20  21
HETATM   21  C3  UNL     1       3.627   0.092  -0.178  1.00  0.00     0.294 C 
HETATM   22  O1  UNL     1       4.061   0.928   0.851  1.00  0.00    -0.351 OA
HETATM   23  C2  UNL     1       5.426   1.026   0.945  1.00  0.00     0.152 C 
HETATM   24  C1  UNL     1       5.728   2.272   1.785  1.00  0.00     0.042 C 
HETATM   25  C27 UNL     1       6.101   1.187  -0.401  1.00  0.00     0.178 C 
HETATM   26  C26 UNL     1       5.879  -0.073  -1.196  1.00  0.00     0.183 C 
HETATM   27  C25 UNL     1       4.759  -0.852  -0.548  1.00  0.00     0.204 C 
BRANCH  25  28
HETATM   28  O12 UNL     1       5.674   2.320  -1.068  1.00  0.00    -0.390 OA
ATOM     29  H12 UNL     1       6.097   2.421  -1.912  1.00  0.00     0.210 HD
ENDBRANCH  25  28
BRANCH  26  30
HETATM   30  O11 UNL     1       7.009  -0.893  -1.184  1.00  0.00    -0.390 OA
ATOM     31  H11 UNL     1       7.713  -0.403  -1.592  1.00  0.00     0.210 HD
ENDBRANCH  26  30
BRANCH  27  32
HETATM   32  O10 UNL     1       4.278  -1.799  -1.472  1.00  0.00    -0.388 OA
ATOM     33  H10 UNL     1       4.986  -2.389  -1.703  1.00  0.00     0.210 HD
ENDBRANCH  27  32
ENDBRANCH  20  21
ENDBRANCH   1  20
BRANCH   3  34
HETATM   34  O3  UNL     1      -1.030  -0.259  -1.692  1.00  0.00    -0.386 OA
ATOM     35  H3  UNL     1      -1.915  -0.498  -1.943  1.00  0.00     0.210 HD
ENDBRANCH   3  34
BRANCH   4  36
HETATM   36  O4  UNL     1      -0.389  -2.040   1.171  1.00  0.00    -0.381 OA
ATOM     37  H4  UNL     1      -0.483  -2.958   1.395  1.00  0.00     0.211 HD
ENDBRANCH   4  36
BRANCH  13  38
HETATM   38  C17 UNL     1      -3.035   1.175  -0.838  1.00  0.00    -0.002 C 
HETATM   39  C18 UNL     1      -3.805   0.312  -1.724  1.00  0.00     0.005 C 
HETATM   40  C19 UNL     1      -4.331   1.359  -2.741  1.00  0.00     0.000 C 
HETATM   41  C20 UNL     1      -3.040   2.024  -3.112  1.00  0.00     0.000 C 
HETATM   42  C21 UNL     1      -2.404   2.186  -1.718  1.00  0.00     0.005 C 
ENDBRANCH  13  38
BRANCH  16  43
HETATM   43  O8  UNL     1      -1.305  -2.543  -2.227  1.00  0.00    -0.390 OA
ATOM     44  H8  UNL     1      -0.984  -3.138  -2.894  1.00  0.00     0.210 HD
ENDBRANCH  16  43
BRANCH   5  45
HETATM   45  O5  UNL     1      -2.454  -3.497   0.963  1.00  0.00    -0.392 OA
ATOM     46  H5  UNL     1      -3.337  -3.809   1.121  1.00  0.00     0.210 HD
ENDBRANCH   5  45
TORSDOF 10
