REMARK  9 active torsions:
REMARK  status: ('A' for Active; 'I' for Inactive)
REMARK    1  A    between atoms: N1_1  and  C1_5 
REMARK    2  A    between atoms: C1_5  and  C2_6 
REMARK    3  A    between atoms: C2_6  and  C3_7 
REMARK       I    between atoms: C3_7  and  N2_9 
REMARK    4  A    between atoms: N2_9  and  S1_11 
REMARK    5  A    between atoms: S1_11  and  C4_14 
REMARK    6  A    between atoms: C4_14  and  C5_15 
REMARK    7  A    between atoms: C5_15  and  C6_16 
REMARK    8  A    between atoms: C6_16  and  N3_17 
REMARK       I    between atoms: N3_17  and  C7_18 
REMARK       I    between atoms: C7_18  and  N4_20 
REMARK    9  A    between atoms: C9_27  and  C10_28 
ROOT
HETATM    1  C6  UNL     1      -1.134   0.476  -1.314  1.00  0.00     0.162 C 
ENDROOT
BRANCH   1   2
HETATM    2  C5  UNL     1      -0.294  -0.752  -1.167  1.00  0.00     0.076 C 
BRANCH   2   3
HETATM    3  C4  UNL     1       0.939  -0.550  -0.367  1.00  0.00     0.169 C 
BRANCH   3   4
HETATM    4  S1  UNL     1       2.134   0.540  -1.038  1.00  0.00     0.233 S 
HETATM    5  O2  UNL     1       1.642   1.881  -1.375  1.00  0.00    -0.206 OA
HETATM    6  O3  UNL     1       2.699  -0.078  -2.308  1.00  0.00    -0.206 OA
BRANCH   4   7
HETATM    7  N2  UNL     1       3.432   0.609   0.132  1.00  0.00    -0.254 N 
HETATM    8  C3  UNL     1       4.710   0.150  -0.222  1.00  0.00     0.232 C 
HETATM    9  O1  UNL     1       4.925  -0.303  -1.360  1.00  0.00    -0.273 OA
ATOM     10  H2  UNL     1       3.261   0.981   1.066  1.00  0.00     0.181 HD
BRANCH   8  11
HETATM   11  C2  UNL     1       5.820   0.197   0.759  1.00  0.00     0.131 C 
BRANCH  11  12
HETATM   12  C1  UNL     1       7.081  -0.330   0.167  1.00  0.00     0.238 C 
BRANCH  12  13
HETATM   13  N1  UNL     1       7.578   0.360  -0.976  1.00  0.00    -0.079 N 
ATOM     14  H13 UNL     1       6.854   0.406  -1.693  1.00  0.00     0.274 HD
ATOM     15  H12 UNL     1       7.687   1.351  -0.760  1.00  0.00     0.274 HD
ATOM     16  H11 UNL     1       8.442  -0.001  -1.381  1.00  0.00     0.274 HD
ENDBRANCH  12  13
ENDBRANCH  11  12
ENDBRANCH   8  11
ENDBRANCH   4   7
ENDBRANCH   3   4
ENDBRANCH   2   3
ENDBRANCH   1   2
BRANCH   1  17
HETATM   17  N3  UNL     1      -1.626   0.986  -0.112  1.00  0.00    -0.369 NA
HETATM   18  C7  UNL     1      -2.101   1.481   1.057  1.00  0.00     0.399 C 
HETATM   19  O4  UNL     1      -1.351   1.904   2.021  1.00  0.00    -0.230 OA
HETATM   20  N4  UNL     1      -3.473   1.624   1.421  1.00  0.00    -0.275 N 
HETATM   21  C8  UNL     1      -4.440   0.824   1.180  1.00  0.00     0.170 A 
ATOM     22  H4  UNL     1      -3.712   2.470   1.938  1.00  0.00     0.173 HD
HETATM   23  N5  UNL     1      -4.529  -0.349   0.547  1.00  0.00    -0.278 N 
HETATM   24  S2  UNL     1      -6.088   1.039   1.680  1.00  0.00    -0.028 SA
HETATM   25  N6  UNL     1      -5.653  -0.937   0.478  1.00  0.00    -0.287 N 
ATOM     26  H5  UNL     1      -3.702  -0.769   0.123  1.00  0.00     0.189 HD
HETATM   27  C9  UNL     1      -6.730  -0.402   1.026  1.00  0.00     0.158 A 
ATOM     28  H6  UNL     1      -5.725  -1.832  -0.006  1.00  0.00     0.188 HD
BRANCH  27  29
HETATM   29  C10 UNL     1      -8.105  -0.880   1.080  1.00  0.00     0.289 C 
HETATM   30  N7  UNL     1      -8.475  -2.085   0.498  1.00  0.00    -0.055 NA
HETATM   31  O5  UNL     1      -8.952  -0.163   1.678  1.00  0.00    -0.269 OA
ENDBRANCH  27  29
ENDBRANCH   1  17
TORSDOF 9
