REMARK  9 active torsions:
REMARK  status: ('A' for Active; 'I' for Inactive)
REMARK    1  A    between atoms: N1_1  and  S1_4 
REMARK    2  A    between atoms: S1_4  and  N2_7 
REMARK    3  A    between atoms: N2_7  and  C1_9 
REMARK    4  A    between atoms: C1_9  and  C2_10 
REMARK       I    between atoms: C2_10  and  N3_12 
REMARK    5  A    between atoms: C4_15  and  N4_16 
REMARK    6  A    between atoms: N4_16  and  N5_18 
REMARK    7  A    between atoms: C5_20  and  O4_21 
REMARK    8  A    between atoms: C5_20  and  C6_23 
REMARK    9  A    between atoms: C11_32  and  O5_33 
ROOT
HETATM    1  C2  UNL     1       3.031  -1.886  -0.157  1.00  0.00     0.310 C 
HETATM    2  O3  UNL     1       2.356  -2.786  -0.055  1.00  0.00    -0.257 OA
HETATM    3  N3  UNL     1       2.656  -0.455  -0.102  1.00  0.00    -0.310 N 
ATOM      4  H3  UNL     1       3.485   0.018  -0.463  1.00  0.00     0.170 HD
HETATM    5  C3  UNL     1       1.849   0.517   0.155  1.00  0.00     0.120 A 
HETATM    6  C4  UNL     1       0.921   1.364  -0.353  1.00  0.00     0.116 A 
HETATM    7  C11 UNL     1       1.049   2.035   0.906  1.00  0.00     0.149 A 
HETATM    8  C12 UNL     1       1.832   1.350   1.464  1.00  0.00     0.236 A 
HETATM    9  O6  UNL     1       2.610   0.877   2.352  1.00  0.00    -0.283 OA
ENDROOT
BRANCH   6  10
HETATM   10  N4  UNL     1       0.140   1.309  -1.537  1.00  0.00    -0.294 N 
ATOM     11  H4  UNL     1       0.155   1.954  -2.327  1.00  0.00     0.187 HD
BRANCH  10  12
HETATM   12  N5  UNL     1      -0.678   0.136  -1.369  1.00  0.00    -0.280 N 
HETATM   13  C5  UNL     1      -1.977   0.144  -1.085  1.00  0.00     0.158 C 
ATOM     14  H5  UNL     1      -0.226  -0.772  -1.476  1.00  0.00     0.189 HD
BRANCH  13  15
HETATM   15  O4  UNL     1      -2.401   1.533  -1.002  1.00  0.00    -0.345 OA
ATOM     16  H4  UNL     1      -3.329   1.539  -0.799  1.00  0.00     0.219 HD
ENDBRANCH  13  15
BRANCH  13  17
HETATM   17  C6  UNL     1      -3.090  -0.624  -0.851  1.00  0.00     0.105 C 
HETATM   18  C7  UNL     1      -4.250  -0.261  -0.461  1.00  0.00     0.104 C 
HETATM   19  N6  UNL     1      -4.716   1.072  -0.141  1.00  0.00    -0.356 N 
HETATM   20  N7  UNL     1      -5.266  -1.178  -0.140  1.00  0.00    -0.376 N 
HETATM   21  C8  UNL     1      -5.799   1.396   0.365  1.00  0.00     0.064 C 
ATOM     22  H6  UNL     1      -4.076   1.836  -0.358  1.00  0.00     0.166 HD
HETATM   23  C9  UNL     1      -6.748   0.350   0.714  1.00  0.00     0.064 C 
HETATM   24  C10 UNL     1      -6.685  -0.749  -0.336  1.00  0.00     0.126 C 
ATOM     25  H7  UNL     1      -5.042  -2.107   0.216  1.00  0.00     0.161 HD
ENDBRANCH  13  17
ENDBRANCH  10  12
ENDBRANCH   6  10
BRANCH   7  26
HETATM   26  O5  UNL     1       0.299   3.191   1.059  1.00  0.00    -0.355 OA
ATOM     27  H5  UNL     1       0.384   3.636   1.894  1.00  0.00     0.218 HD
ENDBRANCH   7  26
BRANCH   1  28
HETATM   28  C1  UNL     1       4.509  -1.739  -0.375  1.00  0.00     0.044 C 
BRANCH  28  29
HETATM   29  N2  UNL     1       5.749  -1.718  -0.581  1.00  0.00    -0.228 N 
ATOM     30  H2  UNL     1       6.232  -2.429  -1.131  1.00  0.00     0.190 HD
BRANCH  29  31
HETATM   31  S1  UNL     1       6.600  -0.322   0.180  1.00  0.00     0.323 S 
HETATM   32  O1  UNL     1       6.650  -0.404   1.583  1.00  0.00    -0.182 OA
HETATM   33  O2  UNL     1       7.952  -0.320  -0.466  1.00  0.00    -0.182 OA
BRANCH  31  34
HETATM   34  N1  UNL     1       5.862   1.199  -0.269  1.00  0.00    -0.311 N 
ATOM     35  H12 UNL     1       5.528   1.901   0.391  1.00  0.00     0.170 HD
ATOM     36  H11 UNL     1       5.826   1.258  -1.287  1.00  0.00     0.170 HD
ENDBRANCH  31  34
ENDBRANCH  29  31
ENDBRANCH  28  29
ENDBRANCH   1  28
TORSDOF 9
