REMARK  11 active torsions:
REMARK  status: ('A' for Active; 'I' for Inactive)
REMARK    1  A    between atoms: C2_2  and  O1_3 
REMARK    2  A    between atoms: C2_2  and  N1_5 
REMARK    3  A    between atoms: C4_10  and  N3_11 
REMARK    4  A    between atoms: N3_11  and  N4_13 
REMARK    5  A    between atoms: N4_13  and  C5_15 
REMARK    6  A    between atoms: N5_16  and  O2_18 
REMARK    7  A    between atoms: O2_18  and  C6_19 
REMARK    8  A    between atoms: C6_19  and  C7_20 
REMARK    9  A    between atoms: C7_20  and  O3_21 
REMARK   10  A    between atoms: O3_21  and  N6_22 
REMARK   11  A    between atoms: N6_22  and  C8_24 
ROOT
HETATM    1  N1  UNL     1      -2.922   2.695  -0.237  1.00  0.00    -0.175 N 
ATOM      2  H1  UNL     1      -2.060   3.239  -0.262  1.00  0.00     0.186 HD
HETATM    3  C3  UNL     1      -2.725   1.474   0.020  1.00  0.00     0.687 A 
HETATM    4  N2  UNL     1      -1.414   1.059   0.220  1.00  0.00    -0.174 N 
ATOM      5  H2  UNL     1      -0.664   1.745   0.129  1.00  0.00     0.186 HD
HETATM    6  C4  UNL     1      -1.095  -0.205   0.528  1.00  0.00     0.155 A 
HETATM    7  C9  UNL     1      -2.134  -1.181   0.658  1.00  0.00     0.123 A 
HETATM    8  C10 UNL     1      -1.774  -2.475   0.957  1.00  0.00     0.267 A 
HETATM    9  O4  UNL     1      -0.620  -2.900   1.187  1.00  0.00    -0.267 OA
HETATM   10  N8  UNL     1      -2.770  -3.436   1.047  1.00  0.00    -0.274 N 
ATOM     11  H8  UNL     1      -2.568  -4.412   1.265  1.00  0.00     0.173 HD
HETATM   12  C11 UNL     1      -4.012  -2.996   0.828  1.00  0.00     0.330 A 
HETATM   13  O5  UNL     1      -4.963  -3.851   0.919  1.00  0.00    -0.246 OA
HETATM   14  N9  UNL     1      -4.360  -1.741   0.536  1.00  0.00    -0.288 N 
HETATM   15  C12 UNL     1      -5.674  -1.415   0.090  1.00  0.00     0.163 C 
HETATM   16  C13 UNL     1      -3.404  -0.749   0.444  1.00  0.00     0.146 A 
HETATM   17  N10 UNL     1      -3.680   0.526   0.135  1.00  0.00    -0.175 N 
ATOM     18  H10 UNL     1      -4.653   0.791  -0.020  1.00  0.00     0.186 HD
ENDROOT
BRANCH   6  19
HETATM   19  N3  UNL     1      -0.007  -0.721   0.476  1.00  0.00    -0.283 N 
ATOM     20  H3  UNL     1      -0.065  -1.693   0.780  1.00  0.00     0.188 HD
BRANCH  19  21
HETATM   21  N4  UNL     1       1.276  -0.411   0.138  1.00  0.00    -0.293 N 
ATOM     22  H4  UNL     1       1.640   0.541   0.114  1.00  0.00     0.187 HD
BRANCH  21  23
HETATM   23  C5  UNL     1       2.070  -1.588  -0.185  1.00  0.00     0.220 C 
HETATM   24  N5  UNL     1       3.177  -1.900   0.207  1.00  0.00    -0.261 N 
ATOM     25  H5  UNL     1       3.553  -2.788  -0.126  1.00  0.00     0.195 HD
BRANCH  24  26
HETATM   26  O2  UNL     1       3.996  -1.142   1.086  1.00  0.00    -0.277 OA
BRANCH  26  27
HETATM   27  C6  UNL     1       4.269   0.080   0.352  1.00  0.00     0.230 C 
BRANCH  27  28
HETATM   28  C7  UNL     1       5.736  -0.261  -0.188  1.00  0.00     0.230 C 
BRANCH  28  29
HETATM   29  O3  UNL     1       5.985   0.843  -0.949  1.00  0.00    -0.277 OA
BRANCH  29  30
HETATM   30  N6  UNL     1       6.960   1.622  -0.504  1.00  0.00    -0.263 N 
ATOM     31  H6  UNL     1       7.032   2.543  -0.937  1.00  0.00     0.195 HD
BRANCH  30  32
HETATM   32  C8  UNL     1       7.892   1.336   0.477  1.00  0.00     0.197 C 
HETATM   33  N7  UNL     1       8.641   0.268   0.548  1.00  0.00    -0.394 N 
ATOM     34  H72 UNL     1       8.513  -0.412  -0.202  1.00  0.00     0.156 HD
ATOM     35  H71 UNL     1       9.328   0.057   1.271  1.00  0.00     0.156 HD
ENDBRANCH  30  32
ENDBRANCH  29  30
ENDBRANCH  28  29
ENDBRANCH  27  28
ENDBRANCH  26  27
ENDBRANCH  24  26
ENDBRANCH  21  23
ENDBRANCH  19  21
ENDBRANCH   6  19
BRANCH   1  36
HETATM   36  C2  UNL     1      -4.043   3.455  -0.491  1.00  0.00     0.127 C 
HETATM   37  C1  UNL     1      -5.027   3.291  -1.586  1.00  0.00     0.098 C 
BRANCH  36  38
HETATM   38  O1  UNL     1      -4.242   4.440   0.353  1.00  0.00    -0.349 OA
ATOM     39  H1  UNL     1      -3.611   4.545   1.055  1.00  0.00     0.219 HD
ENDBRANCH  36  38
ENDBRANCH   1  36
TORSDOF 11
