REMARK  2 active torsions:
REMARK  status: ('A' for Active; 'I' for Inactive)
REMARK    1  A    between atoms: C3_9  and  N5_10 
REMARK    2  A    between atoms: C4_13  and  N6_14 
REMARK       I    between atoms: N6_14  and  C5_16 
REMARK       I    between atoms: C5_16  and  N7_17 
REMARK       I    between atoms: C5_16  and  N8_21 
ROOT
HETATM    1  C1  UNL     1      -0.848  -1.648   0.112  1.00  0.00     0.161 C 
HETATM    2  N1  UNL     1      -1.117  -0.231  -0.013  1.00  0.00    -0.308 N 
HETATM    3  C2  UNL     1      -2.426   0.096  -0.170  1.00  0.00     0.210 A 
HETATM    4  N2  UNL     1      -3.434  -0.924  -0.203  1.00  0.00    -0.062 NA
HETATM    5  N3  UNL     1      -2.735   1.397  -0.292  1.00  0.00    -0.272 N 
ATOM      6  H3  UNL     1      -3.709   1.675  -0.412  1.00  0.00     0.189 HD
HETATM    7  N4  UNL     1      -1.794   2.318  -0.259  1.00  0.00    -0.280 N 
ATOM      8  H4  UNL     1      -2.057   3.299  -0.354  1.00  0.00     0.188 HD
HETATM    9  C3  UNL     1      -0.508   2.003  -0.105  1.00  0.00     0.158 A 
HETATM   10  C4  UNL     1      -0.114   0.647   0.030  1.00  0.00     0.154 A 
ENDROOT
BRANCH  10  11
HETATM   11  N6  UNL     1       1.083   0.397   0.172  1.00  0.00    -0.324 N 
HETATM   12  C5  UNL     1       2.024  -0.585   0.339  1.00  0.00     0.481 C 
HETATM   13  N7  UNL     1       2.662  -0.899  -0.961  1.00  0.00    -0.033 N 
HETATM   14  N8  UNL     1       3.152  -0.083   1.176  1.00  0.00    -0.033 N 
ATOM     15  H73 UNL     1       1.976  -1.144  -1.675  1.00  0.00     0.278 HD
ATOM     16  H72 UNL     1       3.051  -0.068  -1.407  1.00  0.00     0.278 HD
ATOM     17  H71 UNL     1       3.362  -1.630  -0.837  1.00  0.00     0.278 HD
ATOM     18  H83 UNL     1       3.558   0.772   0.795  1.00  0.00     0.278 HD
ATOM     19  H82 UNL     1       2.827   0.289   2.069  1.00  0.00     0.278 HD
ATOM     20  H81 UNL     1       3.852  -0.814   1.300  1.00  0.00     0.278 HD
ATOM     21  H6  UNL     1       1.579   1.288   0.161  1.00  0.00     0.165 HD
ENDBRANCH  10  11
BRANCH   9  22
HETATM   22  N5  UNL     1       0.382   2.925  -0.077  1.00  0.00    -0.381 N 
ATOM     23  H52 UNL     1       0.099   3.900  -0.174  1.00  0.00     0.157 HD
ATOM     24  H51 UNL     1       1.366   2.684   0.041  1.00  0.00     0.157 HD
ENDBRANCH   9  22
TORSDOF 2
