REMARK  4 active torsions:
REMARK  status: ('A' for Active; 'I' for Inactive)
REMARK    1  A    between atoms: N1_2  and  C2_4 
REMARK    2  A    between atoms: C3_7  and  N3_8 
REMARK    3  A    between atoms: N3_8  and  N4_10 
REMARK    4  A    between atoms: C5_15  and  N6_16 
ROOT
HETATM    1  C2  UNL     1       1.707   0.094  -0.351  1.00  0.00     0.706 A 
HETATM    2  N2  UNL     1       0.548  -0.557  -0.184  1.00  0.00    -0.020 N 
ATOM      3  H2  UNL     1       0.577  -1.573  -0.100  1.00  0.00     0.203 HD
HETATM    4  C3  UNL     1      -0.649   0.046  -0.120  1.00  0.00     0.727 A 
HETATM    5  N5  UNL     1      -0.669   1.387  -0.234  1.00  0.00    -0.020 N 
ATOM      6  H5  UNL     1      -1.563   1.876  -0.191  1.00  0.00     0.203 HD
HETATM    7  C5  UNL     1       0.448   2.090  -0.401  1.00  0.00     0.705 A 
HETATM    8  N7  UNL     1       1.625   1.445  -0.459  1.00  0.00    -0.022 N 
ATOM      9  H7  UNL     1       2.481   1.985  -0.588  1.00  0.00     0.203 HD
ENDROOT
BRANCH   4  10
HETATM   10  N3  UNL     1      -1.863  -0.671   0.058  1.00  0.00    -0.134 N 
HETATM   11  C4  UNL     1      -3.111   0.019   0.118  1.00  0.00     0.197 C 
BRANCH  10  12
HETATM   12  N4  UNL     1      -1.805  -2.047   0.170  1.00  0.00    -0.329 N 
ATOM     13  H42 UNL     1      -0.913  -2.540   0.127  1.00  0.00     0.177 HD
ATOM     14  H41 UNL     1      -2.676  -2.562   0.298  1.00  0.00     0.177 HD
ENDBRANCH  10  12
ENDBRANCH   4  10
BRANCH   1  15
HETATM   15  N1  UNL     1       2.856  -0.437  -0.416  1.00  0.00    -0.229 N 
HETATM   16  C1  UNL     1       3.160  -1.828  -0.326  1.00  0.00     0.165 C 
ATOM     17  H1  UNL     1       3.645   0.196  -0.546  1.00  0.00     0.177 HD
ENDBRANCH   1  15
BRANCH   7  18
HETATM   18  N6  UNL     1       0.348   3.374  -0.502  1.00  0.00    -0.234 N 
ATOM     19  H62 UNL     1      -0.546   3.864  -0.458  1.00  0.00     0.174 HD
ATOM     20  H61 UNL     1       1.204   3.913  -0.630  1.00  0.00     0.174 HD
ENDBRANCH   7  18
TORSDOF 4
