REMARK  16 active torsions:
REMARK  status: ('A' for Active; 'I' for Inactive)
REMARK    1  A    between atoms: C2_5  and  C3_6 
REMARK    2  A    between atoms: C5_10  and  C6_11 
REMARK    3  A    between atoms: C6_11  and  C7_12 
REMARK    4  A    between atoms: C11_20  and  C12_21 
REMARK    5  A    between atoms: C12_21  and  C19_36 
REMARK    6  A    between atoms: N6_22  and  O1_24 
REMARK    7  A    between atoms: O1_24  and  C13_25 
REMARK    8  A    between atoms: C17_30  and  O3_31 
REMARK    9  A    between atoms: C17_30  and  C18_33 
REMARK   10  A    between atoms: C20_39  and  O6_40 
REMARK   11  A    between atoms: C21_42  and  C22_43 
REMARK   12  A    between atoms: C22_43  and  O7_44 
REMARK   13  A    between atoms: C24_50  and  N9_51 
REMARK   14  A    between atoms: N9_51  and  C25_53 
REMARK   15  A    between atoms: C27_55  and  O9_56 
REMARK   16  A    between atoms: C28_60  and  O10_61 
ROOT
HETATM    1  N1  UNL     1      -6.746  -2.298   4.872  1.00  0.00    -0.172 NA
HETATM    2  C1  UNL     1      -6.644  -1.194   4.561  1.00  0.00     0.181 C 
HETATM    3  N2  UNL     1      -6.525   0.137   4.228  1.00  0.00    -0.305 N 
ATOM      4  H2  UNL     1      -7.172   0.776   4.689  1.00  0.00     0.177 HD
HETATM    5  C2  UNL     1      -5.704   0.661   3.414  1.00  0.00     0.118 C 
ENDROOT
BRANCH   5   6
HETATM    6  C3  UNL     1      -4.680  -0.135   2.652  1.00  0.00     0.215 C 
HETATM    7  N3  UNL     1      -3.476   0.637   2.750  1.00  0.00    -0.394 N 
HETATM    8  C4  UNL     1      -2.448   0.381   1.780  1.00  0.00     0.154 C 
ATOM      9  H3  UNL     1      -3.354   1.340   3.479  1.00  0.00     0.155 HD
HETATM   10  C5  UNL     1      -2.892  -0.746   0.896  1.00  0.00    -0.018 C 
HETATM   11  C24 UNL     1      -4.200  -0.360   0.272  1.00  0.00     0.211 C 
HETATM   12  N11 UNL     1      -5.194  -0.275   1.298  1.00  0.00    -0.373 N 
ATOM     13  H11 UNL     1      -6.193  -0.310   1.094  1.00  0.00     0.158 HD
BRANCH  10  14
HETATM   14  C6  UNL     1      -1.890  -1.492   0.145  1.00  0.00     0.057 C 
BRANCH  14  15
HETATM   15  C7  UNL     1      -0.992  -0.850  -0.809  1.00  0.00     0.105 A 
HETATM   16  N4  UNL     1      -1.422  -0.483  -2.043  1.00  0.00    -0.352 N 
HETATM   17  C8  UNL     1      -0.645   0.087  -2.943  1.00  0.00     0.101 A 
ATOM     18  H4  UNL     1      -2.397  -0.657  -2.287  1.00  0.00     0.166 HD
HETATM   19  C9  UNL     1       0.701   0.364  -2.687  1.00  0.00     0.004 A 
HETATM   20  C10 UNL     1       1.146  -0.023  -1.405  1.00  0.00     0.072 A 
HETATM   21  C23 UNL     1       1.716   1.092  -3.475  1.00  0.00     0.162 A 
HETATM   22  N5  UNL     1       0.320  -0.590  -0.554  1.00  0.00    -0.340 N 
HETATM   23  C11 UNL     1       2.571   0.492  -1.427  1.00  0.00     0.089 A 
ATOM     24  H5  UNL     1       0.687  -0.853   0.360  1.00  0.00     0.167 HD
HETATM   25  N8  UNL     1       2.865   1.051  -2.647  1.00  0.00    -0.382 N 
ATOM     26  H8  UNL     1       3.787   1.391  -2.920  1.00  0.00     0.160 HD
BRANCH  23  27
HETATM   27  C12 UNL     1       3.022   1.051  -0.164  1.00  0.00     0.134 C 
HETATM   28  N6  UNL     1       3.478   0.539   0.816  1.00  0.00    -0.255 N 
ATOM     29  H6  UNL     1       3.685   1.211   1.555  1.00  0.00     0.195 HD
BRANCH  28  30
HETATM   30  O1  UNL     1       3.787  -0.761   1.169  1.00  0.00    -0.249 OA
BRANCH  30  31
HETATM   31  C13 UNL     1       5.159  -0.907   1.565  1.00  0.00     0.176 C 
HETATM   32  C14 UNL     1       5.927  -1.858   1.299  1.00  0.00     0.015 C 
HETATM   33  C15 UNL     1       7.370  -1.954   1.727  1.00  0.00     0.207 C 
HETATM   34  C17 UNL     1       5.678  -3.149   0.537  1.00  0.00     0.195 C 
HETATM   35  O2  UNL     1       7.908  -2.952   0.975  1.00  0.00    -0.383 OA
HETATM   36  C16 UNL     1       6.918  -3.945   0.884  1.00  0.00     0.222 C 
BRANCH  34  37
HETATM   37  O3  UNL     1       4.549  -3.727   1.066  1.00  0.00    -0.373 OA
ATOM     38  H3  UNL     1       4.393  -4.534   0.590  1.00  0.00     0.211 HD
ENDBRANCH  34  37
BRANCH  34  39
HETATM   39  C18 UNL     1       5.570  -2.927  -0.912  1.00  0.00     0.216 C 
HETATM   40  O4  UNL     1       4.520  -3.168  -1.525  1.00  0.00    -0.645 OA
HETATM   41  O5  UNL     1       6.668  -2.435  -1.644  1.00  0.00    -0.645 OA
ENDBRANCH  34  39
ENDBRANCH  30  31
ENDBRANCH  28  30
BRANCH  27  42
HETATM   42  C19 UNL     1       3.236   2.561  -0.203  1.00  0.00     0.181 A 
HETATM   43  N7  UNL     1       2.991   3.309  -1.224  1.00  0.00    -0.313 N 
HETATM   44  C20 UNL     1       3.280   4.601  -0.888  1.00  0.00     0.174 A 
ATOM     45  H7  UNL     1       2.641   2.991  -2.128  1.00  0.00     0.170 HD
HETATM   46  C21 UNL     1       3.717   4.559   0.404  1.00  0.00     0.129 A 
HETATM   47  O8  UNL     1       3.677   3.277   0.787  1.00  0.00    -0.289 OA
BRANCH  44  48
HETATM   48  O6  UNL     1       3.146   5.723  -1.723  1.00  0.00    -0.344 OA
ATOM     49  H6  UNL     1       3.347   6.622  -1.489  1.00  0.00     0.219 HD
ENDBRANCH  44  48
BRANCH  46  50
HETATM   50  C22 UNL     1       4.165   5.690   1.276  1.00  0.00     0.233 C 
BRANCH  50  51
HETATM   51  O7  UNL     1       4.526   5.252   2.520  1.00  0.00    -0.394 OA
ATOM     52  H7  UNL     1       4.810   5.970   3.073  1.00  0.00     0.209 HD
ENDBRANCH  50  51
ENDBRANCH  46  50
ENDBRANCH  27  42
ENDBRANCH  23  27
ENDBRANCH  14  15
ENDBRANCH  10  14
BRANCH  11  53
HETATM   53  N9  UNL     1      -4.533  -1.121  -0.866  1.00  0.00    -0.362 N 
ATOM     54  H9  UNL     1      -3.819  -1.756  -1.224  1.00  0.00     0.162 HD
BRANCH  53  55
HETATM   55  C25 UNL     1      -5.761  -1.085  -1.554  1.00  0.00     0.085 A 
HETATM   56  C26 UNL     1      -7.034  -0.779  -1.190  1.00  0.00     0.089 A 
HETATM   57  C27 UNL     1      -7.930  -0.977  -2.217  1.00  0.00     0.144 A 
HETATM   58  N10 UNL     1      -7.189  -1.429  -3.279  1.00  0.00    -0.316 N 
HETATM   59  C28 UNL     1      -5.916  -1.497  -2.904  1.00  0.00     0.169 A 
ATOM     60  H10 UNL     1      -7.553  -1.672  -4.200  1.00  0.00     0.170 HD
BRANCH  57  61
HETATM   61  O9  UNL     1      -9.293  -0.793  -2.269  1.00  0.00    -0.346 OA
ATOM     62  H9  UNL     1      -9.911  -0.930  -2.977  1.00  0.00     0.219 HD
ENDBRANCH  57  61
BRANCH  59  63
HETATM   63  O10 UNL     1      -4.863  -1.915  -3.728  1.00  0.00    -0.344 OA
ATOM     64  H10 UNL     1      -4.967  -2.191  -4.631  1.00  0.00     0.219 HD
ENDBRANCH  59  63
ENDBRANCH  53  55
ENDBRANCH  11  53
ENDBRANCH   5   6
TORSDOF 16
