REMARK  19 active torsions:
REMARK  status: ('A' for Active; 'I' for Inactive)
REMARK    1  A    between atoms: C4_6  and  O3_7 
REMARK    2  A    between atoms: C5_9  and  C6_10 
REMARK    3  A    between atoms: C7_11  and  O4_12 
REMARK    4  A    between atoms: C9_15  and  O5_16 
REMARK    5  A    between atoms: C12_21  and  O7_22 
REMARK    6  A    between atoms: C14_27  and  C15_28 
REMARK    7  A    between atoms: N1_29  and  O10_31 
REMARK    8  A    between atoms: O10_31  and  C16_32 
REMARK    9  A    between atoms: C16_32  and  C17_33 
REMARK   10  A    between atoms: C17_33  and  N2_34 
REMARK   11  A    between atoms: N2_34  and  C18_37 
REMARK   12  A    between atoms: C18_37  and  C19_38 
REMARK   13  A    between atoms: C21_40  and  O11_41 
REMARK   14  A    between atoms: C22_43  and  O12_44 
REMARK   15  A    between atoms: C23_46  and  N3_47 
REMARK   16  A    between atoms: C25_52  and  O16_53 
REMARK   17  A    between atoms: C25_52  and  C26_55 
REMARK   18  A    between atoms: C26_55  and  O17_56 
REMARK   19  A    between atoms: C27_58  and  O18_59 
ROOT
HETATM    1  O1  UNL     1      -2.174   0.114   3.921  1.00  0.00    -0.289 OA
HETATM    2  C1  UNL     1      -2.543   0.075   2.779  1.00  0.00     0.224 C 
HETATM    3  C2  UNL     1      -3.849  -0.653   2.566  1.00  0.00     0.338 C 
HETATM    4  O2  UNL     1      -4.845  -0.091   3.331  1.00  0.00    -0.351 OA
HETATM    5  C3  UNL     1      -5.049   1.202   2.921  1.00  0.00     0.209 C 
HETATM    6  C4  UNL     1      -5.321   1.353   1.448  1.00  0.00     0.209 C 
HETATM    7  C5  UNL     1      -4.563   0.390   0.598  1.00  0.00     0.230 C 
HETATM    8  O8  UNL     1      -4.163  -0.764   1.234  1.00  0.00    -0.311 OA
HETATM    9  O9  UNL     1      -3.424   1.082   0.077  1.00  0.00    -0.337 OA
HETATM   10  C13 UNL     1      -2.303   0.362   0.358  1.00  0.00     0.207 C 
HETATM   11  C14 UNL     1      -1.079   0.697  -0.467  1.00  0.00     0.198 C 
HETATM   12  O15 UNL     1       0.003   0.265   0.255  1.00  0.00    -0.337 OA
HETATM   13  C25 UNL     1      -0.333   0.215   1.585  1.00  0.00     0.226 C 
HETATM   14  C27 UNL     1      -1.740   0.704   1.747  1.00  0.00     0.210 C 
ENDROOT
BRANCH  11  15
HETATM   15  C15 UNL     1      -1.060   0.105  -1.798  1.00  0.00     0.121 C 
HETATM   16  N1  UNL     1      -0.084  -0.571  -2.245  1.00  0.00    -0.279 N 
ATOM     17  H1  UNL     1      -0.147  -0.954  -3.188  1.00  0.00     0.193 HD
BRANCH  16  18
HETATM   18  O10 UNL     1       1.027  -0.804  -1.532  1.00  0.00    -0.279 OA
BRANCH  18  19
HETATM   19  C16 UNL     1       2.315  -0.334  -1.821  1.00  0.00     0.228 C 
BRANCH  19  20
HETATM   20  C17 UNL     1       3.339  -0.788  -0.811  1.00  0.00     0.261 C 
BRANCH  20  21
HETATM   21  N2  UNL     1       4.653  -0.310  -1.105  1.00  0.00    -0.069 N 
ATOM     22  H22 UNL     1       4.935  -0.562  -2.052  1.00  0.00     0.277 HD
ATOM     23  H21 UNL     1       4.665   0.706  -1.198  1.00  0.00     0.277 HD
BRANCH  21  24
HETATM   24  C18 UNL     1       5.623  -0.759  -0.132  1.00  0.00     0.271 C 
BRANCH  24  25
HETATM   25  C19 UNL     1       6.980  -0.282  -0.409  1.00  0.00    -0.028 A 
HETATM   26  C20 UNL     1       7.341   0.543  -1.453  1.00  0.00     0.048 A 
HETATM   27  C21 UNL     1       8.636   0.947  -1.649  1.00  0.00     0.101 A 
HETATM   28  C22 UNL     1       9.666   0.532  -0.781  1.00  0.00     0.132 A 
HETATM   29  C23 UNL     1       9.333  -0.283   0.257  1.00  0.00     0.139 A 
HETATM   30  C24 UNL     1       8.001  -0.672   0.421  1.00  0.00     0.048 A 
BRANCH  27  31
HETATM   31  O11 UNL     1       8.996   1.772  -2.693  1.00  0.00    -0.358 OA
ATOM     32  H11 UNL     1       9.894   2.052  -2.829  1.00  0.00     0.217 HD
ENDBRANCH  27  31
BRANCH  28  33
HETATM   33  O12 UNL     1      10.951   0.970  -1.032  1.00  0.00    -0.356 OA
ATOM     34  H12 UNL     1      11.645   0.690  -0.447  1.00  0.00     0.218 HD
ENDBRANCH  28  33
BRANCH  29  35
HETATM   35  N3  UNL     1      10.289  -0.764   1.185  1.00  0.00    -0.113 N 
HETATM   36  O13 UNL     1      10.064  -1.893   1.727  1.00  0.00    -0.532 OA
HETATM   37  O14 UNL     1      11.421  -0.094   1.524  1.00  0.00    -0.532 OA
ENDBRANCH  29  35
ENDBRANCH  24  25
ENDBRANCH  21  24
ENDBRANCH  20  21
ENDBRANCH  19  20
ENDBRANCH  18  19
ENDBRANCH  16  18
ENDBRANCH  11  15
BRANCH  14  38
HETATM   38  O18 UNL     1      -1.654   2.097   1.888  1.00  0.00    -0.374 OA
ATOM     39  H18 UNL     1      -1.128   2.509   1.212  1.00  0.00     0.211 HD
ENDBRANCH  14  38
BRANCH  13  40
HETATM   40  O16 UNL     1       0.543   1.097   2.284  1.00  0.00    -0.361 OA
ATOM     41  H16 UNL     1       0.310   1.062   3.204  1.00  0.00     0.213 HD
ENDBRANCH  13  40
BRANCH  13  42
HETATM   42  C26 UNL     1      -0.130  -1.183   2.158  1.00  0.00     0.236 C 
BRANCH  42  43
HETATM   43  O17 UNL     1      -0.902  -2.145   1.522  1.00  0.00    -0.395 OA
ATOM     44  H17 UNL     1      -0.775  -3.016   1.879  1.00  0.00     0.209 HD
ENDBRANCH  42  43
ENDBRANCH  13  42
BRANCH   7  45
HETATM   45  C6  UNL     1      -5.398   0.024  -0.562  1.00  0.00     0.077 C 
HETATM   46  C7  UNL     1      -6.546  -0.721  -0.392  1.00  0.00     0.083 C 
HETATM   47  C8  UNL     1      -7.438  -1.237  -1.355  1.00  0.00     0.074 C 
HETATM   48  C9  UNL     1      -7.201  -1.499  -2.688  1.00  0.00     0.072 C 
HETATM   49  C10 UNL     1      -6.077  -1.085  -3.402  1.00  0.00     0.094 C 
HETATM   50  C11 UNL     1      -5.163  -0.114  -3.051  1.00  0.00     0.208 C 
HETATM   51  O6  UNL     1      -4.388   0.293  -3.939  1.00  0.00    -0.285 OA
HETATM   52  C12 UNL     1      -4.974   0.498  -1.806  1.00  0.00     0.130 C 
BRANCH  46  53
HETATM   53  O4  UNL     1      -6.863  -0.999   0.908  1.00  0.00    -0.360 OA
ATOM     54  H4  UNL     1      -7.654  -1.512   1.025  1.00  0.00     0.217 HD
ENDBRANCH  46  53
BRANCH  48  55
HETATM   55  O5  UNL     1      -8.152  -2.233  -3.384  1.00  0.00    -0.360 OA
ATOM     56  H5  UNL     1      -7.989  -2.413  -4.302  1.00  0.00     0.217 HD
ENDBRANCH  48  55
BRANCH  52  57
HETATM   57  O7  UNL     1      -4.306   1.697  -1.742  1.00  0.00    -0.356 OA
ATOM     58  H7  UNL     1      -4.018   2.019  -2.588  1.00  0.00     0.218 HD
ENDBRANCH  52  57
ENDBRANCH   7  45
BRANCH   6  59
HETATM   59  O3  UNL     1      -4.955   2.693   1.148  1.00  0.00    -0.388 OA
ATOM     60  H3  UNL     1      -5.127   2.788   0.219  1.00  0.00     0.210 HD
ENDBRANCH   6  59
TORSDOF 19
