REMARK  25 active torsions:
REMARK  status: ('A' for Active; 'I' for Inactive)
REMARK    1  A    between atoms: C2_2  and  O1_3 
REMARK    2  A    between atoms: C2_2  and  C3_5 
REMARK    3  A    between atoms: C3_5  and  O2_6 
REMARK    4  A    between atoms: C3_5  and  C4_8 
REMARK    5  A    between atoms: C4_8  and  O3_9 
REMARK    6  A    between atoms: C4_8  and  C5_11 
REMARK    7  A    between atoms: C5_11  and  C6_12 
REMARK    8  A    between atoms: C6_12  and  C7_13 
REMARK    9  A    between atoms: C7_13  and  O4_14 
REMARK   10  A    between atoms: C7_13  and  O5_16 
REMARK   11  A    between atoms: O5_16  and  C8_17 
REMARK   12  A    between atoms: C9_19  and  O7_20 
REMARK   13  A    between atoms: C9_19  and  C10_22 
REMARK   14  A    between atoms: C10_22  and  O8_23 
REMARK   15  A    between atoms: O8_23  and  C11_24 
REMARK   16  A    between atoms: C11_24  and  C12_26 
REMARK   17  A    between atoms: C14_28  and  O10_29 
REMARK   18  A    between atoms: C15_31  and  O11_32 
REMARK   19  A    between atoms: C16_34  and  O12_35 
REMARK   20  A    between atoms: C19_39  and  C20_40 
REMARK   21  A    between atoms: C20_40  and  O14_42 
REMARK   22  A    between atoms: O14_42  and  C21_43 
REMARK   23  A    between atoms: C25_50  and  O16_51 
REMARK   24  A    between atoms: C26_53  and  O17_54 
REMARK   25  A    between atoms: O17_54  and  C27_55 
ROOT
HETATM    1  C8  UNL     1      -0.344  -0.965  -1.880  1.00  0.00     0.297 C 
HETATM    2  O6  UNL     1      -0.231  -0.140  -0.500  1.00  0.00    -0.320 OA
HETATM    3  C9  UNL     1       1.102  -0.153  -0.193  1.00  0.00     0.187 C 
HETATM    4  C18 UNL     1       1.952   0.231  -1.381  1.00  0.00     0.088 C 
HETATM    5  C19 UNL     1       1.160   0.942  -2.446  1.00  0.00     0.125 C 
HETATM    6  C26 UNL     1      -0.175   0.427  -2.754  1.00  0.00     0.204 C 
ENDROOT
BRANCH   3   7
HETATM    7  O7  UNL     1       1.230   0.801   0.831  1.00  0.00    -0.363 OA
ATOM      8  H7  UNL     1       2.156   0.792   1.044  1.00  0.00     0.213 HD
ENDBRANCH   3   7
BRANCH   3   9
HETATM    9  C10 UNL     1       1.472  -1.490   0.375  1.00  0.00     0.247 C 
BRANCH   9  10
HETATM   10  O8  UNL     1       2.765  -1.705   0.786  1.00  0.00    -0.312 OA
BRANCH  10  11
HETATM   11  C11 UNL     1       3.512  -1.205   1.798  1.00  0.00     0.293 C 
HETATM   12  O9  UNL     1       2.987  -0.373   2.578  1.00  0.00    -0.259 OA
BRANCH  11  13
HETATM   13  C12 UNL     1       4.902  -1.561   2.059  1.00  0.00     0.045 A 
HETATM   14  C13 UNL     1       5.538  -1.040   3.151  1.00  0.00     0.057 A 
HETATM   15  C14 UNL     1       6.850  -1.294   3.479  1.00  0.00     0.102 A 
HETATM   16  C15 UNL     1       7.596  -2.132   2.663  1.00  0.00     0.132 A 
HETATM   17  C16 UNL     1       6.964  -2.671   1.546  1.00  0.00     0.102 A 
HETATM   18  C17 UNL     1       5.653  -2.395   1.251  1.00  0.00     0.057 A 
BRANCH  15  19
HETATM   19  O10 UNL     1       7.423  -0.727   4.600  1.00  0.00    -0.358 OA
ATOM     20  H10 UNL     1       8.329  -0.902   4.826  1.00  0.00     0.217 HD
ENDBRANCH  15  19
BRANCH  16  21
HETATM   21  O11 UNL     1       8.937  -2.444   2.922  1.00  0.00    -0.356 OA
ATOM     22  H11 UNL     1       9.448  -3.018   2.363  1.00  0.00     0.218 HD
ENDBRANCH  16  21
BRANCH  17  23
HETATM   23  O12 UNL     1       7.742  -3.512   0.740  1.00  0.00    -0.358 OA
ATOM     24  H12 UNL     1       7.311  -3.880  -0.022  1.00  0.00     0.217 HD
ENDBRANCH  17  23
ENDBRANCH  11  13
ENDBRANCH  10  11
ENDBRANCH   9  10
ENDBRANCH   3   9
BRANCH   1  25
HETATM   25  O5  UNL     1      -1.777  -0.854  -1.731  1.00  0.00    -0.326 OA
BRANCH  25  26
HETATM   26  C7  UNL     1      -2.249  -2.114  -1.351  1.00  0.00     0.284 C 
BRANCH  26  27
HETATM   27  C6  UNL     1      -2.825  -2.072  -0.006  1.00  0.00     0.031 C 
BRANCH  27  28
HETATM   28  C5  UNL     1      -3.990  -1.516   0.153  1.00  0.00     0.008 C 
BRANCH  28  29
HETATM   29  C4  UNL     1      -4.656  -1.432   1.479  1.00  0.00     0.172 C 
BRANCH  29  30
HETATM   30  C3  UNL     1      -5.908  -2.303   1.385  1.00  0.00     0.178 C 
BRANCH  30  31
HETATM   31  C2  UNL     1      -6.836  -2.124   2.544  1.00  0.00     0.145 C 
HETATM   32  C1  UNL     1      -8.181  -2.741   2.310  1.00  0.00     0.042 C 
BRANCH  31  33
HETATM   33  O1  UNL     1      -6.334  -2.511   3.766  1.00  0.00    -0.393 OA
ATOM     34  H1  UNL     1      -5.481  -2.120   3.914  1.00  0.00     0.210 HD
ENDBRANCH  31  33
ENDBRANCH  30  31
BRANCH  30  35
HETATM   35  O2  UNL     1      -6.538  -1.918   0.180  1.00  0.00    -0.390 OA
ATOM     36  H2  UNL     1      -5.948  -2.032  -0.556  1.00  0.00     0.210 HD
ENDBRANCH  30  35
ENDBRANCH  29  30
BRANCH  29  37
HETATM   37  O3  UNL     1      -5.066  -0.070   1.570  1.00  0.00    -0.389 OA
ATOM     38  H3  UNL     1      -4.288   0.472   1.628  1.00  0.00     0.210 HD
ENDBRANCH  29  37
ENDBRANCH  28  29
ENDBRANCH  27  28
ENDBRANCH  26  27
BRANCH  26  39
HETATM   39  O4  UNL     1      -3.258  -2.515  -2.255  1.00  0.00    -0.368 OA
ATOM     40  H4  UNL     1      -2.884  -2.542  -3.128  1.00  0.00     0.213 HD
ENDBRANCH  26  39
ENDBRANCH  25  26
ENDBRANCH   1  25
BRANCH   5  41
HETATM   41  C20 UNL     1       1.044   2.402  -2.219  1.00  0.00     0.272 C 
HETATM   42  O13 UNL     1      -0.117   2.928  -2.189  1.00  0.00    -0.264 OA
BRANCH  41  43
HETATM   43  O14 UNL     1       2.081   3.305  -2.031  1.00  0.00    -0.258 OA
BRANCH  43  44
HETATM   44  C21 UNL     1       1.783   4.670  -1.846  1.00  0.00     0.188 A 
HETATM   45  N1  UNL     1       2.044   5.614  -2.766  1.00  0.00    -0.344 N 
HETATM   46  C22 UNL     1       1.735   6.924  -2.549  1.00  0.00     0.094 A 
ATOM     47  H1  UNL     1       2.483   5.344  -3.646  1.00  0.00     0.167 HD
HETATM   48  C23 UNL     1       1.134   7.326  -1.353  1.00  0.00     0.075 A 
HETATM   49  C24 UNL     1       0.868   6.366  -0.411  1.00  0.00     0.210 A 
HETATM   50  O15 UNL     1       0.327   6.648   0.692  1.00  0.00    -0.285 OA
HETATM   51  C25 UNL     1       1.198   5.060  -0.676  1.00  0.00     0.168 A 
BRANCH  51  52
HETATM   52  O16 UNL     1       0.937   4.062   0.274  1.00  0.00    -0.354 OA
ATOM     53  H16 UNL     1       0.530   4.333   1.088  1.00  0.00     0.218 HD
ENDBRANCH  51  52
ENDBRANCH  43  44
ENDBRANCH  41  43
ENDBRANCH   5  41
BRANCH   6  54
HETATM   54  O17 UNL     1      -0.490   0.132  -4.072  1.00  0.00    -0.285 OA
BRANCH  54  55
HETATM   55  C27 UNL     1      -1.651   0.549  -4.689  1.00  0.00     0.333 C 
HETATM   56  O18 UNL     1      -2.450   1.240  -3.950  1.00  0.00    -0.624 OA
HETATM   57  O19 UNL     1      -2.002   0.286  -6.000  1.00  0.00    -0.624 OA
ENDBRANCH  54  55
ENDBRANCH   6  54
TORSDOF 25
