REMARK  18 active torsions:
REMARK  status: ('A' for Active; 'I' for Inactive)
REMARK    1  A    between atoms: N1_4  and  C4_5 
REMARK    2  A    between atoms: C5_6  and  N2_7 
REMARK    3  A    between atoms: N2_7  and  O1_9 
REMARK    4  A    between atoms: O1_9  and  S1_10 
REMARK    5  A    between atoms: S1_10  and  C6_13 
REMARK    6  A    between atoms: C8_15  and  O4_16 
REMARK    7  A    between atoms: C9_18  and  O5_19 
REMARK    8  A    between atoms: C10_21  and  O6_22 
REMARK    9  A    between atoms: C12_27  and  O7_29 
REMARK   10  A    between atoms: C14_31  and  C15_32 
REMARK       I    between atoms: C15_32  and  N4_34 
REMARK   11  A    between atoms: N4_34  and  C16_36 
REMARK   12  A    between atoms: C16_36  and  C17_37 
REMARK   13  A    between atoms: C16_36  and  C18_40 
REMARK   14  A    between atoms: C19_45  and  C20_46 
REMARK   15  A    between atoms: C20_46  and  S2_47 
REMARK   16  A    between atoms: S2_47  and  C21_48 
REMARK   17  A    between atoms: C21_48  and  C22_49 
REMARK   18  A    between atoms: C22_49  and  O11_50 
ROOT
HETATM    1  C4  UNL     1       1.178  -0.970  -0.332  1.00  0.00     0.192 C 
HETATM    2  C5  UNL     1       1.955   0.299  -0.269  1.00  0.00     0.127 C 
HETATM    3  N3  UNL     1       1.187   1.306  -0.590  1.00  0.00    -0.345 N 
ATOM      4  H3  UNL     1       1.491   2.279  -0.620  1.00  0.00     0.164 HD
HETATM    5  C12 UNL     1      -0.156   0.854  -0.898  1.00  0.00     0.143 C 
HETATM    6  C13 UNL     1      -0.236   0.583  -2.367  1.00  0.00     0.072 C 
HETATM    7  C14 UNL     1      -0.229  -0.425  -0.070  1.00  0.00     0.164 C 
ENDROOT
BRANCH   7   8
HETATM    8  C15 UNL     1      -1.259  -1.349  -0.522  1.00  0.00     0.230 C 
HETATM    9  O8  UNL     1      -0.968  -2.464  -1.053  1.00  0.00    -0.273 OA
HETATM   10  N4  UNL     1      -2.628  -1.018  -0.375  1.00  0.00    -0.343 N 
ATOM     11  H4  UNL     1      -2.878  -0.125   0.050  1.00  0.00     0.163 HD
BRANCH  10  12
HETATM   12  C16 UNL     1      -3.691  -1.916  -0.814  1.00  0.00     0.220 C 
BRANCH  12  13
HETATM   13  C17 UNL     1      -4.552  -1.243  -1.790  1.00  0.00     0.199 C 
HETATM   14  O9  UNL     1      -4.306  -0.057  -2.109  1.00  0.00    -0.646 OA
HETATM   15  O10 UNL     1      -5.641  -1.917  -2.363  1.00  0.00    -0.646 OA
ENDBRANCH  12  13
BRANCH  12  16
HETATM   16  C18 UNL     1      -4.463  -2.277   0.431  1.00  0.00     0.200 C 
HETATM   17  N5  UNL     1      -5.569  -3.171   0.196  1.00  0.00    -0.318 N 
HETATM   18  N6  UNL     1      -6.813  -2.668   0.298  1.00  0.00    -0.301 N 
ATOM     19  H5  UNL     1      -5.414  -4.151  -0.040  1.00  0.00     0.181 HD
HETATM   20  C19 UNL     1      -6.997  -1.494   0.743  1.00  0.00     0.073 C 
ATOM     21  H6  UNL     1      -7.613  -3.234   0.016  1.00  0.00     0.187 HD
HETATM   22  S3  UNL     1      -5.365  -0.855   1.112  1.00  0.00    -0.085 SA
BRANCH  20  23
HETATM   23  C20 UNL     1      -8.263  -0.737   0.943  1.00  0.00     0.140 C 
BRANCH  23  24
HETATM   24  S2  UNL     1      -8.288   0.745  -0.061  1.00  0.00    -0.160 SA
BRANCH  24  25
HETATM   25  C21 UNL     1      -7.075   1.978   0.405  1.00  0.00     0.100 C 
BRANCH  25  26
HETATM   26  C22 UNL     1      -7.361   2.562   1.789  1.00  0.00     0.174 C 
BRANCH  26  27
HETATM   27  O11 UNL     1      -8.612   3.158   1.775  1.00  0.00    -0.400 OA
ATOM     28  H11 UNL     1      -8.790   3.521   2.635  1.00  0.00     0.209 HD
ENDBRANCH  26  27
ENDBRANCH  25  26
ENDBRANCH  24  25
ENDBRANCH  23  24
ENDBRANCH  20  23
ENDBRANCH  12  16
ENDBRANCH  10  12
ENDBRANCH   7   8
BRANCH   1  29
HETATM   29  N1  UNL     1       1.587  -1.913   0.671  1.00  0.00    -0.272 N 
HETATM   30  C3  UNL     1       2.124  -3.120   0.426  1.00  0.00     0.134 A 
HETATM   31  C2  UNL     1       2.396  -3.756   1.602  1.00  0.00     0.036 A 
HETATM   32  C1  UNL     1       2.999  -5.122   1.798  1.00  0.00     0.071 C 
HETATM   33  N8  UNL     1       2.010  -2.904   2.572  1.00  0.00    -0.287 N 
HETATM   34  N7  UNL     1       1.533  -1.816   1.994  1.00  0.00    -0.020 NA
ATOM     35  H8  UNL     1       2.075  -3.070   3.576  1.00  0.00     0.184 HD
ENDBRANCH   1  29
BRANCH   5  36
HETATM   36  O7  UNL     1      -1.119   1.763  -0.473  1.00  0.00    -0.370 OA
ATOM     37  H7  UNL     1      -1.999   1.467  -0.675  1.00  0.00     0.212 HD
ENDBRANCH   5  36
BRANCH   2  38
HETATM   38  N2  UNL     1       3.322   0.429   0.083  1.00  0.00    -0.235 N 
ATOM     39  H2  UNL     1       3.895  -0.413   0.131  1.00  0.00     0.197 HD
BRANCH  38  40
HETATM   40  O1  UNL     1       3.895   1.611   0.356  1.00  0.00    -0.146 OA
BRANCH  40  41
HETATM   41  S1  UNL     1       4.633   2.285  -0.995  1.00  0.00     0.319 S 
HETATM   42  O2  UNL     1       4.449   1.415  -2.214  1.00  0.00    -0.191 OA
HETATM   43  O3  UNL     1       4.016   3.645  -1.199  1.00  0.00    -0.191 OA
BRANCH  41  44
HETATM   44  C6  UNL     1       6.334   2.490  -0.637  1.00  0.00     0.093 A 
HETATM   45  C7  UNL     1       6.815   3.650  -0.075  1.00  0.00     0.065 A 
HETATM   46  C8  UNL     1       8.159   3.829   0.215  1.00  0.00     0.103 A 
HETATM   47  C9  UNL     1       9.068   2.822  -0.061  1.00  0.00     0.132 A 
HETATM   48  C10 UNL     1       8.598   1.654  -0.625  1.00  0.00     0.103 A 
HETATM   49  C11 UNL     1       7.260   1.490  -0.908  1.00  0.00     0.065 A 
BRANCH  46  50
HETATM   50  O4  UNL     1       8.646   4.999   0.782  1.00  0.00    -0.358 OA
ATOM     51  H4  UNL     1       9.567   5.122   0.981  1.00  0.00     0.217 HD
ENDBRANCH  46  50
BRANCH  47  52
HETATM   52  O5  UNL     1      10.433   2.991   0.228  1.00  0.00    -0.356 OA
ATOM     53  H5  UNL     1      11.057   2.300   0.039  1.00  0.00     0.218 HD
ENDBRANCH  47  52
BRANCH  48  54
HETATM   54  O6  UNL     1       9.526   0.656  -0.894  1.00  0.00    -0.358 OA
ATOM     55  H6  UNL     1       9.202  -0.148  -1.282  1.00  0.00     0.217 HD
ENDBRANCH  48  54
ENDBRANCH  41  44
ENDBRANCH  40  41
ENDBRANCH  38  40
ENDBRANCH   2  38
TORSDOF 18
