REMARK  6 active torsions:
REMARK  status: ('A' for Active; 'I' for Inactive)
REMARK    1  A    between atoms: S1_2  and  C2_5 
REMARK    2  A    between atoms: C9_15  and  C10_16 
REMARK    3  A    between atoms: C10_16  and  C11_17 
REMARK       I    between atoms: C11_17  and  N2_19 
REMARK    4  A    between atoms: N2_19  and  C12_21 
REMARK    5  A    between atoms: N3_35  and  C25_36 
REMARK    6  A    between atoms: C25_36  and  C26_37 
ROOT
HETATM    1  C2  UNL     1      -3.866  -3.417   1.034  1.00  0.00     0.061 A 
HETATM    2  C3  UNL     1      -4.905  -3.059   0.204  1.00  0.00     0.024 A 
HETATM    3  C4  UNL     1      -4.994  -1.732  -0.224  1.00  0.00     0.011 A 
HETATM    4  C5  UNL     1      -4.067  -0.811   0.174  1.00  0.00    -0.023 A 
HETATM    5  C6  UNL     1      -3.023  -1.159   1.004  1.00  0.00     0.043 A 
HETATM    6  C7  UNL     1      -2.943  -2.472   1.422  1.00  0.00     0.053 A 
HETATM    7  N1  UNL     1      -1.897  -0.521   1.608  1.00  0.00    -0.325 N 
ATOM      8  H1  UNL     1      -1.523  -1.009   2.422  1.00  0.00     0.169 HD
HETATM    9  C8  UNL     1      -1.194   0.699   1.266  1.00  0.00     0.245 C 
HETATM   10  O3  UNL     1      -0.804   1.316   2.282  1.00  0.00    -0.271 OA
HETATM   11  C9  UNL     1      -0.845   1.360   0.014  1.00  0.00     0.188 C 
HETATM   12  N3  UNL     1      -1.956   1.610  -0.883  1.00  0.00    -0.334 N 
HETATM   13  C32 UNL     1      -3.249   1.065  -1.088  1.00  0.00     0.225 C 
HETATM   14  O5  UNL     1      -3.476   1.066  -2.356  1.00  0.00    -0.273 OA
HETATM   15  C33 UNL     1      -4.415   0.506  -0.401  1.00  0.00     0.144 C 
ENDROOT
BRANCH  11  16
HETATM   16  C10 UNL     1       0.253   0.660  -0.709  1.00  0.00     0.138 C 
BRANCH  16  17
HETATM   17  C11 UNL     1       1.546   0.561   0.016  1.00  0.00     0.220 C 
HETATM   18  O4  UNL     1       1.737   1.084   1.145  1.00  0.00    -0.274 OA
HETATM   19  N2  UNL     1       2.646  -0.144  -0.552  1.00  0.00    -0.348 N 
ATOM     20  H2  UNL     1       2.555  -0.589  -1.465  1.00  0.00     0.163 HD
BRANCH  19  21
HETATM   21  C12 UNL     1       3.882  -0.222   0.171  1.00  0.00     0.152 A 
HETATM   22  C13 UNL     1       4.308  -1.584   0.470  1.00  0.00    -0.020 A 
HETATM   23  C14 UNL     1       3.630  -2.613   1.136  1.00  0.00     0.010 A 
HETATM   24  C18 UNL     1       5.573  -1.760  -0.024  1.00  0.00    -0.017 A 
HETATM   25  C15 UNL     1       4.282  -3.811   1.278  1.00  0.00     0.001 A 
HETATM   26  C16 UNL     1       5.550  -4.047   0.805  1.00  0.00     0.001 A 
HETATM   27  C17 UNL     1       6.182  -3.012   0.156  1.00  0.00     0.013 A 
HETATM   28  C19 UNL     1       6.017  -0.531  -0.659  1.00  0.00    -0.017 A 
HETATM   29  C20 UNL     1       7.208  -0.215  -1.298  1.00  0.00     0.014 A 
HETATM   30  C24 UNL     1       5.012   0.392  -0.548  1.00  0.00    -0.018 A 
HETATM   31  C21 UNL     1       7.433   1.035  -1.846  1.00  0.00     0.024 A 
HETATM   32  C22 UNL     1       6.418   1.961  -1.731  1.00  0.00     0.034 A 
HETATM   33 CL1  UNL     1       6.679   3.567  -2.424  1.00  0.00    -0.084 Cl
HETATM   34  C23 UNL     1       5.232   1.656  -1.098  1.00  0.00     0.034 A 
ENDBRANCH  19  21
ENDBRANCH  16  17
ENDBRANCH  11  16
BRANCH  12  35
HETATM   35  C25 UNL     1      -1.695   2.675  -1.810  1.00  0.00     0.165 C 
BRANCH  35  36
HETATM   36  C26 UNL     1      -2.146   3.997  -1.260  1.00  0.00    -0.040 A 
HETATM   37  C27 UNL     1      -1.919   5.169  -1.972  1.00  0.00     0.009 A 
HETATM   38  C28 UNL     1      -2.346   6.390  -1.446  1.00  0.00     0.001 A 
HETATM   39  C29 UNL     1      -2.985   6.462  -0.244  1.00  0.00     0.000 A 
HETATM   40  C30 UNL     1      -3.206   5.273   0.460  1.00  0.00     0.001 A 
HETATM   41  C31 UNL     1      -2.790   4.062  -0.048  1.00  0.00     0.009 A 
ENDBRANCH  35  36
ENDBRANCH  12  35
BRANCH   1  42
HETATM   42  S1  UNL     1      -3.781  -5.080   1.554  1.00  0.00     0.172 S 
HETATM   43  C1  UNL     1      -4.692  -5.328   3.066  1.00  0.00     0.167 C 
HETATM   44  O1  UNL     1      -4.320  -6.021   0.530  1.00  0.00    -0.223 OA
HETATM   45  O2  UNL     1      -2.326  -5.406   1.763  1.00  0.00    -0.223 OA
ENDBRANCH   1  42
TORSDOF 6
