REMARK  8 active torsions:
REMARK  status: ('A' for Active; 'I' for Inactive)
REMARK    1  A    between atoms: O1_2  and  N1_3 
REMARK    2  A    between atoms: C2_5  and  C3_6 
REMARK    3  A    between atoms: C2_5  and  C11_24 
REMARK       I    between atoms: C3_6  and  N2_8 
REMARK    4  A    between atoms: N2_8  and  C4_10 
REMARK    5  A    between atoms: C4_10  and  C5_11 
REMARK    6  A    between atoms: C7_15  and  C8_16 
REMARK    7  A    between atoms: C8_16  and  N4_17 
REMARK       I    between atoms: N4_17  and  C9_18 
REMARK    8  A    between atoms: C13_27  and  N6_28 
ROOT
HETATM    1  C3  UNL     1       1.798  -0.819  -0.172  1.00  0.00     0.275 C 
HETATM    2  O2  UNL     1       2.126  -1.942   0.228  1.00  0.00    -0.266 OA
HETATM    3  N2  UNL     1       0.437  -0.475  -0.435  1.00  0.00    -0.314 N 
ATOM      4  H2  UNL     1       0.208   0.464  -0.760  1.00  0.00     0.166 HD
ENDROOT
BRANCH   1   5
HETATM    5  C2  UNL     1       2.842   0.206  -0.391  1.00  0.00     0.149 C 
HETATM    6  N1  UNL     1       2.399   1.317  -0.769  1.00  0.00    -0.260 N 
ATOM      7  H1  UNL     1       1.385   1.356  -0.872  1.00  0.00     0.194 HD
BRANCH   6   8
HETATM    8  O1  UNL     1       3.019   2.438  -1.054  1.00  0.00    -0.285 OA
HETATM    9  C1  UNL     1       2.383   3.694  -0.831  1.00  0.00     0.237 C 
ENDBRANCH   6   8
BRANCH   5  10
HETATM   10  C11 UNL     1       4.272  -0.117  -0.117  1.00  0.00     0.075 A 
HETATM   11  C12 UNL     1       4.706  -1.402   0.072  1.00  0.00     0.085 A 
HETATM   12  S1  UNL     1       6.386  -1.176   0.404  1.00  0.00    -0.064 SA
HETATM   13  C13 UNL     1       6.427   0.505   0.283  1.00  0.00     0.142 A 
HETATM   14  N7  UNL     1       5.175   0.835  -0.003  1.00  0.00    -0.335 N 
ATOM     15  H7  UNL     1       4.915   1.813  -0.133  1.00  0.00     0.168 HD
BRANCH  13  16
HETATM   16  N6  UNL     1       7.440   1.347   0.425  1.00  0.00    -0.380 N 
ATOM     17  H62 UNL     1       8.403   1.093   0.645  1.00  0.00     0.158 HD
ATOM     18  H61 UNL     1       7.465   2.364   0.352  1.00  0.00     0.158 HD
ENDBRANCH  13  16
ENDBRANCH   5  10
ENDBRANCH   1   5
BRANCH   3  19
HETATM   19  C4  UNL     1      -0.608  -1.434  -0.248  1.00  0.00     0.247 C 
HETATM   20  C6  UNL     1      -1.981  -0.769  -0.483  1.00  0.00     0.135 C 
HETATM   21  C7  UNL     1      -2.208  -0.181   0.858  1.00  0.00     0.066 C 
HETATM   22  N5  UNL     1      -1.462  -0.759   1.711  1.00  0.00    -0.265 N 
HETATM   23  O5  UNL     1      -0.695  -1.734   1.119  1.00  0.00    -0.237 OA
ATOM     24  H5  UNL     1      -1.436  -0.529   2.704  1.00  0.00     0.194 HD
BRANCH  19  25
HETATM   25  C5  UNL     1      -0.489  -2.635  -1.105  1.00  0.00     0.289 C 
HETATM   26  N3  UNL     1      -1.397  -3.713  -1.058  1.00  0.00    -0.057 NA
HETATM   27  O3  UNL     1       0.461  -2.701  -1.914  1.00  0.00    -0.271 OA
ENDBRANCH  19  25
BRANCH  21  28
HETATM   28  C8  UNL     1      -3.195   0.940   1.046  1.00  0.00     0.213 C 
BRANCH  28  29
HETATM   29  N4  UNL     1      -4.415   0.614   0.471  1.00  0.00    -0.382 NA
HETATM   30  C9  UNL     1      -5.600   0.298  -0.086  1.00  0.00     0.287 C 
HETATM   31  C10 UNL     1      -6.846   0.280   0.822  1.00  0.00     0.135 C 
HETATM   32  O4  UNL     1      -5.916  -0.005  -1.279  1.00  0.00    -0.258 OA
ENDBRANCH  28  29
ENDBRANCH  21  28
ENDBRANCH   3  19
TORSDOF 8
