REMARK  9 active torsions:
REMARK  status: ('A' for Active; 'I' for Inactive)
REMARK    1  A    between atoms: C3_7  and  O1_8 
REMARK    2  A    between atoms: C5_10  and  O2_11 
REMARK    3  A    between atoms: C8_14  and  C9_15 
REMARK    4  A    between atoms: C9_15  and  N3_16 
REMARK    5  A    between atoms: N3_16  and  N4_18 
REMARK    6  A    between atoms: N4_18  and  C10_20 
REMARK    7  A    between atoms: C10_20  and  N5_22 
REMARK    8  A    between atoms: N5_22  and  C11_24 
REMARK    9  A    between atoms: C11_24  and  N6_25 
ROOT
HETATM    1  N3  UNL     1       0.007  -1.911  -1.259  1.00  0.00    -0.330 N 
ATOM      2  H3  UNL     1      -0.321  -2.483  -0.481  1.00  0.00     0.180 HD
ENDROOT
BRANCH   1   3
HETATM    3  C9  UNL     1      -0.568  -0.623  -1.555  1.00  0.00     0.182 C 
BRANCH   3   4
HETATM    4  C8  UNL     1      -1.716  -0.429  -0.634  1.00  0.00     0.007 A 
HETATM    5  C2  UNL     1      -2.433   0.737  -0.662  1.00  0.00     0.110 A 
HETATM    6  N1  UNL     1      -2.190   1.701  -1.368  1.00  0.00    -0.380 N 
HETATM    7  N2  UNL     1      -3.541   0.868   0.179  1.00  0.00    -0.321 N 
HETATM    8  C1  UNL     1      -1.352   2.228  -2.332  1.00  0.00     0.147 C 
ATOM      9  H1  UNL     1      -2.895   2.409  -1.163  1.00  0.00     0.160 HD
HETATM   10  C3  UNL     1      -3.926  -0.101   1.009  1.00  0.00     0.177 A 
ATOM     11  H2  UNL     1      -4.075   1.737   0.157  1.00  0.00     0.169 HD
HETATM   12  C5  UNL     1      -3.205  -1.278   1.037  1.00  0.00     0.119 A 
HETATM   13  C7  UNL     1      -2.117  -1.445   0.234  1.00  0.00     0.053 A 
BRANCH  10  14
HETATM   14  O1  UNL     1      -5.032   0.024   1.850  1.00  0.00    -0.339 OA
HETATM   15  C4  UNL     1      -5.760   1.228   1.820  1.00  0.00     0.211 C 
ENDBRANCH  10  14
BRANCH  12  16
HETATM   16  O2  UNL     1      -3.603  -2.285   1.893  1.00  0.00    -0.352 OA
HETATM   17  C6  UNL     1      -2.974  -3.529   1.994  1.00  0.00     0.210 C 
ENDBRANCH  12  16
ENDBRANCH   3   4
ENDBRANCH   1   3
BRANCH   1  18
HETATM   18  N4  UNL     1       1.019  -2.322  -2.083  1.00  0.00    -0.280 N 
ATOM     19  H4  UNL     1       0.810  -3.073  -2.741  1.00  0.00     0.189 HD
BRANCH  18  20
HETATM   20  C10 UNL     1       2.321  -1.797  -2.098  1.00  0.00     0.187 C 
HETATM   21  S1  UNL     1       3.428  -2.395  -3.184  1.00  0.00    -0.040 SA
BRANCH  20  22
HETATM   22  N5  UNL     1       2.772  -0.766  -1.249  1.00  0.00    -0.348 N 
ATOM     23  H5  UNL     1       2.145  -0.353  -0.558  1.00  0.00     0.163 HD
BRANCH  22  24
HETATM   24  C11 UNL     1       4.156  -0.297  -1.374  1.00  0.00     0.275 C 
BRANCH  24  25
HETATM   25  N6  UNL     1       4.314   0.861  -0.517  1.00  0.00    -0.206 N 
HETATM   26  N7  UNL     1       4.074   2.142  -0.861  1.00  0.00     0.002 NA
HETATM   27  N8  UNL     1       4.339   2.906   0.195  1.00  0.00    -0.220 N 
HETATM   28  N9  UNL     1       4.742   2.175   1.211  1.00  0.00    -0.233 N 
ATOM     29  H8  UNL     1       4.243   3.921   0.214  1.00  0.00     0.206 HD
HETATM   30  C12 UNL     1       5.144   2.635   2.555  1.00  0.00     0.184 C 
HETATM   31  C13 UNL     1       4.722   0.916   0.758  1.00  0.00     0.358 A 
HETATM   32  O3  UNL     1       5.046  -0.095   1.440  1.00  0.00    -0.244 OA
ENDBRANCH  24  25
ENDBRANCH  22  24
ENDBRANCH  20  22
ENDBRANCH  18  20
ENDBRANCH   1  18
TORSDOF 9
