REMARK  9 active torsions:
REMARK  status: ('A' for Active; 'I' for Inactive)
REMARK    1  A    between atoms: N1_1  and  S1_4 
REMARK    2  A    between atoms: S1_4  and  O3_7 
REMARK    3  A    between atoms: O3_7  and  C1_8 
REMARK    4  A    between atoms: C1_8  and  C2_9 
REMARK    5  A    between atoms: C2_9  and  C3_10 
REMARK    6  A    between atoms: C3_10  and  O4_11 
REMARK    7  A    between atoms: O4_11  and  C4_12 
REMARK       I    between atoms: C4_12  and  N2_14 
REMARK    8  A    between atoms: N2_14  and  S2_16 
REMARK    9  A    between atoms: C5_23  and  C6_24 
ROOT
HETATM    1  C2  UNL     1      -0.761   0.641  -0.154  1.00  0.00     0.229 C 
HETATM    2  N3  UNL     1      -1.384   1.626   0.742  1.00  0.00    -0.050 N 
ATOM      3  H31 UNL     1      -1.011   1.591   1.691  1.00  0.00     0.279 HD
ATOM      4  H32 UNL     1      -2.352   1.399   0.969  1.00  0.00     0.279 HD
HETATM    5  C5  UNL     1      -1.243   2.912   0.138  1.00  0.00     0.204 C 
HETATM    6  C7  UNL     1      -0.244   2.796  -0.991  1.00  0.00     0.115 C 
HETATM    7  C8  UNL     1      -0.443   1.380  -1.394  1.00  0.00     0.169 C 
HETATM    8  O9  UNL     1      -0.354   0.958  -2.520  1.00  0.00    -0.295 OA
ENDROOT
BRANCH   1   9
HETATM    9  C1  UNL     1      -1.765  -0.448  -0.357  1.00  0.00     0.241 C 
BRANCH   9  10
HETATM   10  O3  UNL     1      -1.341  -1.464  -1.183  1.00  0.00    -0.257 OA
BRANCH  10  11
HETATM   11  S1  UNL     1      -2.477  -2.660  -1.394  1.00  0.00     0.355 S 
HETATM   12  O1  UNL     1      -1.772  -3.977  -1.552  1.00  0.00    -0.176 OA
HETATM   13  O2  UNL     1      -3.280  -2.455  -2.668  1.00  0.00    -0.176 OA
BRANCH  11  14
HETATM   14  N1  UNL     1      -3.592  -2.791  -0.102  1.00  0.00    -0.306 N 
ATOM     15  H12 UNL     1      -3.741  -3.630   0.458  1.00  0.00     0.171 HD
ATOM     16  H11 UNL     1      -4.071  -1.897   0.005  1.00  0.00     0.171 HD
ENDBRANCH  11  14
ENDBRANCH  10  11
ENDBRANCH   9  10
ENDBRANCH   1   9
BRANCH   1  17
HETATM   17  C3  UNL     1       0.487   0.195   0.564  1.00  0.00     0.230 C 
BRANCH  17  18
HETATM   18  O4  UNL     1       1.205  -0.772  -0.187  1.00  0.00    -0.300 OA
BRANCH  18  19
HETATM   19  C4  UNL     1       2.387  -1.273   0.343  1.00  0.00     0.376 C 
HETATM   20  O5  UNL     1       2.759  -0.841   1.467  1.00  0.00    -0.237 OA
HETATM   21  N2  UNL     1       3.156  -2.251  -0.372  1.00  0.00    -0.211 N 
ATOM     22  H2  UNL     1       2.821  -2.576  -1.279  1.00  0.00     0.186 HD
BRANCH  21  23
HETATM   23  S2  UNL     1       4.616  -2.888   0.249  1.00  0.00     0.213 S 
HETATM   24  O6  UNL     1       5.627  -1.782   0.518  1.00  0.00    -0.578 OA
HETATM   25  O7  UNL     1       4.417  -3.595   1.559  1.00  0.00    -0.578 OA
HETATM   26  O8  UNL     1       5.310  -3.879  -0.910  1.00  0.00    -0.578 OA
ENDBRANCH  21  23
ENDBRANCH  18  19
ENDBRANCH  17  18
ENDBRANCH   1  17
BRANCH   5  27
HETATM   27  C6  UNL     1      -0.681   3.846   1.217  1.00  0.00     0.119 C 
HETATM   28  S3  UNL     1      -1.825   3.918   2.627  1.00  0.00    -0.096 SA
ENDBRANCH   5  27
TORSDOF 9
