REMARK  10 active torsions:
REMARK  status: ('A' for Active; 'I' for Inactive)
REMARK    1  A    between atoms: N1_2  and  C3_4 
REMARK    2  A    between atoms: C4_5  and  C5_6 
REMARK    3  A    between atoms: C5_6  and  N2_7 
REMARK    4  A    between atoms: C7_10  and  C8_11 
REMARK    5  A    between atoms: C8_11  and  S1_19 
REMARK    6  A    between atoms: N3_12  and  N4_14 
REMARK       I    between atoms: N4_14  and  C9_16 
REMARK    7  A    between atoms: S1_19  and  C10_20 
REMARK    8  A    between atoms: C10_20  and  C11_21 
REMARK       I    between atoms: C11_21  and  N6_23 
REMARK    9  A    between atoms: N6_23  and  N7_25 
REMARK   10  A    between atoms: C12_28  and  O4_29 
ROOT
HETATM    1  C8  UNL     1      -2.292   0.740   0.119  1.00  0.00     0.105 C 
HETATM    2  N3  UNL     1      -2.947   0.204  -0.737  1.00  0.00    -0.289 N 
ATOM      3  H3  UNL     1      -3.881   0.162  -0.329  1.00  0.00     0.188 HD
ENDROOT
BRANCH   1   4
HETATM    4  C7  UNL     1      -0.879   1.050   0.063  1.00  0.00     0.120 A 
HETATM    5  C6  UNL     1       0.062   0.823  -0.948  1.00  0.00     0.280 A 
HETATM    6  N2  UNL     1       1.268   1.246  -0.563  1.00  0.00    -0.249 N 
HETATM    7  O1  UNL     1      -0.193   0.299  -2.054  1.00  0.00    -0.265 OA
HETATM    8  N8  UNL     1       1.157   1.735   0.645  1.00  0.00    -0.270 N 
HETATM    9  C12 UNL     1      -0.122   1.641   1.069  1.00  0.00     0.175 A 
HETATM   10  C13 UNL     1       2.224   2.294   1.442  1.00  0.00     0.180 C 
BRANCH   6  11
HETATM   11  C5  UNL     1       2.504   1.162  -1.335  1.00  0.00     0.181 C 
BRANCH  11  12
HETATM   12  C4  UNL     1       3.211  -0.103  -1.045  1.00  0.00     0.012 C 
HETATM   13  C3  UNL     1       4.444  -0.139  -0.535  1.00  0.00     0.082 C 
BRANCH  13  14
HETATM   14  N1  UNL     1       5.101  -1.357  -0.264  1.00  0.00    -0.399 N 
HETATM   15  C1  UNL     1       4.847  -2.023   0.992  1.00  0.00     0.148 C 
HETATM   16  C2  UNL     1       6.011  -1.945  -1.216  1.00  0.00     0.148 C 
ENDBRANCH  13  14
ENDBRANCH  11  12
ENDBRANCH   6  11
BRANCH   9  17
HETATM   17  O4  UNL     1      -0.619   2.053   2.293  1.00  0.00    -0.344 OA
ATOM     18  H4  UNL     1      -0.102   2.457   2.980  1.00  0.00     0.219 HD
ENDBRANCH   9  17
ENDBRANCH   1   4
BRANCH   1  19
HETATM   19  S1  UNL     1      -3.162   1.253   1.637  1.00  0.00    -0.101 SA
BRANCH  19  20
HETATM   20  C10 UNL     1      -4.874   0.680   1.634  1.00  0.00     0.185 C 
BRANCH  20  21
HETATM   21  C11 UNL     1      -4.830  -0.793   1.742  1.00  0.00     0.245 C 
HETATM   22  O3  UNL     1      -5.092  -1.521   0.747  1.00  0.00    -0.271 OA
HETATM   23  N6  UNL     1      -4.483  -1.376   2.989  1.00  0.00    -0.276 N 
ATOM     24  H6  UNL     1      -4.269  -0.797   3.801  1.00  0.00     0.189 HD
BRANCH  23  25
HETATM   25  N7  UNL     1      -4.445  -2.782   3.065  1.00  0.00    -0.343 N 
ATOM     26  H72 UNL     1      -4.662  -3.347   2.244  1.00  0.00     0.176 HD
ATOM     27  H71 UNL     1      -4.196  -3.201   3.961  1.00  0.00     0.176 HD
ENDBRANCH  23  25
ENDBRANCH  20  21
ENDBRANCH  19  20
ENDBRANCH   1  19
BRANCH   2  28
HETATM   28  N4  UNL     1      -3.103  -0.356  -1.915  1.00  0.00    -0.253 N 
HETATM   29  C9  UNL     1      -3.649   0.227  -3.101  1.00  0.00     0.347 C 
HETATM   30  N5  UNL     1      -3.798  -0.436  -4.335  1.00  0.00    -0.038 NA
HETATM   31  O2  UNL     1      -4.019   1.445  -2.979  1.00  0.00    -0.249 OA
ATOM     32  H4  UNL     1      -2.797  -1.326  -1.993  1.00  0.00     0.191 HD
ENDBRANCH   2  28
TORSDOF 10
