REMARK  8 active torsions:
REMARK  status: ('A' for Active; 'I' for Inactive)
REMARK    1  A    between atoms: N2_3  and  S1_5 
REMARK    2  A    between atoms: S1_5  and  N3_7 
REMARK    3  A    between atoms: S1_5  and  C3_16 
REMARK    4  A    between atoms: N3_7  and  N4_9 
REMARK       I    between atoms: N4_9  and  C2_11 
REMARK    5  A    between atoms: C4_19  and  S2_20 
REMARK    6  A    between atoms: S2_20  and  C5_21 
REMARK    7  A    between atoms: C5_21  and  C6_22 
REMARK    8  A    between atoms: C10_34  and  N12_35 
ROOT
HETATM    1  N1  UNL     1       2.675  -4.991   1.899  1.00  0.00    -0.171 NA
HETATM    2  C1  UNL     1       2.478  -4.052   1.251  1.00  0.00     0.191 C 
HETATM    3  N2  UNL     1       2.231  -2.905   0.453  1.00  0.00    -0.230 N 
ATOM      4  H2  UNL     1       2.317  -2.924  -0.563  1.00  0.00     0.190 HD
ENDROOT
BRANCH   3   5
HETATM    5  S1  UNL     1       1.819  -1.609   1.229  1.00  0.00     0.199 S 
HETATM    6  O1  UNL     1       0.958  -1.967   2.413  1.00  0.00    -0.218 OA
BRANCH   5   7
HETATM    7  N3  UNL     1       3.178  -0.732   1.814  1.00  0.00    -0.234 N 
ATOM      8  H3  UNL     1       3.218  -0.195   2.680  1.00  0.00     0.199 HD
BRANCH   7   9
HETATM    9  N4  UNL     1       4.226  -0.885   0.887  1.00  0.00    -0.265 N 
HETATM   10  C2  UNL     1       5.002   0.215   0.440  1.00  0.00     0.201 C 
HETATM   11  N5  UNL     1       4.446   1.090  -0.312  1.00  0.00    -0.372 N 
HETATM   12  N6  UNL     1       6.353   0.306   0.840  1.00  0.00    -0.062 NA
ATOM     13  H52 UNL     1       3.470   1.024  -0.601  1.00  0.00     0.158 HD
ATOM     14  H51 UNL     1       5.004   1.881  -0.633  1.00  0.00     0.158 HD
ATOM     15  H4  UNL     1       4.434  -1.816   0.525  1.00  0.00     0.190 HD
ENDBRANCH   7   9
ENDBRANCH   5   7
BRANCH   5  16
HETATM   16  C3  UNL     1       0.877  -0.548   0.211  1.00  0.00     0.220 A 
HETATM   17  N7  UNL     1       0.350   0.588   0.698  1.00  0.00    -0.312 N 
HETATM   18  C4  UNL     1      -0.385   1.415  -0.100  1.00  0.00     0.162 A 
ATOM     19  H7  UNL     1       0.501   0.835   1.676  1.00  0.00     0.170 HD
HETATM   20  N11 UNL     1      -0.563   1.050  -1.397  1.00  0.00    -0.171 N 
HETATM   21  C10 UNL     1      -0.043  -0.080  -1.896  1.00  0.00     0.679 A 
ATOM     22  H11 UNL     1      -1.110   1.655  -2.010  1.00  0.00     0.186 HD
HETATM   23  N13 UNL     1       0.682  -0.880  -1.077  1.00  0.00    -0.166 N 
ATOM     24  H13 UNL     1       1.084  -1.743  -1.442  1.00  0.00     0.186 HD
BRANCH  18  25
HETATM   25  S2  UNL     1      -1.108   2.926   0.477  1.00  0.00    -0.086 SA
BRANCH  25  26
HETATM   26  C5  UNL     1      -2.776   2.689   1.132  1.00  0.00     0.160 C 
BRANCH  26  27
HETATM   27  C6  UNL     1      -3.710   2.284   0.061  1.00  0.00     0.110 A 
HETATM   28  N8  UNL     1      -4.334   3.193  -0.716  1.00  0.00    -0.286 N 
HETATM   29  N9  UNL     1      -5.109   2.536  -1.572  1.00  0.00    -0.278 N 
ATOM     30  H8  UNL     1      -4.229   4.206  -0.657  1.00  0.00     0.188 HD
HETATM   31  C7  UNL     1      -4.956   1.237  -1.315  1.00  0.00     0.162 A 
ATOM     32  H9  UNL     1      -5.707   2.947  -2.289  1.00  0.00     0.189 HD
HETATM   33  N10 UNL     1      -4.102   1.019  -0.314  1.00  0.00    -0.314 N 
HETATM   34  S3  UNL     1      -5.494  -0.381  -1.868  1.00  0.00    -0.091 SA
HETATM   35  C8  UNL     1      -3.871  -0.321   0.072  1.00  0.00     0.143 C 
HETATM   36  C9  UNL     1      -4.068  -1.269  -1.088  1.00  0.00     0.103 C 
ENDBRANCH  26  27
ENDBRANCH  25  26
ENDBRANCH  18  25
BRANCH  21  37
HETATM   37  N12 UNL     1      -0.239  -0.382  -3.128  1.00  0.00    -0.234 N 
ATOM     38 2H12 UNL     1      -0.785   0.220  -3.744  1.00  0.00     0.174 HD
ATOM     39 1H12 UNL     1       0.157  -1.242  -3.508  1.00  0.00     0.174 HD
ENDBRANCH  21  37
ENDBRANCH   5  16
ENDBRANCH   3   5
TORSDOF 8
