REMARK  8 active torsions:
REMARK  status: ('A' for Active; 'I' for Inactive)
REMARK    1  A    between atoms: O1_2  and  C2_3 
REMARK    2  A    between atoms: C2_3  and  N1_4 
REMARK    3  A    between atoms: C3_7  and  C4_8 
REMARK    4  A    between atoms: C5_17  and  S1_18 
REMARK    5  A    between atoms: S1_18  and  C6_19 
REMARK    6  A    between atoms: C6_19  and  C7_20 
REMARK    7  A    between atoms: C10_26  and  N10_27 
REMARK    8  A    between atoms: C11_32  and  N12_33 
REMARK       I    between atoms: N12_33  and  C12_35 
ROOT
HETATM    1  C7  UNL     1       0.333  -1.800  -1.350  1.00  0.00     0.005 A 
HETATM    2  C8  UNL     1       0.659  -2.147  -2.683  1.00  0.00     0.032 A 
HETATM    3  C9  UNL     1      -0.216  -2.914  -3.597  1.00  0.00     0.070 C 
HETATM    4  N8  UNL     1       1.850  -1.686  -2.980  1.00  0.00    -0.283 N 
ATOM      5  H8  UNL     1       2.318  -1.800  -3.879  1.00  0.00     0.188 HD
HETATM    6  N9  UNL     1       2.350  -1.051  -1.934  1.00  0.00    -0.086 N 
HETATM    7  C10 UNL     1       3.528  -0.432  -1.735  1.00  0.00     0.699 A 
HETATM    8  N11 UNL     1       3.833   0.131  -0.560  1.00  0.00    -0.175 N 
ATOM      9  H11 UNL     1       4.736   0.592  -0.446  1.00  0.00     0.186 HD
HETATM   10  C11 UNL     1       2.975   0.102   0.473  1.00  0.00     0.125 A 
HETATM   11  C13 UNL     1       1.771  -0.529   0.269  1.00  0.00     0.082 A 
HETATM   12  C14 UNL     1       1.434  -1.109  -0.918  1.00  0.00     0.087 A 
ENDROOT
BRANCH   1  13
HETATM   13  C6  UNL     1      -0.902  -2.221  -0.695  1.00  0.00     0.125 C 
BRANCH  13  14
HETATM   14  S1  UNL     1      -1.330  -1.632   0.894  1.00  0.00    -0.087 SA
BRANCH  14  15
HETATM   15  C5  UNL     1      -1.985  -0.010   1.028  1.00  0.00     0.165 A 
HETATM   16  N1  UNL     1      -3.298   0.311   0.936  1.00  0.00    -0.245 N 
HETATM   17  N2  UNL     1      -3.408   1.589   1.097  1.00  0.00    -0.276 N 
HETATM   18  C3  UNL     1      -2.218   2.141   1.294  1.00  0.00     0.169 A 
ATOM     19  H2  UNL     1      -4.289   2.102   1.075  1.00  0.00     0.189 HD
HETATM   20  N7  UNL     1      -1.346   1.131   1.248  1.00  0.00    -0.317 N 
ATOM     21  H7  UNL     1      -0.337   1.223   1.365  1.00  0.00     0.169 HD
BRANCH  16  22
HETATM   22  C2  UNL     1      -4.379  -0.601   0.701  1.00  0.00     0.318 C 
BRANCH  22  23
HETATM   23  O1  UNL     1      -4.940  -1.132   1.850  1.00  0.00    -0.375 OA
HETATM   24  C1  UNL     1      -5.970  -1.994   1.405  1.00  0.00     0.203 C 
ENDBRANCH  22  23
ENDBRANCH  16  22
BRANCH  18  25
HETATM   25  C4  UNL     1      -1.893   3.550   1.518  1.00  0.00     0.177 A 
HETATM   26  N3  UNL     1      -0.681   4.099   1.717  1.00  0.00    -0.267 N 
HETATM   27  N4  UNL     1      -0.815   5.406   1.879  1.00  0.00    -0.007 NA
ATOM     28  H3  UNL     1       0.202   3.589   1.740  1.00  0.00     0.185 HD
HETATM   29  N5  UNL     1      -2.113   5.720   1.787  1.00  0.00    -0.007 NA
HETATM   30  N6  UNL     1      -2.756   4.582   1.567  1.00  0.00    -0.267 N 
ATOM     31  H6  UNL     1      -3.766   4.500   1.451  1.00  0.00     0.185 HD
ENDBRANCH  18  25
ENDBRANCH  14  15
ENDBRANCH  13  14
ENDBRANCH   1  13
BRANCH   7  32
HETATM   32  N10 UNL     1       4.371  -0.397  -2.728  1.00  0.00    -0.233 N 
ATOM     33 2H10 UNL     1       4.139  -0.826  -3.624  1.00  0.00     0.174 HD
ATOM     34 1H10 UNL     1       5.264   0.072  -2.577  1.00  0.00     0.174 HD
ENDBRANCH   7  32
BRANCH  10  35
HETATM   35  N12 UNL     1       3.275   0.647   1.608  1.00  0.00    -0.317 N 
HETATM   36  C12 UNL     1       4.539   1.278   1.735  1.00  0.00     0.187 C 
HETATM   37  N13 UNL     1       4.595   2.565   1.668  1.00  0.00    -0.373 N 
HETATM   38  N14 UNL     1       5.760   0.578   1.933  1.00  0.00    -0.064 NA
ATOM     39 2H13 UNL     1       3.719   3.067   1.526  1.00  0.00     0.158 HD
ATOM     40 1H13 UNL     1       5.504   3.019   1.759  1.00  0.00     0.158 HD
ATOM     41  H12 UNL     1       2.620   0.623   2.390  1.00  0.00     0.170 HD
ENDBRANCH  10  35
TORSDOF 8
