REMARK  10 active torsions:
REMARK  status: ('A' for Active; 'I' for Inactive)
REMARK    1  A    between atoms: C2_2  and  O1_3 
REMARK    2  A    between atoms: O1_3  and  C3_4 
REMARK    3  A    between atoms: C3_4  and  C4_6 
REMARK    4  A    between atoms: C5_7  and  N1_8 
REMARK    5  A    between atoms: N1_8  and  C6_10 
REMARK    6  A    between atoms: C12_18  and  O5_19 
REMARK    7  A    between atoms: C13_21  and  O6_22 
REMARK    8  A    between atoms: C18_31  and  O7_32 
REMARK    9  A    between atoms: C22_37  and  O8_38 
REMARK   10  A    between atoms: C24_40  and  O9_41 
ROOT
HETATM    1  C6  UNL     1      -0.130   0.759  -0.242  1.00  0.00     0.055 A 
HETATM    2  C7  UNL     1       0.271  -0.427  -0.836  1.00  0.00     0.069 A 
HETATM    3  C8  UNL     1       1.550  -0.659  -1.187  1.00  0.00     0.097 A 
HETATM    4  O3  UNL     1       1.732  -1.839  -1.733  1.00  0.00    -0.273 OA
HETATM    5  C9  UNL     1       2.960  -2.477  -1.839  1.00  0.00     0.316 C 
HETATM    6  O4  UNL     1       3.074  -3.622  -1.956  1.00  0.00    -0.257 OA
HETATM    7  C10 UNL     1       4.225  -1.943  -1.824  1.00  0.00     0.126 C 
HETATM    8  C11 UNL     1       4.428  -2.645  -0.671  1.00  0.00     0.076 C 
HETATM    9  C12 UNL     1       4.756  -2.011   0.546  1.00  0.00     0.101 C 
HETATM   10  C13 UNL     1       4.559  -0.663   0.966  1.00  0.00     0.103 C 
HETATM   11  C15 UNL     1       3.882   0.394   0.329  1.00  0.00     0.071 C 
HETATM   12  C16 UNL     1       3.826   0.446  -1.027  1.00  0.00     0.066 C 
HETATM   13  N2  UNL     1       4.602   0.381  -2.177  1.00  0.00    -0.299 N 
ATOM     14  H2  UNL     1       4.975   1.200  -2.657  1.00  0.00     0.187 HD
HETATM   15  N3  UNL     1       4.823  -0.993  -2.621  1.00  0.00    -0.295 N 
ATOM     16  H3  UNL     1       5.372  -1.228  -3.448  1.00  0.00     0.187 HD
HETATM   17  C17 UNL     1       2.472   0.393  -0.913  1.00  0.00     0.061 A 
HETATM   18  C18 UNL     1       2.208   1.555  -0.366  1.00  0.00     0.103 A 
HETATM   19  C20 UNL     1       0.862   1.744  -0.015  1.00  0.00     0.072 A 
HETATM   20 BR1  UNL     1       0.249   3.340   0.798  1.00  0.00    -0.046 Br
ENDROOT
BRANCH   1  21
HETATM   21  N1  UNL     1      -1.475   1.039   0.063  1.00  0.00    -0.354 N 
ATOM     22  H1  UNL     1      -1.739   2.018   0.175  1.00  0.00     0.166 HD
BRANCH  21  23
HETATM   23  C5  UNL     1      -2.466   0.089   0.223  1.00  0.00     0.053 A 
HETATM   24  C4  UNL     1      -3.779   0.368  -0.045  1.00  0.00     0.086 A 
HETATM   25  C26 UNL     1      -4.763  -0.578   0.294  1.00  0.00     0.065 A 
HETATM   26  C24 UNL     1      -4.447  -1.782   0.887  1.00  0.00     0.120 A 
HETATM   27 BR2  UNL     1      -6.595  -0.222  -0.057  1.00  0.00    -0.047 Br
HETATM   28  C22 UNL     1      -3.124  -2.065   1.155  1.00  0.00     0.105 A 
HETATM   29  C21 UNL     1      -2.150  -1.150   0.832  1.00  0.00     0.070 A 
BRANCH  24  30
HETATM   30  C3  UNL     1      -4.184   1.551  -0.731  1.00  0.00     0.297 C 
HETATM   31  O2  UNL     1      -5.414   1.837  -0.972  1.00  0.00    -0.259 OA
BRANCH  30  32
HETATM   32  O1  UNL     1      -3.299   2.482  -1.199  1.00  0.00    -0.318 OA
BRANCH  32  33
HETATM   33  C2  UNL     1      -3.690   3.635  -1.873  1.00  0.00     0.174 C 
HETATM   34  C1  UNL     1      -4.578   4.460  -0.985  1.00  0.00     0.034 C 
ENDBRANCH  32  33
ENDBRANCH  30  32
ENDBRANCH  24  30
BRANCH  26  35
HETATM   35  O9  UNL     1      -5.398  -2.721   1.225  1.00  0.00    -0.352 OA
HETATM   36  C25 UNL     1      -5.843  -3.747   0.384  1.00  0.00     0.210 C 
ENDBRANCH  26  35
BRANCH  28  37
HETATM   37  O8  UNL     1      -2.746  -3.256   1.745  1.00  0.00    -0.353 OA
HETATM   38  C23 UNL     1      -1.383  -3.514   2.006  1.00  0.00     0.210 C 
ENDBRANCH  28  37
ENDBRANCH  21  23
ENDBRANCH   1  21
BRANCH  18  39
HETATM   39  O7  UNL     1       3.057   2.563  -0.123  1.00  0.00    -0.353 OA
HETATM   40  C19 UNL     1       3.434   3.647  -0.899  1.00  0.00     0.210 C 
ENDBRANCH  18  39
BRANCH  10  41
HETATM   41  O6  UNL     1       5.088  -0.318   2.150  1.00  0.00    -0.353 OA
HETATM   42  C14 UNL     1       4.958   0.981   2.667  1.00  0.00     0.210 C 
ENDBRANCH  10  41
BRANCH   9  43
HETATM   43  O5  UNL     1       5.347  -2.776   1.473  1.00  0.00    -0.358 OA
ATOM     44  H5  UNL     1       5.568  -2.349   2.292  1.00  0.00     0.217 HD
ENDBRANCH   9  43
TORSDOF 10
