REMARK  12 active torsions:
REMARK  status: ('A' for Active; 'I' for Inactive)
REMARK    1  A    between atoms: C2_2  and  C5_5 
REMARK    2  A    between atoms: C10_12  and  O2_13 
REMARK    3  A    between atoms: O2_13  and  C11_14 
REMARK    4  A    between atoms: C11_14  and  O3_15 
REMARK    5  A    between atoms: O3_15  and  C12_16 
REMARK    6  A    between atoms: C12_16  and  C13_17 
REMARK    7  A    between atoms: C13_17  and  C14_18 
REMARK    8  A    between atoms: C14_18  and  C15_19 
REMARK    9  A    between atoms: C15_19  and  O4_20 
REMARK   10  A    between atoms: O4_20  and  N1_21 
REMARK   11  A    between atoms: C31_40  and  O7_41 
REMARK   12  A    between atoms: C32_44  and  O9_45 
ROOT
HETATM    1  C5  UNL     1      -1.021  -3.367  -1.500  1.00  0.00     0.026 C 
HETATM    2 CL1  UNL     1      -0.711  -2.171  -2.746  1.00  0.00    -0.088 Cl
HETATM    3  C6  UNL     1      -1.125  -2.956  -0.251  1.00  0.00    -0.032 C 
HETATM    4  C7  UNL     1      -1.386  -3.997   0.760  1.00  0.00     0.013 C 
HETATM    5  C8  UNL     1      -2.180  -3.698   1.810  1.00  0.00     0.054 C 
HETATM    6  C9  UNL     1      -2.682  -2.335   1.804  1.00  0.00     0.184 C 
HETATM    7  O1  UNL     1      -3.852  -2.111   2.121  1.00  0.00    -0.290 OA
HETATM    8  C10 UNL     1      -1.766  -1.206   1.414  1.00  0.00     0.135 C 
HETATM    9  C16 UNL     1      -0.829  -1.113   2.620  1.00  0.00     0.049 C 
HETATM   10  C17 UNL     1       0.361  -0.273   2.327  1.00  0.00     0.030 C 
HETATM   11  C18 UNL     1       1.156  -0.910   1.231  1.00  0.00     0.049 C 
HETATM   12 CL2  UNL     1       1.487  -2.602   1.703  1.00  0.00    -0.118 Cl
HETATM   13  C19 UNL     1       0.312  -0.925  -0.008  1.00  0.00     0.022 C 
HETATM   14  C20 UNL     1       0.154   0.517  -0.425  1.00  0.00     0.008 C 
HETATM   15  C21 UNL     1       1.472   1.241  -0.603  1.00  0.00     0.007 C 
HETATM   16  C22 UNL     1       2.268   1.244   0.704  1.00  0.00     0.009 C 
HETATM   17  C23 UNL     1       3.546   1.976   0.427  1.00  0.00     0.014 C 
HETATM   18  C24 UNL     1       4.229   2.463   1.706  1.00  0.00     0.021 C 
HETATM   19  C25 UNL     1       4.496   1.212  -0.458  1.00  0.00     0.003 C 
HETATM   20  C26 UNL     1       4.654  -0.224  -0.126  1.00  0.00     0.006 C 
HETATM   21  C27 UNL     1       3.323  -0.866   0.083  1.00  0.00     0.012 C 
HETATM   22  C28 UNL     1       2.451  -0.174   1.093  1.00  0.00    -0.018 C 
HETATM   23  C29 UNL     1       3.158  -0.335   2.442  1.00  0.00     0.018 C 
HETATM   24  C30 UNL     1       5.784   1.986  -0.522  1.00  0.00     0.066 C 
HETATM   25  C31 UNL     1       5.458   3.355  -1.074  1.00  0.00     0.260 C 
HETATM   26  O8  UNL     1       4.454   3.993  -0.390  1.00  0.00    -0.331 OA
HETATM   27  C32 UNL     1       3.255   3.266  -0.359  1.00  0.00     0.268 C 
HETATM   28  C33 UNL     1      -1.028  -1.529   0.132  1.00  0.00     0.069 C 
ENDROOT
BRANCH   8  29
HETATM   29  O2  UNL     1      -2.490  -0.055   1.404  1.00  0.00    -0.347 OA
BRANCH  29  30
HETATM   30  C11 UNL     1      -3.505   0.143   0.552  1.00  0.00     0.339 C 
BRANCH  30  31
HETATM   31  O3  UNL     1      -4.083   1.421   0.800  1.00  0.00    -0.367 OA
BRANCH  31  32
HETATM   32  C12 UNL     1      -3.214   2.451   0.643  1.00  0.00     0.170 C 
BRANCH  32  33
HETATM   33  C13 UNL     1      -3.809   3.792   0.900  1.00  0.00     0.028 C 
BRANCH  33  34
HETATM   34  C14 UNL     1      -4.928   4.161  -0.014  1.00  0.00     0.031 C 
BRANCH  34  35
HETATM   35  C15 UNL     1      -6.118   3.261   0.017  1.00  0.00     0.208 C 
BRANCH  35  36
HETATM   36  O4  UNL     1      -7.093   3.810  -0.897  1.00  0.00    -0.221 OA
BRANCH  36  37
HETATM   37  N1  UNL     1      -8.290   3.201  -1.082  1.00  0.00     0.004 N 
HETATM   38  O5  UNL     1      -9.318   3.676  -0.571  1.00  0.00    -0.511 OA
HETATM   39  O6  UNL     1      -8.386   2.069  -1.826  1.00  0.00    -0.511 OA
ENDBRANCH  36  37
ENDBRANCH  35  36
ENDBRANCH  34  35
ENDBRANCH  33  34
ENDBRANCH  32  33
ENDBRANCH  31  32
ENDBRANCH  30  31
ENDBRANCH  29  30
ENDBRANCH   8  29
BRANCH   1  40
HETATM   40  C2  UNL     1      -1.143  -4.765  -1.960  1.00  0.00    -0.013 C 
HETATM   41  C1  UNL     1      -2.396  -5.465  -1.496  1.00  0.00     0.020 C 
HETATM   42  C3  UNL     1       0.115  -5.584  -1.663  1.00  0.00     0.020 C 
HETATM   43  C4  UNL     1      -1.236  -4.751  -3.493  1.00  0.00     0.020 C 
ENDBRANCH   1  40
BRANCH  27  44
HETATM   44  O9  UNL     1       2.338   4.067   0.315  1.00  0.00    -0.370 OA
ATOM     45  H9  UNL     1       2.158   4.864  -0.170  1.00  0.00     0.212 HD
ENDBRANCH  27  44
BRANCH  25  46
HETATM   46  O7  UNL     1       6.612   4.128  -0.944  1.00  0.00    -0.371 OA
ATOM     47  H7  UNL     1       6.407   4.988  -1.291  1.00  0.00     0.212 HD
ENDBRANCH  25  46
TORSDOF 12
