REMARK  11 active torsions:
REMARK  status: ('A' for Active; 'I' for Inactive)
REMARK    1  A    between atoms: C2_2  and  C3_3 
REMARK    2  A    between atoms: C3_3  and  S1_4 
REMARK    3  A    between atoms: S1_4  and  C4_5 
REMARK    4  A    between atoms: C6_8  and  C7_9 
REMARK    5  A    between atoms: C7_9  and  C8_10 
REMARK    6  A    between atoms: C8_10  and  O2_11 
REMARK    7  A    between atoms: C8_10  and  C9_13 
REMARK    8  A    between atoms: C9_13  and  N1_14 
REMARK       I    between atoms: N1_14  and  C10_16 
REMARK       I    between atoms: C10_16  and  N2_18 
REMARK    9  A    between atoms: N2_18  and  C11_20 
REMARK   10  A    between atoms: C17_26  and  N3_27 
REMARK       I    between atoms: N3_27  and  C18_29 
REMARK   11  A    between atoms: C18_29  and  C19_31 
ROOT
HETATM    1  C4  UNL     1      -2.007  -2.215   0.870  1.00  0.00     0.096 C 
HETATM    2  C5  UNL     1      -2.300  -2.760  -0.511  1.00  0.00     0.185 C 
HETATM    3  O1  UNL     1      -1.541  -2.003  -1.398  1.00  0.00    -0.382 OA
HETATM    4  C6  UNL     1      -0.698  -1.196  -0.680  1.00  0.00     0.147 C 
HETATM    5  C17 UNL     1      -1.518  -0.852   0.560  1.00  0.00     0.129 C 
ENDROOT
BRANCH   4   6
HETATM    6  C7  UNL     1      -0.152  -0.037  -1.378  1.00  0.00     0.067 C 
BRANCH   6   7
HETATM    7  C8  UNL     1       0.648  -0.517  -2.603  1.00  0.00     0.138 C 
BRANCH   7   8
HETATM    8  O2  UNL     1       1.174   0.562  -3.280  1.00  0.00    -0.394 OA
ATOM      9  H2  UNL     1       1.668   0.266  -4.036  1.00  0.00     0.210 HD
ENDBRANCH   7   8
BRANCH   7  10
HETATM   10  C9  UNL     1       1.574  -1.632  -2.293  1.00  0.00     0.156 C 
BRANCH  10  11
HETATM   11  N1  UNL     1       2.687  -1.376  -1.457  1.00  0.00    -0.340 N 
HETATM   12  C10 UNL     1       3.793  -0.501  -1.698  1.00  0.00     0.320 C 
HETATM   13  O3  UNL     1       3.804   0.110  -2.768  1.00  0.00    -0.247 OA
HETATM   14  N2  UNL     1       4.817  -0.350  -0.753  1.00  0.00    -0.309 N 
ATOM     15  H2  UNL     1       4.732  -0.879   0.115  1.00  0.00     0.170 HD
ATOM     16  H1  UNL     1       2.703  -1.879  -0.570  1.00  0.00     0.164 HD
BRANCH  14  17
HETATM   17  C11 UNL     1       5.940   0.460  -0.897  1.00  0.00     0.036 A 
HETATM   18  C12 UNL     1       6.679   0.866   0.231  1.00  0.00     0.029 A 
HETATM   19  C13 UNL     1       7.803   1.641   0.148  1.00  0.00     0.002 A 
HETATM   20  C14 UNL     1       8.270   2.066  -1.075  1.00  0.00     0.000 A 
HETATM   21  C15 UNL     1       7.574   1.689  -2.198  1.00  0.00     0.002 A 
HETATM   22  C16 UNL     1       6.427   0.896  -2.098  1.00  0.00     0.029 A 
ENDBRANCH  14  17
ENDBRANCH  10  11
ENDBRANCH   7  10
ENDBRANCH   6   7
ENDBRANCH   4   6
BRANCH   5  23
HETATM   23  N3  UNL     1      -2.474   0.161   0.353  1.00  0.00    -0.351 N 
HETATM   24  C18 UNL     1      -2.515   1.436   0.958  1.00  0.00     0.248 C 
HETATM   25  O4  UNL     1      -1.596   1.698   1.771  1.00  0.00    -0.271 OA
ATOM     26  H3  UNL     1      -3.221  -0.050  -0.309  1.00  0.00     0.163 HD
BRANCH  24  27
HETATM   27  C19 UNL     1      -3.513   2.463   0.728  1.00  0.00     0.137 C 
HETATM   28  C20 UNL     1      -3.529   2.747  -0.769  1.00  0.00     0.051 C 
HETATM   29  C21 UNL     1      -4.924   2.018   1.157  1.00  0.00     0.188 C 
HETATM   30 CL1  UNL     1      -5.050   1.922   2.901  1.00  0.00    -0.110 Cl
HETATM   31  S2  UNL     1      -5.772   3.579   0.654  1.00  0.00    -0.077 SA
HETATM   32  C22 UNL     1      -4.332   4.632   0.988  1.00  0.00     0.139 C 
HETATM   33  S3  UNL     1      -4.321   6.233   0.845  1.00  0.00    -0.053 SA
HETATM   34  N4  UNL     1      -3.309   3.720   1.378  1.00  0.00    -0.351 N 
HETATM   35  C23 UNL     1      -2.237   4.109   2.307  1.00  0.00     0.152 C 
ENDBRANCH  24  27
ENDBRANCH   5  23
BRANCH   1  36
HETATM   36  S1  UNL     1      -3.350  -2.341   2.014  1.00  0.00    -0.156 SA
BRANCH  36  37
HETATM   37  C3  UNL     1      -3.718  -4.063   2.374  1.00  0.00     0.100 C 
BRANCH  37  38
HETATM   38  C2  UNL     1      -2.598  -4.707   3.101  1.00  0.00    -0.027 C 
HETATM   39  C1  UNL     1      -1.951  -5.760   2.616  1.00  0.00     0.007 C 
ENDBRANCH  37  38
ENDBRANCH  36  37
ENDBRANCH   1  36
TORSDOF 11
