REMARK  12 active torsions:
REMARK  status: ('A' for Active; 'I' for Inactive)
REMARK    1  A    between atoms: C2_2  and  N1_4 
REMARK    2  A    between atoms: C4_5  and  C5_6 
REMARK    3  A    between atoms: C14_17  and  S1_18 
REMARK    4  A    between atoms: S1_18  and  N3_21 
REMARK    5  A    between atoms: N3_21  and  C15_23 
REMARK    6  A    between atoms: C15_23  and  C16_24 
REMARK    7  A    between atoms: C19_27  and  N4_28 
REMARK    8  A    between atoms: N4_28  and  O3_29 
REMARK    9  A    between atoms: N4_28  and  C20_31 
REMARK   10  A    between atoms: C20_31  and  C21_32 
REMARK   11  A    between atoms: C21_32  and  O4_33 
REMARK   12  A    between atoms: C22_35  and  O5_36 
ROOT
HETATM    1  S1  UNL     1      -0.969   0.293  -0.248  1.00  0.00     0.259 S 
HETATM    2  O1  UNL     1      -1.554  -1.016   0.146  1.00  0.00    -0.201 OA
HETATM    3  O2  UNL     1      -1.410   0.596  -1.656  1.00  0.00    -0.201 OA
ENDROOT
BRANCH   1   4
HETATM    4  C14 UNL     1      -1.370   1.527   0.875  1.00  0.00     0.092 A 
HETATM    5  C9  UNL     1      -2.660   1.790   1.240  1.00  0.00     0.017 A 
HETATM    6  C8  UNL     1      -3.754   1.009   0.713  1.00  0.00     0.080 A 
HETATM    7  C10 UNL     1      -2.912   2.825   2.148  1.00  0.00     0.015 A 
HETATM    8  N2  UNL     1      -4.121   0.803  -0.553  1.00  0.00    -0.342 N 
HETATM    9  C24 UNL     1      -4.665   0.276   1.483  1.00  0.00     0.111 A 
HETATM   10  C4  UNL     1      -5.191  -0.003  -0.631  1.00  0.00     0.089 A 
ATOM     11  H2  UNL     1      -3.647   1.208  -1.361  1.00  0.00     0.167 HD
HETATM   12  N1  UNL     1      -5.515  -0.320   0.630  1.00  0.00    -0.324 N 
HETATM   13 BR1  UNL     1      -4.661   0.170   3.405  1.00  0.00    -0.029 Br
HETATM   14  C11 UNL     1      -1.912   3.595   2.695  1.00  0.00     0.001 A 
HETATM   15  C12 UNL     1      -0.623   3.305   2.309  1.00  0.00     0.002 A 
HETATM   16  C13 UNL     1      -0.342   2.302   1.425  1.00  0.00     0.026 A 
BRANCH  10  17
HETATM   17  C5  UNL     1      -5.822  -0.425  -1.902  1.00  0.00     0.054 A 
HETATM   18  C6  UNL     1      -4.937  -0.353  -3.141  1.00  0.00     0.013 A 
HETATM   19  C7  UNL     1      -6.071   0.589  -2.975  1.00  0.00     0.013 A 
ENDBRANCH  10  17
BRANCH  12  20
HETATM   20  C2  UNL     1      -6.608  -1.172   1.055  1.00  0.00     0.084 C 
HETATM   21  C1  UNL     1      -6.222  -2.639   0.982  1.00  0.00     0.032 C 
HETATM   22  C3  UNL     1      -7.906  -0.890   0.342  1.00  0.00     0.032 C 
ENDBRANCH  12  20
ENDBRANCH   1   4
BRANCH   1  23
HETATM   23  N3  UNL     1       0.774   0.174  -0.347  1.00  0.00    -0.315 N 
ATOM     24  H3  UNL     1       1.379   0.883  -0.761  1.00  0.00     0.172 HD
BRANCH  23  25
HETATM   25  C15 UNL     1       1.238  -1.049   0.229  1.00  0.00     0.137 C 
BRANCH  25  26
HETATM   26  C16 UNL     1       2.727  -1.191   0.167  1.00  0.00     0.006 C 
HETATM   27  C17 UNL     1       3.196  -1.177  -1.249  1.00  0.00     0.008 C 
HETATM   28  C18 UNL     1       4.722  -1.206  -1.335  1.00  0.00     0.025 C 
HETATM   29  C19 UNL     1       5.173   0.064  -0.630  1.00  0.00     0.114 C 
HETATM   30  C22 UNL     1       4.883  -0.100   0.836  1.00  0.00     0.138 C 
HETATM   31  C23 UNL     1       3.370  -0.108   1.007  1.00  0.00     0.039 C 
BRANCH  29  32
HETATM   32  N4  UNL     1       6.516   0.440  -0.934  1.00  0.00    -0.191 NA
BRANCH  32  33
HETATM   33  O3  UNL     1       6.681   0.808  -2.215  1.00  0.00    -0.313 OA
ATOM     34  H3  UNL     1       7.575   1.058  -2.417  1.00  0.00     0.237 HD
ENDBRANCH  32  33
BRANCH  32  35
HETATM   35  C20 UNL     1       7.529  -0.488  -0.546  1.00  0.00     0.147 C 
BRANCH  35  36
HETATM   36  C21 UNL     1       8.869   0.122  -0.981  1.00  0.00     0.181 C 
BRANCH  36  37
HETATM   37  O4  UNL     1       9.895  -0.729  -0.633  1.00  0.00    -0.400 OA
ATOM     38  H4  UNL     1      10.724  -0.352  -0.902  1.00  0.00     0.209 HD
ENDBRANCH  36  37
ENDBRANCH  35  36
ENDBRANCH  32  35
ENDBRANCH  29  32
BRANCH  30  39
HETATM   39  O5  UNL     1       5.329   1.042   1.521  1.00  0.00    -0.394 OA
ATOM     40  H5  UNL     1       5.146   0.938   2.447  1.00  0.00     0.210 HD
ENDBRANCH  30  39
ENDBRANCH  25  26
ENDBRANCH  23  25
ENDBRANCH   1  23
TORSDOF 12
