REMARK  12 active torsions:
REMARK  status: ('A' for Active; 'I' for Inactive)
REMARK    1  A    between atoms: C2_2  and  N1_4 
REMARK    2  A    between atoms: C5_6  and  C6_7 
REMARK    3  A    between atoms: C6_7  and  S1_8 
REMARK    4  A    between atoms: C6_7  and  C13_18 
REMARK    5  A    between atoms: S1_8  and  C7_9 
REMARK    6  A    between atoms: C7_9  and  C8_10 
REMARK       I    between atoms: C13_18  and  N3_20 
REMARK    7  A    between atoms: N3_20  and  C14_22 
REMARK    8  A    between atoms: C14_22  and  C15_23 
REMARK    9  A    between atoms: C14_22  and  C19_31 
REMARK   10  A    between atoms: C15_23  and  C16_24 
REMARK       I    between atoms: C19_31  and  N6_33 
REMARK   11  A    between atoms: N6_33  and  C20_35 
REMARK   12  A    between atoms: C24_41  and  C25_42 
ROOT
HETATM    1  C6  UNL     1      -0.682   0.413  -1.697  1.00  0.00     0.190 C 
ENDROOT
BRANCH   1   2
HETATM    2  C5  UNL     1      -1.247  -0.833  -1.101  1.00  0.00     0.049 A 
HETATM    3  C4  UNL     1      -1.622  -1.038   0.203  1.00  0.00     0.119 A 
HETATM    4  N1  UNL     1      -2.072  -2.321   0.266  1.00  0.00    -0.340 N 
HETATM    5  C24 UNL     1      -1.991  -2.912  -0.931  1.00  0.00     0.091 A 
HETATM    6  N7  UNL     1      -1.483  -1.980  -1.756  1.00  0.00    -0.346 N 
ATOM      7  H7  UNL     1      -1.301  -2.126  -2.749  1.00  0.00     0.167 HD
BRANCH   4   8
HETATM    8  C2  UNL     1      -2.560  -2.891   1.472  1.00  0.00     0.082 C 
HETATM    9  C1  UNL     1      -1.477  -2.706   2.527  1.00  0.00     0.032 C 
HETATM   10  C3  UNL     1      -3.704  -1.967   1.940  1.00  0.00     0.032 C 
ENDBRANCH   4   8
BRANCH   5  11
HETATM   11  C25 UNL     1      -2.359  -4.274  -1.296  1.00  0.00     0.008 C 
HETATM   12  C26 UNL     1      -3.765  -4.674  -1.151  1.00  0.00     0.022 C 
HETATM   13  C27 UNL     1      -1.983  -4.488  -2.753  1.00  0.00     0.022 C 
HETATM   14  C28 UNL     1      -1.524  -5.320  -0.538  1.00  0.00     0.022 C 
ENDBRANCH   5  11
ENDBRANCH   1   2
BRANCH   1  15
HETATM   15  S1  UNL     1      -1.143   1.859  -0.711  1.00  0.00    -0.148 SA
BRANCH  15  16
HETATM   16  C7  UNL     1      -2.921   2.155  -0.689  1.00  0.00     0.079 C 
BRANCH  16  17
HETATM   17  C8  UNL     1      -3.266   3.329   0.193  1.00  0.00    -0.002 C 
HETATM   18  C9  UNL     1      -2.590   4.577  -0.335  1.00  0.00     0.032 C 
HETATM   19  C10 UNL     1      -3.087   5.796   0.438  1.00  0.00     0.232 C 
HETATM   20  N2  UNL     1      -3.825   5.380   1.599  1.00  0.00    -0.075 N 
HETATM   21  C11 UNL     1      -5.028   4.655   1.292  1.00  0.00     0.232 C 
ATOM     22  H22 UNL     1      -3.231   4.840   2.228  1.00  0.00     0.277 HD
ATOM     23  H21 UNL     1      -4.030   6.178   2.200  1.00  0.00     0.277 HD
HETATM   24  C12 UNL     1      -4.747   3.568   0.247  1.00  0.00     0.032 C 
ENDBRANCH  16  17
ENDBRANCH  15  16
ENDBRANCH   1  15
BRANCH   1  25
HETATM   25  C13 UNL     1       0.804   0.322  -1.801  1.00  0.00     0.238 C 
HETATM   26  O1  UNL     1       1.315   0.121  -2.915  1.00  0.00    -0.272 OA
HETATM   27  N3  UNL     1       1.649   0.465  -0.675  1.00  0.00    -0.346 N 
ATOM     28  H3  UNL     1       1.203   0.634   0.227  1.00  0.00     0.163 HD
BRANCH  27  29
HETATM   29  C14 UNL     1       3.088   0.391  -0.698  1.00  0.00     0.182 C 
BRANCH  29  30
HETATM   30  C15 UNL     1       3.696   1.796  -0.609  1.00  0.00     0.093 C 
BRANCH  30  31
HETATM   31  C16 UNL     1       3.281   2.639  -1.750  1.00  0.00     0.028 A 
HETATM   32  C17 UNL     1       3.947   2.773  -2.956  1.00  0.00     0.114 A 
HETATM   33  N4  UNL     1       3.204   3.638  -3.708  1.00  0.00    -0.360 N 
HETATM   34  C18 UNL     1       2.138   4.014  -2.995  1.00  0.00     0.180 A 
ATOM     35  H4  UNL     1       3.426   3.945  -4.655  1.00  0.00     0.166 HD
HETATM   36  N5  UNL     1       2.189   3.406  -1.807  1.00  0.00    -0.354 N 
ATOM     37  H5  UNL     1       1.502   3.511  -1.060  1.00  0.00     0.166 HD
ENDBRANCH  30  31
ENDBRANCH  29  30
BRANCH  29  38
HETATM   38  C19 UNL     1       3.581  -0.328   0.500  1.00  0.00     0.241 C 
HETATM   39  O2  UNL     1       2.774  -0.792   1.366  1.00  0.00    -0.271 OA
HETATM   40  N6  UNL     1       4.981  -0.488   0.667  1.00  0.00    -0.351 N 
ATOM     41  H6  UNL     1       5.585  -0.104  -0.060  1.00  0.00     0.163 HD
BRANCH  40  42
HETATM   42  C20 UNL     1       5.620  -1.147   1.777  1.00  0.00     0.022 C 
HETATM   43  C21 UNL     1       5.199  -2.561   1.987  1.00  0.00     0.037 C 
HETATM   44  C22 UNL     1       5.318  -0.385   3.070  1.00  0.00     0.037 C 
HETATM   45  C23 UNL     1       7.131  -1.133   1.617  1.00  0.00     0.037 C 
ENDBRANCH  40  42
ENDBRANCH  29  38
ENDBRANCH  27  29
ENDBRANCH   1  25
TORSDOF 12
