REMARK  13 active torsions:
REMARK  status: ('A' for Active; 'I' for Inactive)
REMARK    1  A    between atoms: C2_2  and  C3_3 
REMARK    2  A    between atoms: C2_2  and  C24_39 
REMARK    3  A    between atoms: C3_3  and  C4_4 
REMARK    4  A    between atoms: C4_4  and  O1_5 
REMARK    5  A    between atoms: C4_4  and  C5_7 
REMARK    6  A    between atoms: C5_7  and  N1_8 
REMARK    7  A    between atoms: N1_8  and  C6_9 
REMARK    8  A    between atoms: N1_8  and  S1_17 
REMARK    9  A    between atoms: C6_9  and  C7_10 
REMARK   10  A    between atoms: C7_10  and  O2_11 
REMARK   11  A    between atoms: N2_13  and  O3_15 
REMARK   12  A    between atoms: S1_17  and  C8_20 
REMARK   13  A    between atoms: C12_24  and  C13_25 
REMARK       I    between atoms: C13_25  and  N3_27 
ROOT
HETATM    1  S1  UNL     1      -1.395  -0.124  -1.320  1.00  0.00     0.270 S 
HETATM    2  O4  UNL     1      -1.909   1.263  -1.256  1.00  0.00    -0.200 OA
HETATM    3  O5  UNL     1      -0.932  -0.327  -2.765  1.00  0.00    -0.200 OA
ENDROOT
BRANCH   1   4
HETATM    4  N1  UNL     1      -2.481  -1.350  -0.973  1.00  0.00    -0.255 N 
BRANCH   4   5
HETATM    5  C5  UNL     1      -3.041  -1.465   0.298  1.00  0.00     0.113 C 
BRANCH   5   6
HETATM    6  C4  UNL     1      -4.447  -0.992   0.498  1.00  0.00     0.158 C 
BRANCH   6   7
HETATM    7  C3  UNL     1      -4.674   0.473   0.388  1.00  0.00     0.052 C 
BRANCH   7   8
HETATM    8  C2  UNL     1      -6.060   0.878   0.864  1.00  0.00     0.085 C 
HETATM    9  C1  UNL     1      -6.241   2.375   0.733  1.00  0.00     0.021 C 
BRANCH   8  10
HETATM   10  C24 UNL     1      -6.268   0.543   2.298  1.00  0.00     0.176 C 
HETATM   11  O7  UNL     1      -7.171  -0.246   2.687  1.00  0.00    -0.648 OA
HETATM   12  O8  UNL     1      -5.462   1.091   3.310  1.00  0.00    -0.648 OA
ENDBRANCH   8  10
ENDBRANCH   7   8
ENDBRANCH   6   7
BRANCH   6  13
HETATM   13  O1  UNL     1      -5.384  -1.668  -0.298  1.00  0.00    -0.390 OA
ATOM     14  H1  UNL     1      -5.239  -2.604  -0.228  1.00  0.00     0.210 HD
ENDBRANCH   6  13
ENDBRANCH   5   6
ENDBRANCH   4   5
BRANCH   4  15
HETATM   15  C6  UNL     1      -2.422  -2.456  -1.837  1.00  0.00     0.166 C 
BRANCH  15  16
HETATM   16  C7  UNL     1      -3.308  -2.468  -2.995  1.00  0.00     0.176 C 
HETATM   17  N2  UNL     1      -4.166  -3.420  -3.133  1.00  0.00    -0.246 N 
ATOM     18  H2  UNL     1      -4.770  -3.395  -3.955  1.00  0.00     0.196 HD
BRANCH  16  19
HETATM   19  O2  UNL     1      -3.268  -1.486  -3.966  1.00  0.00    -0.344 OA
ATOM     20  H2  UNL     1      -3.845  -1.494  -4.720  1.00  0.00     0.219 HD
ENDBRANCH  16  19
BRANCH  17  21
HETATM   21  O3  UNL     1      -4.326  -4.453  -2.267  1.00  0.00    -0.288 OA
ATOM     22  H3  UNL     1      -4.958  -5.155  -2.369  1.00  0.00     0.244 HD
ENDBRANCH  17  21
ENDBRANCH  15  16
ENDBRANCH   4  15
ENDBRANCH   1   4
BRANCH   1  23
HETATM   23  C8  UNL     1       0.083  -0.160  -0.376  1.00  0.00     0.103 A 
HETATM   24  C9  UNL     1       0.403  -1.110   0.542  1.00  0.00     0.034 A 
HETATM   25  C10 UNL     1       1.594  -1.031   1.209  1.00  0.00    -0.049 A 
HETATM   26  C11 UNL     1       2.456   0.003   0.950  1.00  0.00    -0.034 A 
HETATM   27  C23 UNL     1       1.985  -2.042   2.219  1.00  0.00     0.039 C 
HETATM   28  C12 UNL     1       2.174   0.987   0.029  1.00  0.00     0.062 A 
HETATM   29  C20 UNL     1       3.756   0.106   1.665  1.00  0.00     0.040 C 
HETATM   30  C19 UNL     1       0.973   0.889  -0.631  1.00  0.00     0.073 A 
HETATM   31 CL1  UNL     1       0.599   2.131  -1.805  1.00  0.00    -0.082 Cl
HETATM   32  C21 UNL     1       3.815  -0.630   2.956  1.00  0.00     0.005 C 
HETATM   33  C22 UNL     1       2.530  -1.241   3.408  1.00  0.00     0.005 C 
BRANCH  28  34
HETATM   34  C13 UNL     1       3.096   2.078  -0.238  1.00  0.00     0.256 C 
HETATM   35  O6  UNL     1       2.939   3.116   0.485  1.00  0.00    -0.267 OA
HETATM   36  N3  UNL     1       4.108   2.014  -1.231  1.00  0.00    -0.348 N 
HETATM   37  C14 UNL     1       4.280   0.832  -2.048  1.00  0.00     0.126 C 
HETATM   38  C18 UNL     1       5.004   3.126  -1.462  1.00  0.00     0.126 C 
HETATM   39  C15 UNL     1       5.668   0.261  -1.922  1.00  0.00     0.020 C 
HETATM   40  C16 UNL     1       6.629   1.234  -1.275  1.00  0.00     0.003 C 
HETATM   41  C17 UNL     1       6.384   2.620  -1.829  1.00  0.00     0.020 C 
ENDBRANCH  28  34
ENDBRANCH   1  23
TORSDOF 13
