REMARK  5 active torsions:
REMARK  status: ('A' for Active; 'I' for Inactive)
REMARK    1  A    between atoms: C2_2  and  C3_4 
REMARK    2  A    between atoms: C3_4  and  N1_5 
REMARK    3  A    between atoms: N1_5  and  N2_7 
REMARK    4  A    between atoms: N2_7  and  C4_9 
REMARK    5  A    between atoms: C5_12  and  C7_14 
ROOT
HETATM    1  C4  UNL     1       0.493  -0.745  -0.592  1.00  0.00     0.191 C 
HETATM    2  N3  UNL     1      -0.669  -1.253  -0.963  1.00  0.00    -0.350 N 
ATOM      3  H3  UNL     1      -0.784  -2.159  -1.418  1.00  0.00     0.163 HD
HETATM    4  C5  UNL     1      -1.753  -0.358  -0.640  1.00  0.00     0.053 C 
HETATM    5  C6  UNL     1      -2.257   0.287  -1.886  1.00  0.00     0.041 C 
HETATM    6  C9  UNL     1      -1.162   0.576   0.381  1.00  0.00     0.050 C 
HETATM    7  C10 UNL     1      -1.620   1.994   0.291  1.00  0.00     0.041 C 
HETATM    8  C11 UNL     1      -1.201   0.080   1.785  1.00  0.00     0.041 C 
HETATM    9  N4  UNL     1       0.261   0.523  -0.016  1.00  0.00    -0.350 N 
ATOM     10  H4  UNL     1       0.949   1.266   0.104  1.00  0.00     0.163 HD
ENDROOT
BRANCH   1  11
HETATM   11  N2  UNL     1       1.743  -1.350  -0.742  1.00  0.00    -0.276 N 
ATOM     12  H2  UNL     1       1.687  -2.348  -0.541  1.00  0.00     0.189 HD
BRANCH  11  13
HETATM   13  N1  UNL     1       2.965  -1.012  -1.065  1.00  0.00    -0.329 N 
ATOM     14  H1  UNL     1       3.519  -1.685  -1.595  1.00  0.00     0.180 HD
BRANCH  13  15
HETATM   15  C3  UNL     1       3.570   0.218  -0.731  1.00  0.00     0.184 C 
BRANCH  15  16
HETATM   16  C2  UNL     1       4.704   0.037   0.185  1.00  0.00    -0.002 C 
HETATM   17  C1  UNL     1       5.922   0.412  -0.059  1.00  0.00     0.029 C 
HETATM   18 BR1  UNL     1       4.415  -0.844   1.900  1.00  0.00    -0.055 Br
ENDBRANCH  15  16
ENDBRANCH  13  15
ENDBRANCH  11  13
ENDBRANCH   1  11
BRANCH   4  19
HETATM   19  C7  UNL     1      -2.836  -1.274  -0.085  1.00  0.00     0.029 C 
HETATM   20  C8  UNL     1      -4.081  -0.576   0.317  1.00  0.00     0.007 C 
ENDBRANCH   4  19
TORSDOF 5
