REMARK  3 active torsions:
REMARK  status: ('A' for Active; 'I' for Inactive)
REMARK    1  A    between atoms: C7_7  and  N1_8 
REMARK    2  A    between atoms: C9_13  and  N3_14 
REMARK    3  A    between atoms: C11_21  and  N5_22 
ROOT
HETATM    1  N1  UNL     1       0.439   0.130  -0.324  1.00  0.00    -0.369 N 
ATOM      2  H1  UNL     1       0.372   0.151  -1.342  1.00  0.00     0.161 HD
HETATM    3  C8  UNL     1       1.629   0.073  -0.031  1.00  0.00     0.153 A 
HETATM    4  N2  UNL     1       2.501   0.053  -1.094  1.00  0.00    -0.175 N 
ATOM      5  H2  UNL     1       2.109   0.098  -2.035  1.00  0.00     0.186 HD
HETATM    6  C9  UNL     1       3.822  -0.021  -0.973  1.00  0.00     0.678 A 
HETATM    7  N4  UNL     1       4.325  -0.078   0.269  1.00  0.00    -0.179 N 
ATOM      8  H4  UNL     1       5.337  -0.135   0.386  1.00  0.00     0.185 HD
HETATM    9  C10 UNL     1       3.555  -0.063   1.355  1.00  0.00     0.156 A 
HETATM   10 CL1  UNL     1       4.227  -0.139   2.980  1.00  0.00    -0.061 Cl
HETATM   11  C11 UNL     1       2.162   0.014   1.232  1.00  0.00     0.185 A 
ENDROOT
BRANCH   1  12
HETATM   12  C7  UNL     1      -0.842   0.177   0.180  1.00  0.00     0.086 C 
HETATM   13  C2  UNL     1      -1.701  -0.787  -0.661  1.00  0.00     0.004 C 
HETATM   14  C1  UNL     1      -1.206  -2.199  -0.479  1.00  0.00     0.012 C 
HETATM   15  C3  UNL     1      -3.100  -0.641  -0.101  1.00  0.00     0.006 C 
HETATM   16  C4  UNL     1      -3.640   0.644  -0.698  1.00  0.00     0.001 C 
HETATM   17  C5  UNL     1      -2.656   1.775  -0.598  1.00  0.00     0.002 C 
HETATM   18  C6  UNL     1      -1.489   1.529   0.262  1.00  0.00     0.025 C 
ENDBRANCH   1  12
BRANCH  11  19
HETATM   19  N5  UNL     1       1.383   0.023   2.420  1.00  0.00    -0.108 N 
HETATM   20  O1  UNL     1       0.941   1.085   2.883  1.00  0.00    -0.532 OA
HETATM   21  O2  UNL     1       1.125  -1.134   3.102  1.00  0.00    -0.532 OA
ENDBRANCH  11  19
BRANCH   6  22
HETATM   22  N3  UNL     1       4.598  -0.037  -2.026  1.00  0.00    -0.234 N 
ATOM     23  H32 UNL     1       4.215   0.006  -2.971  1.00  0.00     0.174 HD
ATOM     24  H31 UNL     1       5.612  -0.094  -1.933  1.00  0.00     0.174 HD
ENDBRANCH   6  22
TORSDOF 3
