REMARK  5 active torsions:
REMARK  status: ('A' for Active; 'I' for Inactive)
REMARK    1  A    between atoms: C2_2  and  O2_4 
REMARK    2  A    between atoms: O2_4  and  C3_5 
REMARK    3  A    between atoms: C10_12  and  O3_13 
REMARK    4  A    between atoms: C17_23  and  C18_24 
REMARK    5  A    between atoms: C18_24  and  C19_25 
ROOT
HETATM    1  C3  UNL     1      -2.795  -0.519   0.558  1.00  0.00     0.144 C 
HETATM    2  C4  UNL     1      -4.146  -0.471   1.316  1.00  0.00     0.061 C 
HETATM    3  C5  UNL     1      -5.247  -0.107   0.387  1.00  0.00    -0.018 C 
HETATM    4  C6  UNL     1      -5.109   0.391  -0.834  1.00  0.00    -0.069 C 
HETATM    5  C7  UNL     1      -6.450   0.648  -1.507  1.00  0.00     0.047 C 
HETATM    6  C8  UNL     1      -3.908   0.696  -1.577  1.00  0.00    -0.012 C 
HETATM    7  C9  UNL     1      -2.731   1.296  -0.983  1.00  0.00     0.048 C 
HETATM    8  C10 UNL     1      -1.598   0.875  -1.954  1.00  0.00     0.129 C 
HETATM    9  C11 UNL     1      -0.631   1.990  -1.840  1.00  0.00     0.073 C 
HETATM   10  C12 UNL     1      -0.112   2.015  -0.439  1.00  0.00     0.099 C 
HETATM   11  C13 UNL     1      -0.187   3.491   0.005  1.00  0.00     0.050 C 
HETATM   12  O4  UNL     1       1.263   1.827  -0.571  1.00  0.00    -0.229 OA
HETATM   13  O5  UNL     1       1.606   0.654  -1.056  1.00  0.00    -0.229 OA
HETATM   14  C14 UNL     1       2.433   0.144  -0.016  1.00  0.00     0.096 C 
HETATM   15  C15 UNL     1       2.756  -1.282  -0.183  1.00  0.00     0.042 C 
HETATM   16  C16 UNL     1       4.131  -1.600  -0.644  1.00  0.00     0.007 C 
HETATM   17  C17 UNL     1       5.206  -0.737  -0.083  1.00  0.00    -0.013 C 
HETATM   18  C20 UNL     1       4.704   0.338   0.853  1.00  0.00     0.007 C 
HETATM   19  C21 UNL     1       3.598   1.071   0.090  1.00  0.00     0.042 C 
HETATM   20  C22 UNL     1       1.550   0.408   1.222  1.00  0.00     0.042 C 
HETATM   21  C23 UNL     1       0.131  -0.102   0.905  1.00  0.00     0.011 C 
HETATM   22  C24 UNL     1      -0.766   1.088   0.545  1.00  0.00     0.034 C 
HETATM   23  C25 UNL     1      -2.206   0.798   0.370  1.00  0.00    -0.001 C 
HETATM   24  C26 UNL     1      -2.906   1.742   1.381  1.00  0.00     0.019 C 
ENDROOT
BRANCH  17  25
HETATM   25  C18 UNL     1       6.351  -1.519   0.535  1.00  0.00     0.019 C 
BRANCH  25  26
HETATM   26  C19 UNL     1       7.004  -2.419  -0.517  1.00  0.00     0.115 C 
HETATM   27 CL1  UNL     1       8.341  -3.331   0.206  1.00  0.00    -0.130 Cl
ENDBRANCH  25  26
ENDBRANCH  17  25
BRANCH   8  28
HETATM   28  O3  UNL     1      -2.100   0.874  -3.263  1.00  0.00    -0.395 OA
ATOM     29  H3  UNL     1      -1.406   0.616  -3.858  1.00  0.00     0.210 HD
ENDBRANCH   8  28
BRANCH   1  30
HETATM   30  O2  UNL     1      -2.144  -1.560   1.178  1.00  0.00    -0.315 OA
BRANCH  30  31
HETATM   31  C2  UNL     1      -2.014  -2.836   0.698  1.00  0.00     0.255 C 
HETATM   32  C1  UNL     1      -1.313  -3.919   1.389  1.00  0.00     0.126 C 
HETATM   33  O1  UNL     1      -2.543  -3.092  -0.428  1.00  0.00    -0.266 OA
ENDBRANCH  30  31
ENDBRANCH   1  30
TORSDOF 5
