REMARK  5 active torsions:
REMARK  status: ('A' for Active; 'I' for Inactive)
REMARK    1  A    between atoms: O1_2  and  C2_3 
REMARK    2  A    between atoms: C16_17  and  O2_18 
REMARK    3  A    between atoms: O2_18  and  C17_19 
REMARK    4  A    between atoms: C17_19  and  C18_21 
REMARK    5  A    between atoms: C24_28  and  O4_29 
ROOT
HETATM    1  C2  UNL     1      -5.282  -1.196  -0.145  1.00  0.00     0.265 C 
HETATM    2  C3  UNL     1      -4.144  -2.069   0.202  1.00  0.00     0.062 C 
HETATM    3  C4  UNL     1      -2.826  -1.513   0.620  1.00  0.00     0.021 C 
HETATM    4  C5  UNL     1      -2.756   0.001   0.470  1.00  0.00     0.013 C 
HETATM    5  C6  UNL     1      -3.701   0.484   1.582  1.00  0.00     0.023 C 
HETATM    6  C7  UNL     1      -3.395   0.159  -0.881  1.00  0.00     0.055 C 
HETATM    7  C8  UNL     1      -2.684   0.380  -1.939  1.00  0.00     0.007 C 
HETATM    8  C9  UNL     1      -1.240   0.493  -1.964  1.00  0.00     0.035 C 
HETATM    9  C10 UNL     1      -0.763   1.104  -0.659  1.00  0.00     0.004 C 
HETATM   10  C11 UNL     1       0.651   1.352  -0.792  1.00  0.00     0.007 C 
HETATM   11  C12 UNL     1       1.113   2.798  -0.836  1.00  0.00     0.033 C 
HETATM   12  C13 UNL     1       2.578   2.587  -1.025  1.00  0.00    -0.023 C 
HETATM   13  C14 UNL     1       2.912   1.417  -0.509  1.00  0.00    -0.072 C 
HETATM   14  C15 UNL     1       4.257   0.798  -0.472  1.00  0.00     0.067 C 
HETATM   15  C16 UNL     1       4.237  -0.384  -1.421  1.00  0.00     0.136 C 
HETATM   16  C19 UNL     1       2.837  -0.863  -1.549  1.00  0.00     0.034 C 
HETATM   17  C20 UNL     1       1.999  -0.724  -0.282  1.00  0.00     0.017 C 
HETATM   18  C21 UNL     1       1.708   0.723   0.047  1.00  0.00    -0.007 C 
HETATM   19  C22 UNL     1       1.568   1.024   1.473  1.00  0.00     0.023 C 
HETATM   20  C23 UNL     1       2.821   0.934   2.319  1.00  0.00     0.014 C 
HETATM   21  C24 UNL     1       0.547   0.220   2.210  1.00  0.00     0.123 C 
HETATM   22  C25 UNL     1      -0.636  -0.270   1.507  1.00  0.00     0.042 C 
HETATM   23  C26 UNL     1      -1.394   0.620   0.580  1.00  0.00    -0.024 C 
HETATM   24  C27 UNL     1      -1.626   1.913   1.425  1.00  0.00     0.017 C 
HETATM   25  O5  UNL     1      -4.775   0.023  -0.805  1.00  0.00    -0.324 OA
ENDROOT
BRANCH  15  26
HETATM   26  O2  UNL     1       5.130  -1.360  -0.959  1.00  0.00    -0.315 OA
BRANCH  26  27
HETATM   27  C17 UNL     1       6.236  -1.763  -1.665  1.00  0.00     0.273 C 
HETATM   28  O3  UNL     1       6.462  -1.232  -2.781  1.00  0.00    -0.264 OA
BRANCH  27  29
HETATM   29  C18 UNL     1       7.159  -2.806  -1.134  1.00  0.00     0.225 C 
HETATM   30 CL1  UNL     1       6.617  -3.391   0.455  1.00  0.00    -0.120 Cl
ENDBRANCH  27  29
ENDBRANCH  26  27
ENDBRANCH  15  26
BRANCH  21  31
HETATM   31  O4  UNL     1       1.230  -0.926   2.701  1.00  0.00    -0.395 OA
ATOM     32  H4  UNL     1       0.581  -1.437   3.170  1.00  0.00     0.210 HD
ENDBRANCH  21  31
BRANCH   1  33
HETATM   33  O1  UNL     1      -6.038  -1.777  -1.196  1.00  0.00    -0.366 OA
HETATM   34  C1  UNL     1      -7.373  -1.827  -0.887  1.00  0.00     0.204 C 
ENDBRANCH   1  33
TORSDOF 5
