REMARK  3 active torsions:
REMARK  status: ('A' for Active; 'I' for Inactive)
REMARK    1  A    between atoms: C20_25  and  C21_26 
REMARK    2  A    between atoms: C21_26  and  C22_27 
REMARK    3  A    between atoms: C25_30  and  C26_31 
ROOT
HETATM    1  C1  UNL     1       0.509   2.980   2.033  1.00  0.00     0.019 C 
HETATM    2  C2  UNL     1       0.240   2.344   0.919  1.00  0.00    -0.054 C 
HETATM    3  C3  UNL     1      -0.470   3.106  -0.160  1.00  0.00     0.120 C 
HETATM    4  C4  UNL     1      -0.798   2.050  -1.198  1.00  0.00     0.279 C 
HETATM    5  F1  UNL     1       0.256   1.732  -1.971  1.00  0.00    -0.203 F 
HETATM    6  F2  UNL     1      -1.756   2.627  -2.031  1.00  0.00    -0.203 F 
HETATM    7  C5  UNL     1      -1.499   0.865  -0.538  1.00  0.00     0.148 C 
HETATM    8  C6  UNL     1      -2.298   0.206  -1.574  1.00  0.00     0.046 C 
HETATM    9  C7  UNL     1      -2.736  -1.179  -1.493  1.00  0.00     0.008 C 
HETATM   10  C8  UNL     1      -4.086  -1.468  -0.937  1.00  0.00    -0.012 C 
HETATM   11  C9  UNL     1      -4.207  -2.973  -0.786  1.00  0.00     0.010 C 
HETATM   12  C10 UNL     1      -4.485  -0.793   0.306  1.00  0.00     0.022 C 
HETATM   13  C11 UNL     1      -5.276   0.492   0.016  1.00  0.00     0.011 C 
HETATM   14  C12 UNL     1      -4.463   1.630   0.529  1.00  0.00     0.041 C 
HETATM   15  C13 UNL     1      -3.202   1.044   1.127  1.00  0.00     0.086 C 
HETATM   16  C14 UNL     1      -3.133   1.640   2.555  1.00  0.00     0.049 C 
HETATM   17  O1  UNL     1      -2.131   1.457   0.506  1.00  0.00    -0.359 OA
HETATM   18  C15 UNL     1      -3.440  -0.423   1.281  1.00  0.00     0.170 C 
HETATM   19  O2  UNL     1      -2.262  -1.186   1.279  1.00  0.00    -0.312 OA
HETATM   20  C16 UNL     1      -0.928  -0.850   1.118  1.00  0.00     0.275 C 
HETATM   21  O3  UNL     1      -0.184  -1.339   1.961  1.00  0.00    -0.264 OA
HETATM   22  C17 UNL     1      -0.359   0.010   0.060  1.00  0.00     0.108 C 
HETATM   23  C18 UNL     1       0.342  -0.742  -1.028  1.00  0.00     0.035 C 
HETATM   24  C19 UNL     1       0.619   0.917   0.712  1.00  0.00    -0.035 C 
HETATM   25  C20 UNL     1       1.789   0.588   1.188  1.00  0.00    -0.017 C 
ENDROOT
BRANCH  25  26
HETATM   26  C21 UNL     1       2.588  -0.624   1.233  1.00  0.00     0.036 C 
BRANCH  26  27
HETATM   27  C22 UNL     1       4.070  -0.402   0.851  1.00  0.00     0.017 C 
HETATM   28  C23 UNL     1       4.756  -1.725   0.949  1.00  0.00     0.010 C 
HETATM   29  C24 UNL     1       4.886  -2.495  -0.315  1.00  0.00     0.012 C 
HETATM   30  C25 UNL     1       5.411  -1.666  -1.465  1.00  0.00     0.051 C 
HETATM   31  C27 UNL     1       4.408  -0.561  -1.700  1.00  0.00     0.045 C 
HETATM   32  C28 UNL     1       4.219   0.225  -0.454  1.00  0.00    -0.084 C 
HETATM   33  C29 UNL     1       4.205   1.539  -0.572  1.00  0.00     0.015 C 
BRANCH  30  34
HETATM   34  C26 UNL     1       6.781  -1.161  -1.243  1.00  0.00     0.236 C 
HETATM   35  O4  UNL     1       7.415  -0.763  -2.202  1.00  0.00    -0.306 OA
ENDBRANCH  30  34
ENDBRANCH  26  27
ENDBRANCH  25  26
TORSDOF 3
