REMARK  4 active torsions:
REMARK  status: ('A' for Active; 'I' for Inactive)
REMARK    1  A    between atoms: C15_15  and  C16_16 
REMARK    2  A    between atoms: C16_16  and  O1_17 
REMARK    3  A    between atoms: O1_17  and  C17_18 
REMARK    4  A    between atoms: C20_22  and  O3_23 
ROOT
HETATM    1  C1  UNL     1      -5.526  -1.113   2.910  1.00  0.00     0.043 C 
HETATM    2  C2  UNL     1      -5.027  -0.917   1.494  1.00  0.00    -0.080 C 
HETATM    3  C3  UNL     1      -4.545  -1.929   0.801  1.00  0.00     0.017 C 
HETATM    4  C4  UNL     1      -4.065  -1.714  -0.575  1.00  0.00     0.096 C 
HETATM    5  C5  UNL     1      -5.269  -1.987  -1.490  1.00  0.00     0.055 C 
HETATM    6  C6  UNL     1      -2.978  -2.640  -0.923  1.00  0.00     0.015 C 
HETATM    7  C7  UNL     1      -2.075  -3.193  -0.184  1.00  0.00    -0.001 C 
HETATM    8  C8  UNL     1      -1.779  -3.125   1.232  1.00  0.00    -0.000 C 
HETATM    9  C9  UNL     1      -1.371  -2.142   1.974  1.00  0.00    -0.000 C 
HETATM   10  C10 UNL     1      -1.047  -0.759   1.739  1.00  0.00    -0.004 C 
HETATM   11  C11 UNL     1      -0.155  -0.189   0.994  1.00  0.00    -0.026 C 
HETATM   12  C12 UNL     1       0.868  -0.769   0.101  1.00  0.00     0.036 C 
HETATM   13  C13 UNL     1       1.009   0.013  -1.189  1.00  0.00     0.016 C 
HETATM   14  C14 UNL     1       1.764  -0.879  -2.147  1.00  0.00     0.015 C 
HETATM   15  C15 UNL     1       1.687   1.326  -1.017  1.00  0.00    -0.052 C 
HETATM   16  C22 UNL     1       1.406   2.428  -1.680  1.00  0.00     0.005 C 
HETATM   17  C23 UNL     1       0.428   2.684  -2.698  1.00  0.00    -0.004 C 
HETATM   18  C24 UNL     1      -0.874   2.845  -2.587  1.00  0.00    -0.025 C 
HETATM   19  C25 UNL     1      -1.668   2.802  -1.329  1.00  0.00     0.053 C 
HETATM   20  C26 UNL     1      -2.740   1.767  -1.467  1.00  0.00     0.174 C 
HETATM   21  O4  UNL     1      -3.603   1.744  -0.376  1.00  0.00    -0.361 OA
HETATM   22  C27 UNL     1      -4.418   0.585  -0.424  1.00  0.00     0.265 C 
HETATM   23  C28 UNL     1      -5.091   0.434   0.892  1.00  0.00     0.094 C 
HETATM   24  O5  UNL     1      -3.588  -0.436  -0.794  1.00  0.00    -0.342 OA
ENDROOT
BRANCH  15  25
HETATM   25  C16 UNL     1       2.790   1.299   0.029  1.00  0.00     0.205 C 
BRANCH  25  26
HETATM   26  O1  UNL     1       3.681   0.361  -0.416  1.00  0.00    -0.354 OA
BRANCH  26  27
HETATM   27  C17 UNL     1       4.790   0.133   0.357  1.00  0.00     0.297 C 
HETATM   28  O2  UNL     1       5.988   0.443  -0.269  1.00  0.00    -0.351 OA
HETATM   29  C18 UNL     1       6.916   0.013   0.707  1.00  0.00     0.152 C 
HETATM   30  C19 UNL     1       6.856   0.835   1.962  1.00  0.00     0.042 C 
HETATM   31  C20 UNL     1       6.426  -1.389   1.090  1.00  0.00     0.185 C 
HETATM   32  C21 UNL     1       4.943  -1.275   0.816  1.00  0.00     0.256 C 
HETATM   33  F1  UNL     1       4.642  -2.201  -0.162  1.00  0.00    -0.241 F 
BRANCH  31  34
HETATM   34  O3  UNL     1       7.035  -2.354   0.307  1.00  0.00    -0.390 OA
ATOM     35  H3  UNL     1       6.731  -3.222   0.544  1.00  0.00     0.210 HD
ENDBRANCH  31  34
ENDBRANCH  26  27
ENDBRANCH  25  26
ENDBRANCH  15  25
TORSDOF 4
