REMARK  9 active torsions:
REMARK  status: ('A' for Active; 'I' for Inactive)
REMARK    1  A    between atoms: C3_3  and  C4_4 
REMARK    2  A    between atoms: C3_3  and  C6_6 
REMARK    3  A    between atoms: C6_6  and  S1_10 
REMARK    4  A    between atoms: S1_10  and  S2_11 
REMARK    5  A    between atoms: S2_11  and  C7_12 
REMARK    6  A    between atoms: C12_19  and  O1_20 
REMARK    7  A    between atoms: C20_31  and  C21_32 
REMARK    8  A    between atoms: C21_32  and  O3_34 
REMARK    9  A    between atoms: O3_34  and  C22_35 
ROOT
HETATM    1  C1  UNL     1      -7.425  -0.443   2.047  1.00  0.00     0.013 C 
HETATM    2  C2  UNL     1      -6.660  -0.641   1.124  1.00  0.00    -0.106 C 
HETATM    3  C3  UNL     1      -5.740  -0.867   0.005  1.00  0.00     0.121 C 
ENDROOT
BRANCH   3   4
HETATM    4  C4  UNL     1      -6.373  -0.403  -1.273  1.00  0.00     0.019 C 
HETATM    5  C5  UNL     1      -6.685   1.056  -1.171  1.00  0.00     0.007 C 
ENDBRANCH   3   4
BRANCH   3   6
HETATM    6  C6  UNL     1      -4.477  -0.123   0.258  1.00  0.00     0.067 C 
HETATM    7  N1  UNL     1      -4.028   0.774  -0.525  1.00  0.00    -0.395 N 
ATOM      8  H12 UNL     1      -4.532   1.023  -1.376  1.00  0.00     0.156 HD
ATOM      9  H11 UNL     1      -3.162   1.284  -0.352  1.00  0.00     0.156 HD
BRANCH   6  10
HETATM   10  S1  UNL     1      -3.591  -0.561   1.753  1.00  0.00    -0.037 SA
BRANCH  10  11
HETATM   11  S2  UNL     1      -1.855   0.614   1.886  1.00  0.00    -0.037 SA
BRANCH  11  12
HETATM   12  C7  UNL     1      -0.449  -0.207   1.066  1.00  0.00     0.068 C 
HETATM   13  N2  UNL     1      -0.707  -1.350   0.547  1.00  0.00    -0.351 N 
HETATM   14  C8  UNL     1       0.152  -2.261  -0.167  1.00  0.00     0.062 A 
ATOM     15  H2  UNL     1      -1.671  -1.664   0.656  1.00  0.00     0.166 HD
HETATM   16  C9  UNL     1      -0.349  -3.545  -0.184  1.00  0.00     0.032 A 
HETATM   17  C13 UNL     1       1.346  -1.971  -0.796  1.00  0.00     0.092 A 
HETATM   18  C10 UNL     1       0.359  -4.531  -0.837  1.00  0.00     0.005 A 
HETATM   19  C11 UNL     1       1.564  -4.204  -1.464  1.00  0.00     0.039 A 
HETATM   20  C12 UNL     1       2.077  -2.925  -1.456  1.00  0.00     0.094 A 
HETATM   21  N3  UNL     1       1.928  -0.678  -0.815  1.00  0.00    -0.357 N 
HETATM   22  C14 UNL     1       1.721   0.338  -0.050  1.00  0.00     0.015 C 
ATOM     23  H3  UNL     1       2.619  -0.529  -1.550  1.00  0.00     0.166 HD
HETATM   24  C15 UNL     1       0.829   0.537   1.101  1.00  0.00     0.090 C 
HETATM   25  C20 UNL     1       2.651   1.417  -0.557  1.00  0.00     0.160 C 
HETATM   26  C16 UNL     1       0.439   1.996   1.263  1.00  0.00     0.021 C 
HETATM   27  C17 UNL     1       1.609   2.934   1.184  1.00  0.00     0.036 C 
HETATM   28  C18 UNL     1       2.181   2.761  -0.183  1.00  0.00    -0.070 C 
HETATM   29  C19 UNL     1       2.271   3.763  -1.040  1.00  0.00     0.015 C 
BRANCH  20  30
HETATM   30  O1  UNL     1       3.286  -2.623  -2.092  1.00  0.00    -0.358 OA
ATOM     31  H1  UNL     1       3.640  -1.741  -2.086  1.00  0.00     0.217 HD
ENDBRANCH  20  30
BRANCH  25  32
HETATM   32  C21 UNL     1       3.968   1.207   0.131  1.00  0.00     0.272 C 
HETATM   33  O2  UNL     1       4.489   2.090   0.854  1.00  0.00    -0.264 OA
BRANCH  32  34
HETATM   34  O3  UNL     1       4.626   0.024  -0.028  1.00  0.00    -0.321 OA
BRANCH  34  35
HETATM   35  C22 UNL     1       5.852  -0.322   0.542  1.00  0.00     0.174 C 
HETATM   36  C23 UNL     1       6.979   0.597   0.137  1.00  0.00     0.034 C 
ENDBRANCH  34  35
ENDBRANCH  32  34
ENDBRANCH  25  32
ENDBRANCH  11  12
ENDBRANCH  10  11
ENDBRANCH   6  10
ENDBRANCH   3   6
TORSDOF 9
