REMARK  4 active torsions:
REMARK  status: ('A' for Active; 'I' for Inactive)
REMARK    1  A    between atoms: C4_7  and  N3_8 
REMARK    2  A    between atoms: C5_11  and  C6_12 
REMARK    3  A    between atoms: N6_14  and  N7_16 
REMARK    4  A    between atoms: C8_23  and  N11_24 
ROOT
HETATM    1  N1  UNL     1       7.005   3.307   1.619  1.00  0.00    -0.190 NA
HETATM    2  C1  UNL     1       5.958   2.885   1.317  1.00  0.00     0.120 C 
HETATM    3  C2  UNL     1       4.652   2.378   0.933  1.00  0.00     0.144 A 
HETATM    4  C3  UNL     1       4.157   2.519  -0.344  1.00  0.00     0.148 A 
HETATM    5  N2  UNL     1       2.934   2.026  -0.666  1.00  0.00    -0.195 N 
ATOM      6  H2  UNL     1       2.584   2.140  -1.617  1.00  0.00     0.183 HD
HETATM    7  C4  UNL     1       2.175   1.391   0.243  1.00  0.00     0.733 A 
HETATM    8  N13 UNL     1       2.673   1.263   1.482  1.00  0.00    -0.129 N 
ATOM      9  H13 UNL     1       2.116   0.784   2.190  1.00  0.00     0.205 HD
HETATM   10  N14 UNL     1       3.869   1.740   1.818  1.00  0.00    -0.275 N 
ATOM     11  H14 UNL     1       4.200   1.618   2.775  1.00  0.00     0.188 HD
ENDROOT
BRANCH   7  12
HETATM   12  N3  UNL     1       0.894   0.829  -0.026  1.00  0.00     0.093 N 
HETATM   13  N4  UNL     1      -0.245   1.532  -0.040  1.00  0.00    -0.246 N 
HETATM   14  C5  UNL     1      -1.238   0.697  -0.327  1.00  0.00     0.179 A 
ATOM     15  H4  UNL     1      -0.335   2.532   0.138  1.00  0.00     0.190 HD
HETATM   16  N10 UNL     1      -0.702  -0.521  -0.490  1.00  0.00    -0.170 N 
HETATM   17  C8  UNL     1       0.633  -0.462  -0.306  1.00  0.00     0.720 A 
ATOM     18  H10 UNL     1      -1.225  -1.366  -0.719  1.00  0.00     0.186 HD
BRANCH  14  19
HETATM   19  C6  UNL     1      -2.676   1.035  -0.451  1.00  0.00     0.177 C 
HETATM   20  N5  UNL     1      -3.128   2.357  -0.275  1.00  0.00    -0.077 NA
HETATM   21  N6  UNL     1      -3.472   0.102  -0.723  1.00  0.00    -0.283 N 
ATOM     22  H6  UNL     1      -3.025  -0.808  -0.832  1.00  0.00     0.188 HD
BRANCH  21  23
HETATM   23  N7  UNL     1      -4.809   0.082  -0.897  1.00  0.00    -0.275 N 
HETATM   24  C7  UNL     1      -5.750   0.086  -0.041  1.00  0.00     0.215 C 
HETATM   25  N8  UNL     1      -7.085   0.057  -0.571  1.00  0.00    -0.065 NA
HETATM   26  N9  UNL     1      -5.618   0.119   1.357  1.00  0.00    -0.065 NA
ATOM     27  H7  UNL     1      -5.114   0.060  -1.870  1.00  0.00     0.189 HD
ENDBRANCH  21  23
ENDBRANCH  14  19
BRANCH  17  28
HETATM   28  N11 UNL     1       1.586  -1.489  -0.361  1.00  0.00    -0.189 N 
HETATM   29  C9  UNL     1       1.750  -2.515   0.651  1.00  0.00     0.170 C 
HETATM   30  C10 UNL     1       2.640  -3.563   0.070  1.00  0.00     0.254 C 
HETATM   31  N12 UNL     1       2.698  -3.247  -1.341  1.00  0.00    -0.057 N 
HETATM   32  C11 UNL     1       2.597  -1.798  -1.352  1.00  0.00     0.374 C 
ATOM     33 2H12 UNL     1       3.512  -3.622  -1.829  1.00  0.00     0.279 HD
ATOM     34 1H12 UNL     1       2.005  -3.727  -1.915  1.00  0.00     0.279 HD
ENDBRANCH  17  28
ENDBRANCH   7  12
TORSDOF 4
