REMARK  5 active torsions:
REMARK  status: ('A' for Active; 'I' for Inactive)
REMARK    1  A    between atoms: C2_3  and  N2_4 
REMARK    2  A    between atoms: C4_8  and  N4_9 
REMARK    3  A    between atoms: N10_30  and  C13_31 
REMARK    4  A    between atoms: C13_31  and  C14_32 
REMARK    5  A    between atoms: C14_32  and  O2_33 
ROOT
HETATM    1  N1  UNL     1      -0.341   0.185  -5.144  1.00  0.00    -0.196 NA
HETATM    2  C1  UNL     1      -0.485   0.892  -4.232  1.00  0.00     0.080 C 
HETATM    3  C2  UNL     1      -0.682   1.776  -3.083  1.00  0.00     0.273 C 
ENDROOT
BRANCH   3   4
HETATM    4  N2  UNL     1      -1.058   1.035  -1.892  1.00  0.00    -0.150 N 
HETATM    5  C3  UNL     1      -0.223   0.517  -0.971  1.00  0.00     0.173 A 
HETATM    6  N3  UNL     1       1.110   0.520  -0.870  1.00  0.00    -0.173 N 
HETATM    7  C10 UNL     1      -0.960  -0.121   0.022  1.00  0.00     0.164 A 
HETATM    8  C4  UNL     1       1.722  -0.079   0.166  1.00  0.00     0.683 A 
ATOM      9  H3  UNL     1       1.669   0.982  -1.587  1.00  0.00     0.186 HD
HETATM   10  N5  UNL     1       1.014  -0.695   1.124  1.00  0.00    -0.174 N 
HETATM   11  C9  UNL     1      -0.353  -0.739   1.088  1.00  0.00     0.148 A 
ATOM     12  H5  UNL     1       1.506  -1.141   1.898  1.00  0.00     0.186 HD
HETATM   13  N6  UNL     1      -0.936  -1.346   2.045  1.00  0.00    -0.383 N 
ATOM     14  H62 UNL     1      -0.485  -1.805   2.837  1.00  0.00     0.157 HD
ATOM     15  H61 UNL     1      -1.955  -1.379   2.018  1.00  0.00     0.157 HD
HETATM   16  N7  UNL     1      -2.261   0.017  -0.311  1.00  0.00    -0.061 N 
HETATM   17  C11 UNL     1      -2.278   0.715  -1.462  1.00  0.00     0.724 A 
HETATM   18  N10 UNL     1      -3.490  -0.275   0.071  1.00  0.00    -0.100 N 
HETATM   19  N8  UNL     1      -3.545   0.879  -1.835  1.00  0.00    -0.019 N 
HETATM   20  C12 UNL     1      -4.283   0.281  -0.910  1.00  0.00     0.708 A 
ATOM     21  H8  UNL     1      -3.881   1.367  -2.666  1.00  0.00     0.203 HD
HETATM   22  N9  UNL     1      -5.565   0.227  -0.926  1.00  0.00    -0.233 N 
ATOM     23  H92 UNL     1      -6.152   0.638  -1.652  1.00  0.00     0.174 HD
ATOM     24  H91 UNL     1      -6.133  -0.233  -0.214  1.00  0.00     0.174 HD
BRANCH   8  25
HETATM   25  N4  UNL     1       3.157  -0.035   0.207  1.00  0.00    -0.213 N 
HETATM   26  C5  UNL     1       3.797  -0.686   1.332  1.00  0.00     0.167 C 
HETATM   27  C6  UNL     1       5.265  -0.454   1.409  1.00  0.00     0.188 C 
HETATM   28  O1  UNL     1       5.746   0.540   0.594  1.00  0.00    -0.388 OA
HETATM   29  C7  UNL     1       5.344   0.212  -0.723  1.00  0.00     0.188 C 
HETATM   30  C8  UNL     1       3.906   0.635  -0.838  1.00  0.00     0.167 C 
ENDBRANCH   8  25
BRANCH  18  31
HETATM   31  C13 UNL     1      -4.035  -0.987   1.194  1.00  0.00     0.195 C 
BRANCH  31  32
HETATM   32  C14 UNL     1      -4.344  -0.111   2.392  1.00  0.00     0.186 C 
BRANCH  32  33
HETATM   33  O2  UNL     1      -5.269   0.839   2.002  1.00  0.00    -0.399 OA
ATOM     34  H2  UNL     1      -5.463   1.388   2.753  1.00  0.00     0.209 HD
ENDBRANCH  32  33
ENDBRANCH  31  32
ENDBRANCH  18  31
ENDBRANCH   3   4
TORSDOF 5
