REMARK  11 active torsions:
REMARK  status: ('A' for Active; 'I' for Inactive)
REMARK    1  A    between atoms: C2_4  and  S1_6 
REMARK    2  A    between atoms: S1_6  and  C3_7 
REMARK    3  A    between atoms: C3_7  and  C4_8 
REMARK    4  A    between atoms: C5_9  and  C6_10 
REMARK    5  A    between atoms: C6_10  and  O1_11 
REMARK    6  A    between atoms: C6_10  and  O2_13 
REMARK    7  A    between atoms: O2_13  and  C7_14 
REMARK    8  A    between atoms: C11_21  and  N4_22 
REMARK    9  A    between atoms: C12_26  and  C13_27 
REMARK   10  A    between atoms: C13_27  and  O4_28 
REMARK   11  A    between atoms: C14_30  and  O5_31 
ROOT
HETATM    1  C7  UNL     1      -0.557  -0.757  -0.458  1.00  0.00     0.176 C 
HETATM    2  C8  UNL     1      -0.937   0.684  -0.518  1.00  0.00     0.189 C 
HETATM    3  N2  UNL     1      -2.367   0.915  -0.260  1.00  0.00    -0.222 N 
HETATM    4  C9  UNL     1      -3.244   1.765  -0.817  1.00  0.00     0.357 A 
HETATM    5  O3  UNL     1      -3.048   2.603  -1.737  1.00  0.00    -0.244 OA
HETATM    6  N3  UNL     1      -4.427   1.580  -0.215  1.00  0.00    -0.135 N 
HETATM    7  C10 UNL     1      -5.684   2.285  -0.492  1.00  0.00     0.180 C 
HETATM    8  C11 UNL     1      -4.304   0.614   0.724  1.00  0.00     0.699 A 
HETATM    9  N5  UNL     1      -3.020   0.226   0.669  1.00  0.00    -0.108 N 
HETATM   10  C12 UNL     1      -2.260  -0.755   1.401  1.00  0.00     0.181 C 
HETATM   11  C14 UNL     1      -1.515  -1.575   0.339  1.00  0.00     0.176 C 
ENDROOT
BRANCH   1  12
HETATM   12  O2  UNL     1       0.782  -0.919  -0.053  1.00  0.00    -0.341 OA
BRANCH  12  13
HETATM   13  C6  UNL     1       1.579  -1.468  -1.040  1.00  0.00     0.340 C 
BRANCH  13  14
HETATM   14  C5  UNL     1       2.643  -0.499  -1.409  1.00  0.00    -0.046 C 
HETATM   15  C4  UNL     1       3.495   0.296  -1.726  1.00  0.00    -0.091 C 
BRANCH  15  16
HETATM   16  C3  UNL     1       4.507   1.263  -2.129  1.00  0.00     0.177 C 
BRANCH  16  17
HETATM   17  S1  UNL     1       6.101   0.914  -1.391  1.00  0.00    -0.070 SA
BRANCH  17  18
HETATM   18  C2  UNL     1       6.092   1.120   0.373  1.00  0.00     0.223 C 
HETATM   19  N1  UNL     1       7.092   0.936   1.120  1.00  0.00    -0.366 N 
HETATM   20  C1  UNL     1       8.386   0.534   0.650  1.00  0.00     0.149 C 
ATOM     21  H1  UNL     1       6.973   1.083   2.122  1.00  0.00     0.161 HD
HETATM   22  F1  UNL     1       4.923   1.506   0.988  1.00  0.00    -0.178 F 
ENDBRANCH  17  18
ENDBRANCH  16  17
ENDBRANCH  15  16
ENDBRANCH  13  14
BRANCH  13  23
HETATM   23  O1  UNL     1       2.191  -2.646  -0.697  1.00  0.00    -0.361 OA
ATOM     24  H1  UNL     1       1.511  -3.266  -0.461  1.00  0.00     0.213 HD
ENDBRANCH  13  23
ENDBRANCH  12  13
ENDBRANCH   1  12
BRANCH  11  25
HETATM   25  O5  UNL     1      -0.955  -2.722   0.875  1.00  0.00    -0.391 OA
ATOM     26  H5  UNL     1      -1.566  -3.243   1.383  1.00  0.00     0.210 HD
ENDBRANCH  11  25
BRANCH  10  27
HETATM   27  C13 UNL     1      -3.107  -1.755   2.148  1.00  0.00     0.194 C 
BRANCH  27  28
HETATM   28  O4  UNL     1      -3.935  -2.496   1.342  1.00  0.00    -0.399 OA
ATOM     29  H4  UNL     1      -4.468  -3.126   1.812  1.00  0.00     0.209 HD
ENDBRANCH  27  28
ENDBRANCH  10  27
BRANCH   8  30
HETATM   30  N4  UNL     1      -5.259   0.178   1.506  1.00  0.00    -0.233 N 
ATOM     31  H42 UNL     1      -6.235   0.473   1.548  1.00  0.00     0.174 HD
ATOM     32  H41 UNL     1      -5.166  -0.550   2.214  1.00  0.00     0.174 HD
ENDBRANCH   8  30
TORSDOF 11
