REMARK  10 active torsions:
REMARK  status: ('A' for Active; 'I' for Inactive)
REMARK    1  A    between atoms: C2_2  and  O1_3 
REMARK    2  A    between atoms: O1_3  and  C3_4 
REMARK    3  A    between atoms: C3_4  and  C4_6 
REMARK    4  A    between atoms: C6_8  and  C7_9 
REMARK    5  A    between atoms: C7_9  and  O4_11 
REMARK    6  A    between atoms: O4_11  and  C8_12 
REMARK    7  A    between atoms: C12_16  and  O5_17 
REMARK    8  A    between atoms: C17_25  and  O8_26 
REMARK    9  A    between atoms: C17_25  and  C18_28 
REMARK   10  A    between atoms: C18_28  and  O10_30 
ROOT
HETATM    1  C4  UNL     1      -1.439   0.218   1.298  1.00  0.00     0.131 C 
HETATM    2  C5  UNL     1       0.008   0.515   1.089  1.00  0.00     0.038 C 
HETATM    3  C6  UNL     1       0.642  -0.799   0.614  1.00  0.00     0.150 C 
HETATM    4  C12 UNL     1       0.137  -0.949  -0.796  1.00  0.00     0.190 C 
HETATM    5  O6  UNL     1       0.750  -2.018  -1.485  1.00  0.00    -0.282 OA
HETATM    6  C13 UNL     1       0.101  -2.453  -2.648  1.00  0.00     0.261 C 
HETATM    7  O7  UNL     1       0.589  -3.433  -3.259  1.00  0.00    -0.265 OA
HETATM    8  C14 UNL     1      -1.108  -1.825  -3.182  1.00  0.00     0.112 C 
HETATM    9  C15 UNL     1      -1.765  -0.849  -2.269  1.00  0.00     0.023 C 
HETATM   10  C16 UNL     1      -1.333  -1.148  -0.824  1.00  0.00     0.095 C 
HETATM   11  C17 UNL     1      -2.138  -0.371   0.126  1.00  0.00     0.166 C 
ENDROOT
BRANCH   3  12
HETATM   12  C7  UNL     1       2.094  -0.795   0.722  1.00  0.00     0.269 C 
HETATM   13  O3  UNL     1       2.727  -1.630   1.435  1.00  0.00    -0.265 OA
BRANCH  12  14
HETATM   14  O4  UNL     1       2.874   0.138   0.039  1.00  0.00    -0.311 OA
BRANCH  14  15
HETATM   15  C8  UNL     1       4.289   0.120   0.162  1.00  0.00     0.060 C 
HETATM   16  C9  UNL     1       4.795   1.270  -0.714  1.00  0.00     0.045 C 
HETATM   17  C10 UNL     1       4.889  -1.157  -0.324  1.00  0.00     0.045 C 
HETATM   18  C11 UNL     1       4.744   0.400   1.559  1.00  0.00     0.045 C 
ENDBRANCH  14  15
ENDBRANCH  12  14
ENDBRANCH   3  12
BRANCH   4  19
HETATM   19  O5  UNL     1       0.474   0.231  -1.478  1.00  0.00    -0.364 OA
ATOM     20  H5  UNL     1       0.155   0.136  -2.368  1.00  0.00     0.213 HD
ENDBRANCH   4  19
BRANCH   1  21
HETATM   21  C3  UNL     1      -2.107   1.507   1.680  1.00  0.00     0.266 C 
HETATM   22  O2  UNL     1      -2.708   1.657   2.774  1.00  0.00    -0.265 OA
BRANCH  21  23
HETATM   23  O1  UNL     1      -2.089   2.608   0.828  1.00  0.00    -0.321 OA
BRANCH  23  24
HETATM   24  C2  UNL     1      -2.687   3.838   1.113  1.00  0.00     0.174 C 
HETATM   25  C1  UNL     1      -2.434   4.757  -0.076  1.00  0.00     0.034 C 
ENDBRANCH  23  24
ENDBRANCH  21  23
ENDBRANCH   1  21
BRANCH  11  26
HETATM   26  O8  UNL     1      -2.787   0.667  -0.583  1.00  0.00    -0.378 OA
ATOM     27  H8  UNL     1      -3.234   0.291  -1.332  1.00  0.00     0.211 HD
ENDBRANCH  11  26
BRANCH  11  28
HETATM   28  C18 UNL     1      -3.237  -1.237   0.650  1.00  0.00     0.294 C 
HETATM   29  O9  UNL     1      -4.440  -1.035   0.468  1.00  0.00    -0.262 OA
BRANCH  28  30
HETATM   30  O10 UNL     1      -2.847  -2.343   1.393  1.00  0.00    -0.324 OA
HETATM   31  C19 UNL     1      -3.726  -3.264   1.963  1.00  0.00     0.213 C 
ENDBRANCH  28  30
ENDBRANCH  11  28
TORSDOF 10
