REMARK  7 active torsions:
REMARK  status: ('A' for Active; 'I' for Inactive)
REMARK    1  A    between atoms: C2_2  and  N1_3 
REMARK    2  A    between atoms: C2_2  and  C11_23 
REMARK    3  A    between atoms: N1_3  and  C3_5 
REMARK    4  A    between atoms: C6_14  and  N5_15 
REMARK    5  A    between atoms: C12_26  and  C13_27 
REMARK    6  A    between atoms: C13_27  and  N8_28 
REMARK    7  A    between atoms: C14_33  and  S2_34 
ROOT
HETATM    1  N1  UNL     1      -0.485  -0.217   0.906  1.00  0.00    -0.366 N 
ATOM      2  H1  UNL     1       0.003   0.540   1.386  1.00  0.00     0.161 HD
ENDROOT
BRANCH   1   3
HETATM    3  C2  UNL     1      -1.820  -0.165   1.332  1.00  0.00     0.131 C 
HETATM    4  C1  UNL     1      -2.002   1.211   2.111  1.00  0.00     0.039 C 
BRANCH   3   5
HETATM    5  C11 UNL     1      -2.847  -0.063   0.203  1.00  0.00     0.061 A 
HETATM    6  N7  UNL     1      -3.019   1.096  -0.388  1.00  0.00    -0.353 N 
HETATM    7  C12 UNL     1      -3.811   1.202  -1.428  1.00  0.00     0.078 A 
ATOM      8  H7  UNL     1      -2.533   1.921  -0.036  1.00  0.00     0.166 HD
HETATM    9  S1  UNL     1      -4.373  -0.390  -1.624  1.00  0.00    -0.061 SA
HETATM   10  C14 UNL     1      -3.535  -1.116  -0.324  1.00  0.00     0.125 A 
BRANCH   7  11
HETATM   11  C13 UNL     1      -4.147   2.428  -2.253  1.00  0.00     0.294 C 
BRANCH  11  12
HETATM   12  N8  UNL     1      -3.473   3.532  -1.627  1.00  0.00    -0.074 N 
ATOM     13  H83 UNL     1      -3.698   3.635  -0.637  1.00  0.00     0.274 HD
ATOM     14  H82 UNL     1      -2.470   3.383  -1.513  1.00  0.00     0.274 HD
ATOM     15  H81 UNL     1      -3.699   4.357  -2.182  1.00  0.00     0.274 HD
ENDBRANCH  11  12
ENDBRANCH   7  11
BRANCH  10  16
HETATM   16  S2  UNL     1      -3.710  -2.785   0.192  1.00  0.00     0.180 S 
HETATM   17  C15 UNL     1      -5.256  -2.863   1.124  1.00  0.00     0.167 C 
HETATM   18  O2  UNL     1      -2.636  -3.142   1.185  1.00  0.00    -0.222 OA
HETATM   19  O3  UNL     1      -3.800  -3.719  -0.935  1.00  0.00    -0.222 OA
ENDBRANCH  10  16
ENDBRANCH   3   5
ENDBRANCH   1   3
BRANCH   1  20
HETATM   20  C3  UNL     1       0.352  -0.783   0.202  1.00  0.00     0.122 A 
HETATM   21  N2  UNL     1       0.145  -1.841  -0.606  1.00  0.00    -0.338 N 
HETATM   22  C4  UNL     1       1.062  -2.453  -1.367  1.00  0.00     0.183 A 
ATOM     23  H2  UNL     1      -0.804  -2.213  -0.642  1.00  0.00     0.168 HD
HETATM   24  N3  UNL     1       2.305  -2.025  -1.363  1.00  0.00    -0.337 N 
HETATM   25  C5  UNL     1       2.627  -0.965  -0.584  1.00  0.00     0.141 A 
ATOM     26  H3  UNL     1       3.014  -2.483  -1.936  1.00  0.00     0.168 HD
HETATM   27  N4  UNL     1       3.921  -0.531  -0.598  1.00  0.00    -0.175 N 
HETATM   28  C10 UNL     1       1.697  -0.328   0.198  1.00  0.00     0.121 A 
HETATM   29  C6  UNL     1       4.337   0.496   0.125  1.00  0.00     0.684 A 
ATOM     30  H4  UNL     1       4.594  -1.018  -1.190  1.00  0.00     0.186 HD
HETATM   31  N6  UNL     1       3.443   1.119   0.891  1.00  0.00    -0.155 N 
HETATM   32  C9  UNL     1       2.132   0.736   0.949  1.00  0.00     0.277 A 
ATOM     33  H6  UNL     1       3.748   1.912   1.456  1.00  0.00     0.187 HD
HETATM   34  O1  UNL     1       1.333   1.344   1.682  1.00  0.00    -0.266 OA
BRANCH  29  35
HETATM   35  N5  UNL     1       5.714   0.866   0.041  1.00  0.00    -0.226 N 
HETATM   36  C7  UNL     1       6.640   0.152  -0.802  1.00  0.00     0.168 C 
HETATM   37  C8  UNL     1       6.195   1.986   0.827  1.00  0.00     0.168 C 
ENDBRANCH  29  35
ENDBRANCH   1  20
TORSDOF 7
