REMARK  7 active torsions:
REMARK  status: ('A' for Active; 'I' for Inactive)
REMARK    1  A    between atoms: C2_2  and  O1_4 
REMARK    2  A    between atoms: C2_2  and  C4_6 
REMARK    3  A    between atoms: C4_6  and  O2_7 
REMARK    4  A    between atoms: O2_7  and  C5_8 
REMARK    5  A    between atoms: C7_10  and  C8_11 
REMARK    6  A    between atoms: C8_11  and  C9_12 
REMARK    7  A    between atoms: C9_12  and  N1_13 
ROOT
HETATM    1  C5  UNL     1       0.404   0.283  -0.001  1.00  0.00     0.130 C 
HETATM    2  C6  UNL     1      -0.471   0.099   1.218  1.00  0.00     0.039 C 
HETATM    3  C7  UNL     1      -1.637   1.029   1.090  1.00  0.00     0.008 C 
HETATM    4  C10 UNL     1      -2.417   0.892  -0.169  1.00  0.00    -0.039 C 
HETATM    5  C11 UNL     1      -3.436   2.035  -0.193  1.00  0.00     0.015 C 
HETATM    6  C12 UNL     1      -3.176  -0.367  -0.359  1.00  0.00     0.010 C 
HETATM    7  C13 UNL     1      -2.387  -1.596  -0.571  1.00  0.00     0.002 C 
HETATM    8  C14 UNL     1      -1.002  -1.446  -1.054  1.00  0.00     0.012 C 
HETATM    9  C15 UNL     1      -0.461  -0.087  -1.205  1.00  0.00    -0.017 C 
HETATM   10  C16 UNL     1       0.456   0.025  -2.424  1.00  0.00     0.018 C 
HETATM   11  C17 UNL     1      -1.471   1.012  -1.342  1.00  0.00     0.021 C 
ENDROOT
BRANCH   1  12
HETATM   12  O2  UNL     1       1.568  -0.428   0.052  1.00  0.00    -0.382 OA
BRANCH  12  13
HETATM   13  C4  UNL     1       2.642   0.454  -0.028  1.00  0.00     0.205 C 
BRANCH  13  14
HETATM   14  C2  UNL     1       3.973  -0.252   0.023  1.00  0.00     0.072 C 
HETATM   15  C1  UNL     1       4.110  -0.965   1.333  1.00  0.00     0.047 C 
HETATM   16  C3  UNL     1       4.150  -1.198  -1.145  1.00  0.00     0.047 C 
BRANCH  14  17
HETATM   17  O1  UNL     1       4.965   0.723  -0.065  1.00  0.00    -0.388 OA
ATOM     18  H1  UNL     1       4.878   1.175  -0.896  1.00  0.00     0.210 HD
ENDBRANCH  14  17
ENDBRANCH  13  14
ENDBRANCH  12  13
ENDBRANCH   1  12
BRANCH   3  19
HETATM   19  C8  UNL     1      -2.464   1.047   2.314  1.00  0.00     0.109 C 
BRANCH  19  20
HETATM   20  C9  UNL     1      -2.931  -0.064   2.868  1.00  0.00    -0.077 C 
BRANCH  20  21
HETATM   21  N1  UNL     1      -3.182  -1.178   3.433  1.00  0.00    -0.370 N 
ATOM     22  H12 UNL     1      -2.175  -1.302   3.541  1.00  0.00     0.165 HD
ATOM     23  H11 UNL     1      -3.541  -2.032   3.859  1.00  0.00     0.165 HD
ENDBRANCH  20  21
ENDBRANCH  19  20
ENDBRANCH   3  19
TORSDOF 7
