REMARK  5 active torsions:
REMARK  status: ('A' for Active; 'I' for Inactive)
REMARK    1  A    between atoms: C2_2  and  C3_3 
REMARK    2  A    between atoms: C3_3  and  C4_4 
REMARK    3  A    between atoms: C4_4  and  C5_5 
REMARK    4  A    between atoms: C6_6  and  O1_7 
REMARK    5  A    between atoms: C9_12  and  C10_13 
ROOT
HETATM    1  C5  UNL     1       1.727  -0.367  -0.391  1.00  0.00     0.044 A 
HETATM    2  C6  UNL     1       1.182   0.609   0.409  1.00  0.00     0.100 A 
HETATM    3  C7  UNL     1      -0.183   0.740   0.584  1.00  0.00     0.101 A 
HETATM    4  C8  UNL     1      -0.690   1.843   1.391  1.00  0.00     0.104 C 
HETATM    5  N1  UNL     1      -1.107   2.709   1.993  1.00  0.00    -0.191 NA
HETATM    6  C9  UNL     1      -1.101  -0.108  -0.042  1.00  0.00     0.040 A 
HETATM    7  N2  UNL     1      -0.543  -1.061  -0.829  1.00  0.00    -0.325 N 
ATOM      8  H2  UNL     1      -1.166  -1.708  -1.313  1.00  0.00     0.169 HD
HETATM    9  C16 UNL     1       0.771  -1.203  -1.008  1.00  0.00     0.254 A 
HETATM   10  O2  UNL     1       1.222  -2.111  -1.747  1.00  0.00    -0.268 OA
ENDROOT
BRANCH   2  11
HETATM   11  O1  UNL     1       1.998   1.531   1.085  1.00  0.00    -0.358 OA
ATOM     12  H1  UNL     1       1.621   2.206   1.638  1.00  0.00     0.217 HD
ENDBRANCH   2  11
BRANCH   6  13
HETATM   13  C10 UNL     1      -2.497   0.021   0.336  1.00  0.00     0.037 C 
HETATM   14  C11 UNL     1      -3.361   0.689  -0.757  1.00  0.00     0.011 C 
HETATM   15  C12 UNL     1      -4.705   0.910  -0.029  1.00  0.00     0.001 C 
HETATM   16  C13 UNL     1      -5.398  -0.444  -0.115  1.00  0.00     0.000 C 
HETATM   17  C14 UNL     1      -4.559  -1.483   0.576  1.00  0.00     0.001 C 
HETATM   18  C15 UNL     1      -3.092  -1.419   0.339  1.00  0.00     0.011 C 
ENDBRANCH   6  13
BRANCH   1  19
HETATM   19  C4  UNL     1       3.157  -0.585  -0.633  1.00  0.00     0.047 C 
BRANCH  19  20
HETATM   20  C3  UNL     1       4.091   0.327   0.077  1.00  0.00     0.004 C 
BRANCH  20  21
HETATM   21  C2  UNL     1       5.556  -0.004  -0.287  1.00  0.00    -0.004 C 
HETATM   22  C1  UNL     1       6.459   0.918   0.495  1.00  0.00     0.005 C 
ENDBRANCH  20  21
ENDBRANCH  19  20
ENDBRANCH   1  19
TORSDOF 5
