REMARK  3 active torsions:
REMARK  status: ('A' for Active; 'I' for Inactive)
REMARK    1  A    between atoms: C3_3  and  N1_4 
REMARK    2  A    between atoms: C5_9  and  N2_10 
REMARK    3  A    between atoms: N2_10  and  C6_13 
ROOT
HETATM    1  C1  UNL     1       3.393  -0.039  -1.750  1.00  0.00     0.014 C 
HETATM    2  C2  UNL     1       2.570   0.585  -0.665  1.00  0.00     0.043 C 
HETATM    3  C3  UNL     1       2.878   0.187   0.743  1.00  0.00     0.191 C 
HETATM    4  C4  UNL     1       1.715  -0.778   0.694  1.00  0.00     0.066 C 
HETATM    5  C5  UNL     1       1.211  -0.077  -0.522  1.00  0.00     0.194 C 
ENDROOT
BRANCH   5   6
HETATM    6  N2  UNL     1       0.164   0.881  -0.358  1.00  0.00    -0.066 N 
ATOM      7  H22 UNL     1       0.229   1.330   0.556  1.00  0.00     0.278 HD
ATOM      8  H21 UNL     1       0.322   1.690  -0.959  1.00  0.00     0.278 HD
BRANCH   6   9
HETATM    9  C6  UNL     1      -1.158   0.346  -0.566  1.00  0.00     0.186 C 
HETATM   10  C7  UNL     1      -1.450  -0.689   0.446  1.00  0.00     0.033 C 
HETATM   11  C8  UNL     1      -2.869  -1.191   0.436  1.00  0.00     0.002 C 
HETATM   12  C9  UNL     1      -3.798  -0.312  -0.353  1.00  0.00     0.000 C 
HETATM   13  C10 UNL     1      -3.495   1.122  -0.083  1.00  0.00     0.002 C 
HETATM   14  C11 UNL     1      -2.131   1.491  -0.593  1.00  0.00     0.033 C 
ENDBRANCH   6   9
ENDBRANCH   5   6
BRANCH   3  15
HETATM   15  N1  UNL     1       4.105  -0.543   0.957  1.00  0.00    -0.075 N 
ATOM     16  H13 UNL     1       4.121  -1.368   0.357  1.00  0.00     0.274 HD
ATOM     17  H12 UNL     1       4.888  -0.016   0.571  1.00  0.00     0.274 HD
ATOM     18  H11 UNL     1       4.315  -0.815   1.917  1.00  0.00     0.274 HD
ENDBRANCH   3  15
TORSDOF 3
