REMARK  10 active torsions:
REMARK  status: ('A' for Active; 'I' for Inactive)
REMARK    1  A    between atoms: C2_2  and  N1_4 
REMARK    2  A    between atoms: C4_5  and  O1_6 
REMARK    3  A    between atoms: C6_9  and  C7_10 
REMARK    4  A    between atoms: C7_10  and  C8_11 
REMARK    5  A    between atoms: C7_10  and  N3_15 
REMARK    6  A    between atoms: C8_11  and  N2_12 
REMARK    7  A    between atoms: C13_18  and  N4_19 
REMARK    8  A    between atoms: N4_19  and  N5_21 
REMARK    9  A    between atoms: N5_21  and  N6_22 
REMARK   10  A    between atoms: C16_27  and  O2_28 
ROOT
HETATM    1  C7  UNL     1       0.214   0.693   0.419  1.00  0.00     0.288 C 
ENDROOT
BRANCH   1   2
HETATM    2  C6  UNL     1      -0.794  -0.374   0.239  1.00  0.00     0.032 A 
HETATM    3  C5  UNL     1      -0.646  -1.626  -0.280  1.00  0.00     0.070 A 
HETATM    4  C4  UNL     1      -1.838  -2.344  -0.068  1.00  0.00     0.145 A 
HETATM    5  N1  UNL     1      -2.658  -1.514   0.560  1.00  0.00    -0.304 N 
HETATM    6  C16 UNL     1      -2.106  -0.316   0.781  1.00  0.00     0.153 A 
BRANCH   4   7
HETATM    7  O1  UNL     1      -2.003  -3.680  -0.477  1.00  0.00    -0.346 OA
ATOM      8  H1  UNL     1      -1.415  -4.275  -0.927  1.00  0.00     0.219 HD
ENDBRANCH   4   7
BRANCH   5   9
HETATM    9  C2  UNL     1      -4.035  -1.817   0.936  1.00  0.00     0.086 C 
HETATM   10  C1  UNL     1      -4.893  -0.565   0.674  1.00  0.00     0.032 C 
HETATM   11  C3  UNL     1      -4.673  -2.917   0.164  1.00  0.00     0.032 C 
ENDBRANCH   5   9
BRANCH   6  12
HETATM   12  O2  UNL     1      -2.621   0.810   1.400  1.00  0.00    -0.345 OA
ATOM     13  H2  UNL     1      -2.229   1.661   1.557  1.00  0.00     0.219 HD
ENDBRANCH   6  12
ENDBRANCH   1   2
BRANCH   1  14
HETATM   14  C8  UNL     1       0.001   1.942  -0.432  1.00  0.00     0.312 C 
BRANCH  14  15
HETATM   15  N2  UNL     1       1.000   2.932  -0.113  1.00  0.00     0.082 N 
HETATM   16  C9  UNL     1       0.776   3.497   1.217  1.00  0.00     0.309 C 
HETATM   17  C10 UNL     1       1.020   3.996  -1.071  1.00  0.00     0.309 C 
ENDBRANCH  14  15
ENDBRANCH   1  14
BRANCH   1  18
HETATM   18  N3  UNL     1       1.525   0.160   0.001  1.00  0.00     0.099 N 
HETATM   19  C11 UNL     1       1.614   0.025  -1.441  1.00  0.00     0.275 C 
HETATM   20  C12 UNL     1       2.720  -0.882  -1.823  1.00  0.00     0.058 C 
HETATM   21  C13 UNL     1       3.911  -0.915  -0.953  1.00  0.00     0.117 C 
HETATM   22  C14 UNL     1       3.805  -0.251   0.359  1.00  0.00     0.058 C 
HETATM   23  C15 UNL     1       2.681   0.785   0.473  1.00  0.00     0.275 C 
BRANCH  21  24
HETATM   24  N4  UNL     1       4.262  -2.311  -0.770  1.00  0.00    -0.248 N 
ATOM     25  H4  UNL     1       3.923  -2.984  -1.457  1.00  0.00     0.197 HD
BRANCH  24  26
HETATM   26  N5  UNL     1       4.938  -2.729   0.156  1.00  0.00    -0.248 NA
BRANCH  26  27
HETATM   27  N6  UNL     1       5.427  -3.415   1.037  1.00  0.00    -0.261 N 
ATOM     28  H62 UNL     1       4.817  -4.210   0.846  1.00  0.00     0.193 HD
ATOM     29  H61 UNL     1       5.992  -3.764   1.811  1.00  0.00     0.193 HD
ENDBRANCH  26  27
ENDBRANCH  24  26
ENDBRANCH  21  24
ENDBRANCH   1  18
TORSDOF 10
