REMARK  7 active torsions:
REMARK  status: ('A' for Active; 'I' for Inactive)
REMARK    1  A    between atoms: O1_2  and  C2_3 
REMARK    2  A    between atoms: C4_5  and  C5_6 
REMARK    3  A    between atoms: N1_7  and  N2_9 
REMARK    4  A    between atoms: N2_9  and  C6_11 
REMARK    5  A    between atoms: C13_18  and  O2_19 
REMARK    6  A    between atoms: C15_21  and  N3_22 
REMARK    7  A    between atoms: C19_26  and  N4_27 
ROOT
HETATM    1  C2  UNL     1      -0.965   1.364   0.166  1.00  0.00     0.098 A 
HETATM    2  C3  UNL     1       0.386   1.189   0.422  1.00  0.00     0.052 A 
HETATM    3  C4  UNL     1       0.882  -0.065   0.645  1.00  0.00    -0.014 A 
HETATM    4  C12 UNL     1       0.032  -1.148   0.612  1.00  0.00     0.052 A 
HETATM    5  C13 UNL     1      -1.327  -0.950   0.351  1.00  0.00     0.098 A 
HETATM    6  C15 UNL     1      -1.868   0.302   0.121  1.00  0.00     0.099 A 
ENDROOT
BRANCH   3   7
HETATM    7  C5  UNL     1       2.321  -0.228   0.914  1.00  0.00     0.118 C 
HETATM    8  N1  UNL     1       3.081   0.804   0.937  1.00  0.00    -0.311 N 
ATOM      9  H1  UNL     1       2.660   1.717   0.766  1.00  0.00     0.186 HD
BRANCH   8  10
HETATM   10  N2  UNL     1       4.446   0.746   1.182  1.00  0.00    -0.301 N 
ATOM     11  H2  UNL     1       4.884   1.315   1.906  1.00  0.00     0.187 HD
BRANCH  10  12
HETATM   12  C6  UNL     1       5.207  -0.150   0.370  1.00  0.00     0.048 A 
HETATM   13  C7  UNL     1       5.421  -1.453   0.767  1.00  0.00     0.031 A 
HETATM   14  C8  UNL     1       6.151  -2.336  -0.003  1.00  0.00     0.002 A 
HETATM   15  C9  UNL     1       6.663  -1.858  -1.199  1.00  0.00     0.000 A 
HETATM   16  C10 UNL     1       6.451  -0.554  -1.602  1.00  0.00     0.002 A 
HETATM   17  C11 UNL     1       5.725   0.322  -0.833  1.00  0.00     0.031 A 
ENDBRANCH  10  12
ENDBRANCH   8  10
ENDBRANCH   3   7
BRANCH   1  18
HETATM   18  O1  UNL     1      -1.430   2.645  -0.055  1.00  0.00    -0.354 OA
HETATM   19  C1  UNL     1      -0.536   3.729  -0.014  1.00  0.00     0.210 C 
ENDBRANCH   1  18
BRANCH   5  20
HETATM   20  O2  UNL     1      -2.089  -2.086   0.340  1.00  0.00    -0.354 OA
HETATM   21  C14 UNL     1      -1.593  -3.387   0.568  1.00  0.00     0.210 C 
ENDBRANCH   5  20
BRANCH   6  22
HETATM   22  N3  UNL     1      -3.261   0.482  -0.139  1.00  0.00    -0.349 N 
HETATM   23  C16 UNL     1      -3.861   1.781  -0.370  1.00  0.00     0.125 C 
HETATM   24  C17 UNL     1      -5.349   1.594  -0.513  1.00  0.00     0.024 C 
HETATM   25  C18 UNL     1      -5.458   0.151  -0.888  1.00  0.00     0.056 C 
HETATM   26  C19 UNL     1      -4.272  -0.535  -0.222  1.00  0.00     0.284 C 
BRANCH  26  27
HETATM   27  N4  UNL     1      -4.696  -0.869   1.123  1.00  0.00    -0.058 N 
ATOM     28  H43 UNL     1      -3.917  -1.138   1.724  1.00  0.00     0.276 HD
ATOM     29  H42 UNL     1      -5.004  -0.053   1.651  1.00  0.00     0.276 HD
ATOM     30  H41 UNL     1      -5.414  -1.591   1.064  1.00  0.00     0.276 HD
ENDBRANCH  26  27
ENDBRANCH   6  22
TORSDOF 7
