REMARK  13 active torsions:
REMARK  status: ('A' for Active; 'I' for Inactive)
REMARK    1  A    between atoms: O1_2  and  N1_3 
REMARK    2  A    between atoms: C2_6  and  C3_7 
REMARK    3  A    between atoms: C3_7  and  C4_9 
REMARK    4  A    between atoms: C4_9  and  C5_10 
REMARK    5  A    between atoms: C5_10  and  C6_11 
REMARK    6  A    between atoms: C5_10  and  C10_27 
REMARK    7  A    between atoms: N4_15  and  N5_17 
REMARK    8  A    between atoms: C9_24  and  O3_25 
REMARK    9  A    between atoms: C10_27  and  O4_28 
REMARK   10  A    between atoms: C10_27  and  N9_30 
REMARK   11  A    between atoms: N9_30  and  C11_32 
REMARK   12  A    between atoms: C14_35  and  O5_36 
REMARK   13  A    between atoms: C19_42  and  N10_43 
REMARK       I    between atoms: N10_43  and  C20_45 
REMARK       I    between atoms: C20_45  and  N11_46 
REMARK       I    between atoms: C20_45  and  N12_50 
REMARK       I    between atoms: N12_50  and  C21_52 
ROOT
HETATM    1  C5  UNL     1      -2.050  -0.144   1.961  1.00  0.00     0.096 C 
ENDROOT
BRANCH   1   2
HETATM    2  C4  UNL     1      -0.660   0.209   1.621  1.00  0.00     0.100 C 
BRANCH   2   3
HETATM    3  C3  UNL     1       0.405  -0.543   2.263  1.00  0.00     0.178 C 
HETATM    4  O2  UNL     1       0.236  -1.316   3.232  1.00  0.00    -0.291 OA
BRANCH   3   5
HETATM    5  C2  UNL     1       1.804  -0.439   1.797  1.00  0.00     0.096 A 
HETATM    6  N2  UNL     1       2.091   0.370   0.754  1.00  0.00    -0.269 N 
HETATM    7  N1  UNL     1       3.318   0.500   0.324  1.00  0.00    -0.144 N 
ATOM      8  H2  UNL     1       1.340   0.886   0.296  1.00  0.00     0.190 HD
HETATM    9  C19 UNL     1       4.392  -0.135   0.852  1.00  0.00     0.150 A 
HETATM   10  C18 UNL     1       4.136  -0.965   1.910  1.00  0.00     0.055 A 
HETATM   11  C17 UNL     1       2.845  -1.109   2.371  1.00  0.00     0.038 A 
BRANCH   7  12
HETATM   12  O1  UNL     1       3.505   1.353  -0.750  1.00  0.00    -0.262 OA
HETATM   13  C1  UNL     1       2.900   1.039  -1.979  1.00  0.00     0.240 C 
ENDBRANCH   7  12
BRANCH   9  14
HETATM   14  N10 UNL     1       5.513   0.110   0.321  1.00  0.00    -0.330 N 
HETATM   15  C20 UNL     1       6.793  -0.417   0.676  1.00  0.00     0.390 C 
HETATM   16  N11 UNL     1       7.100  -0.114   2.065  1.00  0.00    -0.041 N 
HETATM   17  N12 UNL     1       7.782   0.186  -0.208  1.00  0.00    -0.321 N 
ATOM     18 3H11 UNL     1       7.034   0.885   2.259  1.00  0.00     0.279 HD
ATOM     19 2H11 UNL     1       6.367  -0.440   2.695  1.00  0.00     0.279 HD
ATOM     20 1H11 UNL     1       8.014  -0.490   2.318  1.00  0.00     0.279 HD
HETATM   21  C21 UNL     1       7.719   0.057  -1.616  1.00  0.00     0.184 C 
ATOM     22  H12 UNL     1       8.547   0.720   0.203  1.00  0.00     0.166 HD
HETATM   23  N13 UNL     1       7.659  -1.110  -2.141  1.00  0.00    -0.374 N 
HETATM   24  N14 UNL     1       7.724   1.211  -2.428  1.00  0.00    -0.064 NA
ATOM     25 2H13 UNL     1       7.655  -1.944  -1.554  1.00  0.00     0.158 HD
ATOM     26 1H13 UNL     1       7.614  -1.203  -3.156  1.00  0.00     0.158 HD
ATOM     27  H10 UNL     1       5.502   0.767  -0.459  1.00  0.00     0.165 HD
ENDBRANCH   9  14
ENDBRANCH   3   5
ENDBRANCH   2   3
ENDBRANCH   1   2
BRANCH   1  28
HETATM   28  C6  UNL     1      -2.954   0.850   1.254  1.00  0.00     0.086 A 
HETATM   29  N3  UNL     1      -2.537   1.808   0.453  1.00  0.00    -0.189 N 
HETATM   30  C7  UNL     1      -3.628   2.473   0.019  1.00  0.00     0.699 A 
ATOM     31  H3  UNL     1      -1.568   2.010   0.206  1.00  0.00     0.184 HD
HETATM   32  N4  UNL     1      -3.568   3.486  -0.798  1.00  0.00    -0.130 N 
HETATM   33  N8  UNL     1      -4.737   1.938   0.545  1.00  0.00    -0.167 N 
ATOM     34  H4  UNL     1      -2.648   3.786  -1.121  1.00  0.00     0.205 HD
HETATM   35  C9  UNL     1      -4.315   0.905   1.331  1.00  0.00     0.179 A 
ATOM     36  H8  UNL     1      -5.699   2.240   0.390  1.00  0.00     0.186 HD
BRANCH  32  37
HETATM   37  N5  UNL     1      -4.669   4.178  -1.253  1.00  0.00    -0.262 N 
HETATM   38  C8  UNL     1      -4.960   5.329  -0.766  1.00  0.00     0.216 C 
HETATM   39  N6  UNL     1      -6.118   5.973  -1.297  1.00  0.00    -0.065 NA
HETATM   40  N7  UNL     1      -4.160   5.902   0.238  1.00  0.00    -0.065 NA
ATOM     41  H5  UNL     1      -5.257   3.773  -1.982  1.00  0.00     0.190 HD
ENDBRANCH  32  37
BRANCH  35  42
HETATM   42  O3  UNL     1      -5.185   0.102   2.050  1.00  0.00    -0.344 OA
ATOM     43  H3  UNL     1      -6.133   0.140   2.104  1.00  0.00     0.219 HD
ENDBRANCH  35  42
ENDBRANCH   1  28
BRANCH   1  44
HETATM   44  C10 UNL     1      -2.463  -1.512   1.442  1.00  0.00     0.228 C 
BRANCH  44  45
HETATM   45  O4  UNL     1      -1.687  -2.501   1.954  1.00  0.00    -0.376 OA
ATOM     46  H4  UNL     1      -1.945  -3.356   1.630  1.00  0.00     0.212 HD
ENDBRANCH  44  45
BRANCH  44  47
HETATM   47  N9  UNL     1      -2.383  -1.576   0.005  1.00  0.00    -0.363 N 
ATOM     48  H9  UNL     1      -1.995  -0.794  -0.523  1.00  0.00     0.162 HD
BRANCH  47  49
HETATM   49  C11 UNL     1      -2.844  -2.725  -0.665  1.00  0.00     0.030 A 
HETATM   50  C12 UNL     1      -3.493  -3.707   0.041  1.00  0.00     0.032 A 
HETATM   51  C13 UNL     1      -3.965  -4.864  -0.588  1.00  0.00     0.039 A 
HETATM   52  C14 UNL     1      -3.793  -5.052  -1.930  1.00  0.00     0.065 A 
HETATM   53  C15 UNL     1      -3.139  -4.058  -2.633  1.00  0.00     0.039 A 
HETATM   54  C16 UNL     1      -2.672  -2.916  -2.018  1.00  0.00     0.032 A 
BRANCH  52  55
HETATM   55  O5  UNL     1      -4.279  -6.214  -2.504  1.00  0.00    -0.361 OA
ATOM     56  H5  UNL     1      -4.159  -6.345  -3.437  1.00  0.00     0.217 HD
ENDBRANCH  52  55
ENDBRANCH  47  49
ENDBRANCH  44  47
ENDBRANCH   1  44
TORSDOF 13
