REMARK  17 active torsions:
REMARK  status: ('A' for Active; 'I' for Inactive)
REMARK    1  A    between atoms: N1_2  and  C2_4 
REMARK    2  A    between atoms: C4_6  and  N2_7 
REMARK    3  A    between atoms: N2_7  and  C5_9 
REMARK    4  A    between atoms: C5_9  and  O1_10 
REMARK    5  A    between atoms: C5_9  and  N3_12 
REMARK    6  A    between atoms: N3_12  and  O2_14 
REMARK    7  A    between atoms: C6_17  and  C7_18 
REMARK       I    between atoms: C7_18  and  N4_20 
REMARK    8  A    between atoms: N4_20  and  C8_22 
REMARK    9  A    between atoms: C11_26  and  C12_27 
REMARK       I    between atoms: C12_27  and  N6_29 
REMARK   10  A    between atoms: N6_29  and  C13_31 
REMARK   11  A    between atoms: C13_31  and  C14_32 
REMARK   12  A    between atoms: C13_31  and  C15_35 
REMARK   13  A    between atoms: C15_35  and  O6_36 
REMARK   14  A    between atoms: C15_35  and  N8_38 
REMARK   15  A    between atoms: N8_38  and  C16_40 
REMARK   16  A    between atoms: C16_40  and  C17_41 
REMARK   17  A    between atoms: C16_40  and  C18_44 
ROOT
HETATM    1  C8  UNL     1       1.850  -0.562   0.015  1.00  0.00     0.109 A 
HETATM    2  C9  UNL     1       1.304  -1.809   0.073  1.00  0.00     0.076 A 
HETATM    3  C10 UNL     1      -0.066  -2.067   0.216  1.00  0.00     0.067 A 
HETATM    4  N5  UNL     1      -0.569  -3.384   0.268  1.00  0.00    -0.101 NA
HETATM    5  C11 UNL     1      -0.915  -1.008   0.305  1.00  0.00     0.071 A 
HETATM    6  C19 UNL     1      -0.374   0.263   0.248  1.00  0.00     0.108 A 
HETATM    7  N10 UNL     1       0.930   0.466   0.111  1.00  0.00    -0.351 N 
ATOM      8  H10 UNL     1       1.270   1.427   0.075  1.00  0.00     0.166 HD
ENDROOT
BRANCH   1   9
HETATM    9  N4  UNL     1       3.206  -0.217  -0.126  1.00  0.00    -0.308 N 
HETATM   10  C7  UNL     1       4.260  -1.119  -0.223  1.00  0.00     0.266 C 
HETATM   11  O3  UNL     1       4.084  -2.345  -0.187  1.00  0.00    -0.267 OA
ATOM     12  H4  UNL     1       3.435   0.776  -0.160  1.00  0.00     0.170 HD
BRANCH  10  13
HETATM   13  C6  UNL     1       5.657  -0.616  -0.377  1.00  0.00     0.101 A 
HETATM   14  C2  UNL     1       6.848  -1.244  -0.488  1.00  0.00     0.053 A 
HETATM   15  C3  UNL     1       7.941  -0.459  -0.619  1.00  0.00     0.068 A 
HETATM   16  C4  UNL     1       7.752   0.893  -0.629  1.00  0.00     0.080 A 
HETATM   17  S1  UNL     1       6.070   1.048  -0.456  1.00  0.00    -0.065 SA
BRANCH  14  18
HETATM   18  N1  UNL     1       6.972  -2.693  -0.467  1.00  0.00    -0.393 N 
HETATM   19  C1  UNL     1       8.264  -3.358  -0.584  1.00  0.00     0.146 C 
ATOM     20  H1  UNL     1       6.130  -3.261  -0.367  1.00  0.00     0.159 HD
ENDBRANCH  14  18
BRANCH  16  21
HETATM   21  N2  UNL     1       8.751   1.930  -0.758  1.00  0.00    -0.315 N 
ATOM     22  H2  UNL     1       9.742   1.710  -0.859  1.00  0.00     0.170 HD
BRANCH  21  23
HETATM   23  C5  UNL     1       8.285   3.265  -0.737  1.00  0.00     0.242 C 
BRANCH  23  24
HETATM   24  O1  UNL     1       9.214   4.287  -0.753  1.00  0.00    -0.331 OA
ATOM     25  H1  UNL     1       8.901   5.184  -0.739  1.00  0.00     0.221 HD
ENDBRANCH  23  24
BRANCH  23  26
HETATM   26  N3  UNL     1       7.041   3.547  -0.704  1.00  0.00    -0.233 N 
ATOM     27  H3  UNL     1       6.346   2.801  -0.691  1.00  0.00     0.198 HD
BRANCH  26  28
HETATM   28  O2  UNL     1       6.646   4.858  -0.686  1.00  0.00    -0.287 OA
ATOM     29  H2  UNL     1       5.720   5.068  -0.661  1.00  0.00     0.244 HD
ENDBRANCH  26  28
ENDBRANCH  23  26
ENDBRANCH  21  23
ENDBRANCH  16  21
ENDBRANCH  10  13
ENDBRANCH   1   9
BRANCH   5  30
HETATM   30  C12 UNL     1      -2.350  -1.213   0.452  1.00  0.00     0.255 C 
HETATM   31  O4  UNL     1      -2.749  -2.430   0.489  1.00  0.00    -0.268 OA
HETATM   32  N6  UNL     1      -3.278  -0.167   0.551  1.00  0.00    -0.340 N 
ATOM     33  H6  UNL     1      -2.976   0.807   0.525  1.00  0.00     0.163 HD
BRANCH  32  34
HETATM   34  C13 UNL     1      -4.711  -0.517   0.695  1.00  0.00     0.222 C 
BRANCH  34  35
HETATM   35  C14 UNL     1      -5.200  -0.102   1.998  1.00  0.00     0.258 C 
HETATM   36  N7  UNL     1      -6.048  -0.939   2.813  1.00  0.00    -0.060 NA
HETATM   37  O5  UNL     1      -4.889   1.014   2.467  1.00  0.00    -0.274 OA
ENDBRANCH  34  35
BRANCH  34  38
HETATM   38  C15 UNL     1      -5.343  -0.004  -0.542  1.00  0.00     0.246 C 
BRANCH  38  39
HETATM   39  O6  UNL     1      -4.699  -0.729  -1.611  1.00  0.00    -0.374 OA
ATOM     40  H6  UNL     1      -5.104  -0.400  -2.405  1.00  0.00     0.212 HD
ENDBRANCH  38  39
BRANCH  38  41
HETATM   41  N8  UNL     1      -6.700   0.040  -0.681  1.00  0.00    -0.374 N 
ATOM     42  H8  UNL     1      -7.147  -0.600  -1.337  1.00  0.00     0.157 HD
BRANCH  41  43
HETATM   43  C16 UNL     1      -7.502   0.931   0.043  1.00  0.00     0.271 C 
BRANCH  43  44
HETATM   44  C17 UNL     1      -7.261   2.386  -0.275  1.00  0.00     0.264 C 
HETATM   45  N9  UNL     1      -7.895   3.386   0.496  1.00  0.00    -0.060 NA
HETATM   46  O7  UNL     1      -6.510   2.708  -1.205  1.00  0.00    -0.274 OA
ENDBRANCH  43  44
BRANCH  43  47
HETATM   47  C18 UNL     1      -8.946   0.625  -0.386  1.00  0.00     0.205 C 
HETATM   48  O8  UNL     1      -9.186  -0.246  -1.223  1.00  0.00    -0.646 OA
HETATM   49  O9  UNL     1      -9.934   1.366   0.206  1.00  0.00    -0.646 OA
ENDBRANCH  43  47
ENDBRANCH  41  43
ENDBRANCH  38  41
ENDBRANCH  34  38
ENDBRANCH  32  34
ENDBRANCH   5  30
TORSDOF 17
