REMARK  9 active torsions:
REMARK  status: ('A' for Active; 'I' for Inactive)
REMARK    1  A    between atoms: O1_1  and  N1_3 
REMARK    2  A    between atoms: C5_8  and  C6_9 
REMARK    3  A    between atoms: C6_9  and  N5_25 
REMARK    4  A    between atoms: N2_10  and  N3_12 
REMARK    5  A    between atoms: N3_12  and  C7_14 
REMARK    6  A    between atoms: C8_17  and  C9_18 
REMARK    7  A    between atoms: N5_25  and  N6_27 
REMARK    8  A    between atoms: C14_29  and  C15_30 
REMARK    9  A    between atoms: C16_31  and  C17_32 
ROOT
HETATM    1  C6  UNL     1       0.940  -1.700  -0.368  1.00  0.00     0.164 C 
HETATM    2  N2  UNL     1       2.065  -1.265  -0.826  1.00  0.00    -0.281 N 
ATOM      3  H2  UNL     1       2.700  -1.927  -1.273  1.00  0.00     0.188 HD
ENDROOT
BRANCH   1   4
HETATM    4  C5  UNL     1       0.638  -3.103  -0.513  1.00  0.00     0.108 A 
HETATM    5  N1  UNL     1       1.090  -3.861  -1.531  1.00  0.00    -0.232 N 
HETATM    6  C1  UNL     1       0.797  -5.168  -1.649  1.00  0.00     0.123 A 
HETATM    7  C2  UNL     1       0.003  -5.753  -0.685  1.00  0.00     0.020 A 
HETATM    8  C3  UNL     1      -0.494  -5.028   0.387  1.00  0.00     0.004 A 
HETATM    9  C4  UNL     1      -0.168  -3.692   0.466  1.00  0.00     0.036 A 
BRANCH   5  10
HETATM   10  O1  UNL     1       1.888  -3.212  -2.472  1.00  0.00    -0.283 OA
ATOM     11  H1  UNL     1       2.095  -2.289  -2.389  1.00  0.00     0.245 HD
ENDBRANCH   5  10
ENDBRANCH   1   4
BRANCH   1  12
HETATM   12  N5  UNL     1       0.082  -0.748   0.249  1.00  0.00    -0.283 N 
ATOM     13  H5  UNL     1       0.508  -0.006   0.804  1.00  0.00     0.188 HD
BRANCH  12  14
HETATM   14  N6  UNL     1      -1.299  -0.771   0.139  1.00  0.00    -0.310 N 
HETATM   15  C14 UNL     1      -2.058   0.247   0.210  1.00  0.00     0.107 C 
ATOM     16  H6  UNL     1      -1.743  -1.677  -0.011  1.00  0.00     0.186 HD
BRANCH  15  17
HETATM   17  C15 UNL     1      -3.500   0.093   0.078  1.00  0.00     0.019 C 
HETATM   18  C16 UNL     1      -4.278   1.140   0.151  1.00  0.00     0.013 C 
BRANCH  18  19
HETATM   19  C17 UNL     1      -5.725   1.088   0.032  1.00  0.00    -0.036 A 
HETATM   20  C18 UNL     1      -6.354  -0.118  -0.170  1.00  0.00     0.011 A 
HETATM   21  C19 UNL     1      -7.751  -0.146  -0.282  1.00  0.00     0.001 A 
HETATM   22  C20 UNL     1      -8.494   0.989  -0.195  1.00  0.00     0.000 A 
HETATM   23  C21 UNL     1      -7.842   2.188   0.008  1.00  0.00     0.001 A 
HETATM   24  C22 UNL     1      -6.483   2.256   0.122  1.00  0.00     0.011 A 
ENDBRANCH  18  19
ENDBRANCH  15  17
ENDBRANCH  12  14
ENDBRANCH   1  12
BRANCH   2  25
HETATM   25  N3  UNL     1       2.453   0.088  -0.734  1.00  0.00    -0.278 N 
ATOM     26  H3  UNL     1       1.783   0.835  -0.917  1.00  0.00     0.189 HD
BRANCH  25  27
HETATM   27  C7  UNL     1       3.698   0.369  -0.407  1.00  0.00     0.164 A 
HETATM   28  N4  UNL     1       4.228   1.580  -0.275  1.00  0.00    -0.333 N 
HETATM   29  C8  UNL     1       5.485   1.677   0.056  1.00  0.00     0.075 A 
ATOM     30  H4  UNL     1       3.664   2.416  -0.429  1.00  0.00     0.168 HD
HETATM   31  C13 UNL     1       6.186   0.513   0.249  1.00  0.00     0.085 A 
HETATM   32  S1  UNL     1       4.998  -0.671  -0.056  1.00  0.00    -0.062 SA
BRANCH  29  33
HETATM   33  C9  UNL     1       6.188   2.984   0.232  1.00  0.00     0.102 A 
HETATM   34  C10 UNL     1       7.503   3.198   0.578  1.00  0.00     0.041 A 
HETATM   35  C11 UNL     1       7.721   4.556   0.626  1.00  0.00     0.027 A 
HETATM   36  C12 UNL     1       6.516   5.128   0.304  1.00  0.00     0.142 A 
HETATM   37  O2  UNL     1       5.668   4.167   0.087  1.00  0.00    -0.320 OA
ENDBRANCH  29  33
ENDBRANCH  25  27
ENDBRANCH   2  25
TORSDOF 9
