REMARK  9 active torsions:
REMARK  status: ('A' for Active; 'I' for Inactive)
REMARK    1  A    between atoms: O1_2  and  C2_3 
REMARK    2  A    between atoms: C2_3  and  C3_4 
REMARK    3  A    between atoms: C3_4  and  C4_5 
REMARK    4  A    between atoms: C4_5  and  C5_6 
REMARK    5  A    between atoms: C5_6  and  C6_7 
REMARK    6  A    between atoms: C6_7  and  O2_8 
REMARK    7  A    between atoms: C6_7  and  C7_10 
REMARK    8  A    between atoms: C7_10  and  C8_11 
REMARK    9  A    between atoms: N1_31  and  O5_33 
ROOT
HETATM    1  C8  UNL     1       0.145   0.075   0.511  1.00  0.00    -0.009 C 
HETATM    2  C9  UNL     1      -0.903   0.127   1.638  1.00  0.00     0.013 C 
HETATM    3  C10 UNL     1      -2.136   0.823   1.230  1.00  0.00     0.028 C 
HETATM    4  C11 UNL     1      -2.860   1.220   2.531  1.00  0.00    -0.012 C 
HETATM    5  C12 UNL     1      -1.989   1.035   3.757  1.00  0.00     0.010 C 
HETATM    6  C13 UNL     1      -4.097   0.410   2.818  1.00  0.00     0.005 C 
HETATM    7  C14 UNL     1      -5.131   0.459   1.681  1.00  0.00     0.008 C 
HETATM    8  C15 UNL     1      -4.379   0.996   0.551  1.00  0.00     0.028 C 
HETATM    9  C16 UNL     1      -5.019   1.147  -0.784  1.00  0.00    -0.011 C 
HETATM   10  C17 UNL     1      -5.931   0.061  -1.205  1.00  0.00     0.010 C 
HETATM   11  C18 UNL     1      -3.727   1.215  -1.648  1.00  0.00     0.013 C 
HETATM   12  C19 UNL     1      -3.092  -0.000  -1.047  1.00  0.00     0.031 C 
HETATM   13  C20 UNL     1      -1.895  -0.590  -1.625  1.00  0.00     0.026 C 
HETATM   14  C21 UNL     1      -2.248  -1.309  -2.933  1.00  0.00     0.014 C 
HETATM   15  C22 UNL     1      -1.444  -1.593  -0.551  1.00  0.00     0.097 C 
HETATM   16  C23 UNL     1      -1.222  -2.919  -1.327  1.00  0.00     0.050 C 
HETATM   17  C24 UNL     1      -0.027  -1.177  -0.219  1.00  0.00     0.046 C 
HETATM   18  O3  UNL     1      -2.280  -1.899   0.416  1.00  0.00    -0.229 OA
HETATM   19  O4  UNL     1      -3.192  -1.138   0.892  1.00  0.00    -0.228 OA
HETATM   20  C25 UNL     1      -3.129   0.162   0.415  1.00  0.00     0.108 C 
ENDROOT
BRANCH   1  21
HETATM   21  C7  UNL     1       1.519   0.235   1.085  1.00  0.00     0.036 C 
BRANCH  21  22
HETATM   22  C6  UNL     1       2.568   0.187   0.029  1.00  0.00     0.118 C 
BRANCH  22  23
HETATM   23  C5  UNL     1       3.972   0.405   0.655  1.00  0.00     0.032 C 
BRANCH  23  24
HETATM   24  C4  UNL     1       5.016   0.221  -0.437  1.00  0.00     0.010 C 
BRANCH  24  25
HETATM   25  C3  UNL     1       6.367   0.441   0.211  1.00  0.00     0.086 C 
BRANCH  25  26
HETATM   26  C2  UNL     1       7.468   0.283  -0.780  1.00  0.00     0.137 C 
HETATM   27  N1  UNL     1       8.247   1.272  -1.000  1.00  0.00    -0.251 N 
ATOM     28  H1  UNL     1       8.996   1.149  -1.681  1.00  0.00     0.196 HD
BRANCH  26  29
HETATM   29  O1  UNL     1       7.632  -0.918  -1.443  1.00  0.00    -0.343 OA
HETATM   30  C1  UNL     1       8.656  -0.973  -2.434  1.00  0.00     0.211 C 
ENDBRANCH  26  29
BRANCH  27  31
HETATM   31  O5  UNL     1       8.138   2.476  -0.383  1.00  0.00    -0.288 OA
ATOM     32  H5  UNL     1       8.717   3.211  -0.547  1.00  0.00     0.244 HD
ENDBRANCH  27  31
ENDBRANCH  25  26
ENDBRANCH  24  25
ENDBRANCH  23  24
ENDBRANCH  22  23
BRANCH  22  33
HETATM   33  O2  UNL     1       2.634  -1.139  -0.455  1.00  0.00    -0.396 OA
ATOM     34  H2  UNL     1       1.775  -1.272  -0.838  1.00  0.00     0.210 HD
ENDBRANCH  22  33
ENDBRANCH  21  22
ENDBRANCH   1  21
TORSDOF 9
