REMARK  7 active torsions:
REMARK  status: ('A' for Active; 'I' for Inactive)
REMARK    1  A    between atoms: C2_2  and  N1_3 
REMARK    2  A    between atoms: C2_2  and  C13_25 
REMARK    3  A    between atoms: C2_2  and  C14_32 
REMARK    4  A    between atoms: N1_3  and  C3_5 
REMARK    5  A    between atoms: C7_11  and  C8_12 
REMARK    6  A    between atoms: C9_13  and  N3_14 
REMARK       I    between atoms: C13_25  and  N6_27 
REMARK    7  A    between atoms: N6_27  and  N7_29 
ROOT
HETATM    1  C3  UNL     1       0.702  -1.050   0.851  1.00  0.00     0.112 A 
HETATM    2  N2  UNL     1       1.798  -1.750   1.173  1.00  0.00    -0.352 N 
ATOM      3  H2  UNL     1       2.687  -1.251   1.212  1.00  0.00     0.166 HD
HETATM    4  C4  UNL     1       1.806  -3.049   1.445  1.00  0.00     0.089 A 
HETATM    5  C5  UNL     1       0.618  -3.769   1.405  1.00  0.00     0.018 A 
HETATM    6  C6  UNL     1      -0.521  -3.082   1.076  1.00  0.00     0.016 A 
HETATM    7  C7  UNL     1      -0.499  -1.700   0.788  1.00  0.00     0.009 A 
ENDROOT
BRANCH   1   8
HETATM    8  N1  UNL     1       0.844   0.350   0.754  1.00  0.00    -0.351 N 
ATOM      9  H1  UNL     1       0.009   0.934   0.705  1.00  0.00     0.162 HD
BRANCH   8  10
HETATM   10  C2  UNL     1       2.175   0.989   0.722  1.00  0.00     0.209 C 
HETATM   11  C1  UNL     1       2.875   0.584   1.990  1.00  0.00     0.059 C 
BRANCH  10  12
HETATM   12  C13 UNL     1       2.969   0.549  -0.431  1.00  0.00     0.272 C 
HETATM   13  O4  UNL     1       2.413  -0.229  -1.274  1.00  0.00    -0.269 OA
HETATM   14  N6  UNL     1       4.292   0.900  -0.705  1.00  0.00    -0.274 N 
ATOM     15  H6  UNL     1       4.762   1.522  -0.047  1.00  0.00     0.189 HD
BRANCH  14  16
HETATM   16  N7  UNL     1       5.019   0.463  -1.813  1.00  0.00    -0.343 N 
ATOM     17  H72 UNL     1       4.533  -0.158  -2.460  1.00  0.00     0.176 HD
ATOM     18  H71 UNL     1       5.986   0.719  -2.013  1.00  0.00     0.176 HD
ENDBRANCH  14  16
ENDBRANCH  10  12
BRANCH  10  19
HETATM   19  C14 UNL     1       1.972   2.501   0.715  1.00  0.00     0.421 C 
HETATM   20  F1  UNL     1       1.350   2.955  -0.403  1.00  0.00    -0.168 F 
HETATM   21  F2  UNL     1       3.186   3.093   0.925  1.00  0.00    -0.168 F 
HETATM   22  F3  UNL     1       1.167   2.877   1.796  1.00  0.00    -0.168 F 
ENDBRANCH  10  19
ENDBRANCH   8  10
ENDBRANCH   1   8
BRANCH   7  23
HETATM   23  C8  UNL     1      -1.739  -1.139   0.291  1.00  0.00     0.034 C 
HETATM   24  C9  UNL     1      -1.966  -0.128  -0.471  1.00  0.00     0.122 C 
BRANCH  24  25
HETATM   25  N3  UNL     1      -3.254   0.296  -0.862  1.00  0.00    -0.214 N 
HETATM   26  N4  UNL     1      -4.347  -0.319  -0.483  1.00  0.00    -0.251 N 
HETATM   27  C10 UNL     1      -5.595   0.096  -0.863  1.00  0.00     0.328 A 
ATOM     28  H4  UNL     1      -4.265  -1.139   0.118  1.00  0.00     0.191 HD
HETATM   29  O1  UNL     1      -6.618  -0.535  -0.468  1.00  0.00    -0.261 OA
HETATM   30  C11 UNL     1      -5.705   1.202  -1.675  1.00  0.00     0.319 A 
HETATM   31  O2  UNL     1      -6.858   1.589  -2.029  1.00  0.00    -0.262 OA
HETATM   32  N5  UNL     1      -4.581   1.827  -2.060  1.00  0.00    -0.269 N 
HETATM   33  C12 UNL     1      -3.392   1.392  -1.669  1.00  0.00     0.348 A 
ATOM     34  H5  UNL     1      -4.643   2.648  -2.662  1.00  0.00     0.174 HD
HETATM   35  O3  UNL     1      -2.349   2.008  -2.052  1.00  0.00    -0.245 OA
ENDBRANCH  24  25
ENDBRANCH   7  23
TORSDOF 7
