REMARK  4 active torsions:
REMARK  status: ('A' for Active; 'I' for Inactive)
REMARK    1  A    between atoms: C2_2  and  C3_3 
REMARK    2  A    between atoms: C10_11  and  O2_12 
REMARK    3  A    between atoms: C11_14  and  C12_15 
REMARK    4  A    between atoms: C17_22  and  C18_23 
ROOT
HETATM    1  C3  UNL     1       4.098   0.418  -0.110  1.00  0.00     0.074 C 
HETATM    2  C4  UNL     1       5.160  -0.027  -1.081  1.00  0.00     0.050 C 
HETATM    3  C5  UNL     1       3.602  -0.728   0.760  1.00  0.00     0.043 C 
HETATM    4  C6  UNL     1       2.155  -0.358   1.122  1.00  0.00     0.018 C 
HETATM    5  C7  UNL     1       1.344  -0.576  -0.127  1.00  0.00     0.024 C 
HETATM    6  C8  UNL     1       2.183  -0.118  -1.295  1.00  0.00     0.182 C 
HETATM    7  O1  UNL     1       3.015   0.895  -0.856  1.00  0.00    -0.376 OA
HETATM    8  C9  UNL     1      -0.037  -0.095  -0.172  1.00  0.00     0.068 C 
HETATM    9  C10 UNL     1      -0.564   0.800   0.868  1.00  0.00     0.148 C 
HETATM   10  C11 UNL     1      -2.003   1.016   0.876  1.00  0.00     0.091 C 
HETATM   11  C13 UNL     1      -2.402   2.413   0.344  1.00  0.00     0.058 C 
HETATM   12  C14 UNL     1      -3.906   2.257   0.317  1.00  0.00     0.126 C 
HETATM   13  C15 UNL     1      -4.617   2.922   1.445  1.00  0.00     0.040 C 
HETATM   14  O4  UNL     1      -4.152   0.842   0.259  1.00  0.00    -0.348 OA
HETATM   15  C16 UNL     1      -2.905   0.180   0.116  1.00  0.00     0.075 C 
HETATM   16  C17 UNL     1      -2.833  -0.921  -0.589  1.00  0.00     0.021 C 
HETATM   17  C20 UNL     1      -1.656  -1.738  -0.854  1.00  0.00     0.086 C 
HETATM   18  C21 UNL     1      -0.567  -1.469   0.094  1.00  0.00     0.104 A 
HETATM   19  O6  UNL     1       0.071  -2.394   0.849  1.00  0.00    -0.362 OA
HETATM   20  C22 UNL     1       0.848  -1.982  -0.195  1.00  0.00     0.100 A 
HETATM   21  C23 UNL     1       1.051  -2.823  -1.414  1.00  0.00     0.050 C 
ENDROOT
BRANCH   9  22
HETATM   22  O2  UNL     1      -0.132   0.353   2.139  1.00  0.00    -0.393 OA
ATOM     23  H2  UNL     1      -0.473   0.931   2.811  1.00  0.00     0.210 HD
ENDBRANCH   9  22
BRANCH   1  24
HETATM   24  C2  UNL     1       4.590   1.500   0.778  1.00  0.00     0.000 C 
HETATM   25  C1  UNL     1       5.820   1.985   0.657  1.00  0.00     0.010 C 
ENDBRANCH   1  24
BRANCH  10  26
HETATM   26  C12 UNL     1      -2.467   1.046   2.296  1.00  0.00     0.250 C 
HETATM   27  O3  UNL     1      -2.108   1.942   3.004  1.00  0.00    -0.305 OA
ENDBRANCH  10  26
BRANCH  16  28
HETATM   28  C18 UNL     1      -4.077  -1.398  -1.192  1.00  0.00     0.154 C 
HETATM   29  C19 UNL     1      -4.097  -2.630  -2.004  1.00  0.00     0.096 C 
HETATM   30  O5  UNL     1      -5.152  -0.769  -1.029  1.00  0.00    -0.293 OA
ENDBRANCH  16  28
TORSDOF 4
