REMARK  5 active torsions:
REMARK  status: ('A' for Active; 'I' for Inactive)
REMARK    1  A    between atoms: C2_2  and  C4_4 
REMARK    2  A    between atoms: C10_11  and  O2_12 
REMARK    3  A    between atoms: C16_20  and  O4_21 
REMARK    4  A    between atoms: O4_21  and  C17_22 
REMARK    5  A    between atoms: C17_22  and  C18_23 
ROOT
HETATM    1  C4  UNL     1      -2.958   1.012  -0.138  1.00  0.00    -0.079 C 
HETATM    2  C5  UNL     1      -2.226   0.409   0.783  1.00  0.00    -0.012 C 
HETATM    3  C6  UNL     1      -1.922  -1.036   0.667  1.00  0.00    -0.001 C 
HETATM    4  C7  UNL     1      -3.216  -1.774   1.048  1.00  0.00     0.022 C 
HETATM    5  C8  UNL     1      -0.941  -1.386   1.773  1.00  0.00     0.182 C 
HETATM    6  O1  UNL     1       0.257  -0.939   1.445  1.00  0.00    -0.370 OA
HETATM    7  C9  UNL     1       1.214  -1.661   0.835  1.00  0.00     0.145 C 
HETATM    8  C10 UNL     1       1.793  -2.658   1.645  1.00  0.00     0.294 C 
HETATM    9  O3  UNL     1       1.001  -3.816   1.446  1.00  0.00    -0.357 OA
HETATM   10  C11 UNL     1       0.342  -3.698   0.225  1.00  0.00     0.183 C 
HETATM   11  C12 UNL     1       0.763  -2.478  -0.387  1.00  0.00     0.020 C 
HETATM   12  C13 UNL     1       1.925  -2.746  -1.329  1.00  0.00     0.021 C 
HETATM   13  C14 UNL     1      -0.074  -1.485  -1.023  1.00  0.00     0.007 C 
HETATM   14  C15 UNL     1       0.751  -0.228  -0.863  1.00  0.00     0.041 C 
HETATM   15  C16 UNL     1       1.937  -0.600   0.068  1.00  0.00     0.162 C 
HETATM   16  C21 UNL     1      -1.508  -1.397  -0.679  1.00  0.00     0.005 C 
HETATM   17  C22 UNL     1      -2.187  -0.575  -1.751  1.00  0.00     0.010 C 
HETATM   18  C23 UNL     1      -3.422   0.146  -1.261  1.00  0.00     0.034 C 
ENDROOT
BRANCH  15  19
HETATM   19  O4  UNL     1       2.142   0.566   0.801  1.00  0.00    -0.378 OA
BRANCH  19  20
HETATM   20  C17 UNL     1       3.402   1.095   0.687  1.00  0.00     0.229 C 
BRANCH  20  21
HETATM   21  C18 UNL     1       3.778   1.468  -0.732  1.00  0.00     0.283 C 
HETATM   22  O5  UNL     1       2.923   2.406  -1.254  1.00  0.00    -0.357 OA
HETATM   23  C19 UNL     1       3.645   3.513  -1.627  1.00  0.00     0.197 C 
HETATM   24  C20 UNL     1       4.891   3.398  -0.774  1.00  0.00     0.197 C 
HETATM   25  O6  UNL     1       5.052   2.034  -0.676  1.00  0.00    -0.357 OA
ENDBRANCH  20  21
ENDBRANCH  19  20
ENDBRANCH  15  19
BRANCH   8  26
HETATM   26  O2  UNL     1       3.106  -3.001   1.561  1.00  0.00    -0.368 OA
ATOM     27  H2  UNL     1       3.496  -3.673   2.107  1.00  0.00     0.212 HD
ENDBRANCH   8  26
BRANCH   1  28
HETATM   28  C2  UNL     1      -3.309   2.461  -0.095  1.00  0.00     0.006 C 
HETATM   29  C1  UNL     1      -2.580   3.203   0.972  1.00  0.00     0.014 C 
HETATM   30  C3  UNL     1      -4.810   2.657  -0.051  1.00  0.00     0.014 C 
ENDBRANCH   1  28
TORSDOF 5
