REMARK  5 active torsions:
REMARK  status: ('A' for Active; 'I' for Inactive)
REMARK    1  A    between atoms: C8_10  and  S1_11 
REMARK    2  A    between atoms: C11_16  and  C12_17 
REMARK    3  A    between atoms: C13_18  and  C14_19 
REMARK    4  A    between atoms: C17_23  and  O6_24 
REMARK    5  A    between atoms: O6_24  and  C18_25 
ROOT
HETATM    1  C1  UNL     1      -1.441  -2.292  -2.816  1.00  0.00     0.015 C 
HETATM    2  C2  UNL     1      -1.858  -1.959  -1.615  1.00  0.00    -0.081 C 
HETATM    3  C3  UNL     1      -2.993  -2.700  -1.006  1.00  0.00     0.034 C 
HETATM    4  C4  UNL     1      -3.250  -2.068   0.343  1.00  0.00     0.010 C 
HETATM    5  C5  UNL     1      -3.401  -0.586   0.307  1.00  0.00     0.008 C 
HETATM    6  C6  UNL     1      -3.357  -0.095   1.751  1.00  0.00     0.116 C 
HETATM    7  C7  UNL     1      -3.643   1.360   1.708  1.00  0.00     0.260 C 
HETATM    8  O1  UNL     1      -4.501   1.951   2.394  1.00  0.00    -0.265 OA
HETATM    9  O2  UNL     1      -2.860   2.098   0.806  1.00  0.00    -0.298 OA
HETATM   10  C8  UNL     1      -1.886   1.391   0.036  1.00  0.00     0.278 C 
HETATM   11  C9  UNL     1      -2.382   0.126  -0.568  1.00  0.00     0.012 C 
HETATM   12  C10 UNL     1      -3.099   0.454  -1.858  1.00  0.00     0.020 C 
HETATM   13  C11 UNL     1      -1.268  -0.880  -0.809  1.00  0.00     0.048 C 
ENDROOT
BRANCH  13  14
HETATM   14  C12 UNL     1      -0.068  -0.279  -1.377  1.00  0.00    -0.018 C 
HETATM   15  C13 UNL     1       1.107  -0.306  -0.791  1.00  0.00     0.004 C 
BRANCH  15  16
HETATM   16  C14 UNL     1       1.349  -0.961   0.540  1.00  0.00     0.173 C 
HETATM   17  O5  UNL     1       1.267  -2.315   0.460  1.00  0.00    -0.379 OA
HETATM   18  C15 UNL     1       2.057  -2.820   1.476  1.00  0.00     0.171 C 
HETATM   19  C16 UNL     1       3.321  -1.939   1.373  1.00  0.00     0.061 C 
HETATM   20  C17 UNL     1       2.685  -0.597   1.098  1.00  0.00     0.157 C 
BRANCH  20  21
HETATM   21  O6  UNL     1       3.374   0.183   0.217  1.00  0.00    -0.373 OA
BRANCH  21  22
HETATM   22  C18 UNL     1       3.739   1.417   0.624  1.00  0.00     0.050 C 
HETATM   23  C19 UNL     1       4.484   2.092  -0.534  1.00  0.00     0.045 C 
HETATM   24  C20 UNL     1       2.526   2.270   0.916  1.00  0.00     0.045 C 
HETATM   25  C21 UNL     1       4.633   1.469   1.830  1.00  0.00     0.045 C 
ENDBRANCH  21  22
ENDBRANCH  20  21
ENDBRANCH  15  16
ENDBRANCH  13  14
BRANCH  10  26
HETATM   26  S1  UNL     1      -1.281   2.526  -1.188  1.00  0.00     0.281 S 
HETATM   27  O3  UNL     1      -0.564   3.872  -0.421  1.00  0.00    -0.209 OA
HETATM   28  O4  UNL     1      -2.572   3.213  -2.065  1.00  0.00    -0.209 OA
ENDBRANCH  10  26
TORSDOF 5
