REMARK  6 active torsions:
REMARK  status: ('A' for Active; 'I' for Inactive)
REMARK    1  A    between atoms: C2_2  and  O1_3 
REMARK    2  A    between atoms: O1_3  and  C3_4 
REMARK    3  A    between atoms: C3_4  and  C4_6 
REMARK    4  A    between atoms: C9_11  and  C10_12 
REMARK    5  A    between atoms: C12_17  and  C13_18 
REMARK    6  A    between atoms: C13_18  and  O6_19 
REMARK       I    between atoms: N1_28  and  C22_29 
ROOT
HETATM    1  C4  UNL     1      -3.702   0.435  -0.923  1.00  0.00     0.097 C 
HETATM    2  C5  UNL     1      -2.605   1.070  -1.671  1.00  0.00     0.020 C 
HETATM    3  C6  UNL     1      -1.239   0.990  -1.056  1.00  0.00     0.065 C 
HETATM    4  C7  UNL     1      -0.867  -0.324  -0.475  1.00  0.00     0.173 C 
HETATM    5  C8  UNL     1      -1.981  -1.251  -0.168  1.00  0.00     0.077 C 
HETATM    6  C9  UNL     1      -3.321  -0.638   0.038  1.00  0.00     0.073 C 
HETATM    7  O4  UNL     1      -0.248  -0.029   0.774  1.00  0.00    -0.207 OA
HETATM    8  O5  UNL     1       0.666   0.893   0.624  1.00  0.00    -0.228 OA
HETATM    9  C12 UNL     1       1.756   0.499  -0.116  1.00  0.00     0.212 C 
HETATM   10  C21 UNL     1       1.504  -0.976  -0.469  1.00  0.00     0.167 C 
HETATM   11  N1  UNL     1       0.228  -0.971  -1.201  1.00  0.00    -0.315 N 
HETATM   12  C22 UNL     1       0.166  -1.547  -2.452  1.00  0.00     0.218 C 
HETATM   13  C23 UNL     1       1.360  -2.168  -3.067  1.00  0.00     0.117 C 
HETATM   14  O7  UNL     1      -0.898  -1.564  -3.108  1.00  0.00    -0.274 OA
ENDROOT
BRANCH   6  15
HETATM   15  C10 UNL     1      -4.372  -1.694   0.122  1.00  0.00     0.128 C 
HETATM   16  C11 UNL     1      -4.155  -2.847   1.039  1.00  0.00     0.091 C 
HETATM   17  O3  UNL     1      -5.392  -1.646  -0.528  1.00  0.00    -0.298 OA
ENDBRANCH   6  15
BRANCH   1  18
HETATM   18  C3  UNL     1      -4.560   1.454  -0.264  1.00  0.00     0.263 C 
HETATM   19  O2  UNL     1      -4.263   2.659  -0.402  1.00  0.00    -0.265 OA
BRANCH  18  20
HETATM   20  O1  UNL     1      -5.676   1.116   0.495  1.00  0.00    -0.322 OA
BRANCH  20  21
HETATM   21  C2  UNL     1      -6.486   2.110   1.119  1.00  0.00     0.174 C 
HETATM   22  C1  UNL     1      -7.598   1.387   1.851  1.00  0.00     0.034 C 
ENDBRANCH  20  21
ENDBRANCH  18  20
ENDBRANCH   1  18
BRANCH   9  23
HETATM   23  C13 UNL     1       3.063   0.670   0.596  1.00  0.00     0.091 C 
HETATM   24  C15 UNL     1       4.179   0.270  -0.339  1.00  0.00     0.041 C 
HETATM   25  C16 UNL     1       4.876  -0.993   0.132  1.00  0.00     0.007 C 
HETATM   26  C17 UNL     1       5.510  -0.759   1.487  1.00  0.00    -0.019 C 
HETATM   27  C18 UNL     1       6.715   0.110   1.316  1.00  0.00     0.010 C 
HETATM   28  C19 UNL     1       4.529  -0.087   2.419  1.00  0.00     0.007 C 
HETATM   29  C20 UNL     1       3.115  -0.132   1.886  1.00  0.00     0.041 C 
BRANCH  23  30
HETATM   30  O6  UNL     1       3.224   2.004   0.921  1.00  0.00    -0.382 OA
HETATM   31  C14 UNL     1       3.216   2.869  -0.151  1.00  0.00     0.202 C 
ENDBRANCH  23  30
ENDBRANCH   9  23
TORSDOF 6
