REMARK  7 active torsions:
REMARK  status: ('A' for Active; 'I' for Inactive)
REMARK    1  A    between atoms: O1_2  and  C2_3 
REMARK    2  A    between atoms: C2_3  and  C3_5 
REMARK    3  A    between atoms: C3_5  and  N1_6 
REMARK    4  A    between atoms: C5_8  and  C6_9 
REMARK    5  A    between atoms: C12_17  and  C14_20 
REMARK    6  A    between atoms: C14_20  and  O5_22 
REMARK    7  A    between atoms: C17_25  and  C18_26 
ROOT
HETATM    1  N1  UNL     1       0.148   0.780   0.825  1.00  0.00    -0.353 N 
HETATM    2  C4  UNL     1      -0.765   1.636   0.213  1.00  0.00     0.074 C 
HETATM    3  C5  UNL     1      -1.824   1.009  -0.654  1.00  0.00     0.068 C 
HETATM    4  C10 UNL     1      -2.146  -0.309   0.005  1.00  0.00     0.042 C 
HETATM    5  C11 UNL     1      -3.404  -0.940  -0.400  1.00  0.00     0.086 C 
HETATM    6  S1  UNL     1      -2.906  -2.562  -1.029  1.00  0.00    -0.129 SA
HETATM    7  C12 UNL     1      -1.074  -2.189  -1.143  1.00  0.00     0.210 C 
HETATM    8  C13 UNL     1      -0.905  -1.732  -2.466  1.00  0.00     0.096 C 
HETATM    9  N2  UNL     1      -0.747  -1.361  -3.545  1.00  0.00    -0.195 NA
HETATM   10  C16 UNL     1      -0.983  -1.267  -0.001  1.00  0.00    -0.008 C 
HETATM   11  C17 UNL     1       0.215  -0.593   0.444  1.00  0.00     0.021 C 
ENDROOT
BRANCH   7  12
HETATM   12  C14 UNL     1      -0.480  -3.520  -0.843  1.00  0.00     0.296 C 
HETATM   13  O4  UNL     1       0.240  -4.169  -1.638  1.00  0.00    -0.262 OA
BRANCH  12  14
HETATM   14  O5  UNL     1      -0.736  -4.076   0.389  1.00  0.00    -0.324 OA
HETATM   15  C15 UNL     1      -0.219  -5.338   0.774  1.00  0.00     0.213 C 
ENDBRANCH  12  14
ENDBRANCH   7  12
BRANCH  11  16
HETATM   16  C18 UNL     1       1.536  -0.818  -0.217  1.00  0.00     0.036 C 
HETATM   17  C19 UNL     1       1.889   0.151  -1.318  1.00  0.00     0.011 C 
HETATM   18  C20 UNL     1       2.875  -0.573  -2.238  1.00  0.00     0.001 C 
HETATM   19  C21 UNL     1       4.095  -0.845  -1.392  1.00  0.00     0.000 C 
HETATM   20  C22 UNL     1       3.995  -0.406   0.023  1.00  0.00     0.001 C 
HETATM   21  C23 UNL     1       2.730  -0.781   0.739  1.00  0.00     0.011 C 
ENDBRANCH  11  16
BRANCH   3  22
HETATM   22  C6  UNL     1      -3.070   1.822  -0.598  1.00  0.00    -0.024 A 
HETATM   23  C7  UNL     1      -3.785   2.351  -1.655  1.00  0.00     0.034 A 
HETATM   24  C8  UNL     1      -4.847   3.013  -1.086  1.00  0.00     0.142 A 
HETATM   25  O3  UNL     1      -4.766   2.884   0.218  1.00  0.00    -0.334 OA
HETATM   26  C9  UNL     1      -3.721   2.181   0.552  1.00  0.00     0.149 A 
ENDBRANCH   3  22
BRANCH   1  27
HETATM   27  C3  UNL     1       0.219   1.053   2.237  1.00  0.00     0.239 C 
BRANCH  27  28
HETATM   28  C2  UNL     1       0.838   2.365   2.532  1.00  0.00     0.276 C 
HETATM   29  O2  UNL     1       0.950   2.730   3.731  1.00  0.00    -0.263 OA
BRANCH  28  30
HETATM   30  O1  UNL     1       1.318   3.249   1.578  1.00  0.00    -0.325 OA
HETATM   31  C1  UNL     1       1.906   4.500   1.940  1.00  0.00     0.213 C 
ENDBRANCH  28  30
ENDBRANCH  27  28
ENDBRANCH   1  27
TORSDOF 7
