REMARK  12 active torsions:
REMARK  status: ('A' for Active; 'I' for Inactive)
REMARK    1  A    between atoms: O1_2  and  C2_3 
REMARK    2  A    between atoms: C2_3  and  C3_5 
REMARK    3  A    between atoms: C3_5  and  N1_6 
REMARK    4  A    between atoms: N1_6  and  C4_8 
REMARK    5  A    between atoms: N2_10  and  C5_11 
REMARK    6  A    between atoms: C5_11  and  C6_12 
REMARK    7  A    between atoms: C6_12  and  C7_13 
REMARK    8  A    between atoms: C9_15  and  C10_16 
REMARK    9  A    between atoms: C14_22  and  C15_23 
REMARK       I    between atoms: C15_23  and  N4_25 
REMARK   10  A    between atoms: N4_25  and  C16_27 
REMARK   11  A    between atoms: C16_27  and  C17_28 
REMARK   12  A    between atoms: C17_28  and  C18_29 
ROOT
HETATM    1  C4  UNL     1      -1.579   0.649  -0.299  1.00  0.00     0.106 A 
HETATM    2  S1  UNL     1      -0.275   1.651   0.194  1.00  0.00     0.008 SA
HETATM    3  N2  UNL     1       0.888   0.469   0.426  1.00  0.00    -0.303 N 
HETATM    4  C13 UNL     1       0.274  -0.662   0.127  1.00  0.00     0.143 A 
HETATM    5  N3  UNL     1       1.027  -1.909   0.229  1.00  0.00    -0.081 NA
HETATM    6  C14 UNL     1      -1.029  -0.599  -0.259  1.00  0.00     0.108 A 
ENDROOT
BRANCH   6   7
HETATM    7  C15 UNL     1      -1.796  -1.799  -0.607  1.00  0.00     0.257 C 
HETATM    8  O3  UNL     1      -1.240  -2.934  -0.550  1.00  0.00    -0.267 OA
HETATM    9  N4  UNL     1      -3.145  -1.771  -1.010  1.00  0.00    -0.356 N 
ATOM     10  H4  UNL     1      -3.647  -0.886  -1.075  1.00  0.00     0.162 HD
BRANCH   9  11
HETATM   11  C16 UNL     1      -3.824  -3.046  -1.338  1.00  0.00     0.127 C 
BRANCH  11  12
HETATM   12  C17 UNL     1      -5.213  -2.846  -1.728  1.00  0.00     0.058 C 
BRANCH  12  13
HETATM   13  C18 UNL     1      -6.102  -2.209  -0.681  1.00  0.00    -0.050 A 
HETATM   14  C19 UNL     1      -6.338  -0.877  -0.661  1.00  0.00     0.014 A 
HETATM   15  C20 UNL     1      -7.148  -0.402   0.337  1.00  0.00     0.050 A 
HETATM   16  S2  UNL     1      -7.559  -1.796   1.211  1.00  0.00    -0.113 SA
HETATM   17  C21 UNL     1      -6.707  -2.953   0.311  1.00  0.00     0.056 A 
ENDBRANCH  12  13
ENDBRANCH  11  12
ENDBRANCH   9  11
ENDBRANCH   6   7
BRANCH   1  18
HETATM   18  N1  UNL     1      -2.743   1.117  -0.603  1.00  0.00    -0.373 N 
ATOM     19  H1  UNL     1      -3.470   0.460  -0.888  1.00  0.00     0.160 HD
BRANCH  18  20
HETATM   20  C3  UNL     1      -3.067   2.516  -0.560  1.00  0.00     0.231 C 
BRANCH  20  21
HETATM   21  C2  UNL     1      -3.413   2.893   0.830  1.00  0.00     0.276 C 
HETATM   22  O2  UNL     1      -3.736   4.068   1.122  1.00  0.00    -0.263 OA
BRANCH  21  23
HETATM   23  O1  UNL     1      -3.387   1.949   1.837  1.00  0.00    -0.325 OA
HETATM   24  C1  UNL     1      -3.720   2.334   3.153  1.00  0.00     0.213 C 
ENDBRANCH  21  23
ENDBRANCH  20  21
ENDBRANCH  18  20
ENDBRANCH   1  18
BRANCH   3  25
HETATM   25  C5  UNL     1       2.296   0.640   0.870  1.00  0.00     0.143 C 
BRANCH  25  26
HETATM   26  C6  UNL     1       3.091   0.830  -0.404  1.00  0.00     0.054 C 
BRANCH  26  27
HETATM   27  C7  UNL     1       4.511   1.008  -0.030  1.00  0.00    -0.084 C 
HETATM   28  C8  UNL     1       4.891   2.139   0.841  1.00  0.00     0.043 C 
HETATM   29  C9  UNL     1       5.418   0.169  -0.470  1.00  0.00     0.000 C 
BRANCH  29  30
HETATM   30  C10 UNL     1       6.872   0.220  -0.181  1.00  0.00     0.048 C 
HETATM   31  C11 UNL     1       7.602   1.287  -0.939  1.00  0.00     0.036 C 
HETATM   32  C12 UNL     1       7.511  -1.121  -0.541  1.00  0.00     0.036 C 
HETATM   33 CL1  UNL     1       7.083   0.386   1.590  1.00  0.00    -0.116 Cl
ENDBRANCH  29  30
ENDBRANCH  26  27
ENDBRANCH  25  26
ENDBRANCH   3  25
TORSDOF 12
