REMARK  12 active torsions:
REMARK  status: ('A' for Active; 'I' for Inactive)
REMARK    1  A    between atoms: C2_2  and  C3_3 
REMARK    2  A    between atoms: C3_3  and  C4_4 
REMARK    3  A    between atoms: C3_3  and  C6_7 
REMARK    4  A    between atoms: C11_14  and  C12_15 
REMARK    5  A    between atoms: C12_15  and  C13_16 
REMARK    6  A    between atoms: C13_16  and  C14_17 
REMARK    7  A    between atoms: C14_17  and  O4_18 
REMARK    8  A    between atoms: C14_17  and  C15_20 
REMARK    9  A    between atoms: C15_20  and  C16_21 
REMARK   10  A    between atoms: C17_22  and  O5_23 
REMARK   11  A    between atoms: C20_27  and  O6_28 
REMARK   12  A    between atoms: C21_30  and  C22_31 
ROOT
HETATM    1  C22 UNL     1       4.998  -0.919   1.835  1.00  0.00     0.031 C 
HETATM    2  C23 UNL     1       6.071  -0.182   2.512  1.00  0.00     0.070 C 
HETATM    3  N1  UNL     1       4.411  -1.891   2.493  1.00  0.00    -0.297 N 
ATOM      4  H1  UNL     1       3.663  -2.413   2.036  1.00  0.00     0.178 HD
HETATM    5  C24 UNL     1       4.773  -2.236   3.794  1.00  0.00     0.182 C 
HETATM    6  N2  UNL     1       5.062  -2.522   4.877  1.00  0.00    -0.172 NA
ENDROOT
BRANCH   1   7
HETATM    7  C21 UNL     1       4.583  -0.600   0.480  1.00  0.00     0.060 A 
HETATM    8  C20 UNL     1       5.152   0.401  -0.261  1.00  0.00     0.089 A 
HETATM    9  C18 UNL     1       4.698   0.653  -1.566  1.00  0.00     0.006 A 
HETATM   10  C17 UNL     1       3.688  -0.066  -2.162  1.00  0.00     0.083 A 
HETATM   11  C19 UNL     1       5.388   1.757  -2.278  1.00  0.00     0.054 C 
HETATM   12  C16 UNL     1       3.106  -1.085  -1.408  1.00  0.00     0.018 A 
HETATM   13  C25 UNL     1       3.556  -1.324  -0.137  1.00  0.00     0.140 A 
HETATM   14  F1  UNL     1       3.029  -2.328   0.636  1.00  0.00    -0.204 F 
BRANCH   8  15
HETATM   15  O6  UNL     1       6.176   1.166   0.280  1.00  0.00    -0.359 OA
ATOM     16  H6  UNL     1       6.483   0.996   1.163  1.00  0.00     0.217 HD
ENDBRANCH   8  15
BRANCH  10  17
HETATM   17  O5  UNL     1       3.250   0.192  -3.454  1.00  0.00    -0.359 OA
ATOM     18  H5  UNL     1       3.646   0.886  -3.968  1.00  0.00     0.217 HD
ENDBRANCH  10  17
BRANCH  12  19
HETATM   19  C15 UNL     1       2.025  -1.869  -1.997  1.00  0.00     0.076 C 
BRANCH  19  20
HETATM   20  C14 UNL     1       0.679  -1.257  -2.061  1.00  0.00     0.122 C 
BRANCH  20  21
HETATM   21  C13 UNL     1       0.083  -0.883  -0.711  1.00  0.00     0.032 C 
BRANCH  21  22
HETATM   22  C12 UNL     1      -1.345  -0.531  -0.941  1.00  0.00     0.011 C 
BRANCH  22  23
HETATM   23  C11 UNL     1      -2.156  -0.137   0.240  1.00  0.00     0.034 C 
HETATM   24  C6  UNL     1      -3.551   0.228  -0.370  1.00  0.00     0.103 C 
HETATM   25  C7  UNL     1      -4.206  -1.085  -0.390  1.00  0.00     0.265 C 
HETATM   26  O2  UNL     1      -4.870  -1.693  -1.252  1.00  0.00    -0.265 OA
HETATM   27  O3  UNL     1      -3.910  -1.595   0.896  1.00  0.00    -0.310 OA
HETATM   28  C8  UNL     1      -2.556  -1.192   1.195  1.00  0.00     0.068 C 
HETATM   29  C9  UNL     1      -1.771  -2.442   1.273  1.00  0.00     0.047 C 
HETATM   30  C10 UNL     1      -2.611  -0.622   2.621  1.00  0.00     0.047 C 
BRANCH  24  31
HETATM   31  C3  UNL     1      -4.205   1.292   0.415  1.00  0.00     0.068 C 
BRANCH  31  32
HETATM   32  C2  UNL     1      -5.602   1.654  -0.016  1.00  0.00     0.008 C 
HETATM   33  C1  UNL     1      -6.636   0.602   0.073  1.00  0.00     0.006 C 
ENDBRANCH  31  32
BRANCH  31  34
HETATM   34  C4  UNL     1      -3.407   2.576   0.232  1.00  0.00     0.128 C 
HETATM   35  C5  UNL     1      -3.780   3.784   1.039  1.00  0.00     0.091 C 
HETATM   36  O1  UNL     1      -2.488   2.666  -0.535  1.00  0.00    -0.298 OA
ENDBRANCH  31  34
ENDBRANCH  24  31
ENDBRANCH  22  23
ENDBRANCH  21  22
ENDBRANCH  20  21
BRANCH  20  37
HETATM   37  O4  UNL     1       0.538  -0.159  -2.871  1.00  0.00    -0.395 OA
ATOM     38  H4  UNL     1       0.910  -0.392  -3.713  1.00  0.00     0.210 HD
ENDBRANCH  20  37
ENDBRANCH  19  20
ENDBRANCH  12  19
ENDBRANCH   1   7
TORSDOF 12
