REMARK  5 active torsions:
REMARK  status: ('A' for Active; 'I' for Inactive)
REMARK    1  A    between atoms: C2_2  and  C3_3 
REMARK    2  A    between atoms: C3_3  and  C4_4 
REMARK    3  A    between atoms: N1_8  and  C8_9 
REMARK    4  A    between atoms: C8_9  and  C9_10 
REMARK    5  A    between atoms: C15_18  and  O3_19 
ROOT
HETATM    1  C9  UNL     1       0.708   0.059  -0.574  1.00  0.00     0.131 C 
HETATM    2  C10 UNL     1       0.262  -0.386   0.734  1.00  0.00     0.268 C 
HETATM    3  O1  UNL     1       0.856  -0.388   1.842  1.00  0.00    -0.264 OA
HETATM    4  O2  UNL     1      -1.062  -0.850   0.515  1.00  0.00    -0.314 OA
HETATM    5  C11 UNL     1      -1.397  -0.670  -0.847  1.00  0.00     0.150 C 
HETATM    6  C12 UNL     1      -0.596   0.625  -1.111  1.00  0.00     0.041 C 
HETATM    7  C13 UNL     1      -1.235   1.654  -0.243  1.00  0.00     0.018 C 
HETATM    8  C14 UNL     1      -0.569   2.983  -0.187  1.00  0.00     0.013 C 
HETATM    9  C15 UNL     1      -2.640   1.885  -0.755  1.00  0.00     0.127 C 
HETATM   10  C16 UNL     1      -3.517   0.657  -0.637  1.00  0.00     0.030 C 
HETATM   11  C17 UNL     1      -4.032   0.432   0.736  1.00  0.00     0.017 C 
HETATM   12  C18 UNL     1      -5.483   0.345   0.916  1.00  0.00    -0.047 C 
HETATM   13  C19 UNL     1      -5.770  -0.721   1.983  1.00  0.00     0.015 C 
HETATM   14  C20 UNL     1      -6.033   1.659   1.494  1.00  0.00     0.015 C 
HETATM   15  C21 UNL     1      -6.323   0.018  -0.263  1.00  0.00     0.012 C 
HETATM   16  C22 UNL     1      -6.099  -1.315  -0.880  1.00  0.00     0.028 C 
HETATM   17  C23 UNL     1      -4.860  -1.992  -0.516  1.00  0.00    -0.023 C 
HETATM   18  C24 UNL     1      -3.534  -1.750  -0.599  1.00  0.00    -0.076 C 
HETATM   19  C25 UNL     1      -2.715  -2.836  -0.046  1.00  0.00     0.044 C 
HETATM   20  C26 UNL     1      -2.820  -0.579  -1.153  1.00  0.00     0.012 C 
HETATM   21  C27 UNL     1      -2.981  -0.645  -2.670  1.00  0.00     0.023 C 
ENDROOT
BRANCH   1  22
HETATM   22  C8  UNL     1       1.890   0.871  -0.744  1.00  0.00     0.082 C 
BRANCH  22  23
HETATM   23  N1  UNL     1       3.127   0.279  -0.290  1.00  0.00    -0.331 N 
HETATM   24  C7  UNL     1       3.691   0.441   1.035  1.00  0.00     0.131 C 
HETATM   25  C6  UNL     1       5.151   0.857   0.804  1.00  0.00     0.030 C 
HETATM   26  C3  UNL     1       5.970  -0.254   0.233  1.00  0.00    -0.031 C 
HETATM   27  C29 UNL     1       5.223  -1.099  -0.764  1.00  0.00     0.112 C 
HETATM   28  C28 UNL     1       3.936  -0.539  -1.166  1.00  0.00     0.224 C 
HETATM   29  O4  UNL     1       3.477  -0.757  -2.319  1.00  0.00    -0.273 OA
BRANCH  26  30
HETATM   30  C2  UNL     1       6.405  -1.162   1.363  1.00  0.00     0.005 C 
HETATM   31  C1  UNL     1       7.295  -2.279   0.895  1.00  0.00     0.006 C 
ENDBRANCH  26  30
BRANCH  26  32
HETATM   32  C4  UNL     1       7.196   0.373  -0.427  1.00  0.00     0.005 C 
HETATM   33  C5  UNL     1       7.974   1.179   0.565  1.00  0.00     0.006 C 
ENDBRANCH  26  32
ENDBRANCH  22  23
ENDBRANCH   1  22
BRANCH   9  34
HETATM   34  O3  UNL     1      -3.260   2.961  -0.175  1.00  0.00    -0.395 OA
ATOM     35  H3  UNL     1      -4.142   3.106  -0.496  1.00  0.00     0.210 HD
ENDBRANCH   9  34
TORSDOF 5
