REMARK  12 active torsions:
REMARK  status: ('A' for Active; 'I' for Inactive)
REMARK    1  A    between atoms: C4_5  and  C5_6 
REMARK    2  A    between atoms: C5_6  and  C6_7 
REMARK    3  A    between atoms: C5_6  and  C9_14 
REMARK    4  A    between atoms: C6_7  and  C7_8 
REMARK    5  A    between atoms: C7_8  and  C8_9 
REMARK    6  A    between atoms: C8_9  and  N1_10 
REMARK       I    between atoms: C9_14  and  N2_16 
REMARK    7  A    between atoms: N2_16  and  C10_18 
REMARK    8  A    between atoms: C10_18  and  C11_19 
REMARK    9  A    between atoms: C11_19  and  C12_20 
REMARK   10  A    between atoms: C12_20  and  C13_21 
REMARK   11  A    between atoms: C13_21  and  C14_22 
REMARK   12  A    between atoms: C14_22  and  N3_23 
ROOT
HETATM    1  C12 UNL     1       1.658   0.991   1.691  1.00  0.00     0.003 C 
ENDROOT
BRANCH   1   2
HETATM    2  C11 UNL     1       1.979   1.947   0.545  1.00  0.00     0.020 C 
BRANCH   2   3
HETATM    3  C10 UNL     1       2.249   1.170  -0.724  1.00  0.00     0.122 C 
BRANCH   3   4
HETATM    4  N2  UNL     1       3.361   0.246  -0.578  1.00  0.00    -0.360 N 
HETATM    5  C9  UNL     1       4.668   0.629  -0.284  1.00  0.00     0.228 C 
HETATM    6  O2  UNL     1       4.859   1.879  -0.146  1.00  0.00    -0.273 OA
ATOM      7  H2  UNL     1       3.172  -0.749  -0.699  1.00  0.00     0.162 HD
BRANCH   5   8
HETATM    8  C5  UNL     1       5.859  -0.250  -0.111  1.00  0.00     0.135 C 
BRANCH   8   9
HETATM    9  C4  UNL     1       6.963   0.742   0.280  1.00  0.00     0.066 A 
HETATM   10  O1  UNL     1       7.401   0.832   1.503  1.00  0.00    -0.326 OA
HETATM   11  C3  UNL     1       8.347   1.752   1.580  1.00  0.00     0.148 A 
HETATM   12  C2  UNL     1       8.511   2.270   0.330  1.00  0.00    -0.037 A 
HETATM   13  C1  UNL     1       9.468   3.328  -0.051  1.00  0.00     0.050 C 
HETATM   14  C26 UNL     1       7.623   1.627  -0.520  1.00  0.00     0.042 A 
ENDBRANCH   8   9
BRANCH   8  15
HETATM   15  C6  UNL     1       6.335  -0.913  -1.346  1.00  0.00     0.022 C 
BRANCH  15  16
HETATM   16  C7  UNL     1       5.508  -1.982  -1.951  1.00  0.00     0.028 C 
BRANCH  16  17
HETATM   17  C8  UNL     1       5.330  -3.232  -1.131  1.00  0.00     0.229 C 
BRANCH  17  18
HETATM   18  N1  UNL     1       4.715  -3.096   0.130  1.00  0.00    -0.079 N 
ATOM     19  H13 UNL     1       5.219  -2.400   0.679  1.00  0.00     0.274 HD
ATOM     20  H12 UNL     1       3.813  -2.633   0.018  1.00  0.00     0.274 HD
ATOM     21  H11 UNL     1       4.594  -3.943   0.686  1.00  0.00     0.274 HD
ENDBRANCH  17  18
ENDBRANCH  16  17
ENDBRANCH  15  16
ENDBRANCH   8  15
ENDBRANCH   5   8
ENDBRANCH   3   4
ENDBRANCH   2   3
ENDBRANCH   1   2
BRANCH   1  22
HETATM   22  C13 UNL     1       0.454   0.134   1.429  1.00  0.00     0.030 C 
BRANCH  22  23
HETATM   23  C14 UNL     1      -0.803   0.939   1.258  1.00  0.00     0.272 C 
BRANCH  23  24
HETATM   24  N3  UNL     1      -1.963   0.111   1.022  1.00  0.00     0.088 N 
HETATM   25  C15 UNL     1      -3.190   0.841   1.139  1.00  0.00     0.274 C 
HETATM   26  C16 UNL     1      -3.573   1.723   0.007  1.00  0.00     0.049 C 
HETATM   27  C17 UNL     1      -4.801   2.560   0.406  1.00  0.00     0.115 C 
HETATM   28  N4  UNL     1      -6.036   1.900   0.118  1.00  0.00    -0.421 N 
HETATM   29  C18 UNL     1      -6.787   1.454   1.248  1.00  0.00     0.115 C 
ATOM     30  H4  UNL     1      -6.362   1.756  -0.838  1.00  0.00     0.153 HD
HETATM   31  C19 UNL     1      -7.167   0.013   1.256  1.00  0.00     0.046 C 
HETATM   32  C20 UNL     1      -8.072  -0.430   0.159  1.00  0.00     0.234 C 
HETATM   33  N5  UNL     1      -7.373  -0.868  -1.032  1.00  0.00    -0.074 N 
HETATM   34  C21 UNL     1      -7.230  -2.288  -1.141  1.00  0.00     0.251 C 
ATOM     35  H52 UNL     1      -7.820  -0.489  -1.867  1.00  0.00     0.277 HD
ATOM     36  H51 UNL     1      -6.463  -0.412  -1.100  1.00  0.00     0.277 HD
HETATM   37  C22 UNL     1      -5.816  -2.771  -0.852  1.00  0.00     0.141 C 
HETATM   38  N6  UNL     1      -4.913  -1.770  -1.309  1.00  0.00    -0.420 N 
HETATM   39  C23 UNL     1      -3.534  -2.120  -1.366  1.00  0.00     0.115 C 
ATOM     40  H6  UNL     1      -5.239  -0.843  -1.583  1.00  0.00     0.153 HD
HETATM   41  C24 UNL     1      -2.795  -1.920  -0.084  1.00  0.00     0.049 C 
HETATM   42  C25 UNL     1      -1.897  -0.677  -0.185  1.00  0.00     0.274 C 
ENDBRANCH  23  24
ENDBRANCH  22  23
ENDBRANCH   1  22
TORSDOF 12
