REMARK  11 active torsions:
REMARK  status: ('A' for Active; 'I' for Inactive)
REMARK    1  A    between atoms: C4_7  and  C5_8 
REMARK    2  A    between atoms: C5_8  and  C6_9 
REMARK    3  A    between atoms: C6_9  and  C7_10 
REMARK    4  A    between atoms: C7_10  and  C8_11 
REMARK    5  A    between atoms: C17_21  and  C18_22 
REMARK    6  A    between atoms: C18_22  and  O3_24 
REMARK    7  A    between atoms: O3_24  and  C19_25 
REMARK    8  A    between atoms: C24_30  and  N2_31 
REMARK       I    between atoms: N2_31  and  C25_33 
REMARK    9  A    between atoms: C25_33  and  C26_35 
REMARK   10  A    between atoms: C26_35  and  N3_37 
REMARK   11  A    between atoms: N3_37  and  S1_39 
ROOT
HETATM    1  C1  UNL     1      -3.477   1.923  -1.557  1.00  0.00     0.021 C 
HETATM    2  C2  UNL     1      -3.593   1.004  -0.372  1.00  0.00     0.087 C 
HETATM    3  C3  UNL     1      -2.677   1.314   0.740  1.00  0.00     0.222 C 
HETATM    4  O1  UNL     1      -2.909   0.685   1.832  1.00  0.00    -0.273 OA
HETATM    5  N1  UNL     1      -1.593   2.203   0.758  1.00  0.00    -0.356 N 
ATOM      6  H1  UNL     1      -1.527   2.812   1.574  1.00  0.00     0.162 HD
HETATM    7  C4  UNL     1      -0.554   2.364  -0.240  1.00  0.00     0.084 C 
HETATM    8  C9  UNL     1       0.760   1.737   0.233  1.00  0.00     0.026 C 
HETATM    9  C10 UNL     1       1.112   0.618  -0.716  1.00  0.00     0.009 C 
HETATM   10  C11 UNL     1       1.647  -0.592  -0.015  1.00  0.00     0.012 C 
HETATM   11  C12 UNL     1       1.055  -1.905  -0.494  1.00  0.00    -0.006 C 
HETATM   12  C13 UNL     1       0.070  -2.535   0.407  1.00  0.00     0.005 C 
HETATM   13  C14 UNL     1      -0.996  -3.239  -0.417  1.00  0.00     0.000 C 
HETATM   14  C15 UNL     1      -1.994  -2.319  -1.040  1.00  0.00     0.001 C 
HETATM   15  C16 UNL     1      -2.414  -1.193  -0.136  1.00  0.00     0.015 C 
HETATM   16  C17 UNL     1      -3.559  -0.444  -0.786  1.00  0.00     0.098 C 
HETATM   17  C23 UNL     1       2.464  -2.484  -0.203  1.00  0.00     0.030 C 
HETATM   18  C24 UNL     1       2.929  -1.066  -0.645  1.00  0.00     0.089 C 
ENDROOT
BRANCH  18  19
HETATM   19  N2  UNL     1       4.166  -0.733  -0.034  1.00  0.00    -0.355 N 
HETATM   20  C25 UNL     1       5.416  -0.791  -0.686  1.00  0.00     0.236 C 
HETATM   21  O4  UNL     1       5.462  -1.167  -1.874  1.00  0.00    -0.272 OA
ATOM     22  H2  UNL     1       4.150  -0.432   0.940  1.00  0.00     0.162 HD
BRANCH  20  23
HETATM   23  C26 UNL     1       6.647  -0.419   0.019  1.00  0.00     0.164 C 
HETATM   24  C27 UNL     1       7.034   1.044  -0.434  1.00  0.00     0.037 C 
BRANCH  23  25
HETATM   25  N3  UNL     1       7.822  -1.173  -0.296  1.00  0.00    -0.183 NA
HETATM   26  C28 UNL     1       7.502  -2.438  -0.918  1.00  0.00     0.133 C 
BRANCH  25  27
HETATM   27  S1  UNL     1       8.654  -1.533   1.212  1.00  0.00     0.185 S 
HETATM   28  O5  UNL     1      10.131  -1.549   1.038  1.00  0.00    -0.582 OA
HETATM   29  O6  UNL     1       8.328  -0.439   2.222  1.00  0.00    -0.582 OA
HETATM   30  O7  UNL     1       8.056  -2.982   1.786  1.00  0.00    -0.582 OA
ENDBRANCH  25  27
ENDBRANCH  23  25
ENDBRANCH  20  23
ENDBRANCH  18  19
BRANCH   7  31
HETATM   31  C5  UNL     1      -0.322   3.842  -0.545  1.00  0.00     0.025 C 
BRANCH  31  32
HETATM   32  C6  UNL     1       0.107   4.642   0.639  1.00  0.00     0.003 C 
BRANCH  32  33
HETATM   33  C7  UNL     1       0.297   6.082   0.184  1.00  0.00     0.011 C 
BRANCH  33  34
HETATM   34  C8  UNL     1      -0.953   6.685  -0.372  1.00  0.00     0.085 C 
HETATM   35 BR1  UNL     1      -2.366   6.694   0.924  1.00  0.00    -0.097 Br
ENDBRANCH  33  34
ENDBRANCH  32  33
ENDBRANCH  31  32
ENDBRANCH   7  31
BRANCH  16  36
HETATM   36  C18 UNL     1      -4.856  -1.143  -0.555  1.00  0.00     0.264 C 
HETATM   37  O2  UNL     1      -5.611  -1.515  -1.490  1.00  0.00    -0.265 OA
BRANCH  36  38
HETATM   38  O3  UNL     1      -5.313  -1.425   0.736  1.00  0.00    -0.311 OA
BRANCH  38  39
HETATM   39  C19 UNL     1      -6.550  -2.091   0.925  1.00  0.00     0.060 C 
HETATM   40  C20 UNL     1      -6.541  -3.447   0.245  1.00  0.00     0.045 C 
HETATM   41  C21 UNL     1      -7.739  -1.325   0.452  1.00  0.00     0.045 C 
HETATM   42  C22 UNL     1      -6.707  -2.338   2.426  1.00  0.00     0.045 C 
ENDBRANCH  38  39
ENDBRANCH  36  38
ENDBRANCH  16  36
TORSDOF 11
