REMARK  11 active torsions:
REMARK  status: ('A' for Active; 'I' for Inactive)
REMARK    1  A    between atoms: C2_2  and  C4_4 
REMARK    2  A    between atoms: C4_4  and  C5_5 
REMARK    3  A    between atoms: C6_8  and  O1_9 
REMARK    4  A    between atoms: C10_14  and  C11_15 
REMARK    5  A    between atoms: C12_16  and  O2_17 
REMARK    6  A    between atoms: O2_17  and  C13_18 
REMARK    7  A    between atoms: C13_18  and  C14_19 
REMARK    8  A    between atoms: C14_19  and  O3_20 
REMARK    9  A    between atoms: C17_27  and  C18_28 
REMARK   10  A    between atoms: C18_28  and  C19_29 
REMARK   11  A    between atoms: C28_40  and  C29_41 
REMARK       I    between atoms: C29_41  and  N3_43 
ROOT
HETATM    1  C5  UNL     1      -2.368   2.680  -0.293  1.00  0.00     0.183 C 
HETATM    2  N1  UNL     1      -1.286   2.275  -1.145  1.00  0.00    -0.360 N 
ATOM      3  H1  UNL     1      -1.409   2.587  -2.108  1.00  0.00     0.162 HD
HETATM    4  C6  UNL     1      -0.121   1.563  -0.965  1.00  0.00     0.117 C 
HETATM    5  C7  UNL     1       1.122   1.751  -0.213  1.00  0.00     0.074 C 
HETATM    6  C8  UNL     1       1.186   2.791   0.823  1.00  0.00     0.014 C 
HETATM    7  C9  UNL     1       2.289   2.328   1.760  1.00  0.00     0.010 C 
HETATM    8  C10 UNL     1       2.808   1.013   1.234  1.00  0.00     0.024 C 
HETATM    9  C15 UNL     1       1.625   0.483   0.461  1.00  0.00     0.097 C 
HETATM   10  C16 UNL     1       2.035  -0.520  -0.556  1.00  0.00     0.224 C 
HETATM   11  O4  UNL     1       2.752  -0.044  -1.497  1.00  0.00    -0.273 OA
HETATM   12  N2  UNL     1       1.694  -1.897  -0.539  1.00  0.00    -0.349 N 
ATOM     13  H2  UNL     1       1.339  -2.278  -1.416  1.00  0.00     0.163 HD
HETATM   14  C17 UNL     1       1.783  -2.814   0.542  1.00  0.00     0.158 C 
HETATM   15  C23 UNL     1       0.489  -3.149   1.206  1.00  0.00     0.183 C 
HETATM   16  O5  UNL     1       0.537  -4.073   2.009  1.00  0.00    -0.293 OA
HETATM   17  C24 UNL     1      -0.802  -2.504   1.001  1.00  0.00     0.241 C 
HETATM   18  F1  UNL     1      -1.306  -2.188   2.278  1.00  0.00    -0.241 F 
HETATM   19  C25 UNL     1      -1.864  -3.374   0.371  1.00  0.00     0.045 C 
HETATM   20  C26 UNL     1      -3.184  -2.607   0.515  1.00  0.00     0.006 C 
HETATM   21  C27 UNL     1      -3.306  -1.499  -0.476  1.00  0.00     0.042 C 
HETATM   22  C28 UNL     1      -3.808  -0.196   0.112  1.00  0.00     0.224 C 
HETATM   23  O7  UNL     1      -2.784   0.494   0.792  1.00  0.00    -0.305 OA
HETATM   24  C34 UNL     1      -2.544   1.819   0.905  1.00  0.00     0.282 C 
HETATM   25  O8  UNL     1      -2.466   2.346   2.021  1.00  0.00    -0.263 OA
ENDROOT
BRANCH   8  26
HETATM   26  C11 UNL     1       3.986   1.315   0.377  1.00  0.00     0.003 C 
HETATM   27  C12 UNL     1       5.150   0.725   0.533  1.00  0.00     0.131 C 
BRANCH  27  28
HETATM   28  O2  UNL     1       6.228   1.019  -0.272  1.00  0.00    -0.361 OA
BRANCH  28  29
HETATM   29  C13 UNL     1       7.140   2.062   0.083  1.00  0.00     0.200 C 
BRANCH  29  30
HETATM   30  C14 UNL     1       8.220   2.191  -0.942  1.00  0.00     0.190 C 
BRANCH  30  31
HETATM   31  O3  UNL     1       7.778   2.486  -2.207  1.00  0.00    -0.399 OA
ATOM     32  H3  UNL     1       8.464   2.568  -2.859  1.00  0.00     0.209 HD
ENDBRANCH  30  31
ENDBRANCH  29  30
ENDBRANCH  28  29
ENDBRANCH  27  28
ENDBRANCH   8  26
BRANCH   4  33
HETATM   33  O1  UNL     1      -0.064   0.430  -1.610  1.00  0.00    -0.349 OA
ATOM     34  H1  UNL     1       0.740  -0.061  -1.486  1.00  0.00     0.219 HD
ENDBRANCH   4  33
BRANCH  14  35
HETATM   35  C18 UNL     1       2.398  -4.152   0.202  1.00  0.00     0.041 C 
BRANCH  35  36
HETATM   36  C19 UNL     1       3.789  -4.132  -0.299  1.00  0.00    -0.049 C 
HETATM   37  C20 UNL     1       4.167  -5.609  -0.549  1.00  0.00     0.014 C 
HETATM   38  C21 UNL     1       4.020  -3.442  -1.605  1.00  0.00     0.014 C 
HETATM   39  C22 UNL     1       4.724  -3.605   0.763  1.00  0.00     0.014 C 
ENDBRANCH  35  36
ENDBRANCH  14  35
BRANCH   1  40
HETATM   40  C4  UNL     1      -2.298   4.125   0.085  1.00  0.00     0.039 C 
BRANCH  40  41
HETATM   41  C2  UNL     1      -2.332   5.146  -0.978  1.00  0.00    -0.020 C 
HETATM   42  C1  UNL     1      -1.247   5.153  -1.987  1.00  0.00     0.009 C 
HETATM   43  C3  UNL     1      -2.305   6.509  -0.255  1.00  0.00     0.009 C 
ENDBRANCH  40  41
ENDBRANCH   1  40
BRANCH  22  44
HETATM   44  C29 UNL     1      -4.910  -0.422   1.069  1.00  0.00     0.249 C 
HETATM   45  O6  UNL     1      -4.759  -0.069   2.264  1.00  0.00    -0.270 OA
HETATM   46  N3  UNL     1      -6.142  -1.019   0.718  1.00  0.00    -0.350 N 
HETATM   47  C30 UNL     1      -6.473  -1.464  -0.628  1.00  0.00     0.126 C 
HETATM   48  C33 UNL     1      -7.283  -1.303   1.576  1.00  0.00     0.126 C 
HETATM   49  C31 UNL     1      -7.984  -1.319  -0.725  1.00  0.00     0.021 C 
HETATM   50  C32 UNL     1      -8.500  -1.358   0.677  1.00  0.00     0.021 C 
ENDBRANCH  22  44
TORSDOF 11
