REMARK  7 active torsions:
REMARK  status: ('A' for Active; 'I' for Inactive)
REMARK    1  A    between atoms: C5_5  and  C6_6 
REMARK    2  A    between atoms: N1_7  and  N2_9 
REMARK    3  A    between atoms: N2_9  and  C7_11 
REMARK    4  A    between atoms: C8_14  and  N4_15 
REMARK    5  A    between atoms: N4_15  and  N5_17 
REMARK    6  A    between atoms: C10_24  and  S1_25 
REMARK    7  A    between atoms: S1_25  and  C11_26 
ROOT
HETATM    1  C11 UNL     1      -5.764  -1.078   0.215  1.00  0.00     0.204 C 
HETATM    2  C12 UNL     1      -6.853  -2.046   0.319  1.00  0.00     0.069 C 
HETATM    3  N7  UNL     1      -7.730  -2.817   0.386  1.00  0.00    -0.197 NA
ENDROOT
BRANCH   1   4
HETATM    4  S1  UNL     1      -4.189  -1.947   0.215  1.00  0.00    -0.096 SA
BRANCH   4   5
HETATM    5  C10 UNL     1      -2.859  -0.755   0.087  1.00  0.00     0.108 A 
HETATM    6  N6  UNL     1      -3.122   0.553   0.010  1.00  0.00    -0.183 N 
HETATM    7  C8  UNL     1      -2.066   1.392  -0.084  1.00  0.00     0.699 A 
ATOM      8  H6  UNL     1      -4.080   0.904   0.022  1.00  0.00     0.185 HD
HETATM    9  N3  UNL     1      -0.799   0.909  -0.098  1.00  0.00    -0.172 N 
HETATM   10  C7  UNL     1      -0.527  -0.404  -0.021  1.00  0.00     0.156 A 
ATOM     11  H3  UNL     1      -0.023   1.568  -0.170  1.00  0.00     0.186 HD
HETATM   12  C13 UNL     1      -1.570  -1.274   0.075  1.00  0.00     0.091 A 
HETATM   13  S2  UNL     1      -1.284  -3.042   0.181  1.00  0.00    -0.045 SA
BRANCH   7  14
HETATM   14  N4  UNL     1      -2.336   2.646  -0.157  1.00  0.00    -0.130 N 
ATOM     15  H4  UNL     1      -3.317   2.925  -0.139  1.00  0.00     0.205 HD
BRANCH  14  16
HETATM   16  N5  UNL     1      -1.373   3.649  -0.259  1.00  0.00    -0.266 N 
HETATM   17  C9  UNL     1      -1.466   4.715   0.441  1.00  0.00     0.190 C 
HETATM   18 CL1  UNL     1      -0.252   5.986   0.316  1.00  0.00    -0.050 Cl
HETATM   19 CL2  UNL     1      -2.797   4.929   1.533  1.00  0.00    -0.050 Cl
ATOM     20  H5  UNL     1      -0.587   3.531  -0.898  1.00  0.00     0.189 HD
ENDBRANCH  14  16
ENDBRANCH   7  14
BRANCH  10  21
HETATM   21  N2  UNL     1       0.694  -0.810  -0.039  1.00  0.00    -0.284 N 
ATOM     22  H2  UNL     1       1.464  -0.145  -0.111  1.00  0.00     0.188 HD
BRANCH  21  23
HETATM   23  N1  UNL     1       0.939  -2.172   0.042  1.00  0.00    -0.309 N 
HETATM   24  C6  UNL     1       2.130  -2.615   0.066  1.00  0.00     0.126 C 
ATOM     25  H1  UNL     1       0.156  -2.825   0.083  1.00  0.00     0.186 HD
BRANCH  24  26
HETATM   26  C5  UNL     1       3.246  -1.649   0.006  1.00  0.00     0.022 A 
HETATM   27  C4  UNL     1       4.590  -1.924   0.019  1.00  0.00     0.021 A 
HETATM   28  C3  UNL     1       5.432  -0.879  -0.046  1.00  0.00     0.015 A 
HETATM   29  C2  UNL     1       4.888   0.366  -0.119  1.00  0.00    -0.021 A 
HETATM   30  C1  UNL     1       5.590   1.691  -0.201  1.00  0.00     0.056 C 
HETATM   31  S3  UNL     1       3.213   0.058  -0.097  1.00  0.00    -0.094 SA
ENDBRANCH  24  26
ENDBRANCH  21  23
ENDBRANCH  10  21
ENDBRANCH   4   5
ENDBRANCH   1   4
TORSDOF 7
