REMARK  5 active torsions:
REMARK  status: ('A' for Active; 'I' for Inactive)
REMARK    1  A    between atoms: C4_8  and  C5_9 
REMARK    2  A    between atoms: C7_11  and  O3_12 
REMARK    3  A    between atoms: O3_12  and  C8_13 
REMARK    4  A    between atoms: C12_21  and  N3_22 
REMARK    5  A    between atoms: C14_26  and  N4_27 
ROOT
HETATM    1  C5  UNL     1      -1.105   0.409   0.444  1.00  0.00     0.003 A 
HETATM    2  C6  UNL     1      -0.054   0.629  -0.444  1.00  0.00     0.054 A 
HETATM    3  C7  UNL     1       0.962  -0.287  -0.625  1.00  0.00     0.111 A 
HETATM    4  C12 UNL     1       0.931  -1.455   0.095  1.00  0.00     0.139 A 
HETATM    5  C13 UNL     1      -0.129  -1.654   0.981  1.00  0.00     0.075 A 
HETATM    6  C14 UNL     1      -1.147  -0.760   1.180  1.00  0.00     0.115 A 
ENDROOT
BRANCH   1   7
HETATM    7  C4  UNL     1      -2.123   1.431   0.608  1.00  0.00     0.057 C 
HETATM    8  C3  UNL     1      -3.352   1.341   0.151  1.00  0.00     0.149 A 
HETATM    9  C2  UNL     1      -4.041   0.309  -0.600  1.00  0.00     0.283 A 
HETATM   10  O8  UNL     1      -4.316   2.357   0.343  1.00  0.00    -0.255 OA
HETATM   11  N1  UNL     1      -5.382   0.758  -0.819  1.00  0.00    -0.267 N 
HETATM   12  O2  UNL     1      -3.536  -0.770  -0.980  1.00  0.00    -0.265 OA
HETATM   13  C1  UNL     1      -5.516   2.018  -0.227  1.00  0.00     0.373 A 
ATOM     14  H1  UNL     1      -6.111   0.249  -1.319  1.00  0.00     0.174 HD
HETATM   15  O1  UNL     1      -6.579   2.692  -0.241  1.00  0.00    -0.238 OA
ENDBRANCH   1   7
BRANCH   6  16
HETATM   16  N4  UNL     1      -2.181  -1.015   2.139  1.00  0.00    -0.115 N 
HETATM   17  O6  UNL     1      -2.759  -0.127   2.789  1.00  0.00    -0.532 OA
HETATM   18  O7  UNL     1      -2.558  -2.316   2.367  1.00  0.00    -0.532 OA
ENDBRANCH   6  16
BRANCH   3  19
HETATM   19  O3  UNL     1       1.997  -0.025  -1.521  1.00  0.00    -0.289 OA
BRANCH  19  20
HETATM   20  C8  UNL     1       3.315   0.170  -1.111  1.00  0.00     0.171 A 
HETATM   21  N2  UNL     1       3.787   0.166   0.169  1.00  0.00    -0.326 N 
HETATM   22  C9  UNL     1       5.111   0.393   0.174  1.00  0.00     0.107 A 
ATOM     23  H2  UNL     1       3.217   0.013   1.001  1.00  0.00     0.169 HD
HETATM   24 CL1  UNL     1       6.202   0.486   1.539  1.00  0.00    -0.064 Cl
HETATM   25  C10 UNL     1       5.488   0.544  -1.146  1.00  0.00     0.070 A 
HETATM   26  C11 UNL     1       4.371   0.406  -1.948  1.00  0.00     0.088 A 
HETATM   27 CL2  UNL     1       4.386   0.521  -3.691  1.00  0.00    -0.080 Cl
ENDBRANCH  19  20
ENDBRANCH   3  19
BRANCH   4  28
HETATM   28  N3  UNL     1       1.914  -2.498  -0.040  1.00  0.00    -0.113 N 
HETATM   29  O4  UNL     1       2.425  -2.719  -1.143  1.00  0.00    -0.532 OA
HETATM   30  O5  UNL     1       2.199  -3.229   1.083  1.00  0.00    -0.532 OA
ENDBRANCH   4  28
TORSDOF 5
