REMARK  11 active torsions:
REMARK  status: ('A' for Active; 'I' for Inactive)
REMARK    1  A    between atoms: N1_2  and  C3_4 
REMARK    2  A    between atoms: C3_4  and  C4_5 
REMARK    3  A    between atoms: C4_5  and  O1_6 
REMARK    4  A    between atoms: O1_6  and  C5_7 
REMARK    5  A    between atoms: C7_11  and  C8_12 
REMARK       I    between atoms: C8_12  and  N3_14 
REMARK    6  A    between atoms: N3_14  and  C9_15 
REMARK    7  A    between atoms: N3_14  and  C24_33 
REMARK    8  A    between atoms: C9_15  and  C10_16 
REMARK    9  A    between atoms: C13_20  and  C14_21 
REMARK   10  A    between atoms: C18_25  and  C19_26 
REMARK   11  A    between atoms: C26_36  and  C27_37 
ROOT
HETATM    1  C8  UNL     1       1.405   0.449  -1.755  1.00  0.00     0.293 C 
HETATM    2  O2  UNL     1       1.535  -0.280  -2.762  1.00  0.00    -0.264 OA
HETATM    3  N3  UNL     1       0.274   1.213  -1.451  1.00  0.00    -0.292 N 
ENDROOT
BRANCH   3   4
HETATM    4  C9  UNL     1      -0.492   1.212  -0.222  1.00  0.00     0.180 C 
BRANCH   4   5
HETATM    5  C10 UNL     1      -1.731   0.355  -0.334  1.00  0.00     0.009 A 
HETATM    6  S1  UNL     1      -2.315  -0.393  -1.751  1.00  0.00    -0.096 SA
HETATM    7  C11 UNL     1      -3.785  -0.988  -1.171  1.00  0.00    -0.010 A 
HETATM    8  C12 UNL     1      -3.808  -0.594   0.145  1.00  0.00    -0.028 A 
HETATM    9  C23 UNL     1      -4.674  -1.715  -2.091  1.00  0.00     0.046 C 
HETATM   10  C13 UNL     1      -2.711   0.123   0.593  1.00  0.00    -0.031 A 
HETATM   11  C18 UNL     1      -4.981  -1.036   1.006  1.00  0.00     0.085 C 
HETATM   12  C20 UNL     1      -6.231  -1.216   0.212  1.00  0.00     0.015 C 
HETATM   13  C21 UNL     1      -6.438  -2.510  -0.475  1.00  0.00     0.001 C 
HETATM   14  C22 UNL     1      -5.504  -2.824  -1.576  1.00  0.00     0.005 C 
BRANCH  10  15
HETATM   15  C14 UNL     1      -2.587   0.500   1.993  1.00  0.00     0.020 C 
HETATM   16  C15 UNL     1      -2.843   1.954   2.399  1.00  0.00     0.009 C 
HETATM   17  C16 UNL     1      -2.254   1.501   3.753  1.00  0.00     0.001 C 
HETATM   18  C17 UNL     1      -1.423   0.502   2.861  1.00  0.00     0.009 C 
ENDBRANCH  10  15
BRANCH  11  19
HETATM   19  C19 UNL     1      -4.708  -2.218   1.851  1.00  0.00     0.361 C 
HETATM   20  F1  UNL     1      -4.343  -3.376   1.261  1.00  0.00    -0.214 F 
HETATM   21  F2  UNL     1      -5.968  -2.506   2.449  1.00  0.00    -0.214 F 
ENDBRANCH  11  19
ENDBRANCH   4   5
ENDBRANCH   3   4
BRANCH   3  22
HETATM   22  C24 UNL     1      -0.252   1.995  -2.599  1.00  0.00     0.118 A 
HETATM   23  C25 UNL     1      -0.117   1.604  -3.898  1.00  0.00     0.100 A 
HETATM   24  S2  UNL     1      -0.874   2.919  -4.739  1.00  0.00    -0.076 SA
HETATM   25  C26 UNL     1      -1.296   3.864  -3.383  1.00  0.00     0.160 A 
HETATM   26  N4  UNL     1      -0.847   3.133  -2.388  1.00  0.00    -0.332 N 
ATOM     27  H4  UNL     1      -0.967   3.464  -1.431  1.00  0.00     0.168 HD
BRANCH  25  28
HETATM   28  C27 UNL     1      -1.974   5.217  -3.360  1.00  0.00     0.439 C 
HETATM   29  F3  UNL     1      -3.131   5.104  -4.097  1.00  0.00    -0.164 F 
HETATM   30  F4  UNL     1      -2.325   5.563  -2.056  1.00  0.00    -0.164 F 
HETATM   31  F5  UNL     1      -1.115   6.187  -3.816  1.00  0.00    -0.164 F 
ENDBRANCH  25  28
ENDBRANCH   3  22
BRANCH   1  32
HETATM   32  C7  UNL     1       2.569   0.522  -0.807  1.00  0.00     0.177 A 
HETATM   33  N2  UNL     1       2.705   1.144   0.333  1.00  0.00    -0.344 N 
HETATM   34  C6  UNL     1       3.938   1.062   0.832  1.00  0.00     0.145 A 
ATOM     35  H2  UNL     1       1.944   1.642   0.795  1.00  0.00     0.167 HD
HETATM   36  C5  UNL     1       4.668   0.297  -0.113  1.00  0.00     0.159 A 
HETATM   37  N5  UNL     1       3.800   0.000  -1.069  1.00  0.00    -0.317 N 
ATOM     38  H5  UNL     1       4.025  -0.551  -1.898  1.00  0.00     0.169 HD
BRANCH  36  39
HETATM   39  O1  UNL     1       5.983  -0.001   0.050  1.00  0.00    -0.333 OA
BRANCH  39  40
HETATM   40  C4  UNL     1       6.838  -0.706  -0.766  1.00  0.00     0.197 C 
BRANCH  40  41
HETATM   41  C3  UNL     1       8.204  -0.750  -0.005  1.00  0.00     0.142 C 
BRANCH  41  42
HETATM   42  N1  UNL     1       7.993  -1.395   1.233  1.00  0.00    -0.419 N 
HETATM   43  C1  UNL     1       9.022  -1.426   2.190  1.00  0.00     0.142 C 
HETATM   44  C2  UNL     1       7.200  -2.600   1.133  1.00  0.00     0.142 C 
ENDBRANCH  41  42
ENDBRANCH  40  41
ENDBRANCH  39  40
ENDBRANCH  36  39
ENDBRANCH   1  32
TORSDOF 11
