REMARK  12 active torsions:
REMARK  status: ('A' for Active; 'I' for Inactive)
REMARK    1  A    between atoms: C4_4  and  N1_5 
REMARK    2  A    between atoms: N2_8  and  C7_9 
REMARK    3  A    between atoms: N3_12  and  C10_13 
REMARK    4  A    between atoms: C10_13  and  C11_14 
REMARK    5  A    between atoms: C11_14  and  C12_15 
REMARK    6  A    between atoms: C12_15  and  C13_16 
REMARK    7  A    between atoms: C13_16  and  C14_17 
REMARK    8  A    between atoms: C14_17  and  N4_18 
REMARK    9  A    between atoms: C15_19  and  O1_20 
REMARK   10  A    between atoms: C23_31  and  C24_32 
REMARK   11  A    between atoms: C24_32  and  C25_35 
REMARK   12  A    between atoms: C26_37  and  C27_38 
ROOT
HETATM    1  N1  UNL     1      -2.979  -0.181  -0.976  1.00  0.00    -0.377 N 
HETATM    2  C5  UNL     1      -2.637   1.220  -1.258  1.00  0.00     0.153 C 
HETATM    3  C6  UNL     1      -1.113   1.282  -1.247  1.00  0.00     0.292 C 
HETATM    4  N2  UNL     1      -0.654   0.667  -0.043  1.00  0.00     0.096 N 
HETATM    5  C20 UNL     1      -0.838  -0.769  -0.087  1.00  0.00     0.292 C 
HETATM    6  C21 UNL     1      -1.925  -1.146  -1.074  1.00  0.00     0.153 C 
ENDROOT
BRANCH   4   7
HETATM    7  C7  UNL     1       0.638   1.051   0.414  1.00  0.00     0.229 C 
HETATM    8  C8  UNL     1       1.678   0.683  -0.619  1.00  0.00     0.080 C 
HETATM    9  C9  UNL     1       2.931   1.537  -0.430  1.00  0.00     0.065 C 
HETATM   10  N3  UNL     1       3.019   2.084   0.850  1.00  0.00    -0.374 N 
HETATM   11  C18 UNL     1       2.004   3.071   1.077  1.00  0.00     0.129 C 
HETATM   12  C19 UNL     1       0.656   2.476   0.839  1.00  0.00     0.056 C 
BRANCH  10  13
HETATM   13  C10 UNL     1       4.227   2.192   1.499  1.00  0.00     0.063 C 
BRANCH  13  14
HETATM   14  C11 UNL     1       4.821   0.946   2.052  1.00  0.00     0.044 C 
BRANCH  14  15
HETATM   15  C12 UNL     1       5.112  -0.149   1.071  1.00  0.00     0.007 C 
BRANCH  15  16
HETATM   16  C13 UNL     1       5.790  -1.315   1.802  1.00  0.00     0.021 C 
BRANCH  16  17
HETATM   17  C14 UNL     1       6.147  -2.469   0.959  1.00  0.00     0.133 C 
BRANCH  17  18
HETATM   18  N4  UNL     1       7.092  -2.042  -0.102  1.00  0.00    -0.312 N 
HETATM   19  C15 UNL     1       8.378  -1.953   0.129  1.00  0.00     0.150 A 
HETATM   20  C16 UNL     1       9.192  -1.591  -0.908  1.00  0.00     0.108 A 
HETATM   21  S1  UNL     1       8.077  -1.391  -2.184  1.00  0.00    -0.068 SA
HETATM   22  C17 UNL     1       6.652  -1.779  -1.326  1.00  0.00     0.146 A 
HETATM   23  S2  UNL     1       5.120  -1.831  -1.955  1.00  0.00    -0.052 SA
BRANCH  19  24
HETATM   24  O1  UNL     1       8.976  -2.211   1.399  1.00  0.00    -0.346 OA
ATOM     25  H1  UNL     1       9.909  -2.146   1.567  1.00  0.00     0.219 HD
ENDBRANCH  19  24
ENDBRANCH  17  18
ENDBRANCH  16  17
ENDBRANCH  15  16
ENDBRANCH  14  15
ENDBRANCH  13  14
ENDBRANCH  10  13
ENDBRANCH   4   7
BRANCH   1  26
HETATM   26  C4  UNL     1      -4.337  -0.495  -0.637  1.00  0.00     0.031 A 
HETATM   27  C3  UNL     1      -4.729  -1.689  -0.118  1.00  0.00     0.037 A 
HETATM   28  C2  UNL     1      -6.052  -1.944   0.180  1.00  0.00    -0.044 A 
HETATM   29  C1  UNL     1      -6.379  -3.252   0.768  1.00  0.00     0.049 C 
HETATM   30  C26 UNL     1      -7.069  -0.975  -0.041  1.00  0.00     0.066 A 
HETATM   31  C23 UNL     1      -6.693   0.215  -0.556  1.00  0.00     0.032 A 
HETATM   32  C22 UNL     1      -5.331   0.436  -0.845  1.00  0.00     0.043 A 
BRANCH  30  33
HETATM   33  C27 UNL     1      -8.422  -1.333   0.282  1.00  0.00     0.418 C 
HETATM   34  F3  UNL     1      -8.789  -2.391  -0.598  1.00  0.00    -0.166 F 
HETATM   35  F4  UNL     1      -8.460  -2.081   1.518  1.00  0.00    -0.166 F 
HETATM   36  F5  UNL     1      -9.464  -0.525   0.224  1.00  0.00    -0.166 F 
ENDBRANCH  30  33
BRANCH  31  37
HETATM   37  C24 UNL     1      -7.571   1.324  -0.870  1.00  0.00     0.284 C 
HETATM   38  F1  UNL     1      -8.655   1.092  -1.678  1.00  0.00    -0.200 F 
HETATM   39  F2  UNL     1      -8.085   1.826   0.306  1.00  0.00    -0.200 F 
BRANCH  37  40
HETATM   40  C25 UNL     1      -6.808   2.550  -1.450  1.00  0.00     0.199 C 
HETATM   41 CL1  UNL     1      -8.006   3.852  -1.777  1.00  0.00    -0.124 Cl
ENDBRANCH  37  40
ENDBRANCH  31  37
ENDBRANCH   1  26
TORSDOF 12
