REMARK  13 active torsions:
REMARK  status: ('A' for Active; 'I' for Inactive)
REMARK    1  A    between atoms: O1_2  and  N1_3 
REMARK    2  A    between atoms: C2_5  and  C3_6 
REMARK    3  A    between atoms: C2_5  and  C10_19 
REMARK    4  A    between atoms: C3_6  and  C4_7 
REMARK    5  A    between atoms: C4_7  and  N2_8 
REMARK    6  A    between atoms: C4_7  and  C6_12 
REMARK    7  A    between atoms: N2_8  and  O2_10 
REMARK    8  A    between atoms: C6_12  and  C7_14 
REMARK    9  A    between atoms: C7_14  and  O3_17 
REMARK   10  A    between atoms: C13_22  and  N3_23 
REMARK   11  A    between atoms: C25_36  and  C26_37 
REMARK   12  A    between atoms: C27_41  and  C28_42 
REMARK   13  A    between atoms: C28_42  and  C30_44 
ROOT
HETATM    1  C10 UNL     1       0.783  -0.075   0.521  1.00  0.00     0.004 A 
HETATM    2  C11 UNL     1       0.327  -0.151  -0.773  1.00  0.00     0.017 A 
HETATM    3  C12 UNL     1      -0.961   0.064  -1.120  1.00  0.00     0.031 A 
HETATM    4  C13 UNL     1      -1.882   0.382  -0.106  1.00  0.00     0.050 A 
HETATM    5  C25 UNL     1      -1.461   0.476   1.231  1.00  0.00     0.086 A 
HETATM    6  C27 UNL     1      -0.088   0.248   1.557  1.00  0.00     0.001 A 
ENDROOT
BRANCH   1   7
HETATM    7  C2  UNL     1       2.134  -0.691   0.754  1.00  0.00     0.067 C 
HETATM    8  N1  UNL     1       2.431  -1.134   1.806  1.00  0.00    -0.267 N 
ATOM      9  H1  UNL     1       1.567  -1.004   2.333  1.00  0.00     0.194 HD
BRANCH   8  10
HETATM   10  O1  UNL     1       3.189  -1.682   2.687  1.00  0.00    -0.285 OA
HETATM   11  C1  UNL     1       3.001  -2.857   3.480  1.00  0.00     0.237 C 
ENDBRANCH   8  10
BRANCH   7  12
HETATM   12  C3  UNL     1       3.033  -0.625  -0.406  1.00  0.00     0.062 C 
BRANCH  12  13
HETATM   13  C4  UNL     1       4.403  -1.017  -0.360  1.00  0.00     0.071 C 
BRANCH  13  14
HETATM   14  N2  UNL     1       4.971  -1.541   0.635  1.00  0.00    -0.268 N 
ATOM     15  H2  UNL     1       4.421  -1.704   1.478  1.00  0.00     0.194 HD
BRANCH  14  16
HETATM   16  O2  UNL     1       6.282  -1.900   0.638  1.00  0.00    -0.285 OA
HETATM   17  C5  UNL     1       6.779  -3.077   1.233  1.00  0.00     0.237 C 
ENDBRANCH  14  16
ENDBRANCH  13  14
BRANCH  13  18
HETATM   18  C6  UNL     1       5.261  -0.789  -1.560  1.00  0.00     0.255 C 
HETATM   19  F1  UNL     1       6.258  -1.714  -1.668  1.00  0.00    -0.240 F 
BRANCH  18  20
HETATM   20  C7  UNL     1       5.785   0.576  -1.750  1.00  0.00     0.087 C 
HETATM   21  C8  UNL     1       4.799   1.687  -1.922  1.00  0.00     0.049 C 
HETATM   22  C9  UNL     1       6.689   0.620  -3.001  1.00  0.00     0.049 C 
BRANCH  20  23
HETATM   23  O3  UNL     1       6.646   0.979  -0.711  1.00  0.00    -0.387 OA
ATOM     24  H3  UNL     1       6.984   1.859  -0.833  1.00  0.00     0.210 HD
ENDBRANCH  20  23
ENDBRANCH  18  20
ENDBRANCH  13  18
ENDBRANCH  12  13
ENDBRANCH   7  12
ENDBRANCH   1   7
BRANCH   6  25
HETATM   25  C28 UNL     1       0.543   0.707   2.794  1.00  0.00    -0.008 C 
HETATM   26  C29 UNL     1       0.438  -0.037   4.077  1.00  0.00     0.050 C 
BRANCH  25  27
HETATM   27  C30 UNL     1       1.451   1.898   2.786  1.00  0.00     0.383 C 
HETATM   28  F5  UNL     1       2.565   1.978   2.065  1.00  0.00    -0.209 F 
HETATM   29  F6  UNL     1       0.663   3.055   2.629  1.00  0.00    -0.209 F 
ENDBRANCH  25  27
ENDBRANCH   6  25
BRANCH   5  30
HETATM   30  C26 UNL     1      -2.429   0.920   2.203  1.00  0.00     0.420 C 
HETATM   31  F2  UNL     1      -3.718   0.390   1.913  1.00  0.00    -0.166 F 
HETATM   32  F3  UNL     1      -2.358   0.260   3.473  1.00  0.00    -0.166 F 
HETATM   33  F4  UNL     1      -2.655   2.241   2.394  1.00  0.00    -0.166 F 
ENDBRANCH   5  30
BRANCH   4  34
HETATM   34  N3  UNL     1      -3.184   0.602  -0.629  1.00  0.00    -0.348 N 
HETATM   35  C14 UNL     1      -3.629   1.940  -0.873  1.00  0.00     0.138 C 
HETATM   36  C15 UNL     1      -5.029   2.109  -1.365  1.00  0.00    -0.030 C 
HETATM   37  C16 UNL     1      -6.000   2.528  -0.277  1.00  0.00     0.016 C 
HETATM   38  C17 UNL     1      -5.014   3.308  -2.341  1.00  0.00     0.016 C 
HETATM   39  C18 UNL     1      -5.615   0.987  -2.133  1.00  0.00     0.028 C 
HETATM   40  C19 UNL     1      -5.264  -0.380  -1.737  1.00  0.00     0.106 C 
HETATM   41  C20 UNL     1      -6.272  -1.153  -0.987  1.00  0.00     0.137 C 
HETATM   42  C24 UNL     1      -3.984  -0.508  -0.984  1.00  0.00     0.019 C 
HETATM   43  O4  UNL     1      -7.263  -0.685  -0.498  1.00  0.00    -0.297 OA
HETATM   44  C21 UNL     1      -6.013  -2.613  -0.848  1.00  0.00     0.083 C 
HETATM   45  C22 UNL     1      -4.544  -2.926  -1.102  1.00  0.00     0.036 C 
HETATM   46  C23 UNL     1      -3.677  -1.786  -0.716  1.00  0.00    -0.001 C 
ENDBRANCH   4  34
TORSDOF 13
