REMARK  2 active torsions:
REMARK  status: ('A' for Active; 'I' for Inactive)
REMARK    1  A    between atoms: C3_3  and  C4_4 
REMARK    2  A    between atoms: C7_10  and  N2_11 
ROOT
HETATM    1  C1  UNL     1      -1.774   1.437   0.495  1.00  0.00     0.055 C 
HETATM    2  C2  UNL     1      -1.405   0.209  -0.264  1.00  0.00     0.016 A 
HETATM    3  C3  UNL     1      -0.095  -0.281  -0.237  1.00  0.00     0.046 A 
HETATM    4  N1  UNL     1      -0.162  -1.460  -0.909  1.00  0.00    -0.262 N 
ATOM      5  H1  UNL     1       0.623  -2.089  -1.078  1.00  0.00     0.194 HD
HETATM    6  O1  UNL     1      -1.381  -1.660  -1.301  1.00  0.00    -0.220 OA
HETATM    7  C7  UNL     1      -2.181  -0.665  -0.931  1.00  0.00     0.172 A 
ENDROOT
BRANCH   3   8
HETATM    8  C4  UNL     1       1.087   0.336   0.358  1.00  0.00     0.030 C 
HETATM    9  C5  UNL     1       1.728  -0.728   1.322  1.00  0.00     0.016 C 
HETATM   10  C6  UNL     1       2.264   0.423  -0.672  1.00  0.00     0.016 C 
ENDBRANCH   3   8
BRANCH   7  11
HETATM   11  N2  UNL     1      -3.467  -0.577  -1.170  1.00  0.00    -0.378 N 
ATOM     12  H22 UNL     1      -4.081   0.187  -0.886  1.00  0.00     0.158 HD
ATOM     13  H21 UNL     1      -4.055  -1.239  -1.676  1.00  0.00     0.158 HD
ENDBRANCH   7  11
TORSDOF 2
