REMARK  2 active torsions:
REMARK  status: ('A' for Active; 'I' for Inactive)
REMARK    1  A    between atoms: N1_1  and  C1_5 
REMARK    2  A    between atoms: C1_5  and  C2_6 
ROOT
HETATM    1  C2  UNL     1      -1.020   0.204  -0.290  1.00  0.00    -0.031 A 
HETATM    2  C3  UNL     1      -0.701   1.443   0.232  1.00  0.00     0.011 A 
HETATM    3  C4  UNL     1       0.604   1.723   0.528  1.00  0.00     0.032 A 
HETATM    4  C5  UNL     1       1.614   0.793   0.317  1.00  0.00     0.060 A 
HETATM    5  N2  UNL     1       2.949   0.809   0.517  1.00  0.00    -0.351 N 
ATOM      6  H2  UNL     1       3.490   1.587   0.894  1.00  0.00     0.166 HD
HETATM    7  C6  UNL     1       3.439  -0.384   0.131  1.00  0.00     0.181 A 
HETATM    8  N3  UNL     1       2.450  -1.175  -0.316  1.00  0.00    -0.350 N 
ATOM      9  H3  UNL     1       2.538  -2.128  -0.669  1.00  0.00     0.166 HD
HETATM   10  C7  UNL     1       1.312  -0.449  -0.203  1.00  0.00     0.060 A 
HETATM   11  C8  UNL     1      -0.019  -0.722  -0.500  1.00  0.00     0.040 A 
ENDROOT
BRANCH   1  12
HETATM   12  C1  UNL     1      -2.428  -0.173  -0.638  1.00  0.00     0.268 C 
BRANCH  12  13
HETATM   13  N1  UNL     1      -3.081  -0.784   0.511  1.00  0.00    -0.075 N 
ATOM     14  H13 UNL     1      -2.552  -1.577   0.873  1.00  0.00     0.274 HD
ATOM     15  H12 UNL     1      -3.039  -0.186   1.336  1.00  0.00     0.274 HD
ATOM     16  H11 UNL     1      -4.039  -1.041   0.274  1.00  0.00     0.274 HD
ENDBRANCH  12  13
ENDBRANCH   1  12
TORSDOF 2
