REMARK  2 active torsions:
REMARK  status: ('A' for Active; 'I' for Inactive)
REMARK    1  A    between atoms: C4_4  and  C5_5 
REMARK    2  A    between atoms: C8_10  and  N2_11 
ROOT
HETATM    1  C1  UNL     1       2.839  -0.850  -1.258  1.00  0.00     0.068 C 
HETATM    2  C2  UNL     1       1.822   0.010  -0.597  1.00  0.00     0.024 A 
HETATM    3  C3  UNL     1       0.534  -0.415  -0.344  1.00  0.00     0.051 A 
HETATM    4  C4  UNL     1      -0.416   0.373   0.268  1.00  0.00     0.032 A 
HETATM    5  N1  UNL     1      -0.061   1.607   0.630  1.00  0.00    -0.195 N 
ATOM      6  H1  UNL     1      -0.741   2.216   1.085  1.00  0.00     0.184 HD
HETATM    7  C8  UNL     1       1.197   2.060   0.398  1.00  0.00     0.676 A 
HETATM    8  N3  UNL     1       2.115   1.275  -0.203  1.00  0.00    -0.196 N 
ATOM      9  H3  UNL     1       3.053   1.642  -0.365  1.00  0.00     0.184 HD
ENDROOT
BRANCH   4  10
HETATM   10  C5  UNL     1      -1.781  -0.154   0.507  1.00  0.00     0.028 C 
HETATM   11  C6  UNL     1      -2.394  -0.559  -0.813  1.00  0.00     0.016 C 
HETATM   12  C7  UNL     1      -1.681  -1.399   1.366  1.00  0.00     0.016 C 
ENDBRANCH   4  10
BRANCH   7  13
HETATM   13  N2  UNL     1       1.466   3.272   0.779  1.00  0.00    -0.234 N 
ATOM     14  H22 UNL     1       0.772   3.865   1.233  1.00  0.00     0.174 HD
ATOM     15  H21 UNL     1       2.412   3.612   0.605  1.00  0.00     0.174 HD
ENDBRANCH   7  13
TORSDOF 2
