REMARK  1 active torsions:
REMARK  status: ('A' for Active; 'I' for Inactive)
REMARK    1  A    between atoms: C2_2  and  C3_3 
ROOT
HETATM    1  C3  UNL     1       0.481   0.274   0.072  1.00  0.00     0.187 C 
HETATM    2  C4  UNL     1      -0.363   1.272  -0.656  1.00  0.00     0.060 C 
HETATM    3  C5  UNL     1      -1.769   1.366  -0.193  1.00  0.00     0.234 C 
HETATM    4  N1  UNL     1      -2.268   0.233   0.506  1.00  0.00    -0.073 N 
ATOM      5  H11 UNL     1      -3.234   0.388   0.793  1.00  0.00     0.277 HD
ATOM      6  H12 UNL     1      -1.825   0.155   1.421  1.00  0.00     0.277 HD
HETATM    7  C6  UNL     1      -2.152  -0.996  -0.211  1.00  0.00     0.259 C 
HETATM    8  C7  UNL     1      -0.867  -1.672   0.283  1.00  0.00     0.260 C 
HETATM    9  N2  UNL     1       0.268  -1.084  -0.384  1.00  0.00    -0.069 N 
ATOM     10  H21 UNL     1       1.107  -1.655  -0.278  1.00  0.00     0.277 HD
ATOM     11  H22 UNL     1       0.177  -1.133  -1.399  1.00  0.00     0.277 HD
ENDROOT
BRANCH   1  12
HETATM   12  C2  UNL     1       1.938   0.663  -0.200  1.00  0.00     0.028 C 
HETATM   13  C1  UNL     1       2.906  -0.250   0.468  1.00  0.00     0.007 C 
ENDBRANCH   1  12
TORSDOF 1
