REMARK  2 active torsions:
REMARK  status: ('A' for Active; 'I' for Inactive)
REMARK    1  A    between atoms: C6_9  and  C7_10 
REMARK    2  A    between atoms: C7_10  and  N2_11 
ROOT
HETATM    1  C1  UNL     1      -1.027   1.571  -0.495  1.00  0.00     0.040 C 
HETATM    2  C2  UNL     1      -0.697   0.746   0.720  1.00  0.00     0.187 C 
HETATM    3  N1  UNL     1      -1.729  -0.216   1.035  1.00  0.00    -0.071 N 
ATOM      4  H11 UNL     1      -2.607   0.243   1.276  1.00  0.00     0.277 HD
ATOM      5  H12 UNL     1      -1.547  -0.683   1.923  1.00  0.00     0.277 HD
HETATM    6  C3  UNL     1      -1.903  -1.157  -0.026  1.00  0.00     0.232 C 
HETATM    7  C4  UNL     1      -0.676  -1.839  -0.489  1.00  0.00     0.028 C 
HETATM    8  C5  UNL     1       0.613  -1.178  -0.227  1.00  0.00     0.010 C 
HETATM    9  C6  UNL     1       0.603   0.032   0.619  1.00  0.00     0.041 C 
ENDROOT
BRANCH   9  10
HETATM   10  C7  UNL     1       1.654   1.032   0.131  1.00  0.00     0.236 C 
BRANCH  10  11
HETATM   11  N2  UNL     1       2.893   0.320   0.043  1.00  0.00    -0.079 N 
ATOM     12  H23 UNL     1       3.153  -0.144   0.914  1.00  0.00     0.274 HD
ATOM     13  H22 UNL     1       2.835  -0.517  -0.537  1.00  0.00     0.274 HD
ATOM     14  H21 UNL     1       3.593   0.986  -0.282  1.00  0.00     0.274 HD
ENDBRANCH  10  11
ENDBRANCH   9  10
TORSDOF 2
