REMARK  2 active torsions:
REMARK  status: ('A' for Active; 'I' for Inactive)
REMARK    1  A    between atoms: N1_1  and  C1_5 
REMARK    2  A    between atoms: C4_11  and  C5_12 
ROOT
HETATM    1  C1  UNL     1      -1.648  -0.264   0.679  1.00  0.00     0.187 C 
HETATM    2  C2  UNL     1      -2.023   0.270  -0.668  1.00  0.00     0.060 C 
HETATM    3  C3  UNL     1      -1.086  -0.270  -1.723  1.00  0.00     0.235 C 
HETATM    4  N2  UNL     1       0.265  -0.410  -1.228  1.00  0.00    -0.070 N 
ATOM      5  H21 UNL     1       0.946  -0.347  -1.985  1.00  0.00     0.277 HD
ATOM      6  H22 UNL     1       0.452  -1.365  -0.924  1.00  0.00     0.277 HD
HETATM    7  C4  UNL     1       0.557   0.548  -0.173  1.00  0.00     0.192 C 
HETATM    8  C8  UNL     1      -0.278   0.291   1.059  1.00  0.00     0.066 C 
ENDROOT
BRANCH   1   9
HETATM    9  N1  UNL     1      -2.592   0.159   1.684  1.00  0.00    -0.075 N 
ATOM     10  H13 UNL     1      -2.698   1.173   1.698  1.00  0.00     0.274 HD
ATOM     11  H12 UNL     1      -3.548  -0.093   1.432  1.00  0.00     0.274 HD
ATOM     12  H11 UNL     1      -2.336  -0.205   2.602  1.00  0.00     0.274 HD
ENDBRANCH   1   9
BRANCH   7  13
HETATM   13  C5  UNL     1       2.031   0.474   0.095  1.00  0.00     0.016 A 
HETATM   14  C6  UNL     1       2.669  -0.791   0.543  1.00  0.00     0.007 A 
HETATM   15  C7  UNL     1       2.603   0.482   1.442  1.00  0.00     0.007 A 
ENDBRANCH   7  13
TORSDOF 2
