REMARK  2 active torsions:
REMARK  status: ('A' for Active; 'I' for Inactive)
REMARK    1  A    between atoms: C2_2  and  C3_3 
REMARK    2  A    between atoms: C6_9  and  N2_10 
ROOT
HETATM    1  C3  UNL     1       0.398  -0.259   0.094  1.00  0.00     0.018 A 
HETATM    2  C4  UNL     1       0.815   1.008  -0.294  1.00  0.00     0.082 A 
HETATM    3  C5  UNL     1       0.165   2.271   0.145  1.00  0.00     0.079 C 
HETATM    4  O1  UNL     1       1.843   0.821  -1.081  1.00  0.00    -0.240 OA
HETATM    5  N1  UNL     1       2.109  -0.465  -1.223  1.00  0.00    -0.245 N 
ATOM      6  H1  UNL     1       2.864  -0.853  -1.789  1.00  0.00     0.196 HD
HETATM    7  C6  UNL     1       1.238  -1.173  -0.512  1.00  0.00     0.128 A 
ENDROOT
BRANCH   7   8
HETATM    8  N2  UNL     1       1.149  -2.472  -0.379  1.00  0.00    -0.384 N 
ATOM      9  H22 UNL     1       0.480  -3.016   0.167  1.00  0.00     0.157 HD
ATOM     10  H21 UNL     1       1.769  -3.147  -0.826  1.00  0.00     0.157 HD
ENDBRANCH   7   8
BRANCH   1  11
HETATM   11  C2  UNL     1      -0.730  -0.597   0.978  1.00  0.00     0.040 C 
HETATM   12  C1  UNL     1      -2.003  -0.427   0.139  1.00  0.00     0.010 C 
ENDBRANCH   1  11
TORSDOF 2
