REMARK  4 active torsions:
REMARK  status: ('A' for Active; 'I' for Inactive)
REMARK    1  A    between atoms: C4_11  and  N4_12 
REMARK    2  A    between atoms: N4_12  and  C5_14 
REMARK    3  A    between atoms: C5_14  and  C7_17 
REMARK    4  A    between atoms: C7_17  and  C8_18 
ROOT
HETATM    1  C5  UNL     1      -0.171   0.091  -0.080  1.00  0.00     0.211 C 
HETATM    2  C6  UNL     1       0.149   1.027  -1.137  1.00  0.00     0.085 C 
HETATM    3  N5  UNL     1       0.374   1.814  -1.977  1.00  0.00    -0.195 NA
ENDROOT
BRANCH   1   4
HETATM    4  N4  UNL     1      -1.477  -0.479  -0.274  1.00  0.00    -0.208 N 
ATOM      5  H4  UNL     1      -1.548  -1.380  -0.746  1.00  0.00     0.179 HD
BRANCH   4   6
HETATM    6  C4  UNL     1      -2.550   0.089   0.116  1.00  0.00     0.689 A 
HETATM    7  N1  UNL     1      -3.724  -0.565  -0.133  1.00  0.00    -0.137 N 
HETATM    8  C1  UNL     1      -3.659  -1.824  -0.831  1.00  0.00     0.180 C 
HETATM    9  C2  UNL     1      -4.903  -0.039   0.256  1.00  0.00     0.344 A 
HETATM   10  O1  UNL     1      -5.980  -0.665   0.012  1.00  0.00    -0.246 OA
HETATM   11  N2  UNL     1      -4.902   1.156   0.900  1.00  0.00    -0.259 N 
HETATM   12  C3  UNL     1      -3.770   1.821   1.157  1.00  0.00     0.342 A 
ATOM     13  H2  UNL     1      -5.791   1.559   1.197  1.00  0.00     0.175 HD
HETATM   14  O2  UNL     1      -3.759   2.924   1.751  1.00  0.00    -0.246 OA
HETATM   15  N3  UNL     1      -2.602   1.270   0.756  1.00  0.00    -0.141 N 
ATOM     16  H3  UNL     1      -1.732   1.767   0.945  1.00  0.00     0.189 HD
ENDBRANCH   4   6
ENDBRANCH   1   4
BRANCH   1  17
HETATM   17  C7  UNL     1       0.866  -0.993   0.039  1.00  0.00     0.081 C 
BRANCH  17  18
HETATM   18  C8  UNL     1       2.246  -0.550   0.222  1.00  0.00    -0.031 A 
HETATM   19  C9  UNL     1       2.638  -0.227   1.537  1.00  0.00     0.011 A 
HETATM   20  C10 UNL     1       3.904   0.272   1.737  1.00  0.00     0.023 A 
HETATM   21  C11 UNL     1       4.759   0.450   0.670  1.00  0.00     0.046 A 
HETATM   22  C12 UNL     1       6.093   0.979   0.906  1.00  0.00     0.099 C 
HETATM   23  C13 UNL     1       4.370   0.134  -0.612  1.00  0.00     0.049 A 
HETATM   24  N6  UNL     1       7.145   1.418   1.083  1.00  0.00    -0.191 NA
HETATM   25  C14 UNL     1       3.095  -0.376  -0.844  1.00  0.00     0.054 A 
HETATM   26  N7  UNL     1       2.754  -0.759  -2.191  1.00  0.00    -0.102 NA
ENDBRANCH  17  18
ENDBRANCH   1  17
TORSDOF 4
