REMARK  4 active torsions:
REMARK  status: ('A' for Active; 'I' for Inactive)
REMARK    1  A    between atoms: C3_4  and  C4_5 
REMARK    2  A    between atoms: N2_7  and  S1_8 
REMARK    3  A    between atoms: S1_8  and  N3_11 
REMARK    4  A    between atoms: C10_18  and  N5_19 
ROOT
HETATM    1  N1  UNL     1       6.242   2.345   3.108  1.00  0.00    -0.192 NA
HETATM    2  C1  UNL     1       5.689   1.893   2.215  1.00  0.00     0.087 C 
HETATM    3  C2  UNL     1       4.966   1.332   1.056  1.00  0.00     0.094 C 
HETATM    4  C3  UNL     1       3.800   0.817   1.293  1.00  0.00     0.029 C 
ENDROOT
BRANCH   4   5
HETATM    5  C4  UNL     1       2.946   0.223   0.299  1.00  0.00     0.050 A 
HETATM    6  C5  UNL     1       1.716  -0.286   0.731  1.00  0.00     0.146 A 
HETATM    7  N2  UNL     1       0.837  -0.861  -0.100  1.00  0.00    -0.069 N 
HETATM    8  C10 UNL     1       1.154  -0.950  -1.395  1.00  0.00     0.695 A 
HETATM    9  N6  UNL     1       2.302  -0.489  -1.879  1.00  0.00    -0.155 N 
HETATM   10  C11 UNL     1       3.193   0.095  -1.033  1.00  0.00     0.271 A 
ATOM     11  H6  UNL     1       2.513  -0.572  -2.873  1.00  0.00     0.187 HD
HETATM   12  O3  UNL     1       4.261   0.516  -1.521  1.00  0.00    -0.267 OA
BRANCH   7  13
HETATM   13  S1  UNL     1      -0.637  -1.460   0.485  1.00  0.00     0.323 S 
HETATM   14  O1  UNL     1      -0.729  -1.282   1.983  1.00  0.00    -0.187 OA
HETATM   15  O2  UNL     1      -0.726  -2.924   0.212  1.00  0.00    -0.187 OA
BRANCH  13  16
HETATM   16  N3  UNL     1      -1.953  -0.602  -0.282  1.00  0.00    -0.189 NA
HETATM   17  C6  UNL     1      -1.889   0.772   0.030  1.00  0.00     0.128 C 
HETATM   18  C7  UNL     1      -3.160   1.508   0.158  1.00  0.00     0.129 C 
HETATM   19  N4  UNL     1      -4.333   0.751   0.368  1.00  0.00    -0.419 N 
HETATM   20  C8  UNL     1      -4.400  -0.510  -0.281  1.00  0.00     0.129 C 
ATOM     21  H4  UNL     1      -5.093   1.092   0.956  1.00  0.00     0.153 HD
HETATM   22  C9  UNL     1      -3.150  -1.282   0.054  1.00  0.00     0.128 C 
ENDBRANCH  13  16
ENDBRANCH   7  13
BRANCH   8  23
HETATM   23  N5  UNL     1       0.297  -1.505  -2.175  1.00  0.00    -0.233 N 
ATOM     24  H52 UNL     1      -0.584  -1.859  -1.803  1.00  0.00     0.174 HD
ATOM     25  H51 UNL     1       0.539  -1.573  -3.164  1.00  0.00     0.174 HD
ENDBRANCH   8  23
ENDBRANCH   4   5
TORSDOF 4
