REMARK  4 active torsions:
REMARK  status: ('A' for Active; 'I' for Inactive)
REMARK    1  A    between atoms: N2_5  and  C4_6 
REMARK    2  A    between atoms: N4_16  and  C10_17 
REMARK    3  A    between atoms: C10_17  and  C11_18 
REMARK    4  A    between atoms: C12_21  and  N6_22 
ROOT
HETATM    1  N1  UNL     1       1.262  -4.541  -1.644  1.00  0.00    -0.191 NA
HETATM    2  C1  UNL     1       1.048  -3.487  -1.191  1.00  0.00     0.104 C 
HETATM    3  C2  UNL     1       0.778  -2.196  -0.623  1.00  0.00     0.104 A 
HETATM    4  C3  UNL     1      -0.494  -1.641  -0.597  1.00  0.00     0.128 A 
HETATM    5  N2  UNL     1      -0.718  -0.427  -0.058  1.00  0.00    -0.273 N 
HETATM    6  C9  UNL     1       0.282   0.279   0.468  1.00  0.00     0.335 A 
HETATM    7  O2  UNL     1       0.090   1.416   0.976  1.00  0.00    -0.246 OA
HETATM    8  N4  UNL     1       1.538  -0.202   0.475  1.00  0.00    -0.278 N 
HETATM    9  C12 UNL     1       1.780  -1.416  -0.061  1.00  0.00     0.128 A 
ENDROOT
BRANCH   9  10
HETATM   10  N6  UNL     1       2.999  -1.891  -0.059  1.00  0.00    -0.384 N 
ATOM     11  H62 UNL     1       3.182  -2.809  -0.464  1.00  0.00     0.157 HD
ATOM     12  H61 UNL     1       3.735  -1.318   0.354  1.00  0.00     0.157 HD
ENDBRANCH   9  10
BRANCH   5  13
HETATM   13  C4  UNL     1      -2.039   0.092  -0.058  1.00  0.00     0.050 A 
HETATM   14  C5  UNL     1      -2.583   0.433   1.157  1.00  0.00     0.047 A 
HETATM   15  C6  UNL     1      -3.854   0.933   1.162  1.00  0.00     0.093 A 
HETATM   16  N3  UNL     1      -4.527   1.078   0.005  1.00  0.00    -0.334 N 
HETATM   17  C7  UNL     1      -4.007   0.750  -1.185  1.00  0.00     0.247 A 
ATOM     18  H3  UNL     1      -5.475   1.454   0.036  1.00  0.00     0.168 HD
HETATM   19  O1  UNL     1      -4.674   0.903  -2.242  1.00  0.00    -0.268 OA
HETATM   20  C8  UNL     1      -2.729   0.243  -1.230  1.00  0.00     0.104 A 
ENDBRANCH   5  13
BRANCH   8  21
HETATM   21  C10 UNL     1       2.635   0.562   1.047  1.00  0.00     0.202 C 
BRANCH  21  22
HETATM   22  C11 UNL     1       3.254   1.428  -0.008  1.00  0.00     0.109 C 
HETATM   23  N5  UNL     1       4.342   2.258   0.333  1.00  0.00    -0.093 NA
HETATM   24  S1  UNL     1       2.661   1.398  -1.526  1.00  0.00    -0.067 SA
ENDBRANCH  21  22
ENDBRANCH   8  21
TORSDOF 4
