REMARK  5 active torsions:
REMARK  status: ('A' for Active; 'I' for Inactive)
REMARK    1  A    between atoms: N1_1  and  N2_4 
REMARK    2  A    between atoms: C2_6  and  N3_7 
REMARK    3  A    between atoms: C4_11  and  S1_12 
REMARK    4  A    between atoms: S1_12  and  N4_15 
REMARK    5  A    between atoms: N4_15  and  C5_17 
ROOT
HETATM    1  S1  UNL     1       0.043  -0.794   0.013  1.00  0.00     0.294 S 
HETATM    2  O3  UNL     1      -0.241  -1.828  -1.062  1.00  0.00    -0.198 OA
HETATM    3  O4  UNL     1      -0.209  -1.396   1.364  1.00  0.00    -0.198 OA
ENDROOT
BRANCH   1   4
HETATM    4  C4  UNL     1       1.739  -0.367  -0.056  1.00  0.00     0.173 A 
HETATM    5  N2  UNL     1       2.733  -1.228   0.134  1.00  0.00    -0.259 N 
HETATM    6  C1  UNL     1       3.871  -0.561   0.008  1.00  0.00     0.153 A 
HETATM    7  C2  UNL     1       3.615   0.767  -0.271  1.00  0.00     0.123 A 
HETATM    8  C3  UNL     1       2.260   0.882  -0.310  1.00  0.00     0.083 A 
BRANCH   5   9
HETATM    9  N1  UNL     1       2.614  -2.586   0.415  1.00  0.00    -0.338 N 
ATOM     10  H12 UNL     1       3.377  -3.247   0.561  1.00  0.00     0.177 HD
ATOM     11  H11 UNL     1       1.738  -3.099   0.512  1.00  0.00     0.177 HD
ENDBRANCH   5   9
BRANCH   7  12
HETATM   12  N3  UNL     1       4.601   1.795  -0.473  1.00  0.00    -0.114 N 
HETATM   13  O1  UNL     1       5.808   1.505  -0.399  1.00  0.00    -0.532 OA
HETATM   14  O2  UNL     1       4.179   3.070  -0.744  1.00  0.00    -0.532 OA
ENDBRANCH   7  12
ENDBRANCH   1   4
BRANCH   1  15
HETATM   15  N4  UNL     1      -0.917   0.580  -0.284  1.00  0.00    -0.111 N 
ATOM     16  H4  UNL     1      -0.460   1.472  -0.474  1.00  0.00     0.197 HD
BRANCH  15  17
HETATM   17  C5  UNL     1      -2.204   0.527  -0.276  1.00  0.00     0.694 A 
HETATM   18  N5  UNL     1      -2.904   1.663  -0.521  1.00  0.00    -0.201 N 
HETATM   19  C6  UNL     1      -4.245   1.658  -0.523  1.00  0.00     0.111 A 
ATOM     20  H5  UNL     1      -2.404   2.532  -0.706  1.00  0.00     0.183 HD
HETATM   21  C7  UNL     1      -4.970   0.507  -0.279  1.00  0.00     0.092 A 
HETATM   22  C8  UNL     1      -4.219  -0.625  -0.034  1.00  0.00     0.260 A 
HETATM   23  O5  UNL     1      -4.822  -1.710   0.197  1.00  0.00    -0.268 OA
HETATM   24  N6  UNL     1      -2.867  -0.614  -0.033  1.00  0.00    -0.155 N 
ATOM     25  H6  UNL     1      -2.351  -1.474   0.153  1.00  0.00     0.187 HD
ENDBRANCH  15  17
ENDBRANCH   1  15
TORSDOF 5
