REMARK  4 active torsions:
REMARK  status: ('A' for Active; 'I' for Inactive)
REMARK    1  A    between atoms: N1_1  and  C1_4 
REMARK    2  A    between atoms: C3_9  and  C4_10 
REMARK    3  A    between atoms: N5_23  and  C10_24 
REMARK    4  A    between atoms: C10_24  and  C11_25 
ROOT
HETATM    1  C1  UNL     1      -2.791   0.036  -1.278  1.00  0.00     0.681 A 
HETATM    2  N2  UNL     1      -1.992   0.739  -2.081  1.00  0.00    -0.155 N 
ATOM      3  H2  UNL     1      -2.354   1.021  -2.992  1.00  0.00     0.187 HD
HETATM    4  C2  UNL     1      -0.755   1.093  -1.764  1.00  0.00     0.271 A 
HETATM    5  O1  UNL     1      -0.049   1.762  -2.577  1.00  0.00    -0.267 OA
HETATM    6  C3  UNL     1      -0.248   0.712  -0.513  1.00  0.00     0.050 A 
HETATM    7  C9  UNL     1      -1.058  -0.011   0.326  1.00  0.00     0.126 A 
HETATM    8  N5  UNL     1      -2.294  -0.326  -0.075  1.00  0.00    -0.186 N 
ENDROOT
BRANCH   6   9
HETATM    9  C4  UNL     1       1.083   1.185  -0.196  1.00  0.00     0.041 C 
HETATM   10  C5  UNL     1       2.147   0.486   0.092  1.00  0.00     0.101 A 
HETATM   11  C6  UNL     1       2.269  -0.949   0.160  1.00  0.00     0.263 A 
HETATM   12  C8  UNL     1       3.379   1.243   0.428  1.00  0.00     0.263 A 
HETATM   13  O2  UNL     1       1.307  -1.690  -0.104  1.00  0.00    -0.267 OA
HETATM   14  N3  UNL     1       3.500  -1.560   0.529  1.00  0.00    -0.299 N 
HETATM   15  C7  UNL     1       4.662  -0.834   0.846  1.00  0.00     0.181 A 
ATOM     16  H3  UNL     1       3.542  -2.578   0.566  1.00  0.00     0.171 HD
HETATM   17  S1  UNL     1       6.053  -1.569   1.264  1.00  0.00    -0.040 SA
HETATM   18  N4  UNL     1       4.593   0.585   0.793  1.00  0.00    -0.299 N 
ATOM     19  H4  UNL     1       5.419   1.139   1.018  1.00  0.00     0.171 HD
HETATM   20  O3  UNL     1       3.338   2.499   0.386  1.00  0.00    -0.267 OA
ENDBRANCH   6   9
BRANCH   8  21
HETATM   21  C10 UNL     1      -3.127  -1.089   0.827  1.00  0.00     0.216 C 
BRANCH  21  22
HETATM   22  C11 UNL     1      -3.884  -0.129   1.682  1.00  0.00     0.251 C 
HETATM   23  O4  UNL     1      -4.979   0.280   1.321  1.00  0.00    -0.305 OA
ENDBRANCH  21  22
ENDBRANCH   8  21
BRANCH   1  24
HETATM   24  N1  UNL     1      -3.996  -0.315  -1.576  1.00  0.00    -0.234 N 
ATOM     25  H12 UNL     1      -4.371  -0.042  -2.484  1.00  0.00     0.174 HD
ATOM     26  H11 UNL     1      -4.607  -0.853  -0.962  1.00  0.00     0.174 HD
ENDBRANCH   1  24
TORSDOF 4
