REMARK  14 active torsions:
REMARK  status: ('A' for Active; 'I' for Inactive)
REMARK    1  A    between atoms: N1_2  and  C2_5 
REMARK    2  A    between atoms: C4_8  and  C5_9 
REMARK    3  A    between atoms: C5_9  and  S1_10 
REMARK    4  A    between atoms: S1_10  and  C6_11 
REMARK    5  A    between atoms: C7_16  and  C8_17 
REMARK    6  A    between atoms: C8_17  and  N4_18 
REMARK    7  A    between atoms: C9_22  and  C10_23 
REMARK       I    between atoms: C10_23  and  N7_25 
REMARK    8  A    between atoms: N7_25  and  N8_27 
REMARK    9  A    between atoms: C11_30  and  N9_31 
REMARK   10  A    between atoms: N10_34  and  C12_35 
REMARK   11  A    between atoms: C12_35  and  N11_37 
REMARK   12  A    between atoms: N11_37  and  O3_39 
REMARK   13  A    between atoms: C15_45  and  N13_46 
REMARK   14  A    between atoms: C16_50  and  N14_51 
ROOT
HETATM    1  C6  UNL     1       0.055  -1.253  -1.617  1.00  0.00     0.168 A 
HETATM    2  N2  UNL     1       0.253  -0.290  -2.553  1.00  0.00    -0.278 N 
ATOM      3  H2  UNL     1      -0.474   0.300  -2.957  1.00  0.00     0.189 HD
HETATM    4  N3  UNL     1       1.531  -0.239  -2.856  1.00  0.00    -0.285 N 
ATOM      5  H3  UNL     1       1.955   0.397  -3.532  1.00  0.00     0.188 HD
HETATM    6  C7  UNL     1       2.188  -1.158  -2.133  1.00  0.00     0.125 A 
HETATM    7  N10 UNL     1       1.267  -1.775  -1.374  1.00  0.00    -0.265 N 
ENDROOT
BRANCH   1   8
HETATM    8  S1  UNL     1      -1.506  -1.734  -0.886  1.00  0.00    -0.087 SA
BRANCH   8   9
HETATM    9  C5  UNL     1      -1.860  -0.726   0.576  1.00  0.00     0.154 C 
BRANCH   9  10
HETATM   10  C4  UNL     1      -3.113  -1.012   1.277  1.00  0.00     0.272 C 
HETATM   11  O1  UNL     1      -3.246  -0.181   2.379  1.00  0.00    -0.350 OA
HETATM   12  C3  UNL     1      -3.337   1.114   1.904  1.00  0.00     0.206 C 
HETATM   13  C2  UNL     1      -4.253   1.438   0.815  1.00  0.00     0.242 C 
HETATM   14  C16 UNL     1      -4.617   0.295  -0.145  1.00  0.00     0.258 C 
HETATM   15  C15 UNL     1      -4.468  -0.909   0.669  1.00  0.00     0.234 C 
HETATM   16  C14 UNL     1      -4.291  -2.270   0.271  1.00  0.00     0.282 C 
HETATM   17  N12 UNL     1      -3.359  -2.393   1.380  1.00  0.00    -0.037 N 
ATOM     18 2H12 UNL     1      -2.591  -3.063   1.342  1.00  0.00     0.281 HD
ATOM     19 1H12 UNL     1      -3.655  -2.804   2.265  1.00  0.00     0.281 HD
BRANCH  13  20
HETATM   20  N1  UNL     1      -3.679   2.553   0.037  1.00  0.00    -0.071 N 
HETATM   21  C1  UNL     1      -3.612   3.673   0.988  1.00  0.00     0.267 C 
ATOM     22  H12 UNL     1      -4.188   2.766  -0.821  1.00  0.00     0.277 HD
ATOM     23  H11 UNL     1      -2.789   2.333  -0.410  1.00  0.00     0.277 HD
ENDBRANCH  13  20
BRANCH  14  24
HETATM   24  N14 UNL     1      -3.937   0.377  -1.386  1.00  0.00    -0.070 N 
ATOM     25 3H14 UNL     1      -4.090   1.285  -1.826  1.00  0.00     0.274 HD
ATOM     26 2H14 UNL     1      -2.928   0.428  -1.246  1.00  0.00     0.274 HD
ATOM     27 1H14 UNL     1      -4.179  -0.382  -2.023  1.00  0.00     0.274 HD
ENDBRANCH  14  24
BRANCH  15  28
HETATM   28  N13 UNL     1      -5.491  -0.869   1.747  1.00  0.00    -0.062 N 
ATOM     29 3H13 UNL     1      -5.413  -1.662   2.383  1.00  0.00     0.275 HD
ATOM     30 2H13 UNL     1      -5.313  -0.124   2.421  1.00  0.00     0.275 HD
ATOM     31 1H13 UNL     1      -6.419  -0.798   1.330  1.00  0.00     0.275 HD
ENDBRANCH  15  28
ENDBRANCH   9  10
ENDBRANCH   8   9
ENDBRANCH   1   8
BRANCH   7  32
HETATM   32  C12 UNL     1       1.497  -2.849  -0.439  1.00  0.00     0.107 C 
HETATM   33  C13 UNL     1       1.664  -2.551   0.998  1.00  0.00     0.091 C 
BRANCH  32  34
HETATM   34  N11 UNL     1       1.551  -4.070  -0.891  1.00  0.00    -0.257 N 
ATOM     35  H11 UNL     1       1.433  -4.257  -1.887  1.00  0.00     0.195 HD
BRANCH  34  36
HETATM   36  O3  UNL     1       1.768  -5.097  -0.016  1.00  0.00    -0.288 OA
ATOM     37  H3  UNL     1       1.807  -5.987  -0.346  1.00  0.00     0.244 HD
ENDBRANCH  34  36
ENDBRANCH  32  34
ENDBRANCH   7  32
BRANCH   6  38
HETATM   38  C8  UNL     1       3.627  -1.409  -2.213  1.00  0.00     0.227 C 
BRANCH  38  39
HETATM   39  N4  UNL     1       4.406  -0.518  -1.382  1.00  0.00    -0.252 N 
HETATM   40  N5  UNL     1       4.783  -0.652  -0.117  1.00  0.00    -0.018 NA
HETATM   41  N6  UNL     1       5.497   0.408   0.277  1.00  0.00    -0.276 N 
HETATM   42  C9  UNL     1       5.599   1.263  -0.737  1.00  0.00     0.160 A 
ATOM     43  H6  UNL     1       5.899   0.540   1.205  1.00  0.00     0.184 HD
HETATM   44  C11 UNL     1       4.906   0.680  -1.799  1.00  0.00     0.148 A 
BRANCH  42  45
HETATM   45  C10 UNL     1       6.284   2.562  -0.790  1.00  0.00     0.291 C 
HETATM   46  O2  UNL     1       6.267   3.228  -1.857  1.00  0.00    -0.264 OA
HETATM   47  N7  UNL     1       6.968   3.088   0.335  1.00  0.00    -0.271 N 
ATOM     48  H7  UNL     1       6.987   2.556   1.205  1.00  0.00     0.189 HD
BRANCH  47  49
HETATM   49  N8  UNL     1       7.611   4.315   0.271  1.00  0.00    -0.342 N 
ATOM     50  H82 UNL     1       7.582   4.834  -0.606  1.00  0.00     0.176 HD
ATOM     51  H81 UNL     1       8.103   4.693   1.080  1.00  0.00     0.176 HD
ENDBRANCH  47  49
ENDBRANCH  42  45
BRANCH  44  52
HETATM   52  N9  UNL     1       4.780   1.192  -2.966  1.00  0.00    -0.382 N 
ATOM     53  H92 UNL     1       4.274   0.766  -3.742  1.00  0.00     0.157 HD
ATOM     54  H91 UNL     1       5.154   2.088  -3.278  1.00  0.00     0.157 HD
ENDBRANCH  44  52
ENDBRANCH  38  39
ENDBRANCH   6  38
TORSDOF 14
