REMARK  12 active torsions:
REMARK  status: ('A' for Active; 'I' for Inactive)
REMARK       I    between atoms: N1_2  and  C2_4 
REMARK       I    between atoms: C2_4  and  N2_5 
REMARK    1  A    between atoms: N3_7  and  N4_9 
REMARK    2  A    between atoms: N4_9  and  O1_10 
REMARK    3  A    between atoms: N5_12  and  C3_14 
REMARK    4  A    between atoms: C4_17  and  N7_18 
REMARK    5  A    between atoms: C6_24  and  N9_25 
REMARK    6  A    between atoms: N9_25  and  C7_27 
REMARK    7  A    between atoms: C7_27  and  N10_28 
REMARK    8  A    between atoms: C7_27  and  C10_39 
REMARK    9  A    between atoms: N10_28  and  N11_30 
REMARK       I    between atoms: N11_30  and  C8_32 
REMARK   10  A    between atoms: C8_32  and  C9_34 
REMARK   11  A    between atoms: C9_34  and  N12_35 
REMARK   12  A    between atoms: C11_42  and  N14_43 
REMARK       I    between atoms: N15_46  and  C12_47 
ROOT
HETATM    1  C1  UNL     1       6.904   0.973   2.295  1.00  0.00     0.165 C 
HETATM    2  N1  UNL     1       5.890   0.413   1.429  1.00  0.00    -0.228 N 
ATOM      3  H1  UNL     1       5.731  -0.594   1.458  1.00  0.00     0.177 HD
HETATM    4  C2  UNL     1       5.106   1.191   0.542  1.00  0.00     0.702 C 
HETATM    5  N2  UNL     1       4.158   0.566  -0.305  1.00  0.00    -0.114 N 
ATOM      6  H2  UNL     1       4.071   0.841  -1.283  1.00  0.00     0.207 HD
HETATM    7  N3  UNL     1       3.427  -0.335   0.176  1.00  0.00    -0.186 N 
ATOM      8  H3  UNL     1       3.560  -0.566   1.160  1.00  0.00     0.213 HD
HETATM    9  N17 UNL     1       5.252   2.465   0.508  1.00  0.00    -0.125 N 
ATOM     10  H17 UNL     1       5.943   2.878   1.135  1.00  0.00     0.197 HD
HETATM   11  C13 UNL     1       4.539   3.325  -0.319  1.00  0.00     0.196 C 
HETATM   12  N18 UNL     1       3.939   4.047  -0.994  1.00  0.00    -0.171 NA
ENDROOT
BRANCH   7  13
HETATM   13  N4  UNL     1       2.457  -1.041  -0.513  1.00  0.00    -0.078 N 
HETATM   14  N5  UNL     1       1.697  -0.504  -1.362  1.00  0.00    -0.240 N 
ATOM     15  H5  UNL     1       1.764   0.489  -1.583  1.00  0.00     0.193 HD
BRANCH  13  16
HETATM   16  O1  UNL     1       2.326  -2.385  -0.258  1.00  0.00    -0.252 OA
ATOM     17  H1  UNL     1       1.660  -2.870  -0.731  1.00  0.00     0.248 HD
ENDBRANCH  13  16
BRANCH  14  18
HETATM   18  C3  UNL     1       0.730  -1.352  -2.006  1.00  0.00     0.166 A 
HETATM   19  N6  UNL     1       1.058  -2.264  -2.909  1.00  0.00    -0.173 N 
HETATM   20  C4  UNL     1       0.119  -3.066  -3.483  1.00  0.00     0.677 A 
ATOM     21  H6  UNL     1       2.036  -2.368  -3.180  1.00  0.00     0.186 HD
HETATM   22  N8  UNL     1      -1.160  -2.915  -3.115  1.00  0.00    -0.200 N 
HETATM   23  C5  UNL     1      -1.560  -1.996  -2.194  1.00  0.00     0.139 A 
ATOM     24  H8  UNL     1      -1.865  -3.515  -3.544  1.00  0.00     0.183 HD
HETATM   25  C6  UNL     1      -0.603  -1.197  -1.626  1.00  0.00     0.092 A 
BRANCH  20  26
HETATM   26  N7  UNL     1       0.495  -3.945  -4.361  1.00  0.00    -0.234 N 
ATOM     27  H72 UNL     1       1.469  -4.060  -4.641  1.00  0.00     0.174 HD
ATOM     28  H71 UNL     1      -0.208  -4.546  -4.791  1.00  0.00     0.174 HD
ENDBRANCH  20  26
BRANCH  25  29
HETATM   29  N9  UNL     1      -0.948  -0.204  -0.681  1.00  0.00    -0.357 N 
ATOM     30  H9  UNL     1      -0.204   0.429  -0.388  1.00  0.00     0.162 HD
BRANCH  29  31
HETATM   31  C7  UNL     1      -2.231  -0.000  -0.097  1.00  0.00     0.276 C 
BRANCH  31  32
HETATM   32  N10 UNL     1      -2.499   1.278   0.464  1.00  0.00    -0.303 N 
ATOM     33  H10 UNL     1      -2.352   1.441   1.460  1.00  0.00     0.183 HD
BRANCH  32  34
HETATM   34  N11 UNL     1      -2.950   2.276  -0.328  1.00  0.00    -0.271 N 
HETATM   35  C8  UNL     1      -2.272   2.884  -1.382  1.00  0.00     0.261 C 
HETATM   36  O2  UNL     1      -1.117   2.600  -1.770  1.00  0.00    -0.270 OA
ATOM     37  H11 UNL     1      -3.890   2.622  -0.133  1.00  0.00     0.189 HD
BRANCH  35  38
HETATM   38  C9  UNL     1      -2.989   3.987  -2.128  1.00  0.00     0.333 C 
BRANCH  38  39
HETATM   39  N12 UNL     1      -2.134   4.485  -3.179  1.00  0.00    -0.071 N 
ATOM     40 3H12 UNL     1      -1.224   4.783  -2.828  1.00  0.00     0.274 HD
ATOM     41 2H12 UNL     1      -1.813   3.743  -3.801  1.00  0.00     0.274 HD
ATOM     42 1H12 UNL     1      -2.618   5.229  -3.682  1.00  0.00     0.274 HD
ENDBRANCH  38  39
ENDBRANCH  35  38
ENDBRANCH  32  34
ENDBRANCH  31  32
BRANCH  31  43
HETATM   43  C10 UNL     1      -2.391  -0.992   1.051  1.00  0.00     0.206 A 
HETATM   44  N13 UNL     1      -2.088  -2.304   1.025  1.00  0.00    -0.166 N 
HETATM   45  C11 UNL     1      -2.371  -2.827   2.236  1.00  0.00     0.709 A 
ATOM     46  H13 UNL     1      -1.710  -2.814   0.227  1.00  0.00     0.186 HD
HETATM   47  N15 UNL     1      -2.844  -1.831   2.991  1.00  0.00     0.010 N 
HETATM   48  C12 UNL     1      -3.260  -1.945   4.343  1.00  0.00     0.375 C 
HETATM   49  O4  UNL     1      -2.844  -0.745   2.254  1.00  0.00    -0.195 OA
HETATM   50  N16 UNL     1      -3.753  -0.872   5.128  1.00  0.00    -0.037 NA
HETATM   51  O3  UNL     1      -3.190  -3.093   4.909  1.00  0.00    -0.248 OA
BRANCH  45  52
HETATM   52  N14 UNL     1      -2.204  -4.080   2.583  1.00  0.00    -0.232 N 
ATOM     53 2H14 UNL     1      -1.843  -4.840   2.007  1.00  0.00     0.174 HD
ATOM     54 1H14 UNL     1      -2.418  -4.475   3.499  1.00  0.00     0.174 HD
ENDBRANCH  45  52
ENDBRANCH  31  43
ENDBRANCH  29  31
ENDBRANCH  25  29
ENDBRANCH  14  18
ENDBRANCH   7  13
TORSDOF 12
