REMARK  11 active torsions:
REMARK  status: ('A' for Active; 'I' for Inactive)
REMARK       I    between atoms: N1_1  and  C1_5 
REMARK       I    between atoms: C1_5  and  N2_6 
REMARK       I    between atoms: C1_5  and  N3_10 
REMARK       I    between atoms: N3_10  and  C2_12 
REMARK    1  A    between atoms: C2_12  and  C3_14 
REMARK    2  A    between atoms: C5_16  and  C6_17 
REMARK    3  A    between atoms: C6_17  and  N4_18 
REMARK    4  A    between atoms: N4_18  and  C7_21 
REMARK    5  A    between atoms: C7_21  and  C8_22 
REMARK    6  A    between atoms: C8_22  and  N5_23 
REMARK    7  A    between atoms: C11_33  and  O2_34 
REMARK    8  A    between atoms: C12_36  and  C13_37 
REMARK    9  A    between atoms: C16_46  and  C17_47 
REMARK   10  A    between atoms: C17_47  and  O5_48 
REMARK   11  A    between atoms: C17_47  and  O6_50 
ROOT
HETATM    1  C6  UNL     1      -0.076  -1.525  -1.351  1.00  0.00     0.289 C 
ENDROOT
BRANCH   1   2
HETATM    2  C5  UNL     1      -1.513  -1.247  -1.039  1.00  0.00     0.036 A 
HETATM    3  C4  UNL     1      -1.992   0.034  -0.888  1.00  0.00     0.043 A 
HETATM    4  C3  UNL     1      -3.319   0.335  -0.597  1.00  0.00     0.036 A 
HETATM    5  C18 UNL     1      -4.173  -0.734  -0.460  1.00  0.00     0.047 A 
HETATM    6  C16 UNL     1      -3.682  -2.031  -0.614  1.00  0.00     0.065 A 
HETATM    7  N11 UNL     1      -2.384  -2.258  -0.896  1.00  0.00    -0.357 N 
ATOM      8  H11 UNL     1      -2.057  -3.218  -1.003  1.00  0.00     0.165 HD
BRANCH   4   9
HETATM    9  C2  UNL     1      -3.763   1.720  -0.449  1.00  0.00     0.254 C 
HETATM   10  N3  UNL     1      -5.117   2.007  -0.152  1.00  0.00    -0.307 N 
HETATM   11  C1  UNL     1      -5.588   3.385   0.002  1.00  0.00     0.483 C 
ATOM     12  H3  UNL     1      -5.778   1.238  -0.043  1.00  0.00     0.166 HD
HETATM   13  N1  UNL     1      -6.138   3.460   1.358  1.00  0.00    -0.033 N 
HETATM   14  N2  UNL     1      -6.669   3.692  -0.899  1.00  0.00    -0.033 N 
ATOM     15  H13 UNL     1      -6.591   4.351   1.561  1.00  0.00     0.278 HD
ATOM     16  H12 UNL     1      -6.957   2.867   1.494  1.00  0.00     0.278 HD
ATOM     17  H11 UNL     1      -5.372   3.243   1.996  1.00  0.00     0.278 HD
ATOM     18  H23 UNL     1      -7.488   3.099  -0.763  1.00  0.00     0.278 HD
ATOM     19  H22 UNL     1      -7.122   4.583  -0.696  1.00  0.00     0.278 HD
ATOM     20  H21 UNL     1      -6.286   3.640  -1.843  1.00  0.00     0.278 HD
HETATM   21  O1  UNL     1      -2.968   2.687  -0.579  1.00  0.00    -0.268 OA
ENDBRANCH   4   9
BRANCH   6  22
HETATM   22  C17 UNL     1      -4.637  -3.155  -0.458  1.00  0.00     0.305 C 
BRANCH  22  23
HETATM   23  O5  UNL     1      -5.454  -2.976   0.663  1.00  0.00    -0.366 OA
ATOM     24  H5  UNL     1      -6.066  -3.696   0.763  1.00  0.00     0.213 HD
ENDBRANCH  22  23
BRANCH  22  25
HETATM   25  O6  UNL     1      -3.970  -4.354  -0.318  1.00  0.00    -0.366 OA
ATOM     26  H6  UNL     1      -4.582  -5.074  -0.218  1.00  0.00     0.213 HD
ENDBRANCH  22  25
ENDBRANCH   6  22
ENDBRANCH   1   2
BRANCH   1  27
HETATM   27  N4  UNL     1       0.702  -1.671  -0.137  1.00  0.00    -0.068 N 
ATOM     28  H42 UNL     1       0.616  -0.873   0.492  1.00  0.00     0.277 HD
ATOM     29  H41 UNL     1       0.327  -2.377   0.497  1.00  0.00     0.277 HD
BRANCH  27  30
HETATM   30  C7  UNL     1       2.072  -1.936  -0.539  1.00  0.00     0.253 C 
BRANCH  30  31
HETATM   31  C8  UNL     1       2.890  -2.090   0.713  1.00  0.00     0.157 C 
BRANCH  31  32
HETATM   32  N5  UNL     1       4.270  -2.356   0.438  1.00  0.00    -0.335 N 
HETATM   33  C9  UNL     1       4.875  -3.555   0.289  1.00  0.00     0.185 A 
HETATM   34  N6  UNL     1       6.177  -3.402   0.042  1.00  0.00    -0.335 N 
HETATM   35  C10 UNL     1       6.414  -2.065   0.033  1.00  0.00     0.153 A 
ATOM     36  H6  UNL     1       6.860  -4.144  -0.110  1.00  0.00     0.168 HD
HETATM   37  N7  UNL     1       7.512  -1.317  -0.159  1.00  0.00    -0.268 N 
HETATM   38  C15 UNL     1       5.226  -1.438   0.278  1.00  0.00     0.128 A 
HETATM   39  N8  UNL     1       7.498  -0.006  -0.122  1.00  0.00    -0.231 N 
ATOM     40  H7  UNL     1       8.397  -1.790  -0.342  1.00  0.00     0.190 HD
HETATM   41  N9  UNL     1       6.357   0.648   0.115  1.00  0.00    -0.198 N 
ATOM     42  H8  UNL     1       8.361   0.516  -0.275  1.00  0.00     0.209 HD
HETATM   43  C11 UNL     1       6.075   1.964   0.204  1.00  0.00     0.199 A 
HETATM   44  C14 UNL     1       5.238  -0.039   0.313  1.00  0.00     0.163 A 
HETATM   45  C12 UNL     1       4.740   2.068   0.463  1.00  0.00     0.164 A 
HETATM   46  N10 UNL     1       4.244   0.837   0.527  1.00  0.00    -0.330 N 
ATOM     47  H10 UNL     1       3.269   0.597   0.709  1.00  0.00     0.168 HD
BRANCH  43  48
HETATM   48  O2  UNL     1       6.980   3.005   0.056  1.00  0.00    -0.343 OA
ATOM     49  H2  UNL     1       6.781   3.932   0.119  1.00  0.00     0.219 HD
ENDBRANCH  43  48
BRANCH  45  50
HETATM   50  C13 UNL     1       3.955   3.286   0.646  1.00  0.00     0.231 C 
HETATM   51  O3  UNL     1       2.721   3.226   0.882  1.00  0.00    -0.643 OA
HETATM   52  O4  UNL     1       4.629   4.501   0.548  1.00  0.00    -0.643 OA
ENDBRANCH  45  50
ENDBRANCH  31  32
ENDBRANCH  30  31
ENDBRANCH  27  30
ENDBRANCH   1  27
TORSDOF 11
