REMARK  16 active torsions:
REMARK  status: ('A' for Active; 'I' for Inactive)
REMARK    1  A    between atoms: O1_2  and  C2_3 
REMARK    2  A    between atoms: N2_6  and  C3_7 
REMARK    3  A    between atoms: C3_7  and  O2_8 
REMARK    4  A    between atoms: C3_7  and  C4_10 
REMARK    5  A    between atoms: C4_10  and  C5_11 
REMARK    6  A    between atoms: C5_11  and  C6_12 
REMARK    7  A    between atoms: C6_12  and  C10_28 
REMARK    8  A    between atoms: N3_13  and  N4_15 
REMARK       I    between atoms: N4_15  and  C7_17 
REMARK       I    between atoms: C7_17  and  N5_19 
REMARK    9  A    between atoms: N5_19  and  N6_21 
REMARK       I    between atoms: N6_21  and  C8_23 
REMARK   10  A    between atoms: C8_23  and  C9_25 
REMARK   11  A    between atoms: C9_25  and  O5_26 
REMARK   12  A    between atoms: C10_28  and  O6_29 
REMARK   13  A    between atoms: C10_28  and  O7_31 
REMARK   14  A    between atoms: C12_35  and  O8_36 
REMARK   15  A    between atoms: C14_39  and  O9_40 
REMARK   16  A    between atoms: C17_46  and  O10_47 
ROOT
HETATM    1  C3  UNL     1       0.040   0.700   0.523  1.00  0.00     0.156 C 
ENDROOT
BRANCH   1   2
HETATM    2  N2  UNL     1      -1.141   1.269   0.917  1.00  0.00    -0.168 N 
HETATM    3  N1  UNL     1      -1.035   2.588   1.364  1.00  0.00    -0.254 N 
HETATM    4  C2  UNL     1      -2.197   3.084   1.710  1.00  0.00     0.191 A 
ATOM      5  H1  UNL     1      -0.157   3.104   1.415  1.00  0.00     0.191 HD
HETATM    6  C11 UNL     1      -3.076   2.039   1.471  1.00  0.00     0.145 A 
HETATM    7  N7  UNL     1      -2.415   0.962   0.993  1.00  0.00    -0.223 N 
HETATM    8  C12 UNL     1      -4.401   1.719   1.524  1.00  0.00     0.114 A 
HETATM    9  C18 UNL     1      -3.300  -0.024   0.739  1.00  0.00     0.110 A 
HETATM   10  C13 UNL     1      -4.584   0.433   1.072  1.00  0.00     0.066 A 
HETATM   11  C17 UNL     1      -3.213  -1.279   0.218  1.00  0.00     0.122 A 
HETATM   12  C14 UNL     1      -5.714  -0.335   0.891  1.00  0.00     0.107 A 
HETATM   13  C15 UNL     1      -5.625  -1.599   0.366  1.00  0.00     0.107 A 
HETATM   14  N8  UNL     1      -6.765  -2.417   0.163  1.00  0.00    -0.097 NA
HETATM   15  C16 UNL     1      -4.369  -2.032   0.045  1.00  0.00     0.108 A 
HETATM   16  N9  UNL     1      -4.247  -3.332  -0.498  1.00  0.00    -0.097 NA
BRANCH   4  17
HETATM   17  O1  UNL     1      -2.510   4.342   2.201  1.00  0.00    -0.338 OA
HETATM   18  C1  UNL     1      -1.582   5.373   2.432  1.00  0.00     0.211 C 
ENDBRANCH   4  17
BRANCH  12  19
HETATM   19  O9  UNL     1      -6.927   0.168   1.244  1.00  0.00    -0.358 OA
ATOM     20  H9  UNL     1      -7.706  -0.361   1.119  1.00  0.00     0.217 HD
ENDBRANCH  12  19
BRANCH  11  21
HETATM   21  O10 UNL     1      -2.069  -1.863  -0.154  1.00  0.00    -0.357 OA
ATOM     22  H10 UNL     1      -1.279  -1.349  -0.036  1.00  0.00     0.218 HD
ENDBRANCH  11  21
BRANCH   8  23
HETATM   23  O8  UNL     1      -5.414   2.552   1.964  1.00  0.00    -0.357 OA
ATOM     24  H8  UNL     1      -6.337   2.329   2.001  1.00  0.00     0.217 HD
ENDBRANCH   8  23
ENDBRANCH   1   2
BRANCH   1  25
HETATM   25  O2  UNL     1       0.973   1.675   0.356  1.00  0.00    -0.347 OA
ATOM     26  H2  UNL     1       1.793   1.280   0.083  1.00  0.00     0.219 HD
ENDBRANCH   1  25
BRANCH   1  27
HETATM   27  C4  UNL     1       0.720  -0.518   0.220  1.00  0.00     0.093 C 
BRANCH  27  28
HETATM   28  C5  UNL     1       1.003  -0.841  -1.226  1.00  0.00     0.067 C 
BRANCH  28  29
HETATM   29  C6  UNL     1       1.746  -2.096  -1.387  1.00  0.00     0.058 C 
HETATM   30  N3  UNL     1       2.879  -2.174  -2.044  1.00  0.00    -0.300 N 
ATOM     31  H3  UNL     1       3.343  -3.080  -2.115  1.00  0.00     0.186 HD
BRANCH  30  32
HETATM   32  N4  UNL     1       3.474  -1.067  -2.649  1.00  0.00    -0.250 N 
HETATM   33  C7  UNL     1       4.256  -0.197  -1.852  1.00  0.00     0.353 C 
HETATM   34  O3  UNL     1       4.419  -0.406  -0.617  1.00  0.00    -0.244 OA
HETATM   35  N5  UNL     1       4.896   0.952  -2.402  1.00  0.00    -0.248 N 
ATOM     36  H5  UNL     1       4.774   1.139  -3.397  1.00  0.00     0.192 HD
ATOM     37  H4  UNL     1       3.348  -0.888  -3.645  1.00  0.00     0.192 HD
BRANCH  35  38
HETATM   38  N6  UNL     1       5.680   1.837  -1.660  1.00  0.00    -0.264 N 
HETATM   39  C8  UNL     1       6.908   1.384  -1.106  1.00  0.00     0.259 C 
HETATM   40  O4  UNL     1       7.251   0.191  -1.302  1.00  0.00    -0.269 OA
ATOM     41  H6  UNL     1       5.375   2.800  -1.517  1.00  0.00     0.190 HD
BRANCH  39  42
HETATM   42  C9  UNL     1       7.798   2.252  -0.313  1.00  0.00     0.268 C 
BRANCH  42  43
HETATM   43  O5  UNL     1       8.940   1.557   0.115  1.00  0.00    -0.392 OA
ATOM     44  H5  UNL     1       9.513   2.116   0.626  1.00  0.00     0.210 HD
ENDBRANCH  42  43
ENDBRANCH  39  42
ENDBRANCH  35  38
ENDBRANCH  30  32
BRANCH  29  45
HETATM   45  C10 UNL     1       1.294  -3.401  -0.853  1.00  0.00     0.302 C 
BRANCH  45  46
HETATM   46  O6  UNL     1       1.364  -3.475   0.513  1.00  0.00    -0.366 OA
ATOM     47  H6  UNL     1       1.074  -4.312   0.856  1.00  0.00     0.213 HD
ENDBRANCH  45  46
BRANCH  45  48
HETATM   48  O7  UNL     1       1.936  -4.484  -1.476  1.00  0.00    -0.366 OA
ATOM     49  H7  UNL     1       1.646  -5.321  -1.133  1.00  0.00     0.213 HD
ENDBRANCH  45  48
ENDBRANCH  29  45
ENDBRANCH  28  29
ENDBRANCH  27  28
ENDBRANCH   1  27
TORSDOF 16
