REMARK  14 active torsions:
REMARK  status: ('A' for Active; 'I' for Inactive)
REMARK    1  A    between atoms: N1_1  and  C1_4 
REMARK    2  A    between atoms: C5_13  and  C6_14 
REMARK    3  A    between atoms: N4_16  and  C8_17 
REMARK    4  A    between atoms: C8_17  and  C9_18 
REMARK    5  A    between atoms: C11_20  and  C12_21 
REMARK    6  A    between atoms: C12_21  and  O2_22 
REMARK    7  A    between atoms: C12_21  and  N5_24 
REMARK    8  A    between atoms: N5_24  and  C13_27 
REMARK    9  A    between atoms: C13_27  and  C14_28 
REMARK   10  A    between atoms: C14_28  and  O3_29 
REMARK   11  A    between atoms: C15_31  and  O4_32 
REMARK   12  A    between atoms: N6_34  and  N7_35 
REMARK   13  A    between atoms: N10_42  and  C16_43 
REMARK   14  A    between atoms: C17_49  and  N13_50 
ROOT
HETATM    1  C6  UNL     1      -1.985   0.524  -0.305  1.00  0.00     0.111 A 
HETATM    2  C7  UNL     1      -0.954   0.318  -1.198  1.00  0.00     0.146 A 
HETATM    3  N4  UNL     1       0.067   1.179  -0.907  1.00  0.00    -0.281 N 
HETATM    4  N8  UNL     1      -0.338   1.883   0.132  1.00  0.00    -0.240 N 
ATOM      5  H8  UNL     1       0.208   2.614   0.587  1.00  0.00     0.208 HD
HETATM    6  N9  UNL     1      -1.557   1.507   0.504  1.00  0.00    -0.281 N 
ATOM      7  H9  UNL     1      -2.085   1.903   1.282  1.00  0.00     0.188 HD
ENDROOT
BRANCH   1   8
HETATM    8  C5  UNL     1      -3.288  -0.135  -0.207  1.00  0.00     0.146 A 
HETATM    9  N3  UNL     1      -3.732  -1.151  -1.005  1.00  0.00    -0.324 N 
HETATM   10  C4  UNL     1      -4.982  -1.509  -0.641  1.00  0.00     0.155 A 
ATOM     11  H3  UNL     1      -3.198  -1.576  -1.763  1.00  0.00     0.169 HD
HETATM   12  C3  UNL     1      -5.276  -0.664   0.416  1.00  0.00     0.156 A 
HETATM   13  N14 UNL     1      -5.860  -2.428  -1.082  1.00  0.00    -0.174 N 
HETATM   14  C2  UNL     1      -6.502  -0.766   1.032  1.00  0.00     0.290 A 
HETATM   15  N10 UNL     1      -4.249   0.167   0.676  1.00  0.00    -0.268 N 
HETATM   16  N2  UNL     1      -7.358  -1.693   0.570  1.00  0.00    -0.154 N 
HETATM   17  O1  UNL     1      -6.770  -0.000   1.990  1.00  0.00    -0.265 OA
HETATM   18  C1  UNL     1      -7.053  -2.519  -0.473  1.00  0.00     0.680 A 
ATOM     19  H2  UNL     1      -8.271  -1.783   1.016  1.00  0.00     0.187 HD
ATOM     20  H14 UNL     1      -5.625  -3.042  -1.862  1.00  0.00     0.186 HD
BRANCH  18  21
HETATM   21  N1  UNL     1      -7.961  -3.384  -0.839  1.00  0.00    -0.234 N 
ATOM     22  H12 UNL     1      -8.867  -3.453  -0.376  1.00  0.00     0.174 HD
ATOM     23  H11 UNL     1      -7.733  -4.001  -1.618  1.00  0.00     0.174 HD
ENDBRANCH  18  21
BRANCH  15  24
HETATM   24  C16 UNL     1      -4.202   1.172   1.707  1.00  0.00     0.182 A 
HETATM   25  N11 UNL     1      -3.846   0.967   3.004  1.00  0.00    -0.221 N 
HETATM   26  O5  UNL     1      -3.925   2.100   3.636  1.00  0.00    -0.153 OA
ATOM     27  H11 UNL     1      -3.565   0.075   3.411  1.00  0.00     0.198 HD
HETATM   28  N12 UNL     1      -4.308   3.045   2.855  1.00  0.00    -0.222 N 
HETATM   29  C17 UNL     1      -4.494   2.514   1.635  1.00  0.00     0.168 A 
ATOM     30  H12 UNL     1      -4.446   4.022   3.114  1.00  0.00     0.198 HD
BRANCH  29  31
HETATM   31  N13 UNL     1      -4.881   3.132   0.551  1.00  0.00    -0.381 N 
ATOM     32 2H13 UNL     1      -5.022   2.729  -0.375  1.00  0.00     0.157 HD
ATOM     33 1H13 UNL     1      -5.098   4.127   0.498  1.00  0.00     0.157 HD
ENDBRANCH  29  31
ENDBRANCH  15  24
ENDBRANCH   1   8
BRANCH   3  34
HETATM   34  C8  UNL     1       1.307   1.244  -1.654  1.00  0.00     0.209 C 
BRANCH  34  35
HETATM   35  C9  UNL     1       2.343   0.350  -1.151  1.00  0.00     0.056 A 
HETATM   36  C10 UNL     1       3.317   0.595  -0.206  1.00  0.00     0.045 A 
HETATM   37  C11 UNL     1       4.081  -0.523  -0.037  1.00  0.00     0.052 A 
HETATM   38  C15 UNL     1       3.585  -1.477  -0.881  1.00  0.00     0.172 A 
HETATM   39  N6  UNL     1       2.534  -0.925  -1.544  1.00  0.00    -0.243 N 
BRANCH  37  40
HETATM   40  C12 UNL     1       5.224  -0.698   0.878  1.00  0.00     0.357 C 
BRANCH  40  41
HETATM   41  O2  UNL     1       5.141  -1.909   1.574  1.00  0.00    -0.366 OA
ATOM     42  H2  UNL     1       5.877  -2.022   2.164  1.00  0.00     0.212 HD
ENDBRANCH  40  41
BRANCH  40  43
HETATM   43  N5  UNL     1       6.439  -0.747   0.115  1.00  0.00    -0.043 N 
ATOM     44  H52 UNL     1       7.232  -0.949   0.724  1.00  0.00     0.280 HD
ATOM     45  H51 UNL     1       6.454  -1.579  -0.475  1.00  0.00     0.280 HD
BRANCH  43  46
HETATM   46  C13 UNL     1       6.699   0.426  -0.671  1.00  0.00     0.261 C 
BRANCH  46  47
HETATM   47  C14 UNL     1       7.018   1.578   0.250  1.00  0.00     0.191 C 
BRANCH  47  48
HETATM   48  O3  UNL     1       7.281   2.747  -0.466  1.00  0.00    -0.399 OA
ATOM     49  H3  UNL     1       7.482   3.472   0.114  1.00  0.00     0.209 HD
ENDBRANCH  47  48
ENDBRANCH  46  47
ENDBRANCH  43  46
ENDBRANCH  40  43
ENDBRANCH  37  40
BRANCH  38  50
HETATM   50  O4  UNL     1       4.068  -2.783  -1.036  1.00  0.00    -0.344 OA
ATOM     51  H4  UNL     1       3.723  -3.446  -1.623  1.00  0.00     0.219 HD
ENDBRANCH  38  50
BRANCH  39  52
HETATM   52  N7  UNL     1       1.769  -1.608  -2.504  1.00  0.00    -0.336 N 
ATOM     53  H72 UNL     1       0.981  -1.194  -3.001  1.00  0.00     0.177 HD
ATOM     54  H71 UNL     1       1.914  -2.573  -2.801  1.00  0.00     0.177 HD
ENDBRANCH  39  52
ENDBRANCH  34  35
ENDBRANCH   3  34
TORSDOF 14
