REMARK  13 active torsions:
REMARK  status: ('A' for Active; 'I' for Inactive)
REMARK    1  A    between atoms: O1_2  and  C2_3 
REMARK    2  A    between atoms: C2_3  and  C3_5 
REMARK    3  A    between atoms: C4_6  and  O3_7 
REMARK    4  A    between atoms: N1_9  and  C5_10 
REMARK    5  A    between atoms: C8_19  and  C9_20 
REMARK    6  A    between atoms: C9_20  and  O4_21 
REMARK    7  A    between atoms: C9_20  and  N6_23 
REMARK    8  A    between atoms: N6_23  and  N7_25 
REMARK    9  A    between atoms: C10_27  and  O5_28 
REMARK   10  A    between atoms: C10_27  and  N8_30 
REMARK   11  A    between atoms: N8_30  and  N9_32 
REMARK   12  A    between atoms: C12_34  and  C14_36 
REMARK   13  A    between atoms: C15_45  and  O6_46 
ROOT
HETATM    1  C9  UNL     1      -0.609   1.104   1.297  1.00  0.00     0.287 C 
ENDROOT
BRANCH   1   2
HETATM    2  C8  UNL     1      -1.925   1.527   0.762  1.00  0.00     0.123 A 
HETATM    3  N1  UNL     1      -2.730   0.586   0.219  1.00  0.00    -0.121 N 
HETATM    4  C4  UNL     1      -3.933   0.951  -0.244  1.00  0.00     0.184 A 
HETATM    5  C3  UNL     1      -4.414   2.226  -0.206  1.00  0.00     0.144 A 
HETATM    6  C16 UNL     1      -3.609   3.192   0.341  1.00  0.00     0.227 A 
HETATM    7  C15 UNL     1      -2.343   2.838   0.834  1.00  0.00     0.145 A 
HETATM    8  O7  UNL     1      -3.958   4.377   0.420  1.00  0.00    -0.284 OA
BRANCH   3   9
HETATM    9  C5  UNL     1      -2.256  -0.762   0.164  1.00  0.00     0.694 A 
HETATM   10  N2  UNL     1      -1.562  -1.378  -0.782  1.00  0.00    -0.175 N 
HETATM   11  C6  UNL     1      -1.337  -2.643  -0.413  1.00  0.00     0.173 A 
ATOM     12  H2  UNL     1      -1.249  -0.953  -1.655  1.00  0.00     0.185 HD
HETATM   13  N3  UNL     1      -0.619  -3.654  -1.156  1.00  0.00    -0.079 NA
HETATM   14  C7  UNL     1      -1.920  -2.818   0.820  1.00  0.00     0.173 A 
HETATM   15  N4  UNL     1      -1.926  -4.007   1.589  1.00  0.00    -0.079 NA
HETATM   16  N5  UNL     1      -2.478  -1.647   1.152  1.00  0.00    -0.175 N 
ATOM     17  H5  UNL     1      -2.989  -1.457   2.014  1.00  0.00     0.185 HD
ENDBRANCH   3   9
BRANCH   4  18
HETATM   18  O3  UNL     1      -4.722  -0.054  -0.792  1.00  0.00    -0.344 OA
ATOM     19  H3  UNL     1      -4.387  -0.943  -0.818  1.00  0.00     0.219 HD
ENDBRANCH   4  18
BRANCH   5  20
HETATM   20  C2  UNL     1      -5.756   2.557  -0.736  1.00  0.00     0.301 C 
HETATM   21  O2  UNL     1      -6.476   1.654  -1.232  1.00  0.00    -0.259 OA
BRANCH  20  22
HETATM   22  O1  UNL     1      -6.249   3.839  -0.703  1.00  0.00    -0.322 OA
HETATM   23  C1  UNL     1      -7.526   4.194  -1.198  1.00  0.00     0.213 C 
ENDBRANCH  20  22
ENDBRANCH   5  20
BRANCH   7  24
HETATM   24  O6  UNL     1      -1.577   3.853   1.370  1.00  0.00    -0.355 OA
ATOM     25  H6  UNL     1      -1.865   4.757   1.420  1.00  0.00     0.218 HD
ENDBRANCH   7  24
ENDBRANCH   1   2
BRANCH   1  26
HETATM   26  O4  UNL     1      -0.324   1.571   2.562  1.00  0.00    -0.370 OA
ATOM     27  H4  UNL     1       0.519   1.300   2.905  1.00  0.00     0.212 HD
ENDBRANCH   1  26
BRANCH   1  28
HETATM   28  N6  UNL     1       0.466   1.547   0.402  1.00  0.00    -0.299 N 
ATOM     29  H6  UNL     1       0.265   2.040  -0.468  1.00  0.00     0.183 HD
BRANCH  28  30
HETATM   30  N7  UNL     1       1.771   1.265   0.791  1.00  0.00    -0.266 N 
HETATM   31  C10 UNL     1       2.433   0.340   0.210  1.00  0.00     0.253 C 
ATOM     32  H7  UNL     1       2.202   1.800   1.545  1.00  0.00     0.190 HD
BRANCH  31  33
HETATM   33  O5  UNL     1       1.840  -0.377  -0.808  1.00  0.00    -0.330 OA
ATOM     34  H5  UNL     1       2.332  -1.065  -1.240  1.00  0.00     0.221 HD
ENDBRANCH  31  33
BRANCH  31  35
HETATM   35  N8  UNL     1       3.748   0.052   0.599  1.00  0.00    -0.260 N 
HETATM   36  C11 UNL     1       4.042  -0.254   2.009  1.00  0.00     0.181 C 
BRANCH  35  37
HETATM   37  N9  UNL     1       4.826   0.038  -0.276  1.00  0.00    -0.297 N 
HETATM   38  C12 UNL     1       5.437  -1.056  -0.585  1.00  0.00     0.069 C 
HETATM   39  C13 UNL     1       4.948  -2.315   0.031  1.00  0.00     0.074 C 
ATOM     40  H9  UNL     1       5.144   0.916  -0.686  1.00  0.00     0.187 HD
BRANCH  38  41
HETATM   41  C14 UNL     1       6.573  -1.070  -1.503  1.00  0.00     0.161 A 
HETATM   42  N10 UNL     1       7.154  -0.052  -2.150  1.00  0.00    -0.267 N 
HETATM   43  N11 UNL     1       8.161  -0.552  -2.879  1.00  0.00    -0.227 N 
ATOM     44  H10 UNL     1       6.879   0.929  -2.097  1.00  0.00     0.190 HD
HETATM   45  N12 UNL     1       8.216  -1.853  -2.698  1.00  0.00    -0.227 N 
ATOM     46  H11 UNL     1       8.784  -0.011  -3.478  1.00  0.00     0.210 HD
HETATM   47  N13 UNL     1       7.246  -2.175  -1.857  1.00  0.00    -0.267 N 
ATOM     48  H12 UNL     1       8.883  -2.495  -3.126  1.00  0.00     0.210 HD
ATOM     49  H13 UNL     1       7.042  -3.119  -1.528  1.00  0.00     0.190 HD
ENDBRANCH  38  41
ENDBRANCH  35  37
ENDBRANCH  31  35
ENDBRANCH  28  30
ENDBRANCH   1  28
TORSDOF 13
