REMARK  13 active torsions:
REMARK  status: ('A' for Active; 'I' for Inactive)
REMARK    1  A    between atoms: N1_1  and  C1_5 
REMARK    2  A    between atoms: C1_5  and  C2_6 
REMARK    3  A    between atoms: C5_10  and  C6_11 
REMARK    4  A    between atoms: C8_18  and  N5_19 
REMARK    5  A    between atoms: N5_19  and  C9_21 
REMARK    6  A    between atoms: C9_21  and  C10_22 
REMARK    7  A    between atoms: N6_24  and  C12_25 
REMARK    8  A    between atoms: C12_25  and  C13_26 
REMARK    9  A    between atoms: C13_26  and  O1_27 
REMARK   10  A    between atoms: C13_26  and  N7_29 
REMARK   11  A    between atoms: C15_32  and  N8_33 
REMARK   12  A    between atoms: N8_33  and  N9_34 
REMARK   13  A    between atoms: C16_37  and  C17_38 
ROOT
HETATM    1  C10 UNL     1       0.016   1.833   0.018  1.00  0.00     0.019 A 
HETATM    2  C11 UNL     1      -1.001   1.003   0.422  1.00  0.00     0.122 A 
HETATM    3  N6  UNL     1      -2.197   1.530   0.079  1.00  0.00    -0.298 N 
HETATM    4  N10 UNL     1      -1.959   2.662  -0.526  1.00  0.00    -0.285 N 
ATOM      5  H10 UNL     1      -2.683   3.279  -0.895  1.00  0.00     0.188 HD
HETATM    6  C18 UNL     1      -0.646   2.912  -0.601  1.00  0.00     0.140 A 
HETATM    7  N11 UNL     1       0.037   4.008  -1.166  1.00  0.00    -0.081 NA
ENDROOT
BRANCH   1   8
HETATM    8  C9  UNL     1       1.490   1.714   0.153  1.00  0.00     0.181 C 
BRANCH   8   9
HETATM    9  N5  UNL     1       1.808   0.489   0.836  1.00  0.00    -0.222 N 
ATOM     10  H5  UNL     1       1.057  -0.137   1.128  1.00  0.00     0.178 HD
BRANCH   9  11
HETATM   11  C8  UNL     1       3.170   0.141   1.110  1.00  0.00     0.678 A 
HETATM   12  N4  UNL     1       3.467  -0.599   2.099  1.00  0.00    -0.164 N 
HETATM   13  C7  UNL     1       4.825  -0.965   2.399  1.00  0.00     0.204 A 
ATOM     14  H4  UNL     1       2.718  -0.945   2.699  1.00  0.00     0.187 HD
HETATM   15  N2  UNL     1       5.741  -0.523   1.637  1.00  0.00    -0.338 N 
HETATM   16  N3  UNL     1       5.078  -1.797   3.520  1.00  0.00    -0.063 NA
HETATM   17  C6  UNL     1       5.571   0.314   0.496  1.00  0.00     0.236 A 
ATOM     18  H2  UNL     1       6.697  -0.796   1.866  1.00  0.00     0.164 HD
HETATM   19  N12 UNL     1       4.175   0.642   0.248  1.00  0.00    -0.201 N 
ATOM     20  H12 UNL     1       3.921   1.231  -0.545  1.00  0.00     0.180 HD
BRANCH  17  21
HETATM   21  C5  UNL     1       6.199  -0.371  -0.706  1.00  0.00    -0.000 A 
HETATM   22  C2  UNL     1       7.442  -0.933  -0.616  1.00  0.00     0.018 A 
HETATM   23  S1  UNL     1       7.689  -1.548  -2.212  1.00  0.00    -0.104 SA
HETATM   24  C3  UNL     1       6.220  -1.070  -2.918  1.00  0.00     0.051 A 
HETATM   25  C4  UNL     1       5.572  -0.442  -1.890  1.00  0.00     0.019 A 
BRANCH  22  26
HETATM   26  C1  UNL     1       8.389  -1.027   0.555  1.00  0.00     0.276 C 
BRANCH  26  27
HETATM   27  N1  UNL     1       9.583  -1.714   0.038  1.00  0.00    -0.075 N 
ATOM     28  H13 UNL     1       9.382  -2.613  -0.401  1.00  0.00     0.274 HD
ATOM     29  H12 UNL     1       9.990  -1.268  -0.784  1.00  0.00     0.274 HD
ATOM     30  H11 UNL     1      10.223  -1.778   0.830  1.00  0.00     0.274 HD
ENDBRANCH  26  27
ENDBRANCH  22  26
ENDBRANCH  17  21
ENDBRANCH   9  11
ENDBRANCH   8   9
ENDBRANCH   1   8
BRANCH   3  31
HETATM   31  C12 UNL     1      -3.498   0.900   0.361  1.00  0.00     0.198 C 
BRANCH  31  32
HETATM   32  C13 UNL     1      -3.920   0.006  -0.757  1.00  0.00     0.239 C 
BRANCH  32  33
HETATM   33  O1  UNL     1      -4.031   0.758  -1.917  1.00  0.00    -0.377 OA
ATOM     34  H1  UNL     1      -4.300   0.189  -2.629  1.00  0.00     0.211 HD
ENDBRANCH  32  33
BRANCH  32  35
HETATM   35  N7  UNL     1      -5.139  -0.654  -0.438  1.00  0.00    -0.150 NA
HETATM   36  O2  UNL     1      -5.019  -1.555   0.518  1.00  0.00    -0.298 OA
HETATM   37  C14 UNL     1      -5.893  -1.293   1.536  1.00  0.00     0.219 C 
HETATM   38  C15 UNL     1      -7.071  -0.678   0.790  1.00  0.00     0.154 C 
HETATM   39  C16 UNL     1      -6.283   0.147  -0.238  1.00  0.00     0.213 C 
BRANCH  38  40
HETATM   40  N8  UNL     1      -7.754  -1.774   0.124  1.00  0.00    -0.139 NA
BRANCH  40  41
HETATM   41  N9  UNL     1      -8.203  -2.728   1.043  1.00  0.00    -0.348 N 
ATOM     42  H92 UNL     1      -8.061  -2.650   2.050  1.00  0.00     0.172 HD
ATOM     43  H91 UNL     1      -8.682  -3.497   0.575  1.00  0.00     0.172 HD
ENDBRANCH  40  41
ENDBRANCH  38  40
BRANCH  39  44
HETATM   44  C17 UNL     1      -7.094   0.356  -1.464  1.00  0.00     0.195 C 
HETATM   45  O3  UNL     1      -8.146   1.053  -1.422  1.00  0.00    -0.647 OA
HETATM   46  O4  UNL     1      -6.761  -0.182  -2.695  1.00  0.00    -0.647 OA
ENDBRANCH  39  44
ENDBRANCH  32  35
ENDBRANCH  31  32
ENDBRANCH   3  31
TORSDOF 13
