REMARK  14 active torsions:
REMARK  status: ('A' for Active; 'I' for Inactive)
REMARK    1  A    between atoms: C2_2  and  N1_3 
REMARK    2  A    between atoms: C2_2  and  C18_49 
REMARK    3  A    between atoms: N1_3  and  C3_6 
REMARK    4  A    between atoms: C3_6  and  O1_7 
REMARK    5  A    between atoms: C3_6  and  N2_9 
REMARK    6  A    between atoms: N2_9  and  C4_11 
REMARK    7  A    between atoms: C5_14  and  N4_15 
REMARK    8  A    between atoms: C8_18  and  C9_19 
REMARK    9  A    between atoms: C10_22  and  O4_23 
REMARK   10  A    between atoms: C12_28  and  N6_29 
REMARK   11  A    between atoms: N7_31  and  C13_33 
REMARK   12  A    between atoms: C14_36  and  N9_37 
REMARK   13  A    between atoms: C18_49  and  N14_50 
REMARK   14  A    between atoms: C18_49  and  O5_54 
ROOT
HETATM    1  C13 UNL     1      -4.487   3.430  -0.787  1.00  0.00     0.163 A 
HETATM    2  N8  UNL     1      -5.024   4.131  -1.803  1.00  0.00    -0.174 N 
ATOM      3  H8  UNL     1      -4.565   4.107  -2.714  1.00  0.00     0.186 HD
HETATM    4  C14 UNL     1      -6.144   4.862  -1.660  1.00  0.00     0.678 A 
HETATM    5  N10 UNL     1      -6.752   4.897  -0.463  1.00  0.00    -0.180 N 
ATOM      6  H10 UNL     1      -7.602   5.448  -0.344  1.00  0.00     0.185 HD
HETATM    7  C15 UNL     1      -6.247   4.207   0.587  1.00  0.00     0.157 A 
HETATM    8  C16 UNL     1      -6.883   4.233   1.873  1.00  0.00     0.120 C 
HETATM    9  N11 UNL     1      -7.408   4.252   2.888  1.00  0.00    -0.190 NA
HETATM   10  C17 UNL     1      -5.097   3.454   0.449  1.00  0.00     0.130 A 
HETATM   11  N12 UNL     1      -4.593   2.745   1.564  1.00  0.00    -0.095 NA
ENDROOT
BRANCH   4  12
HETATM   12  N9  UNL     1      -6.684   5.544  -2.613  1.00  0.00    -0.234 N 
ATOM     13  H92 UNL     1      -6.222   5.517  -3.522  1.00  0.00     0.174 HD
ATOM     14  H91 UNL     1      -7.533   6.098  -2.505  1.00  0.00     0.174 HD
ENDBRANCH   4  12
BRANCH   1  15
HETATM   15  N7  UNL     1      -3.307   2.663  -0.951  1.00  0.00    -0.269 N 
HETATM   16  N6  UNL     1      -2.651   2.271   0.064  1.00  0.00    -0.129 N 
ATOM     17  H6  UNL     1      -2.989   2.519   0.994  1.00  0.00     0.205 HD
ATOM     18  H7  UNL     1      -2.983   2.424  -1.888  1.00  0.00     0.189 HD
BRANCH  16  19
HETATM   19  C12 UNL     1      -1.472   1.506  -0.049  1.00  0.00     0.726 A 
HETATM   20  N5  UNL     1      -1.557   0.164  -0.063  1.00  0.00    -0.020 N 
HETATM   21  C5  UNL     1      -0.493  -0.661  -0.169  1.00  0.00     0.709 A 
ATOM     22  H5  UNL     1      -2.483  -0.257   0.011  1.00  0.00     0.203 HD
HETATM   23  N3  UNL     1       0.721  -0.058  -0.266  1.00  0.00    -0.021 N 
HETATM   24  C4  UNL     1       0.866   1.274  -0.257  1.00  0.00     0.710 A 
ATOM     25  H3  UNL     1       1.553  -0.642  -0.349  1.00  0.00     0.203 HD
HETATM   26  N13 UNL     1      -0.236   2.032  -0.148  1.00  0.00    -0.020 N 
ATOM     27  H13 UNL     1      -0.134   3.047  -0.140  1.00  0.00     0.203 HD
BRANCH  21  28
HETATM   28  N4  UNL     1      -0.624  -2.074  -0.181  1.00  0.00    -0.214 N 
HETATM   29  C6  UNL     1      -1.920  -2.659  -0.081  1.00  0.00     0.142 C 
HETATM   30  C7  UNL     1      -1.920  -4.145  -0.358  1.00  0.00     0.038 C 
HETATM   31  C8  UNL     1      -0.851  -4.871   0.397  1.00  0.00     0.118 C 
HETATM   32  C10 UNL     1       0.467  -4.182   0.445  1.00  0.00     0.151 C 
HETATM   33  C11 UNL     1       0.546  -2.886  -0.292  1.00  0.00     0.173 C 
BRANCH  31  34
HETATM   34  C9  UNL     1      -0.658  -6.204  -0.269  1.00  0.00     0.179 C 
HETATM   35  O2  UNL     1       0.444  -6.552  -0.765  1.00  0.00    -0.648 OA
HETATM   36  O3  UNL     1      -1.710  -7.125  -0.365  1.00  0.00    -0.648 OA
ENDBRANCH  31  34
BRANCH  32  37
HETATM   37  O4  UNL     1       0.793  -3.960   1.803  1.00  0.00    -0.393 OA
ATOM     38  H4  UNL     1       1.634  -3.520   1.834  1.00  0.00     0.210 HD
ENDBRANCH  32  37
ENDBRANCH  21  28
BRANCH  24  39
HETATM   39  N2  UNL     1       2.011   1.854  -0.351  1.00  0.00    -0.173 N 
ATOM     40  H2  UNL     1       2.040   2.873  -0.336  1.00  0.00     0.182 HD
BRANCH  39  41
HETATM   41  C3  UNL     1       3.266   1.129  -0.477  1.00  0.00     0.441 C 
BRANCH  41  42
HETATM   42  N1  UNL     1       4.216   1.789   0.385  1.00  0.00    -0.022 N 
ATOM     43  H12 UNL     1       3.912   1.742   1.357  1.00  0.00     0.283 HD
ATOM     44  H11 UNL     1       4.187   2.799   0.245  1.00  0.00     0.283 HD
BRANCH  42  45
HETATM   45  C2  UNL     1       5.551   1.301   0.252  1.00  0.00     0.242 C 
HETATM   46  C1  UNL     1       6.144   1.511  -1.120  1.00  0.00     0.045 C 
BRANCH  45  47
HETATM   47  C18 UNL     1       5.701  -0.134   0.714  1.00  0.00     0.346 C 
BRANCH  47  48
HETATM   48  N14 UNL     1       7.031  -0.631   0.540  1.00  0.00    -0.051 N 
ATOM     49 3H14 UNL     1       7.339  -0.523  -0.426  1.00  0.00     0.277 HD
ATOM     50 2H14 UNL     1       7.712  -0.025   0.998  1.00  0.00     0.277 HD
ATOM     51 1H14 UNL     1       7.132  -1.597   0.851  1.00  0.00     0.277 HD
ENDBRANCH  47  48
BRANCH  47  52
HETATM   52  O5  UNL     1       5.353  -0.258   2.058  1.00  0.00    -0.368 OA
ATOM     53  H5  UNL     1       5.447  -1.158   2.348  1.00  0.00     0.212 HD
ENDBRANCH  47  52
ENDBRANCH  45  47
ENDBRANCH  42  45
ENDBRANCH  41  42
BRANCH  41  54
HETATM   54  O1  UNL     1       3.619   1.270  -1.836  1.00  0.00    -0.354 OA
ATOM     55  H1  UNL     1       2.993   0.835  -2.404  1.00  0.00     0.214 HD
ENDBRANCH  41  54
ENDBRANCH  39  41
ENDBRANCH  24  39
ENDBRANCH  16  19
ENDBRANCH   1  15
TORSDOF 14
