REMARK  11 active torsions:
REMARK  status: ('A' for Active; 'I' for Inactive)
REMARK    1  A    between atoms: N4_10  and  C5_11 
REMARK    2  A    between atoms: N6_15  and  C7_16 
REMARK    3  A    between atoms: C7_16  and  O1_17 
REMARK    4  A    between atoms: C7_16  and  C8_19 
REMARK       I    between atoms: C8_19  and  N7_21 
REMARK    5  A    between atoms: N7_21  and  C9_23 
REMARK    6  A    between atoms: C9_23  and  O3_24 
REMARK    7  A    between atoms: C9_23  and  N8_26 
REMARK    8  A    between atoms: N8_26  and  C10_29 
REMARK    9  A    between atoms: C10_29  and  C11_30 
REMARK   10  A    between atoms: C10_29  and  C13_37 
REMARK   11  A    between atoms: C15_42  and  N13_43 
ROOT
HETATM    1  C9  UNL     1      -2.124  -1.033   0.178  1.00  0.00     0.430 C 
ENDROOT
BRANCH   1   2
HETATM    2  N7  UNL     1      -0.905  -1.526  -0.464  1.00  0.00    -0.308 N 
HETATM    3  C8  UNL     1       0.349  -1.512   0.178  1.00  0.00     0.273 C 
HETATM    4  O2  UNL     1       0.395  -1.051   1.352  1.00  0.00    -0.268 OA
ATOM      5  H7  UNL     1      -0.966  -1.894  -1.413  1.00  0.00     0.166 HD
BRANCH   3   6
HETATM    6  C7  UNL     1       1.600  -1.991  -0.414  1.00  0.00     0.352 C 
BRANCH   6   7
HETATM    7  N6  UNL     1       2.572  -0.932  -0.609  1.00  0.00    -0.193 N 
HETATM    8  N5  UNL     1       2.511   0.111  -1.403  1.00  0.00    -0.289 N 
HETATM    9  C6  UNL     1       3.623   0.847  -1.278  1.00  0.00     0.160 A 
ATOM     10  H5  UNL     1       1.732   0.329  -2.024  1.00  0.00     0.188 HD
HETATM   11  C5  UNL     1       4.423   0.228  -0.355  1.00  0.00     0.158 A 
HETATM   12  N16 UNL     1       3.725  -0.864   0.025  1.00  0.00    -0.263 N 
ATOM     13  H16 UNL     1       4.048  -1.546   0.712  1.00  0.00     0.190 HD
BRANCH  11  14
HETATM   14  N4  UNL     1       5.701   0.648   0.095  1.00  0.00    -0.242 N 
HETATM   15  C2  UNL     1       6.578   0.030   1.056  1.00  0.00     0.121 A 
HETATM   16  C1  UNL     1       6.996  -1.304   0.520  1.00  0.00     0.065 C 
HETATM   17  C3  UNL     1       5.941  -0.070   2.425  1.00  0.00     0.065 C 
HETATM   18  N1  UNL     1       7.722   0.898   1.097  1.00  0.00    -0.336 N 
HETATM   19  C4  UNL     1       7.603   1.901   0.309  1.00  0.00     0.205 A 
ATOM     20  H1  UNL     1       8.538   0.734   1.687  1.00  0.00     0.164 HD
HETATM   21  N2  UNL     1       8.566   2.926   0.133  1.00  0.00    -0.062 NA
HETATM   22  N3  UNL     1       6.348   1.799  -0.352  1.00  0.00    -0.267 N 
ATOM     23  H3  UNL     1       5.982   2.458  -1.039  1.00  0.00     0.190 HD
ENDBRANCH  11  14
ENDBRANCH   6   7
BRANCH   6  24
HETATM   24  O1  UNL     1       1.281  -2.454  -1.713  1.00  0.00    -0.366 OA
ATOM     25  H1  UNL     1       0.644  -3.148  -1.585  1.00  0.00     0.212 HD
ENDBRANCH   6  24
ENDBRANCH   3   6
ENDBRANCH   1   2
BRANCH   1  26
HETATM   26  O3  UNL     1      -2.992  -2.076   0.316  1.00  0.00    -0.354 OA
ATOM     27  H3  UNL     1      -3.783  -1.756   0.733  1.00  0.00     0.214 HD
ENDBRANCH   1  26
BRANCH   1  28
HETATM   28  N8  UNL     1      -2.633   0.133  -0.514  1.00  0.00    -0.016 N 
ATOM     29  H82 UNL     1      -1.929   0.870  -0.558  1.00  0.00     0.283 HD
ATOM     30  H81 UNL     1      -2.741  -0.051  -1.511  1.00  0.00     0.283 HD
BRANCH  28  31
HETATM   31  C10 UNL     1      -3.842   0.617   0.048  1.00  0.00     0.289 C 
BRANCH  31  32
HETATM   32  C11 UNL     1      -4.234   1.991  -0.433  1.00  0.00     0.103 A 
HETATM   33  N9  UNL     1      -4.213   2.546  -1.630  1.00  0.00    -0.295 N 
HETATM   34  N10 UNL     1      -4.597   3.732  -1.803  1.00  0.00    -0.305 N 
ATOM     35  H9  UNL     1      -3.880   2.005  -2.428  1.00  0.00     0.187 HD
HETATM   36  C12 UNL     1      -5.032   4.446  -0.768  1.00  0.00     0.158 A 
ATOM     37  H10 UNL     1      -4.575   4.145  -2.735  1.00  0.00     0.186 HD
HETATM   38  S1  UNL     1      -4.862   3.306   0.502  1.00  0.00    -0.066 SA
ENDBRANCH  31  32
BRANCH  31  39
HETATM   39  C13 UNL     1      -5.022  -0.221  -0.024  1.00  0.00     0.065 A 
HETATM   40  C14 UNL     1      -5.796  -0.416   1.135  1.00  0.00     0.144 A 
HETATM   41  N11 UNL     1      -5.376   0.207   2.346  1.00  0.00    -0.081 NA
HETATM   42  N12 UNL     1      -6.913  -1.170   1.120  1.00  0.00    -0.178 N 
HETATM   43  C15 UNL     1      -7.329  -1.765  -0.007  1.00  0.00     0.678 A 
ATOM     44  H12 UNL     1      -7.450  -1.290   1.979  1.00  0.00     0.185 HD
HETATM   45  N14 UNL     1      -6.614  -1.596  -1.114  1.00  0.00    -0.177 N 
HETATM   46  C16 UNL     1      -5.464  -0.833  -1.150  1.00  0.00     0.126 A 
ATOM     47  H14 UNL     1      -6.928  -2.049  -1.973  1.00  0.00     0.186 HD
HETATM   48  N15 UNL     1      -4.866  -0.742  -2.264  1.00  0.00    -0.384 N 
ATOM     49 2H15 UNL     1      -4.016  -0.178  -2.291  1.00  0.00     0.157 HD
ATOM     50 1H15 UNL     1      -5.199  -1.202  -3.111  1.00  0.00     0.157 HD
BRANCH  43  51
HETATM   51  N13 UNL     1      -8.408  -2.480   0.029  1.00  0.00    -0.234 N 
ATOM     52 2H13 UNL     1      -8.957  -2.610   0.879  1.00  0.00     0.174 HD
ATOM     53 1H13 UNL     1      -8.725  -2.933  -0.828  1.00  0.00     0.174 HD
ENDBRANCH  43  51
ENDBRANCH  31  39
ENDBRANCH  28  31
ENDBRANCH   1  28
TORSDOF 11
