REMARK  1 active torsions:
REMARK  status: ('A' for Active; 'I' for Inactive)
REMARK    1  A    between atoms: C2_2  and  C3_3 
ROOT
HETATM    1  C3  UNL     1       0.571  -0.301  -0.584  1.00  0.00     0.109 C 
HETATM    2  C4  UNL     1       0.243   0.985  -1.258  1.00  0.00     0.154 C 
HETATM    3  N1  UNL     1      -1.148   1.178  -1.471  1.00  0.00    -0.418 N 
ATOM      4  H1  UNL     1      -1.601   0.905  -2.343  1.00  0.00     0.153 HD
HETATM    5  C5  UNL     1      -1.874   1.771  -0.405  1.00  0.00     0.115 C 
HETATM    6  C6  UNL     1      -2.343   0.809   0.655  1.00  0.00     0.041 C 
HETATM    7  C7  UNL     1      -1.157   0.051   1.284  1.00  0.00     0.111 C 
HETATM    8 CL1  UNL     1      -0.330   1.222   2.239  1.00  0.00    -0.123 Cl
HETATM    9  C8  UNL     1      -0.508  -0.747   0.291  1.00  0.00     0.096 C 
HETATM   10 CL2  UNL     1      -1.865  -1.307  -0.806  1.00  0.00    -0.114 Cl
HETATM   11  C9  UNL     1       0.011  -2.117   0.703  1.00  0.00     0.141 C 
HETATM   12  C10 UNL     1       0.500  -2.521  -0.668  1.00  0.00     0.261 C 
HETATM   13  O1  UNL     1       0.886  -3.658  -1.031  1.00  0.00    -0.265 OA
HETATM   14  O2  UNL     1       0.468  -1.419  -1.522  1.00  0.00    -0.306 OA
ENDROOT
BRANCH   1  15
HETATM   15  C2  UNL     1       1.996  -0.425  -0.201  1.00  0.00     0.038 C 
HETATM   16  C1  UNL     1       2.616   0.537   0.719  1.00  0.00     0.008 C 
ENDBRANCH   1  15
TORSDOF 1
