REMARK  1 active torsions:
REMARK  status: ('A' for Active; 'I' for Inactive)
REMARK    1  A    between atoms: O1_1  and  C1_3 
ROOT
HETATM    1  C1  UNL     1       1.223  -0.470  -0.151  1.00  0.00     0.127 A 
HETATM    2  C2  UNL     1       0.170   0.316  -0.814  1.00  0.00     0.021 A 
HETATM    3  C3  UNL     1      -1.283  -0.049  -0.675  1.00  0.00     0.008 C 
HETATM    4  C4  UNL     1      -1.133  -0.369   0.793  1.00  0.00     0.008 C 
HETATM    5  C5  UNL     1       0.247   0.232   0.738  1.00  0.00     0.021 A 
ENDROOT
BRANCH   1   6
HETATM    6  O1  UNL     1       2.509   0.002  -0.221  1.00  0.00    -0.395 OA
ATOM      7  H1  UNL     1       3.189  -0.505   0.207  1.00  0.00     0.210 HD
ENDBRANCH   1   6
TORSDOF 1
