REMARK  1 active torsions:
REMARK  status: ('A' for Active; 'I' for Inactive)
REMARK    1  A    between atoms: O1_1  and  N1_3 
ROOT
HETATM    1  N1  UNL     1       1.047   0.428  -0.473  1.00  0.00    -0.200 NA
HETATM    2  C1  UNL     1       0.093   1.224   0.243  1.00  0.00     0.120 C 
HETATM    3  C2  UNL     1      -1.051   0.280   0.632  1.00  0.00     0.018 C 
HETATM    4  C3  UNL     1      -1.009  -0.680  -0.557  1.00  0.00     0.018 C 
HETATM    5  C4  UNL     1       0.508  -0.876  -0.671  1.00  0.00     0.120 C 
ENDROOT
BRANCH   1   6
HETATM    6  O1  UNL     1       2.181   0.356   0.257  1.00  0.00    -0.313 OA
ATOM      7  H1  UNL     1       2.813  -0.171  -0.217  1.00  0.00     0.237 HD
ENDBRANCH   1   6
TORSDOF 1
