REMARK  1 active torsions:
REMARK  status: ('A' for Active; 'I' for Inactive)
REMARK    1  A    between atoms: N1_1  and  C1_5 
ROOT
HETATM    1  C1  UNL     1       0.821  -0.394  -0.273  1.00  0.00     0.188 C 
HETATM    2  C2  UNL     1      -0.098  -0.935   0.842  1.00  0.00     0.038 C 
HETATM    3  C3  UNL     1      -1.142  -0.516  -0.201  1.00  0.00    -0.006 A 
HETATM    4  C4  UNL     1      -1.528   0.794  -0.575  1.00  0.00     0.012 A 
HETATM    5  C5  UNL     1      -0.183   0.751  -0.133  1.00  0.00     0.020 A 
ENDROOT
BRANCH   1   6
HETATM    6  N1  UNL     1       2.123  -0.013   0.163  1.00  0.00    -0.075 N 
ATOM      7  H13 UNL     1       2.058   0.660   0.926  1.00  0.00     0.274 HD
ATOM      8  H12 UNL     1       2.574  -0.788   0.650  1.00  0.00     0.274 HD
ATOM      9  H11 UNL     1       2.731   0.345  -0.574  1.00  0.00     0.274 HD
ENDBRANCH   1   6
TORSDOF 1
