REMARK  1 active torsions:
REMARK  status: ('A' for Active; 'I' for Inactive)
REMARK    1  A    between atoms: N1_2  and  C2_4 
REMARK       I    between atoms: N5_13  and  C6_15 
ROOT
HETATM    1  C2  UNL     1      -1.584   0.265  -0.133  1.00  0.00     0.694 A 
HETATM    2  N2  UNL     1      -1.957   1.544   0.010  1.00  0.00    -0.166 N 
ATOM      3  H2  UNL     1      -2.937   1.792  -0.128  1.00  0.00     0.186 HD
HETATM    4  C3  UNL     1      -1.073   2.517   0.332  1.00  0.00     0.217 A 
HETATM    5  C4  UNL     1      -1.505   3.877   0.477  1.00  0.00     0.138 C 
HETATM    6  N3  UNL     1      -1.848   4.980   0.577  1.00  0.00    -0.188 NA
HETATM    7  N4  UNL     1       0.229   2.181   0.515  1.00  0.00    -0.165 N 
ATOM      8  H4  UNL     1       0.911   2.900   0.758  1.00  0.00     0.186 HD
HETATM    9  C5  UNL     1       0.618   0.919   0.378  1.00  0.00     0.701 A 
HETATM   10  N5  UNL     1       1.851   0.587   0.549  1.00  0.00    -0.163 N 
ATOM     11  H5  UNL     1       2.541   1.297   0.793  1.00  0.00     0.187 HD
HETATM   12  C6  UNL     1       2.247  -0.762   0.399  1.00  0.00     0.200 C 
HETATM   13  N6  UNL     1       2.118  -1.591   1.377  1.00  0.00    -0.373 N 
ATOM     14  H61 UNL     1       2.404  -2.564   1.269  1.00  0.00     0.158 HD
ATOM     15  H62 UNL     1       1.728  -1.272   2.264  1.00  0.00     0.158 HD
HETATM   16  N7  UNL     1       2.791  -1.207  -0.838  1.00  0.00    -0.063 NA
HETATM   17  N8  UNL     1      -0.293  -0.046   0.052  1.00  0.00    -0.022 N 
ATOM     18  H8  UNL     1       0.013  -1.014  -0.052  1.00  0.00     0.203 HD
ENDROOT
BRANCH   1  19
HETATM   19  N1  UNL     1      -2.430  -0.635  -0.436  1.00  0.00    -0.230 N 
HETATM   20  C1  UNL     1      -2.149  -2.024  -0.614  1.00  0.00     0.165 C 
ATOM     21  H1  UNL     1      -3.397  -0.338  -0.564  1.00  0.00     0.177 HD
ENDBRANCH   1  19
TORSDOF 1
