REMARK  5 active torsions:
REMARK  status: ('A' for Active; 'I' for Inactive)
REMARK    1  A    between atoms: N1_2  and  C2_4 
REMARK    2  A    between atoms: C3_7  and  N3_8 
REMARK    3  A    between atoms: N3_8  and  N4_10 
REMARK    4  A    between atoms: C4_15  and  N6_16 
REMARK    5  A    between atoms: N6_16  and  C5_18 
ROOT
HETATM    1  C2  UNL     1      -0.989  -0.453   0.567  1.00  0.00     0.706 A 
HETATM    2  N2  UNL     1      -1.899   0.476   0.231  1.00  0.00    -0.020 N 
ATOM      3  H2  UNL     1      -2.858   0.419   0.574  1.00  0.00     0.203 HD
HETATM    4  C3  UNL     1      -1.508   1.493  -0.578  1.00  0.00     0.725 A 
HETATM    5  N5  UNL     1      -0.263   1.575  -1.028  1.00  0.00    -0.020 N 
ATOM      6  H5  UNL     1      -0.005   2.354  -1.634  1.00  0.00     0.203 HD
HETATM    7  C4  UNL     1       0.684   0.643  -0.702  1.00  0.00     0.707 A 
HETATM    8  N7  UNL     1       0.259  -0.349   0.100  1.00  0.00    -0.022 N 
ATOM      9  H7  UNL     1       0.931  -1.067   0.369  1.00  0.00     0.203 HD
ENDROOT
BRANCH   4  10
HETATM   10  N3  UNL     1      -2.383   2.398  -0.909  1.00  0.00    -0.138 N 
ATOM     11  H3  UNL     1      -2.108   3.170  -1.516  1.00  0.00     0.205 HD
BRANCH  10  12
HETATM   12  N4  UNL     1      -3.691   2.320  -0.441  1.00  0.00    -0.331 N 
ATOM     13  H42 UNL     1      -3.950   1.541   0.165  1.00  0.00     0.177 HD
ATOM     14  H41 UNL     1      -4.377   3.029  -0.700  1.00  0.00     0.177 HD
ENDBRANCH  10  12
ENDBRANCH   4  10
BRANCH   1  15
HETATM   15  N1  UNL     1      -1.345  -1.420   1.330  1.00  0.00    -0.229 N 
HETATM   16  C1  UNL     1      -2.656  -1.600   1.867  1.00  0.00     0.165 C 
ATOM     17  H1  UNL     1      -0.638  -2.114   1.572  1.00  0.00     0.177 HD
ENDBRANCH   1  15
BRANCH   7  18
HETATM   18  N6  UNL     1       1.857   0.771  -1.161  1.00  0.00    -0.221 N 
ATOM     19  H6  UNL     1       2.023   1.581  -1.759  1.00  0.00     0.178 HD
BRANCH  18  20
HETATM   20  C5  UNL     1       2.968  -0.084  -0.938  1.00  0.00     0.091 C 
HETATM   21  C6  UNL     1       2.688  -1.462  -1.531  1.00  0.00     0.032 C 
HETATM   22  C7  UNL     1       3.390  -0.171   0.490  1.00  0.00     0.032 C 
ENDBRANCH  18  20
ENDBRANCH   7  18
TORSDOF 5
