REMARK  4 active torsions:
REMARK  status: ('A' for Active; 'I' for Inactive)
REMARK    1  A    between atoms: N1_2  and  N2_3 
REMARK    2  A    between atoms: N1_2  and  N3_6 
REMARK    3  A    between atoms: N3_6  and  C2_8 
REMARK    4  A    between atoms: C3_11  and  N5_12 
ROOT
HETATM    1  C2  UNL     1       0.129   0.235  -0.124  1.00  0.00     0.718 A 
HETATM    2  N4  UNL     1       0.487  -0.834   0.618  1.00  0.00    -0.021 N 
ATOM      3  H4  UNL     1      -0.231  -1.354   1.122  1.00  0.00     0.203 HD
HETATM    4  C3  UNL     1       1.768  -1.229   0.708  1.00  0.00     0.694 A 
HETATM    5  N6  UNL     1       2.687  -0.519   0.031  1.00  0.00    -0.140 N 
ATOM      6  H6  UNL     1       3.667  -0.796   0.081  1.00  0.00     0.189 HD
HETATM    7  C4  UNL     1       2.337   0.565  -0.723  1.00  0.00     0.354 A 
HETATM    8  O1  UNL     1       3.208   1.229  -1.357  1.00  0.00    -0.245 OA
HETATM    9  N7  UNL     1       1.048   0.945  -0.800  1.00  0.00    -0.135 N 
HETATM   10  C5  UNL     1       0.665   2.086  -1.591  1.00  0.00     0.180 C 
ENDROOT
BRANCH   1  11
HETATM   11  N3  UNL     1      -1.099   0.627  -0.220  1.00  0.00    -0.115 N 
ATOM     12  H3  UNL     1      -1.303   1.443  -0.796  1.00  0.00     0.207 HD
BRANCH  11  13
HETATM   13  N1  UNL     1      -2.152  -0.005   0.420  1.00  0.00    -0.231 N 
HETATM   14  C1  UNL     1      -2.639  -1.299  -0.019  1.00  0.00     0.200 C 
BRANCH  13  15
HETATM   15  N2  UNL     1      -2.757   0.605   1.504  1.00  0.00    -0.329 N 
ATOM     16  H22 UNL     1      -3.533   0.140   1.975  1.00  0.00     0.178 HD
ATOM     17  H21 UNL     1      -2.415   1.515   1.813  1.00  0.00     0.178 HD
ENDBRANCH  13  15
ENDBRANCH  11  13
ENDBRANCH   1  11
BRANCH   4  18
HETATM   18  N5  UNL     1       2.132  -2.254   1.415  1.00  0.00    -0.234 N 
ATOM     19  H52 UNL     1       1.435  -2.793   1.929  1.00  0.00     0.174 HD
ATOM     20  H51 UNL     1       3.105  -2.554   1.483  1.00  0.00     0.174 HD
ENDBRANCH   4  18
TORSDOF 4
