REMARK  4 active torsions:
REMARK  status: ('A' for Active; 'I' for Inactive)
REMARK    1  A    between atoms: C2_5  and  N3_6 
REMARK    2  A    between atoms: C3_9  and  C4_10 
REMARK    3  A    between atoms: C4_10  and  N4_11 
REMARK    4  A    between atoms: N6_19  and  N7_20 
ROOT
HETATM    1  C1  UNL     1      -2.286  -1.741  -0.050  1.00  0.00     0.179 C 
HETATM    2  N1  UNL     1      -0.954  -1.156   0.092  1.00  0.00    -0.276 N 
HETATM    3  N2  UNL     1       0.071  -1.897   0.480  1.00  0.00    -0.282 N 
ATOM      4  H2  UNL     1      -0.057  -2.888   0.685  1.00  0.00     0.189 HD
HETATM    5  C2  UNL     1       1.271  -1.335   0.600  1.00  0.00     0.124 A 
HETATM    6  C3  UNL     1       1.481   0.016   0.329  1.00  0.00     0.043 A 
HETATM    7  C5  UNL     1       0.395   0.774  -0.075  1.00  0.00     0.092 A 
HETATM    8  N5  UNL     1       0.256   2.079  -0.408  1.00  0.00    -0.347 N 
ATOM      9  H5  UNL     1       0.991   2.787  -0.419  1.00  0.00     0.167 HD
HETATM   10  C6  UNL     1      -1.039   2.261  -0.722  1.00  0.00     0.208 A 
HETATM   11  N6  UNL     1      -1.708   1.086  -0.588  1.00  0.00    -0.238 N 
HETATM   12  C7  UNL     1      -0.824   0.159  -0.187  1.00  0.00     0.172 A 
ENDROOT
BRANCH   6  13
HETATM   13  C4  UNL     1       2.813   0.620   0.467  1.00  0.00     0.274 C 
BRANCH  13  14
HETATM   14  N4  UNL     1       2.747   2.008   0.130  1.00  0.00    -0.075 N 
ATOM     15  H43 UNL     1       2.349   2.161  -0.797  1.00  0.00     0.274 HD
ATOM     16  H42 UNL     1       2.041   2.503   0.675  1.00  0.00     0.274 HD
ATOM     17  H41 UNL     1       3.672   2.427   0.226  1.00  0.00     0.274 HD
ENDBRANCH  13  14
ENDBRANCH   6  13
BRANCH   5  18
HETATM   18  N3  UNL     1       2.316  -1.997   0.973  1.00  0.00    -0.384 N 
ATOM     19  H32 UNL     1       2.162  -2.986   1.171  1.00  0.00     0.157 HD
ATOM     20  H31 UNL     1       3.236  -1.566   1.065  1.00  0.00     0.157 HD
ENDBRANCH   5  18
BRANCH  11  21
HETATM   21  N7  UNL     1      -3.067   0.854  -0.818  1.00  0.00    -0.336 N 
ATOM     22  H72 UNL     1      -3.739   1.558  -1.123  1.00  0.00     0.177 HD
ATOM     23  H71 UNL     1      -3.569  -0.028  -0.717  1.00  0.00     0.177 HD
ENDBRANCH  11  21
TORSDOF 4
