REMARK  4 active torsions:
REMARK  status: ('A' for Active; 'I' for Inactive)
REMARK    1  A    between atoms: C1_2  and  C2_4 
REMARK       I    between atoms: N1_7  and  C5_9 
REMARK    2  A    between atoms: C5_9  and  C6_11 
REMARK    3  A    between atoms: C9_17  and  C10_18 
REMARK       I    between atoms: C10_18  and  N2_20 
REMARK    4  A    between atoms: N2_20  and  C11_22 
ROOT
HETATM    1  C6  UNL     1      -0.605   0.330   0.357  1.00  0.00     0.229 C 
HETATM    2  O4  UNL     1      -1.441   0.999   1.236  1.00  0.00    -0.358 OA
HETATM    3  C7  UNL     1      -1.310   2.348   0.988  1.00  0.00     0.209 C 
HETATM    4 BR1  UNL     1      -1.602   3.311   2.663  1.00  0.00    -0.060 Br
HETATM    5  C8  UNL     1       0.115   2.586   0.557  1.00  0.00     0.113 C 
HETATM    6 BR2  UNL     1       1.105   3.471   1.971  1.00  0.00    -0.087 Br
HETATM    7  C9  UNL     1       0.613   1.202   0.328  1.00  0.00     0.134 C 
ENDROOT
BRANCH   7   8
HETATM    8  C10 UNL     1       1.496   1.024  -0.817  1.00  0.00     0.231 C 
HETATM    9  O5  UNL     1       1.755   1.927  -1.657  1.00  0.00    -0.273 OA
HETATM   10  N2  UNL     1       2.115  -0.239  -1.016  1.00  0.00    -0.313 N 
ATOM     11  H2  UNL     1       1.664  -0.916  -1.631  1.00  0.00     0.170 HD
BRANCH  10  12
HETATM   12  C11 UNL     1       3.227  -0.561  -0.447  1.00  0.00     0.107 A 
HETATM   13  C12 UNL     1       3.749  -1.811  -0.703  1.00  0.00     0.048 A 
HETATM   14  C13 UNL     1       4.928  -2.264  -0.153  1.00  0.00     0.005 A 
HETATM   15  C14 UNL     1       5.621  -1.412   0.701  1.00  0.00     0.017 A 
HETATM   16  C15 UNL     1       5.073  -0.162   0.939  1.00  0.00     0.089 A 
HETATM   17  N3  UNL     1       3.911   0.240   0.376  1.00  0.00    -0.352 N 
ATOM     18  H3  UNL     1       3.550   1.171   0.583  1.00  0.00     0.166 HD
ENDBRANCH  10  12
ENDBRANCH   7   8
BRANCH   1  19
HETATM   19  C5  UNL     1      -1.285   0.142  -0.924  1.00  0.00     0.251 C 
HETATM   20  N1  UNL     1      -2.616   0.614  -1.079  1.00  0.00    -0.331 N 
HETATM   21  C4  UNL     1      -3.633  -0.192  -1.101  1.00  0.00     0.005 A 
ATOM     22  H1  UNL     1      -2.777   1.617  -1.176  1.00  0.00     0.168 HD
HETATM   23  C2  UNL     1      -4.427  -1.428  -1.068  1.00  0.00     0.137 A 
HETATM   24  C3  UNL     1      -5.152  -0.094  -1.242  1.00  0.00     0.074 A 
HETATM   25  O3  UNL     1      -0.741  -0.431  -1.923  1.00  0.00    -0.270 OA
BRANCH  23  26
HETATM   26  C1  UNL     1      -4.732  -2.095   0.200  1.00  0.00     0.183 C 
HETATM   27  O1  UNL     1      -4.891  -3.342   0.232  1.00  0.00    -0.647 OA
HETATM   28  O2  UNL     1      -4.864  -1.436   1.415  1.00  0.00    -0.647 OA
ENDBRANCH  23  26
ENDBRANCH   1  19
TORSDOF 4
