REMARK  4 active torsions:
REMARK  status: ('A' for Active; 'I' for Inactive)
REMARK       I    between atoms: C1_2  and  N1_3 
REMARK    1  A    between atoms: C1_2  and  C13_23 
REMARK    2  A    between atoms: N1_3  and  C2_5 
REMARK    3  A    between atoms: C4_9  and  C5_10 
REMARK    4  A    between atoms: C6_13  and  C7_14 
ROOT
HETATM    1  C2  UNL     1       2.480  -0.432   0.189  1.00  0.00     0.214 C 
HETATM    2  C3  UNL     1       1.753  -1.718  -0.020  1.00  0.00     0.247 C 
HETATM    3  O2  UNL     1       2.105  -2.921   0.088  1.00  0.00    -0.271 OA
HETATM    4  N2  UNL     1       0.579  -1.061  -0.367  1.00  0.00    -0.313 N 
HETATM    5  C4  UNL     1      -0.801  -0.814  -0.599  1.00  0.00     0.208 C 
HETATM    6  C6  UNL     1      -1.159   0.583  -0.335  1.00  0.00     0.148 C 
HETATM    7  S1  UNL     1       0.366   1.358   0.068  1.00  0.00     0.175 S 
HETATM    8  O5  UNL     1       0.538   2.683  -0.615  1.00  0.00    -0.225 OA
HETATM    9  O6  UNL     1       0.646   1.448   1.536  1.00  0.00    -0.225 OA
HETATM   10  C12 UNL     1       1.392   0.108  -0.666  1.00  0.00     0.243 C 
ENDROOT
BRANCH   1  11
HETATM   11  N1  UNL     1       3.757  -0.361  -0.493  1.00  0.00    -0.343 N 
HETATM   12  C1  UNL     1       4.941   0.092   0.119  1.00  0.00     0.243 C 
HETATM   13  O1  UNL     1       4.881   0.453   1.322  1.00  0.00    -0.271 OA
ATOM     14  H1  UNL     1       3.800  -0.655  -1.469  1.00  0.00     0.163 HD
BRANCH  12  15
HETATM   15  C13 UNL     1       6.225   0.146  -0.624  1.00  0.00     0.221 C 
HETATM   16 BR1  UNL     1       5.953   1.340  -2.131  1.00  0.00    -0.069 Br
HETATM   17 BR2  UNL     1       7.641   0.773   0.513  1.00  0.00    -0.069 Br
ENDBRANCH  12  15
ENDBRANCH   1  11
BRANCH   5  18
HETATM   18  C5  UNL     1      -1.121  -1.266  -1.988  1.00  0.00     0.198 C 
HETATM   19  O3  UNL     1      -0.214  -1.782  -2.675  1.00  0.00    -0.646 OA
HETATM   20  O4  UNL     1      -2.399  -1.102  -2.472  1.00  0.00    -0.646 OA
ENDBRANCH   5  18
BRANCH   6  21
HETATM   21  C7  UNL     1      -2.262   0.808   0.640  1.00  0.00     0.007 C 
HETATM   22  C8  UNL     1      -2.073   0.276   2.008  1.00  0.00     0.006 C 
HETATM   23  C9  UNL     1      -3.467   0.478   2.622  1.00  0.00     0.000 C 
HETATM   24  C10 UNL     1      -4.420   0.458   1.473  1.00  0.00     0.000 C 
HETATM   25  C11 UNL     1      -3.566   0.171   0.228  1.00  0.00     0.006 C 
ENDBRANCH   6  21
TORSDOF 4
