REMARK  5 active torsions:
REMARK  status: ('A' for Active; 'I' for Inactive)
REMARK    1  A    between atoms: N1_9  and  C8_10 
REMARK    2  A    between atoms: C11_13  and  N2_14 
REMARK    3  A    between atoms: N2_14  and  S1_16 
REMARK    4  A    between atoms: S1_16  and  C12_19 
REMARK    5  A    between atoms: C20_28  and  O3_29 
ROOT
HETATM    1  C8  UNL     1      -1.108  -0.496   0.534  1.00  0.00     0.033 A 
HETATM    2  C9  UNL     1      -0.577   0.670   1.042  1.00  0.00     0.031 A 
HETATM    3  C10 UNL     1       0.774   0.767   1.399  1.00  0.00     0.032 A 
HETATM    4  C11 UNL     1       1.641  -0.290   1.261  1.00  0.00     0.042 A 
HETATM    5  C18 UNL     1       1.118  -1.472   0.749  1.00  0.00     0.032 A 
HETATM    6  C19 UNL     1      -0.212  -1.558   0.402  1.00  0.00     0.031 A 
ENDROOT
BRANCH   1   7
HETATM    7  N1  UNL     1      -2.461  -0.623   0.184  1.00  0.00    -0.345 N 
HETATM    8  C6  UNL     1      -2.963  -1.658  -0.707  1.00  0.00     0.125 C 
HETATM    9  C5  UNL     1      -4.271  -2.198  -0.282  1.00  0.00    -0.004 C 
HETATM   10  C7  UNL     1      -3.400  -0.885  -1.968  1.00  0.00     0.092 C 
HETATM   11  C4  UNL     1      -5.259  -1.410  -0.679  1.00  0.00    -0.022 C 
HETATM   12  C3  UNL     1      -4.670  -0.245  -1.424  1.00  0.00     0.032 C 
HETATM   13  C2  UNL     1      -4.219   0.847  -0.486  1.00  0.00     0.039 C 
HETATM   14  C1  UNL     1      -5.371   1.700  -0.011  1.00  0.00     0.015 C 
HETATM   15  C20 UNL     1      -3.472   0.271   0.703  1.00  0.00     0.225 C 
HETATM   16 BR1  UNL     1      -3.759  -2.106  -3.399  1.00  0.00    -0.088 Br
BRANCH  15  17
HETATM   17  O3  UNL     1      -4.412  -0.404   1.499  1.00  0.00    -0.376 OA
ATOM     18  H3  UNL     1      -3.944  -0.765   2.243  1.00  0.00     0.212 HD
ENDBRANCH  15  17
ENDBRANCH   1   7
BRANCH   4  19
HETATM   19  N2  UNL     1       2.987  -0.154   1.645  1.00  0.00    -0.281 N 
ATOM     20  H2  UNL     1       3.416  -0.882   2.216  1.00  0.00     0.179 HD
BRANCH  19  21
HETATM   21  S1  UNL     1       3.915   1.187   1.184  1.00  0.00     0.264 S 
HETATM   22  O1  UNL     1       4.462   1.823   2.446  1.00  0.00    -0.200 OA
HETATM   23  O2  UNL     1       3.029   2.225   0.503  1.00  0.00    -0.200 OA
BRANCH  21  24
HETATM   24  C12 UNL     1       5.252   0.842   0.140  1.00  0.00     0.101 A 
HETATM   25  C13 UNL     1       6.526   1.086   0.610  1.00  0.00     0.027 A 
HETATM   26  C14 UNL     1       7.671   0.835  -0.129  1.00  0.00     0.002 A 
HETATM   27  C15 UNL     1       7.582   0.319  -1.395  1.00  0.00     0.002 A 
HETATM   28  C16 UNL     1       6.318   0.071  -1.877  1.00  0.00     0.025 A 
HETATM   29  C17 UNL     1       5.164   0.325  -1.128  1.00  0.00     0.057 A 
HETATM   30 CL1  UNL     1       3.607   0.007  -1.801  1.00  0.00    -0.083 Cl
ENDBRANCH  21  24
ENDBRANCH  19  21
ENDBRANCH   4  19
TORSDOF 5
