REMARK  8 active torsions:
REMARK  status: ('A' for Active; 'I' for Inactive)
REMARK    1  A    between atoms: O1_1  and  C1_3 
REMARK    2  A    between atoms: C1_3  and  N1_4 
REMARK    3  A    between atoms: C1_3  and  C18_28 
REMARK    4  A    between atoms: N1_4  and  C2_6 
REMARK       I    between atoms: N2_9  and  C5_10 
REMARK    5  A    between atoms: C5_10  and  O3_12 
REMARK    6  A    between atoms: O3_12  and  C6_13 
REMARK    7  A    between atoms: C10_17  and  N3_18 
REMARK       I    between atoms: N3_18  and  C11_20 
REMARK    8  A    between atoms: C11_20  and  C12_22 
ROOT
HETATM    1  C2  UNL     1      -3.487   0.087  -0.454  1.00  0.00     0.103 C 
HETATM    2  C3  UNL     1      -3.230  -1.403  -0.203  1.00  0.00     0.047 C 
HETATM    3  C4  UNL     1      -2.001  -1.745  -1.044  1.00  0.00     0.130 C 
HETATM    4  N2  UNL     1      -1.412  -0.441  -1.240  1.00  0.00    -0.326 N 
HETATM    5  C5  UNL     1      -0.037  -0.147  -1.144  1.00  0.00     0.363 C 
HETATM    6  O2  UNL     1       0.404   1.030  -1.352  1.00  0.00    -0.238 OA
HETATM    7  C17 UNL     1      -2.506   0.456  -1.534  1.00  0.00     0.153 C 
ENDROOT
BRANCH   5   8
HETATM    8  O3  UNL     1       0.885  -1.103  -0.823  1.00  0.00    -0.296 OA
BRANCH   8   9
HETATM    9  C6  UNL     1       2.247  -0.958  -0.696  1.00  0.00     0.156 C 
HETATM   10  C7  UNL     1       3.103  -1.853  -1.516  1.00  0.00     0.035 C 
HETATM   11  C8  UNL     1       3.063  -3.145  -0.691  1.00  0.00     0.005 C 
HETATM   12  C9  UNL     1       2.948  -2.683   0.746  1.00  0.00     0.028 C 
HETATM   13  C10 UNL     1       2.774  -1.186   0.703  1.00  0.00     0.114 C 
BRANCH  13  14
HETATM   14  N3  UNL     1       4.015  -0.459   0.917  1.00  0.00    -0.354 N 
HETATM   15  C11 UNL     1       4.163   0.509   1.933  1.00  0.00     0.222 C 
HETATM   16  O4  UNL     1       3.206   0.767   2.690  1.00  0.00    -0.273 OA
ATOM     17  H3  UNL     1       4.810  -0.656   0.309  1.00  0.00     0.163 HD
BRANCH  15  18
HETATM   18  C12 UNL     1       5.443   1.226   2.117  1.00  0.00     0.078 C 
HETATM   19  C13 UNL     1       6.570   0.312   2.471  1.00  0.00     0.014 C 
HETATM   20  C14 UNL     1       7.520   0.229   1.321  1.00  0.00     0.001 C 
HETATM   21  C15 UNL     1       7.011   1.167   0.267  1.00  0.00     0.001 C 
HETATM   22  C16 UNL     1       5.874   1.931   0.859  1.00  0.00     0.014 C 
ENDBRANCH  15  18
ENDBRANCH  13  14
ENDBRANCH   8   9
ENDBRANCH   5   8
BRANCH   1  23
HETATM   23  N1  UNL     1      -4.886   0.260  -0.897  1.00  0.00    -0.364 N 
ATOM     24  H1  UNL     1      -5.234  -0.176  -1.751  1.00  0.00     0.162 HD
BRANCH  23  25
HETATM   25  C1  UNL     1      -5.705   1.046  -0.093  1.00  0.00     0.150 C 
BRANCH  25  26
HETATM   26  O1  UNL     1      -5.197   1.561   0.990  1.00  0.00    -0.346 OA
ATOM     27  H1  UNL     1      -5.756   2.098   1.539  1.00  0.00     0.219 HD
ENDBRANCH  25  26
BRANCH  25  28
HETATM   28  C18 UNL     1      -7.099   1.382  -0.297  1.00  0.00     0.058 A 
HETATM   29  C19 UNL     1      -7.880   1.811   0.793  1.00  0.00     0.050 A 
HETATM   30 CL1  UNL     1      -7.144   1.884   2.375  1.00  0.00    -0.083 Cl
HETATM   31  C20 UNL     1      -9.195   2.177   0.688  1.00  0.00     0.025 A 
HETATM   32  C21 UNL     1      -9.823   2.137  -0.531  1.00  0.00     0.003 A 
HETATM   33  C22 UNL     1      -9.102   1.727  -1.620  1.00  0.00     0.025 A 
HETATM   34  C23 UNL     1      -7.751   1.355  -1.496  1.00  0.00     0.050 A 
HETATM   35 CL2  UNL     1      -6.949   0.902  -3.003  1.00  0.00    -0.083 Cl
ENDBRANCH  25  28
ENDBRANCH  23  25
ENDBRANCH   1  23
TORSDOF 8
