REMARK  7 active torsions:
REMARK  status: ('A' for Active; 'I' for Inactive)
REMARK    1  A    between atoms: C3_3  and  C4_4 
REMARK    2  A    between atoms: C4_4  and  O1_5 
REMARK    3  A    between atoms: C8_10  and  O2_11 
REMARK    4  A    between atoms: C15_20  and  C16_21 
REMARK    5  A    between atoms: C16_21  and  C18_23 
REMARK    6  A    between atoms: C16_21  and  N1_26 
REMARK    7  A    between atoms: C18_23  and  C19_24 
ROOT
HETATM    1  C1  UNL     1      -4.823   3.173   2.785  1.00  0.00     0.112 C 
HETATM    2  C2  UNL     1      -4.460   1.916   2.134  1.00  0.00    -0.108 C 
HETATM    3  C3  UNL     1      -4.161   0.867   1.606  1.00  0.00    -0.064 C 
ENDROOT
BRANCH   3   4
HETATM    4  C4  UNL     1      -3.804  -0.380   1.033  1.00  0.00     0.146 C 
HETATM    5  C5  UNL     1      -2.340  -0.705   1.315  1.00  0.00     0.062 C 
HETATM    6  C6  UNL     1      -1.380   0.221   0.594  1.00  0.00     0.002 C 
HETATM    7  C7  UNL     1      -1.697   0.625  -0.776  1.00  0.00     0.038 C 
HETATM    8  C12 UNL     1      -0.036  -0.354   0.847  1.00  0.00     0.002 C 
HETATM    9  C8  UNL     1      -0.692   0.335  -1.842  1.00  0.00     0.158 C 
HETATM   10  C22 UNL     1      -3.097   0.367  -1.304  1.00  0.00     0.008 A 
HETATM   11  C9  UNL     1       0.653  -0.155  -1.454  1.00  0.00     0.208 C 
HETATM   12  F1  UNL     1       0.816  -1.448  -1.927  1.00  0.00    -0.246 F 
HETATM   13  C10 UNL     1       1.082   0.114  -0.096  1.00  0.00    -0.001 C 
HETATM   14  C11 UNL     1       1.133   1.620   0.148  1.00  0.00     0.019 C 
HETATM   15  C15 UNL     1       2.155  -0.618   0.577  1.00  0.00     0.035 C 
HETATM   16  C14 UNL     1       1.592  -2.023   0.646  1.00  0.00     0.008 C 
HETATM   17  C13 UNL     1       0.085  -1.845   0.739  1.00  0.00     0.006 C 
HETATM   18  C23 UNL     1      -3.846   1.756  -1.184  1.00  0.00     0.025 C 
HETATM   19  C24 UNL     1      -3.222   0.111  -2.720  1.00  0.00    -0.008 A 
HETATM   20  C28 UNL     1      -3.873  -0.521  -0.457  1.00  0.00    -0.017 A 
HETATM   21  C25 UNL     1      -3.980  -0.816  -3.225  1.00  0.00     0.052 A 
HETATM   22  C26 UNL     1      -4.784  -1.710  -2.401  1.00  0.00     0.172 A 
HETATM   23  O3  UNL     1      -5.521  -2.600  -2.853  1.00  0.00    -0.289 OA
HETATM   24  C27 UNL     1      -4.638  -1.455  -0.973  1.00  0.00     0.062 A 
BRANCH   4  25
HETATM   25  O1  UNL     1      -4.499  -1.467   1.638  1.00  0.00    -0.373 OA
ATOM     26  H1  UNL     1      -4.260  -2.302   1.254  1.00  0.00     0.212 HD
ENDBRANCH   4  25
BRANCH   9  27
HETATM   27  O2  UNL     1      -0.526   1.448  -2.723  1.00  0.00    -0.392 OA
ATOM     28  H2  UNL     1       0.113   1.264  -3.401  1.00  0.00     0.210 HD
ENDBRANCH   9  27
BRANCH  15  29
HETATM   29  C16 UNL     1       3.577  -0.590   0.175  1.00  0.00     0.162 C 
HETATM   30  C17 UNL     1       3.849  -1.152  -1.231  1.00  0.00     0.049 C 
BRANCH  29  31
HETATM   31  C18 UNL     1       4.269  -1.581   1.093  1.00  0.00     0.073 C 
BRANCH  31  32
HETATM   32  C19 UNL     1       4.201  -1.349   2.544  1.00  0.00     0.224 C 
HETATM   33  F2  UNL     1       4.920  -2.410   3.148  1.00  0.00    -0.255 F 
ENDBRANCH  31  32
ENDBRANCH  29  31
BRANCH  29  34
HETATM   34  N1  UNL     1       4.236   0.678   0.157  1.00  0.00     0.089 N 
HETATM   35  C20 UNL     1       5.608   0.708   0.623  1.00  0.00     0.310 C 
HETATM   36  C21 UNL     1       4.403   1.255  -1.185  1.00  0.00     0.310 C 
ENDBRANCH  29  34
ENDBRANCH  15  29
ENDBRANCH   3   4
TORSDOF 7
