REMARK  7 active torsions:
REMARK  status: ('A' for Active; 'I' for Inactive)
REMARK    1  A    between atoms: C1_2  and  C2_4 
REMARK    2  A    between atoms: C2_4  and  C3_5 
REMARK    3  A    between atoms: C2_4  and  N2_14 
REMARK    4  A    between atoms: C3_5  and  C4_6 
REMARK    5  A    between atoms: N1_11  and  O3_12 
REMARK    6  A    between atoms: N2_14  and  S1_16 
REMARK    7  A    between atoms: S1_16  and  C9_19 
ROOT
HETATM    1  C2  UNL     1      -0.291   0.720   0.429  1.00  0.00     0.199 C 
ENDROOT
BRANCH   1   2
HETATM    2  C1  UNL     1      -0.280   1.185  -0.973  1.00  0.00     0.197 C 
HETATM    3  O1  UNL     1       0.346   2.199  -1.376  1.00  0.00    -0.646 OA
HETATM    4  O2  UNL     1      -0.991   0.476  -1.923  1.00  0.00    -0.646 OA
ENDBRANCH   1   2
BRANCH   1   5
HETATM    5  C3  UNL     1      -1.615   0.867   1.086  1.00  0.00     0.096 C 
BRANCH   5   6
HETATM    6  C4  UNL     1      -2.754   0.169   0.519  1.00  0.00     0.042 A 
HETATM    7  C5  UNL     1      -3.593   0.750  -0.408  1.00  0.00     0.027 A 
HETATM    8  C6  UNL     1      -4.681   0.074  -0.945  1.00  0.00     0.003 A 
HETATM    9  C7  UNL     1      -4.940  -1.220  -0.547  1.00  0.00     0.020 A 
HETATM   10  C8  UNL     1      -4.087  -1.778   0.379  1.00  0.00     0.123 A 
HETATM   11  N1  UNL     1      -3.043  -1.102   0.883  1.00  0.00    -0.240 N 
BRANCH  11  12
HETATM   12  O3  UNL     1      -2.254  -1.725   1.790  1.00  0.00    -0.283 OA
ATOM     13  H3  UNL     1      -2.457  -2.617   2.046  1.00  0.00     0.245 HD
ENDBRANCH  11  12
ENDBRANCH   5   6
ENDBRANCH   1   5
BRANCH   1  14
HETATM   14  N2  UNL     1       0.610   1.623   1.173  1.00  0.00    -0.300 N 
ATOM     15  H2  UNL     1       0.470   2.630   1.260  1.00  0.00     0.173 HD
BRANCH  14  16
HETATM   16  S1  UNL     1       1.918   0.771   1.871  1.00  0.00     0.259 S 
HETATM   17  O4  UNL     1       2.706   1.766   2.704  1.00  0.00    -0.201 OA
HETATM   18  O5  UNL     1       1.448  -0.288   2.839  1.00  0.00    -0.201 OA
BRANCH  16  19
HETATM   19  C9  UNL     1       2.936  -0.019   0.704  1.00  0.00     0.080 A 
HETATM   20  C10 UNL     1       2.735  -1.322   0.336  1.00  0.00     0.027 A 
HETATM   21  C11 UNL     1       3.558  -1.921  -0.595  1.00  0.00     0.022 A 
HETATM   22  C12 UNL     1       4.582  -1.229  -1.164  1.00  0.00     0.028 A 
HETATM   23 BR1  UNL     1       5.719  -2.073  -2.458  1.00  0.00    -0.050 Br
HETATM   24  C13 UNL     1       4.788   0.075  -0.800  1.00  0.00     0.029 A 
HETATM   25 BR2  UNL     1       6.203   1.108  -1.556  1.00  0.00    -0.050 Br
HETATM   26  C14 UNL     1       3.980   0.675   0.120  1.00  0.00     0.045 A 
ENDBRANCH  16  19
ENDBRANCH  14  16
ENDBRANCH   1  14
TORSDOF 7
