REMARK  5 active torsions:
REMARK  status: ('A' for Active; 'I' for Inactive)
REMARK    1  A    between atoms: C7_9  and  N2_10 
REMARK       I    between atoms: N2_10  and  C8_11 
REMARK    2  A    between atoms: C8_11  and  C9_13 
REMARK    3  A    between atoms: C9_13  and  N3_14 
REMARK    4  A    between atoms: N3_14  and  S1_16 
REMARK    5  A    between atoms: S1_16  and  C10_19 
ROOT
HETATM    1  N1  UNL     1      -2.522  -2.911   0.831  1.00  0.00    -0.191 NA
HETATM    2  C1  UNL     1      -3.159  -1.954   0.797  1.00  0.00     0.104 C 
HETATM    3  C2  UNL     1      -3.980  -0.798   0.774  1.00  0.00     0.102 A 
HETATM    4  C3  UNL     1      -5.192  -0.880   1.383  1.00  0.00     0.035 A 
HETATM    5 BR1  UNL     1      -5.758  -2.471   2.241  1.00  0.00    -0.049 Br
HETATM    6  C4  UNL     1      -6.030   0.208   1.377  1.00  0.00     0.021 A 
HETATM    7  C5  UNL     1      -5.685   1.381   0.775  1.00  0.00     0.005 A 
HETATM    8  C6  UNL     1      -4.445   1.436   0.163  1.00  0.00     0.046 A 
HETATM    9  C7  UNL     1      -3.550   0.359   0.139  1.00  0.00     0.133 A 
ENDROOT
BRANCH   9  10
HETATM   10  N2  UNL     1      -2.260   0.374  -0.375  1.00  0.00    -0.368 NA
HETATM   11  C8  UNL     1      -1.033   0.389  -0.865  1.00  0.00     0.310 C 
HETATM   12  O1  UNL     1      -0.551   1.251  -1.676  1.00  0.00    -0.255 OA
BRANCH  11  13
HETATM   13  C9  UNL     1       0.040  -0.664  -0.529  1.00  0.00     0.251 C 
BRANCH  13  14
HETATM   14  N3  UNL     1       1.199  -0.330  -1.274  1.00  0.00    -0.305 N 
ATOM     15  H3  UNL     1       1.223   0.477  -1.898  1.00  0.00     0.172 HD
BRANCH  14  16
HETATM   16  S1  UNL     1       2.553  -1.352  -1.070  1.00  0.00     0.260 S 
HETATM   17  O2  UNL     1       2.277  -2.545  -0.207  1.00  0.00    -0.200 OA
HETATM   18  O3  UNL     1       2.983  -1.848  -2.405  1.00  0.00    -0.200 OA
BRANCH  16  19
HETATM   19  C10 UNL     1       3.809  -0.392  -0.327  1.00  0.00     0.096 A 
HETATM   20  C11 UNL     1       4.270  -0.719   0.913  1.00  0.00     0.027 A 
HETATM   21  C12 UNL     1       5.255   0.090   1.485  1.00  0.00     0.002 A 
HETATM   22  C13 UNL     1       5.756   1.173   0.846  1.00  0.00     0.001 A 
HETATM   23  C14 UNL     1       5.275   1.476  -0.400  1.00  0.00     0.020 A 
HETATM   24  C15 UNL     1       4.288   0.693  -1.009  1.00  0.00     0.034 A 
HETATM   25 BR2  UNL     1       3.704   1.193  -2.757  1.00  0.00    -0.049 Br
ENDBRANCH  16  19
ENDBRANCH  14  16
ENDBRANCH  13  14
ENDBRANCH  11  13
ENDBRANCH   9  10
TORSDOF 5
