REMARK  5 active torsions:
REMARK  status: ('A' for Active; 'I' for Inactive)
REMARK    1  A    between atoms: C1_2  and  C2_4 
REMARK    2  A    between atoms: C2_4  and  N1_5 
REMARK       I    between atoms: N1_5  and  C3_7 
REMARK    3  A    between atoms: C3_7  and  C4_9 
REMARK    4  A    between atoms: C10_16  and  C11_17 
REMARK    5  A    between atoms: C11_17  and  C12_19 
ROOT
HETATM    1  C4  UNL     1       0.557  -0.762   0.066  1.00  0.00     0.081 C 
HETATM    2  C5  UNL     1       0.710  -2.168  -0.510  1.00  0.00     0.026 C 
HETATM    3  C6  UNL     1      -0.488  -3.029  -0.308  1.00  0.00    -0.007 C 
HETATM    4  C7  UNL     1      -0.978  -2.946   1.120  1.00  0.00     0.041 C 
HETATM    5  C8  UNL     1      -1.218  -1.453   1.385  1.00  0.00     0.228 C 
HETATM    6  C9  UNL     1       0.167  -0.855   1.538  1.00  0.00     0.057 C 
HETATM    7  N2  UNL     1      -1.771  -0.797   0.249  1.00  0.00     0.137 N 
HETATM    8  C10 UNL     1      -0.694  -0.201  -0.533  1.00  0.00     0.313 C 
HETATM    9  C15 UNL     1      -2.533  -1.637  -0.630  1.00  0.00     0.274 C 
HETATM   10 BR1  UNL     1      -4.122  -2.349   0.155  1.00  0.00    -0.038 Br
HETATM   11 BR2  UNL     1      -3.075  -0.521  -2.141  1.00  0.00    -0.038 Br
HETATM   12  C16 UNL     1      -1.638  -2.732  -1.223  1.00  0.00     0.071 C 
ENDROOT
BRANCH   1  13
HETATM   13  C3  UNL     1       1.793  -0.046  -0.146  1.00  0.00     0.229 C 
HETATM   14  N1  UNL     1       2.185   1.203   0.400  1.00  0.00    -0.350 N 
ATOM     15  H1  UNL     1       1.521   1.669   1.018  1.00  0.00     0.163 HD
HETATM   16  O3  UNL     1       2.668  -0.574  -0.916  1.00  0.00    -0.273 OA
BRANCH  14  17
HETATM   17  C2  UNL     1       3.422   1.863   0.162  1.00  0.00     0.235 C 
BRANCH  17  18
HETATM   18  C1  UNL     1       3.723   2.200  -1.236  1.00  0.00     0.191 C 
HETATM   19  O1  UNL     1       3.005   1.957  -2.234  1.00  0.00    -0.647 OA
HETATM   20  O2  UNL     1       4.953   2.861  -1.440  1.00  0.00    -0.647 OA
ENDBRANCH  17  18
ENDBRANCH  14  17
ENDBRANCH   1  13
BRANCH   8  21
HETATM   21  C11 UNL     1      -0.852   1.253  -0.483  1.00  0.00     0.165 C 
HETATM   22  O4  UNL     1      -0.198   1.954  -1.235  1.00  0.00    -0.295 OA
BRANCH  21  23
HETATM   23  C12 UNL     1      -1.807   1.928   0.475  1.00  0.00     0.058 A 
HETATM   24  C13 UNL     1      -1.330   3.245   1.016  1.00  0.00     0.013 A 
HETATM   25  C14 UNL     1      -2.456   3.206   0.009  1.00  0.00     0.013 A 
ENDBRANCH  21  23
ENDBRANCH   8  21
TORSDOF 5
