REMARK  4 active torsions:
REMARK  status: ('A' for Active; 'I' for Inactive)
REMARK    1  A    between atoms: C1_2  and  C2_3 
REMARK       I    between atoms: C1_2  and  N2_18 
REMARK    2  A    between atoms: C2_3  and  N1_4 
REMARK       I    between atoms: N1_4  and  C3_6 
REMARK    3  A    between atoms: C3_6  and  C4_8 
REMARK    4  A    between atoms: N2_18  and  C14_20 
ROOT
HETATM    1  C2  UNL     1       1.061   1.010  -0.703  1.00  0.00     0.225 C 
ENDROOT
BRANCH   1   2
HETATM    2  C1  UNL     1       2.219   0.182  -0.328  1.00  0.00     0.236 C 
HETATM    3  O1  UNL     1       2.055  -0.828   0.378  1.00  0.00    -0.272 OA
HETATM    4  N2  UNL     1       3.511   0.532  -0.766  1.00  0.00    -0.342 N 
ATOM      5  H2  UNL     1       3.611   1.367  -1.343  1.00  0.00     0.163 HD
BRANCH   4   6
HETATM    6  C14 UNL     1       4.702  -0.220  -0.448  1.00  0.00     0.211 C 
HETATM    7  C15 UNL     1       5.451  -0.733  -1.618  1.00  0.00     0.046 C 
HETATM    8  C16 UNL     1       6.829  -0.215  -1.672  1.00  0.00     0.075 C 
HETATM    9  C17 UNL     1       7.365  -0.017  -0.270  1.00  0.00     0.263 C 
HETATM   10  F1  UNL     1       7.586  -1.262   0.280  1.00  0.00    -0.213 F 
HETATM   11 BR1  UNL     1       8.873   1.140  -0.205  1.00  0.00    -0.031 Br
HETATM   12  S1  UNL     1       5.899   0.740   0.455  1.00  0.00     0.213 S 
HETATM   13  O3  UNL     1       5.829   0.524   1.911  1.00  0.00    -0.221 OA
HETATM   14  O4  UNL     1       5.834   2.153   0.027  1.00  0.00    -0.221 OA
ENDBRANCH   4   6
ENDBRANCH   1   2
BRANCH   1  15
HETATM   15  N1  UNL     1      -0.178   0.469  -0.143  1.00  0.00    -0.352 N 
HETATM   16  C3  UNL     1      -1.428   1.067  -0.349  1.00  0.00     0.226 C 
HETATM   17  O2  UNL     1      -1.514   2.108  -1.037  1.00  0.00    -0.273 OA
ATOM     18  H1  UNL     1      -0.129  -0.379   0.421  1.00  0.00     0.162 HD
BRANCH  16  19
HETATM   19  C4  UNL     1      -2.650   0.481   0.239  1.00  0.00     0.042 C 
HETATM   20  C5  UNL     1      -2.775  -0.936  -0.334  1.00  0.00     0.024 C 
HETATM   21  C6  UNL     1      -3.971  -1.649   0.239  1.00  0.00    -0.013 C 
HETATM   22  C7  UNL     1      -5.201  -0.873  -0.142  1.00  0.00     0.009 C 
HETATM   23  C11 UNL     1      -3.825  -1.723   1.746  1.00  0.00     0.009 C 
HETATM   24  C8  UNL     1      -5.089   0.523   0.416  1.00  0.00    -0.013 C 
HETATM   25  C9  UNL     1      -5.031   0.426   1.908  1.00  0.00     0.009 C 
HETATM   26  C13 UNL     1      -3.889   1.249  -0.137  1.00  0.00     0.024 C 
HETATM   27  C10 UNL     1      -3.761  -0.309   2.279  1.00  0.00    -0.013 C 
HETATM   28  C12 UNL     1      -2.547   0.379   1.748  1.00  0.00     0.024 C 
ENDBRANCH  16  19
ENDBRANCH   1  15
TORSDOF 4
