REMARK  5 active torsions:
REMARK  status: ('A' for Active; 'I' for Inactive)
REMARK       I    between atoms: N1_2  and  C2_4 
REMARK    1  A    between atoms: C2_4  and  C3_6 
REMARK    2  A    between atoms: C20_24  and  C21_25 
REMARK    3  A    between atoms: C21_25  and  C22_26 
REMARK    4  A    between atoms: C21_25  and  C27_32 
REMARK    5  A    between atoms: C22_26  and  N2_27 
ROOT
HETATM    1  C3  UNL     1      -3.141   0.801  -0.645  1.00  0.00     0.086 C 
HETATM    2  C4  UNL     1      -4.407   0.294   0.007  1.00  0.00     0.049 C 
HETATM    3  C5  UNL     1      -4.300  -1.133   0.393  1.00  0.00    -0.067 C 
HETATM    4  C6  UNL     1      -5.284  -1.959   0.145  1.00  0.00     0.053 C 
HETATM    5  C7  UNL     1      -5.169  -3.356   0.528  1.00  0.00     0.149 C 
HETATM    6  O2  UNL     1      -5.782  -4.278  -0.062  1.00  0.00    -0.293 OA
HETATM    7  C8  UNL     1      -4.258  -3.643   1.691  1.00  0.00     0.084 C 
HETATM    8  C9  UNL     1      -2.923  -3.045   1.260  1.00  0.00     0.022 C 
HETATM    9  C10 UNL     1      -3.063  -1.558   1.056  1.00  0.00    -0.016 C 
HETATM   10  C11 UNL     1      -2.988  -0.921   2.420  1.00  0.00     0.020 C 
HETATM   11  C12 UNL     1      -1.923  -1.095   0.161  1.00  0.00     0.003 C 
HETATM   12  C13 UNL     1      -0.633  -1.752   0.509  1.00  0.00     0.007 C 
HETATM   13  C14 UNL     1       0.393  -1.292  -0.503  1.00  0.00     0.010 C 
HETATM   14  C15 UNL     1       0.614   0.149  -0.243  1.00  0.00    -0.036 C 
HETATM   15  C16 UNL     1       0.946   0.376   1.199  1.00  0.00     0.016 C 
HETATM   16  C17 UNL     1      -0.686   0.930  -0.594  1.00  0.00    -0.001 C 
HETATM   17  C18 UNL     1      -0.196   2.290  -0.215  1.00  0.00     0.006 C 
HETATM   18  C19 UNL     1       1.251   2.282  -0.752  1.00  0.00     0.006 C 
HETATM   19  C20 UNL     1       1.468   0.860  -1.234  1.00  0.00     0.008 C 
HETATM   20  C28 UNL     1      -1.885   0.414   0.112  1.00  0.00     0.009 C 
ENDROOT
BRANCH  19  21
HETATM   21  C21 UNL     1       2.852   0.429  -1.438  1.00  0.00     0.126 C 
BRANCH  21  22
HETATM   22  C22 UNL     1       3.724   0.506  -0.261  1.00  0.00     0.286 C 
BRANCH  22  23
HETATM   23  N2  UNL     1       5.099   0.087  -0.489  1.00  0.00     0.089 N 
HETATM   24  C23 UNL     1       5.768   0.324   0.811  1.00  0.00     0.272 C 
HETATM   25  C24 UNL     1       7.048  -0.449   0.645  1.00  0.00     0.032 C 
HETATM   26  C25 UNL     1       6.722  -1.533  -0.362  1.00  0.00     0.032 C 
HETATM   27  C26 UNL     1       5.215  -1.359  -0.536  1.00  0.00     0.272 C 
ENDBRANCH  22  23
ENDBRANCH  21  22
BRANCH  21  28
HETATM   28  C27 UNL     1       3.419   1.060  -2.691  1.00  0.00     0.393 C 
HETATM   29  F1  UNL     1       4.724   0.674  -2.928  1.00  0.00    -0.171 F 
HETATM   30  F2  UNL     1       2.686   0.752  -3.818  1.00  0.00    -0.171 F 
HETATM   31  F3  UNL     1       3.474   2.440  -2.639  1.00  0.00    -0.171 F 
ENDBRANCH  21  28
ENDBRANCH  19  21
BRANCH   1  32
HETATM   32  C2  UNL     1      -3.270   2.251  -0.897  1.00  0.00     0.222 C 
HETATM   33  N1  UNL     1      -3.531   3.116   0.190  1.00  0.00    -0.365 N 
HETATM   34  C1  UNL     1      -3.662   4.543  -0.024  1.00  0.00     0.149 C 
ATOM     35  H1  UNL     1      -3.628   2.733   1.131  1.00  0.00     0.161 HD
HETATM   36  O1  UNL     1      -3.144   2.673  -2.078  1.00  0.00    -0.273 OA
ENDBRANCH   1  32
TORSDOF 5
