REMARK  6 active torsions:
REMARK  status: ('A' for Active; 'I' for Inactive)
REMARK    1  A    between atoms: C1_2  and  C2_3 
REMARK       I    between atoms: C1_2  and  N1_13 
REMARK    2  A    between atoms: C2_3  and  O2_4 
REMARK    3  A    between atoms: O2_4  and  C3_5 
REMARK    4  A    between atoms: C3_5  and  C4_7 
REMARK    5  A    between atoms: N1_13  and  C10_15 
REMARK    6  A    between atoms: C14_22  and  C15_23 
ROOT
HETATM    1  C10 UNL     1      -1.899   0.424  -1.483  1.00  0.00     0.116 A 
HETATM    2  N2  UNL     1      -1.339   0.363  -2.717  1.00  0.00    -0.350 N 
ATOM      3  H2  UNL     1      -0.340   0.175  -2.806  1.00  0.00     0.166 HD
HETATM    4  C11 UNL     1      -2.075   0.545  -3.821  1.00  0.00     0.108 A 
HETATM    5  C12 UNL     1      -3.424   0.798  -3.700  1.00  0.00     0.027 A 
HETATM    6 BR1  UNL     1      -4.518   1.066  -5.231  1.00  0.00    -0.050 Br
HETATM    7  C13 UNL     1      -4.029   0.866  -2.441  1.00  0.00     0.033 A 
HETATM    8  C14 UNL     1      -3.261   0.677  -1.316  1.00  0.00     0.011 A 
ENDROOT
BRANCH   1   9
HETATM    9  N1  UNL     1      -1.177   0.286  -0.422  1.00  0.00    -0.311 N 
HETATM   10  C1  UNL     1       0.223   0.067  -0.530  1.00  0.00     0.247 C 
HETATM   11  O1  UNL     1       0.681  -1.043  -0.893  1.00  0.00    -0.271 OA
ATOM     12  H1  UNL     1      -1.613   0.334   0.499  1.00  0.00     0.170 HD
BRANCH  10  13
HETATM   13  C2  UNL     1       1.163   1.156  -0.213  1.00  0.00     0.281 C 
BRANCH  13  14
HETATM   14  O2  UNL     1       2.512   0.832  -0.319  1.00  0.00    -0.312 OA
BRANCH  14  15
HETATM   15  C3  UNL     1       3.174  -0.131   0.417  1.00  0.00     0.263 C 
HETATM   16  O3  UNL     1       2.535  -0.776   1.255  1.00  0.00    -0.265 OA
BRANCH  15  17
HETATM   17  C4  UNL     1       4.624  -0.416   0.236  1.00  0.00     0.085 C 
HETATM   18  C5  UNL     1       5.021  -1.502   1.177  1.00  0.00     0.014 C 
HETATM   19  C6  UNL     1       6.491  -1.770   1.215  1.00  0.00     0.001 C 
HETATM   20  C7  UNL     1       7.289  -0.771   0.405  1.00  0.00     0.000 C 
HETATM   21  C8  UNL     1       6.864   0.647   0.638  1.00  0.00     0.001 C 
HETATM   22  C9  UNL     1       5.376   0.842   0.621  1.00  0.00     0.014 C 
ENDBRANCH  15  17
ENDBRANCH  14  15
ENDBRANCH  13  14
ENDBRANCH  10  13
ENDBRANCH   1   9
BRANCH   8  23
HETATM   23  C15 UNL     1      -3.859   0.675   0.051  1.00  0.00     0.068 C 
HETATM   24 CL1  UNL     1      -2.660   1.683   1.038  1.00  0.00    -0.114 Cl
HETATM   25  C16 UNL     1      -3.764  -0.669   0.699  1.00  0.00     0.032 C 
HETATM   26  C17 UNL     1      -4.980  -1.552   0.483  1.00  0.00     0.022 C 
HETATM   27  C18 UNL     1      -6.234  -0.772   0.210  1.00  0.00     0.082 C 
HETATM   28 CL2  UNL     1      -7.690  -1.685   0.692  1.00  0.00    -0.125 Cl
HETATM   29  C19 UNL     1      -6.190   0.549   0.907  1.00  0.00     0.022 C 
HETATM   30  C20 UNL     1      -5.132   1.404   0.189  1.00  0.00     0.032 C 
ENDBRANCH   8  23
TORSDOF 6
