REMARK  5 active torsions:
REMARK  status: ('A' for Active; 'I' for Inactive)
REMARK       I    between atoms: C1_2  and  N1_3 
REMARK    1  A    between atoms: C1_2  and  C17_21 
REMARK    2  A    between atoms: N1_3  and  C2_5 
REMARK    3  A    between atoms: N2_8  and  C5_9 
REMARK    4  A    between atoms: N3_24  and  C20_25 
REMARK    5  A    between atoms: C24_31  and  C25_32 
ROOT
HETATM    1  O1  UNL     1       1.607   1.151   2.410  1.00  0.00    -0.268 OA
HETATM    2  C1  UNL     1       1.909   0.819   1.231  1.00  0.00     0.247 C 
HETATM    3  N1  UNL     1       0.864   0.296   0.436  1.00  0.00    -0.352 N 
ATOM      4  H1  UNL     1       1.082   0.020  -0.521  1.00  0.00     0.163 HD
ENDROOT
BRANCH   2   5
HETATM    5  C17 UNL     1       3.279   1.006   0.815  1.00  0.00     0.009 C 
HETATM    6  C18 UNL     1       4.201   1.507   1.629  1.00  0.00     0.005 C 
HETATM    7  C19 UNL     1       5.600   1.640   1.039  1.00  0.00     0.152 C 
HETATM    8  N3  UNL     1       5.968   0.407   0.412  1.00  0.00    -0.363 N 
HETATM    9  C26 UNL     1       4.958  -0.240  -0.415  1.00  0.00     0.129 C 
HETATM   10  C27 UNL     1       3.735   0.652  -0.548  1.00  0.00     0.064 C 
BRANCH   8  11
HETATM   11  C20 UNL     1       7.211  -0.244   0.543  1.00  0.00     0.118 A 
HETATM   12  N4  UNL     1       7.226  -1.405   1.292  1.00  0.00    -0.352 N 
HETATM   13  C21 UNL     1       8.333  -2.123   1.489  1.00  0.00     0.089 A 
ATOM     14  H4  UNL     1       6.354  -1.727   1.712  1.00  0.00     0.166 HD
HETATM   15  C22 UNL     1       9.554  -1.762   0.959  1.00  0.00     0.018 A 
HETATM   16  C23 UNL     1       9.583  -0.619   0.211  1.00  0.00     0.021 A 
HETATM   17  C24 UNL     1       8.410   0.137   0.006  1.00  0.00     0.091 A 
BRANCH  17  18
HETATM   18  C25 UNL     1       8.513   1.362  -0.801  1.00  0.00     0.421 C 
HETATM   19  F1  UNL     1       8.264   2.533  -0.177  1.00  0.00    -0.166 F 
HETATM   20  F2  UNL     1       9.797   1.464  -1.351  1.00  0.00    -0.166 F 
HETATM   21  F3  UNL     1       7.593   1.244  -1.852  1.00  0.00    -0.166 F 
ENDBRANCH  17  18
ENDBRANCH   8  11
ENDBRANCH   2   5
BRANCH   3  22
HETATM   22  C2  UNL     1      -0.487   0.130   0.896  1.00  0.00     0.092 C 
HETATM   23  C3  UNL     1      -1.035  -1.249   0.798  1.00  0.00     0.053 C 
HETATM   24  C4  UNL     1      -2.032  -1.481  -0.288  1.00  0.00     0.241 C 
HETATM   25  N2  UNL     1      -3.003  -0.472  -0.500  1.00  0.00    -0.052 N 
HETATM   26  C13 UNL     1      -2.581   0.248  -1.722  1.00  0.00     0.239 C 
HETATM   27  C16 UNL     1      -2.896   0.600   0.448  1.00  0.00     0.245 C 
HETATM   28  C14 UNL     1      -1.333   0.994  -1.286  1.00  0.00     0.036 C 
HETATM   29  C15 UNL     1      -1.439   1.048   0.203  1.00  0.00     0.036 C 
BRANCH  25  30
HETATM   30  C5  UNL     1      -4.332  -0.928  -0.781  1.00  0.00     0.259 C 
HETATM   31  C6  UNL     1      -4.843  -1.887   0.344  1.00  0.00     0.072 C 
HETATM   32  C7  UNL     1      -6.287  -1.928   0.555  1.00  0.00    -0.024 C 
HETATM   33  C8  UNL     1      -7.143  -0.955   1.204  1.00  0.00    -0.008 C 
HETATM   34  C9  UNL     1      -7.215   0.471   0.967  1.00  0.00    -0.026 C 
HETATM   35  C10 UNL     1      -7.297   1.191  -0.297  1.00  0.00     0.038 C 
HETATM   36  C11 UNL     1      -5.969   1.284  -1.127  1.00  0.00     0.086 C 
HETATM   37  C12 UNL     1      -5.307   0.084  -0.813  1.00  0.00    -0.149 C 
ENDBRANCH  25  30
ENDBRANCH   3  22
TORSDOF 5
