REMARK  4 active torsions:
REMARK  status: ('A' for Active; 'I' for Inactive)
REMARK    1  A    between atoms: C1_2  and  C2_4 
REMARK    2  A    between atoms: N2_7  and  C5_8 
REMARK       I    between atoms: N3_11  and  C8_12 
REMARK    3  A    between atoms: C8_12  and  C9_14 
REMARK    4  A    between atoms: C18_23  and  C19_24 
ROOT
HETATM    1  C5  UNL     1      -1.090   0.315   0.323  1.00  0.00     0.086 C 
HETATM    2  C6  UNL     1      -0.123  -0.731   0.756  1.00  0.00     0.045 C 
HETATM    3  C7  UNL     1       1.225  -0.073   1.008  1.00  0.00     0.127 C 
HETATM    4  N3  UNL     1       1.648   0.631  -0.201  1.00  0.00    -0.352 N 
HETATM    5  C8  UNL     1       2.982   0.498  -0.677  1.00  0.00     0.224 C 
HETATM    6  O2  UNL     1       3.306   1.104  -1.753  1.00  0.00    -0.273 OA
HETATM    7  C15 UNL     1       0.740   1.472  -0.927  1.00  0.00     0.127 C 
HETATM    8  C16 UNL     1      -0.650   0.888  -1.016  1.00  0.00     0.045 C 
ENDROOT
BRANCH   1   9
HETATM    9  N2  UNL     1      -2.429  -0.085   0.227  1.00  0.00    -0.388 N 
HETATM   10  C4  UNL     1      -2.805  -1.083  -0.686  1.00  0.00     0.123 C 
HETATM   11  C3  UNL     1      -3.864  -0.479  -1.619  1.00  0.00     0.034 C 
HETATM   12  C2  UNL     1      -5.042  -0.044  -0.735  1.00  0.00     0.090 C 
HETATM   13  C18 UNL     1      -4.542   1.000   0.194  1.00  0.00     0.101 C 
HETATM   14  C17 UNL     1      -3.404   0.501   1.055  1.00  0.00     0.069 C 
BRANCH  12  15
HETATM   15  C1  UNL     1      -5.619  -1.233  -0.111  1.00  0.00     0.236 C 
HETATM   16  N1  UNL     1      -6.124  -2.241  -1.013  1.00  0.00    -0.062 NA
HETATM   17  O1  UNL     1      -5.725  -1.479   1.100  1.00  0.00    -0.276 OA
ENDBRANCH  12  15
BRANCH  13  18
HETATM   18  C19 UNL     1      -5.617   1.678   0.995  1.00  0.00     0.362 C 
HETATM   19  F1  UNL     1      -6.483   2.276   0.071  1.00  0.00    -0.214 F 
HETATM   20  F2  UNL     1      -5.051   2.708   1.718  1.00  0.00    -0.214 F 
ENDBRANCH  13  18
ENDBRANCH   1   9
BRANCH   5  21
HETATM   21  C9  UNL     1       4.041  -0.300  -0.008  1.00  0.00     0.078 C 
HETATM   22  C10 UNL     1       5.174  -0.504  -1.005  1.00  0.00     0.014 C 
HETATM   23  C11 UNL     1       6.380  -1.145  -0.350  1.00  0.00     0.001 C 
HETATM   24  C12 UNL     1       6.903  -0.110   0.654  1.00  0.00     0.000 C 
HETATM   25  C13 UNL     1       5.842   0.036   1.707  1.00  0.00     0.001 C 
HETATM   26  C14 UNL     1       4.521   0.525   1.172  1.00  0.00     0.014 C 
ENDBRANCH   5  21
TORSDOF 4
