REMARK  2 active torsions:
REMARK  status: ('A' for Active; 'I' for Inactive)
REMARK    1  A    between atoms: C11_14  and  C12_15 
REMARK    2  A    between atoms: C13_16  and  C14_17 
ROOT
HETATM    1  C1  UNL     1      -1.624  -1.802  -0.894  1.00  0.00     0.039 C 
HETATM    2  C2  UNL     1      -0.828  -1.366   0.297  1.00  0.00     0.037 C 
HETATM    3  C3  UNL     1      -1.717  -1.131   1.478  1.00  0.00     0.032 C 
HETATM    4  C4  UNL     1      -2.039   0.288   1.761  1.00  0.00     0.012 C 
HETATM    5  C5  UNL     1      -1.697   1.322   0.801  1.00  0.00     0.048 C 
HETATM    6  C6  UNL     1      -2.927   1.754  -0.018  1.00  0.00     0.072 C 
HETATM    7 BR1  UNL     1      -3.930   3.115   0.910  1.00  0.00    -0.090 Br
HETATM    8  C7  UNL     1      -2.311   2.282  -1.301  1.00  0.00     0.098 C 
HETATM    9  C8  UNL     1      -1.231   1.265  -1.514  1.00  0.00     0.168 C 
HETATM   10  O1  UNL     1      -1.032   0.787  -2.616  1.00  0.00    -0.294 OA
HETATM   11  C9  UNL     1      -0.617   1.081  -0.199  1.00  0.00     0.175 C 
HETATM   12  F1  UNL     1       0.367   2.086  -0.118  1.00  0.00    -0.234 F 
HETATM   13  C10 UNL     1       0.056  -0.193   0.083  1.00  0.00     0.078 C 
HETATM   14  C11 UNL     1       1.092  -0.693  -0.858  1.00  0.00     0.110 C 
HETATM   15  C15 UNL     1       1.151  -2.141  -0.468  1.00  0.00     0.226 C 
HETATM   16  O2  UNL     1       1.955  -2.961  -0.970  1.00  0.00    -0.273 OA
HETATM   17  N1  UNL     1       0.169  -2.394   0.530  1.00  0.00    -0.351 N 
ATOM     18  H1  UNL     1       0.167  -3.125   1.241  1.00  0.00     0.163 HD
ENDROOT
BRANCH  14  19
HETATM   19  C12 UNL     1       2.381  -0.006  -0.716  1.00  0.00    -0.015 C 
HETATM   20  C13 UNL     1       3.517  -0.524  -0.283  1.00  0.00    -0.019 C 
BRANCH  20  21
HETATM   21  C14 UNL     1       4.771   0.307  -0.190  1.00  0.00     0.112 C 
HETATM   22  S1  UNL     1       5.319   0.327   1.510  1.00  0.00    -0.094 SA
ENDBRANCH  20  21
ENDBRANCH  14  19
TORSDOF 2
