REMARK  5 active torsions:
REMARK  status: ('A' for Active; 'I' for Inactive)
REMARK    1  A    between atoms: C3_3  and  O1_4 
REMARK    2  A    between atoms: O1_4  and  C4_5 
REMARK       I    between atoms: C4_5  and  N1_7 
REMARK    3  A    between atoms: N1_7  and  N2_8 
REMARK    4  A    between atoms: N1_7  and  C11_18 
REMARK       I    between atoms: N2_8  and  C5_10 
REMARK    5  A    between atoms: C5_10  and  C6_12 
ROOT
HETATM    1  C1  UNL     1      -3.531   4.675  -0.013  1.00  0.00     0.099 C 
HETATM    2  C2  UNL     1      -2.663   4.250   0.736  1.00  0.00    -0.161 C 
HETATM    3  C3  UNL     1      -1.619   3.765   1.646  1.00  0.00     0.260 C 
ENDROOT
BRANCH   3   4
HETATM    4  O1  UNL     1      -1.019   2.636   1.057  1.00  0.00    -0.292 OA
BRANCH   4   5
HETATM    5  C4  UNL     1      -1.698   1.472   0.739  1.00  0.00     0.383 C 
HETATM    6  O2  UNL     1      -2.928   1.450   1.011  1.00  0.00    -0.236 OA
HETATM    7  N1  UNL     1      -1.038   0.325   0.120  1.00  0.00    -0.226 N 
BRANCH   7   8
HETATM    8  N2  UNL     1       0.311   0.529  -0.122  1.00  0.00    -0.262 N 
HETATM    9  C5  UNL     1       1.422  -0.067   0.491  1.00  0.00     0.246 C 
HETATM   10  O3  UNL     1       1.287  -0.910   1.387  1.00  0.00    -0.271 OA
ATOM     11  H2  UNL     1       0.526   1.210  -0.850  1.00  0.00     0.190 HD
BRANCH   9  12
HETATM   12  C6  UNL     1       2.835   0.275   0.103  1.00  0.00     0.057 A 
HETATM   13  C7  UNL     1       2.902   1.424  -0.913  1.00  0.00     0.027 C 
HETATM   14  C8  UNL     1       3.924   0.106   1.060  1.00  0.00     0.042 A 
HETATM   15  C9  UNL     1       3.827  -0.782  -0.174  1.00  0.00     0.032 A 
HETATM   16  C10 UNL     1       3.646  -2.230   0.116  1.00  0.00     0.029 C 
HETATM   17 BR1  UNL     1       5.183  -0.464  -1.557  1.00  0.00    -0.085 Br
ENDBRANCH   9  12
ENDBRANCH   7   8
BRANCH   7  18
HETATM   18  C11 UNL     1      -1.866  -0.767  -0.165  1.00  0.00     0.147 C 
HETATM   19  C12 UNL     1      -1.922  -1.232  -1.605  1.00  0.00     0.030 C 
HETATM   20  C13 UNL     1      -2.997  -2.323  -1.476  1.00  0.00     0.005 C 
HETATM   21  C14 UNL     1      -2.668  -2.969  -0.176  1.00  0.00     0.039 C 
HETATM   22  C15 UNL     1      -1.596  -2.086   0.514  1.00  0.00     0.195 C 
HETATM   23  F1  UNL     1      -1.825  -2.103   1.851  1.00  0.00    -0.247 F 
ENDBRANCH   7  18
ENDBRANCH   4   5
ENDBRANCH   3   4
TORSDOF 5
