REMARK  4 active torsions:
REMARK  status: ('A' for Active; 'I' for Inactive)
REMARK    1  A    between atoms: O1_2  and  C2_3 
REMARK    2  A    between atoms: C2_3  and  C3_5 
REMARK    3  A    between atoms: C6_12  and  C7_13 
REMARK    4  A    between atoms: C7_13  and  S1_14 
ROOT
HETATM    1  C3  UNL     1      -0.729   0.154   0.994  1.00  0.00     0.117 A 
HETATM    2  N1  UNL     1      -0.840   0.721   2.189  1.00  0.00    -0.344 N 
ATOM      3  H1  UNL     1      -1.689   0.684   2.753  1.00  0.00     0.167 HD
HETATM    4  C4  UNL     1       0.273   1.344   2.576  1.00  0.00     0.098 A 
HETATM    5 BR1  UNL     1       0.668   2.307   4.167  1.00  0.00    -0.030 Br
HETATM    6  C5  UNL     1       1.172   1.154   1.530  1.00  0.00     0.054 A 
HETATM    7 BR2  UNL     1       2.994   1.789   1.539  1.00  0.00    -0.047 Br
HETATM    8  C6  UNL     1       0.579   0.421   0.534  1.00  0.00     0.006 A 
ENDROOT
BRANCH   1   9
HETATM    9  C2  UNL     1      -1.752  -0.615   0.253  1.00  0.00     0.310 C 
HETATM   10  O2  UNL     1      -1.525  -1.097  -0.861  1.00  0.00    -0.258 OA
BRANCH   9  11
HETATM   11  O1  UNL     1      -2.986  -0.781   0.856  1.00  0.00    -0.321 OA
HETATM   12  C1  UNL     1      -4.048  -1.489   0.264  1.00  0.00     0.213 C 
ENDBRANCH   9  11
ENDBRANCH   1   9
BRANCH   8  13
HETATM   13  C7  UNL     1       1.067  -0.099  -0.749  1.00  0.00     0.150 C 
BRANCH  13  14
HETATM   14  S1  UNL     1       2.694   0.502  -1.097  1.00  0.00     0.015 S 
HETATM   15  C8  UNL     1       3.233  -0.237  -2.679  1.00  0.00     0.127 C 
HETATM   16  O3  UNL     1       2.589   2.196  -1.452  1.00  0.00    -0.258 OA
ENDBRANCH  13  14
ENDBRANCH   8  13
TORSDOF 4
