REMARK  3 active torsions:
REMARK  status: ('A' for Active; 'I' for Inactive)
REMARK    1  A    between atoms: C2_2  and  C3_5 
REMARK    2  A    between atoms: C3_5  and  C4_6 
REMARK       I    between atoms: C4_6  and  N1_8 
REMARK    3  A    between atoms: N1_8  and  C5_10 
ROOT
HETATM    1  C5  UNL     1       1.602   0.394  -0.338  1.00  0.00     0.134 C 
HETATM    2  C6  UNL     1       1.093  -0.765  -1.206  1.00  0.00     0.151 C 
HETATM    3  N2  UNL     1      -0.098  -1.216  -0.598  1.00  0.00    -0.377 N 
HETATM    4  C7  UNL     1      -0.535  -2.526  -0.778  1.00  0.00     0.059 C 
HETATM    5  C8  UNL     1      -1.914  -2.758  -1.302  1.00  0.00     0.044 C 
HETATM    6  C9  UNL     1      -3.045  -2.330  -0.457  1.00  0.00     0.010 C 
HETATM    7  C10 UNL     1      -3.389  -0.893  -0.383  1.00  0.00    -0.010 C 
HETATM    8  C11 UNL     1      -2.604   0.034  -1.238  1.00  0.00     0.008 C 
HETATM    9  C12 UNL     1      -1.626   0.897  -0.505  1.00  0.00     0.041 C 
HETATM   10  C13 UNL     1      -1.138   0.353   0.797  1.00  0.00     0.093 C 
HETATM   11  O2  UNL     1      -0.120   1.184   1.259  1.00  0.00    -0.367 OA
HETATM   12  C14 UNL     1       0.888   0.310   0.947  1.00  0.00     0.177 C 
HETATM   13  C15 UNL     1      -0.160  -0.751   0.738  1.00  0.00     0.087 C 
HETATM   14  C16 UNL     1      -0.101  -1.733   1.848  1.00  0.00     0.044 C 
HETATM   15  C17 UNL     1      -2.292   0.107   1.685  1.00  0.00     0.027 C 
HETATM   16  C18 UNL     1      -2.659   1.418   2.356  1.00  0.00     0.008 C 
HETATM   17  C19 UNL     1      -4.135   1.583   2.236  1.00  0.00     0.001 C 
HETATM   18  C20 UNL     1      -4.539   0.747   1.071  1.00  0.00     0.005 C 
HETATM   19  C21 UNL     1      -3.514  -0.368   1.043  1.00  0.00    -0.003 C 
ENDROOT
BRANCH   1  20
HETATM   20  N1  UNL     1       3.038   0.219  -0.069  1.00  0.00    -0.352 N 
HETATM   21  C4  UNL     1       4.007   1.165  -0.431  1.00  0.00     0.223 C 
HETATM   22  O1  UNL     1       3.719   2.247  -1.018  1.00  0.00    -0.273 OA
ATOM     23  H1  UNL     1       3.343  -0.632   0.404  1.00  0.00     0.163 HD
BRANCH  21  24
HETATM   24  C3  UNL     1       5.420   0.914  -0.127  1.00  0.00     0.181 C 
BRANCH  24  25
HETATM   25  C2  UNL     1       6.335   2.020  -0.581  1.00  0.00     0.248 C 
HETATM   26  C1  UNL     1       6.296   2.274  -2.049  1.00  0.00     0.090 C 
HETATM   27  F1  UNL     1       7.629   1.684  -0.226  1.00  0.00    -0.206 F 
HETATM   28  F2  UNL     1       6.024   3.191   0.086  1.00  0.00    -0.206 F 
ENDBRANCH  24  25
ENDBRANCH  21  24
ENDBRANCH   1  20
TORSDOF 3
