REMARK  2 active torsions:
REMARK  status: ('A' for Active; 'I' for Inactive)
REMARK    1  A    between atoms: C2_2  and  C3_3 
REMARK    2  A    between atoms: C3_3  and  N1_4 
ROOT
HETATM    1  C1  UNL     1       2.031  -0.784   1.548  1.00  0.00     0.017 C 
HETATM    2  C2  UNL     1       1.290  -0.207   0.307  1.00  0.00    -0.020 C 
HETATM    3  C4  UNL     1       0.908   1.155   0.677  1.00  0.00     0.011 C 
HETATM    4  C5  UNL     1      -0.103   1.893  -0.058  1.00  0.00     0.006 C 
HETATM    5  C6  UNL     1      -1.280   1.231  -0.610  1.00  0.00    -0.006 C 
HETATM    6  C7  UNL     1      -0.954   0.216  -1.709  1.00  0.00     0.011 C 
HETATM    7  C8  UNL     1      -0.999  -0.793  -0.621  1.00  0.00    -0.005 C 
HETATM    8  C9  UNL     1       0.273  -1.201  -0.020  1.00  0.00     0.016 C 
HETATM    9  C10 UNL     1      -1.884   0.105   0.146  1.00  0.00    -0.040 C 
HETATM   10  C11 UNL     1      -3.350  -0.064  -0.298  1.00  0.00     0.015 C 
HETATM   11  C12 UNL     1      -1.847   0.119   1.620  1.00  0.00     0.015 C 
ENDROOT
BRANCH   2  12
HETATM   12  C3  UNL     1       2.463  -0.173  -0.692  1.00  0.00     0.238 C 
BRANCH  12  13
HETATM   13  N1  UNL     1       3.006  -1.489  -0.906  1.00  0.00    -0.079 N 
ATOM     14  H13 UNL     1       3.276  -1.930  -0.027  1.00  0.00     0.274 HD
ATOM     15  H12 UNL     1       2.285  -2.149  -1.198  1.00  0.00     0.274 HD
ATOM     16  H11 UNL     1       3.782  -1.466  -1.567  1.00  0.00     0.274 HD
ENDBRANCH  12  13
ENDBRANCH   2  12
TORSDOF 2
