REMARK  2 active torsions:
REMARK  status: ('A' for Active; 'I' for Inactive)
REMARK    1  A    between atoms: C2_2  and  C3_3 
REMARK    2  A    between atoms: C7_7  and  N1_9 
ROOT
HETATM    1  C3  UNL     1       1.366  -0.463   0.134  1.00  0.00    -0.023 C 
HETATM    2  C4  UNL     1       0.792  -1.767  -0.280  1.00  0.00     0.013 C 
HETATM    3  C5  UNL     1      -0.694  -1.877  -0.155  1.00  0.00     0.004 C 
HETATM    4  C6  UNL     1      -1.445  -0.819  -0.890  1.00  0.00     0.038 C 
HETATM    5  C7  UNL     1      -1.640   0.451  -0.149  1.00  0.00     0.123 C 
HETATM    6  C8  UNL     1      -2.728   0.228   0.893  1.00  0.00     0.046 C 
HETATM    7  C9  UNL     1      -0.420   1.062   0.427  1.00  0.00     0.022 C 
HETATM    8  C10 UNL     1       0.461   1.649  -0.634  1.00  0.00     0.008 C 
HETATM    9  C11 UNL     1       1.429   0.555  -0.980  1.00  0.00     0.014 C 
HETATM   10  C12 UNL     1       0.481   0.167   1.182  1.00  0.00     0.020 C 
ENDROOT
BRANCH   5  11
HETATM   11  N1  UNL     1      -2.193   1.432  -1.096  1.00  0.00    -0.070 N 
ATOM     12  H13 UNL     1      -1.622   1.543  -1.934  1.00  0.00     0.275 HD
ATOM     13  H12 UNL     1      -3.042   1.106  -1.557  1.00  0.00     0.275 HD
ATOM     14  H11 UNL     1      -2.327   2.305  -0.586  1.00  0.00     0.275 HD
ENDBRANCH   5  11
BRANCH   1  15
HETATM   15  C2  UNL     1       2.750  -0.671   0.621  1.00  0.00    -0.027 C 
HETATM   16  C1  UNL     1       3.458   0.350   1.077  1.00  0.00     0.007 C 
ENDBRANCH   1  15
TORSDOF 2
