REMARK  2 active torsions:
REMARK  status: ('A' for Active; 'I' for Inactive)
REMARK    1  A    between atoms: C11_11  and  C12_12 
REMARK    2  A    between atoms: C12_12  and  O1_13 
ROOT
HETATM    1  C1  UNL     1      -2.789   0.581   0.886  1.00  0.00     0.015 C 
HETATM    2  C2  UNL     1      -1.448   0.635   0.137  1.00  0.00    -0.044 C 
HETATM    3  C3  UNL     1      -1.570   1.722  -0.877  1.00  0.00     0.015 C 
HETATM    4  C4  UNL     1      -0.419   1.055   1.160  1.00  0.00     0.014 C 
HETATM    5  C5  UNL     1       0.810   0.190   1.045  1.00  0.00    -0.008 C 
HETATM    6  C6  UNL     1       0.466  -1.236   1.368  1.00  0.00     0.005 C 
HETATM    7  C7  UNL     1      -0.722  -1.689   0.596  1.00  0.00     0.006 C 
HETATM    8  C8  UNL     1      -1.212  -0.720  -0.430  1.00  0.00    -0.007 C 
HETATM    9  C9  UNL     1      -0.299  -0.758  -1.611  1.00  0.00     0.006 C 
HETATM   10  C10 UNL     1       1.142  -0.626  -1.305  1.00  0.00     0.007 C 
HETATM   11  C11 UNL     1       1.505   0.369  -0.259  1.00  0.00     0.013 C 
ENDROOT
BRANCH  11  12
HETATM   12  C12 UNL     1       3.011   0.200   0.008  1.00  0.00     0.169 C 
BRANCH  12  13
HETATM   13  O1  UNL     1       3.697   0.360  -1.193  1.00  0.00    -0.400 OA
ATOM     14  H1  UNL     1       4.627   0.256  -1.028  1.00  0.00     0.209 HD
ENDBRANCH  12  13
ENDBRANCH  11  12
TORSDOF 2
