REMARK  3 active torsions:
REMARK  status: ('A' for Active; 'I' for Inactive)
REMARK    1  A    between atoms: C2_3  and  C3_4 
REMARK    2  A    between atoms: C4_5  and  C5_6 
REMARK    3  A    between atoms: C9_14  and  C10_15 
ROOT
HETATM    1  N1  UNL     1      -1.201  -1.287   2.958  1.00  0.00    -0.191 NA
HETATM    2  C1  UNL     1      -0.828  -0.830   1.953  1.00  0.00     0.108 C 
HETATM    3  C2  UNL     1      -0.344  -0.243   0.720  1.00  0.00     0.099 C 
HETATM    4  C9  UNL     1      -1.178   0.191  -0.167  1.00  0.00     0.043 C 
ENDROOT
BRANCH   3   5
HETATM    5  C3  UNL     1       1.083  -0.152   0.464  1.00  0.00    -0.049 C 
HETATM    6  C4  UNL     1       2.284  -0.098   0.270  1.00  0.00    -0.041 C 
BRANCH   6   7
HETATM    7  C5  UNL     1       3.695  -0.050   0.074  1.00  0.00     0.102 A 
HETATM    8  C6  UNL     1       4.608   0.164   1.107  1.00  0.00     0.126 A 
HETATM    9  N2  UNL     1       5.938   0.189   0.884  1.00  0.00    -0.371 N 
HETATM   10  C7  UNL     1       6.428   0.004  -0.367  1.00  0.00     0.104 A 
ATOM     11  H2  UNL     1       6.579   0.348   1.661  1.00  0.00     0.164 HD
HETATM   12  C8  UNL     1       5.533  -0.212  -1.421  1.00  0.00     0.106 A 
HETATM   13  N3  UNL     1       4.222  -0.227  -1.146  1.00  0.00    -0.357 N 
ATOM     14  H3  UNL     1       3.578  -0.385  -1.921  1.00  0.00     0.166 HD
ENDBRANCH   6   7
ENDBRANCH   3   5
BRANCH   4  15
HETATM   15  C10 UNL     1      -2.640   0.156  -0.077  1.00  0.00    -0.034 A 
HETATM   16  C11 UNL     1      -3.364   1.286  -0.391  1.00  0.00     0.011 A 
HETATM   17  C12 UNL     1      -4.764   1.314  -0.347  1.00  0.00     0.001 A 
HETATM   18  C13 UNL     1      -5.463   0.183   0.020  1.00  0.00     0.000 A 
HETATM   19  C14 UNL     1      -4.742  -0.958   0.337  1.00  0.00     0.001 A 
HETATM   20  C15 UNL     1      -3.346  -0.956   0.283  1.00  0.00     0.011 A 
ENDBRANCH   4  15
TORSDOF 3
