REMARK  3 active torsions:
REMARK  status: ('A' for Active; 'I' for Inactive)
REMARK    1  A    between atoms: C2_2  and  C5_5 
REMARK    2  A    between atoms: C6_6  and  C7_7 
REMARK    3  A    between atoms: C9_10  and  C10_11 
ROOT
HETATM    1  C7  UNL     1       0.149   0.294  -1.356  1.00  0.00     0.098 C 
HETATM    2  C8  UNL     1       0.105   0.602  -2.738  1.00  0.00     0.108 C 
HETATM    3  N1  UNL     1       0.120   0.854  -3.883  1.00  0.00    -0.191 NA
HETATM    4  C9  UNL     1      -0.732   0.158  -0.444  1.00  0.00     0.049 C 
ENDROOT
BRANCH   1   5
HETATM    5  C6  UNL     1       1.575   0.079  -0.867  1.00  0.00    -0.055 C 
HETATM    6  C5  UNL     1       2.689  -0.096  -0.463  1.00  0.00    -0.091 C 
BRANCH   6   7
HETATM    7  C2  UNL     1       4.039  -0.317   0.052  1.00  0.00     0.013 C 
HETATM    8  C1  UNL     1       4.398  -1.773   0.008  1.00  0.00     0.028 C 
HETATM    9  C3  UNL     1       4.076   0.208   1.466  1.00  0.00     0.028 C 
HETATM   10  C4  UNL     1       5.030   0.488  -0.790  1.00  0.00     0.028 C 
ENDBRANCH   6   7
ENDBRANCH   1   5
BRANCH   4  11
HETATM   11  C10 UNL     1      -2.171   0.262  -0.425  1.00  0.00     0.040 A 
HETATM   12  C11 UNL     1      -2.875   0.063   0.712  1.00  0.00     0.028 A 
HETATM   13  C12 UNL     1      -4.301   0.232   0.429  1.00  0.00     0.082 A 
HETATM   14  C13 UNL     1      -4.905   1.306   1.326  1.00  0.00     0.051 C 
HETATM   15  C14 UNL     1      -4.965  -1.116   0.746  1.00  0.00     0.051 C 
HETATM   16  O1  UNL     1      -4.414   0.535  -0.903  1.00  0.00    -0.303 OA
HETATM   17  C15 UNL     1      -3.132   0.565  -1.475  1.00  0.00     0.294 A 
HETATM   18  O2  UNL     1      -2.906   0.816  -2.685  1.00  0.00    -0.259 OA
ENDBRANCH   4  11
TORSDOF 3
