REMARK  3 active torsions:
REMARK  status: ('A' for Active; 'I' for Inactive)
REMARK    1  A    between atoms: C2_2  and  C3_3 
REMARK       I    between atoms: N1_10  and  C9_11 
REMARK    2  A    between atoms: C9_11  and  O3_13 
REMARK    3  A    between atoms: O3_13  and  C10_14 
ROOT
HETATM    1  C3  UNL     1       2.434  -0.124   0.369  1.00  0.00     0.080 C 
HETATM    2  C4  UNL     1       3.776  -0.640   0.734  1.00  0.00     0.048 C 
HETATM    3  O1  UNL     1       1.961  -0.793  -0.769  1.00  0.00    -0.354 OA
HETATM    4  C5  UNL     1       0.781  -1.437  -0.388  1.00  0.00     0.229 C 
HETATM    5  C6  UNL     1       1.185  -2.539   0.600  1.00  0.00     0.056 C 
HETATM    6  C7  UNL     1       1.417  -1.797   1.920  1.00  0.00     0.033 C 
HETATM    7  C8  UNL     1       1.375  -0.355   1.432  1.00  0.00     0.126 C 
HETATM    8  N1  UNL     1       0.246  -0.477   0.542  1.00  0.00    -0.293 N 
HETATM    9  C9  UNL     1      -0.999   0.138   0.553  1.00  0.00     0.366 C 
HETATM   10  O2  UNL     1      -1.333   0.980   1.456  1.00  0.00    -0.238 OA
ENDROOT
BRANCH   9  11
HETATM   11  O3  UNL     1      -1.988  -0.097  -0.398  1.00  0.00    -0.294 OA
BRANCH  11  12
HETATM   12  C10 UNL     1      -3.245   0.515  -0.397  1.00  0.00     0.061 C 
HETATM   13  C11 UNL     1      -3.178   2.020  -0.496  1.00  0.00     0.046 C 
HETATM   14  C12 UNL     1      -4.063   0.090   0.794  1.00  0.00     0.046 C 
HETATM   15  C13 UNL     1      -3.982  -0.013  -1.636  1.00  0.00     0.046 C 
ENDBRANCH  11  12
ENDBRANCH   9  11
BRANCH   1  16
HETATM   16  C2  UNL     1       2.446   1.368   0.065  1.00  0.00     0.035 C 
HETATM   17  C1  UNL     1       3.385   1.658  -1.104  1.00  0.00     0.008 C 
ENDBRANCH   1  16
TORSDOF 3
