REMARK  4 active torsions:
REMARK  status: ('A' for Active; 'I' for Inactive)
REMARK    1  A    between atoms: C4_5  and  N1_6 
REMARK    2  A    between atoms: C5_8  and  O1_9 
REMARK    3  A    between atoms: C5_8  and  C6_11 
REMARK    4  A    between atoms: N2_15  and  C10_16 
ROOT
HETATM    1  C1  UNL     1      -3.458   2.310   0.440  1.00  0.00     0.069 C 
HETATM    2  C2  UNL     1      -2.015   1.838   0.216  1.00  0.00     0.017 A 
HETATM    3  C3  UNL     1      -1.066   2.795  -0.041  1.00  0.00     0.078 A 
HETATM    4  S1  UNL     1       0.342   1.859  -0.227  1.00  0.00    -0.064 SA
HETATM    5  C4  UNL     1      -0.327   0.327   0.025  1.00  0.00     0.153 A 
HETATM    6  N2  UNL     1      -1.625   0.586   0.247  1.00  0.00    -0.327 N 
ENDROOT
BRANCH   5   7
HETATM    7  N1  UNL     1       0.256  -0.801   0.005  1.00  0.00    -0.320 N 
HETATM    8  C5  UNL     1       1.517  -1.248  -0.199  1.00  0.00     0.125 C 
ATOM      9  H1  UNL     1      -0.392  -1.566   0.190  1.00  0.00     0.169 HD
BRANCH   8  10
HETATM   10  O1  UNL     1       1.611  -2.533  -0.401  1.00  0.00    -0.349 OA
ATOM     11  H1  UNL     1       2.496  -2.847  -0.544  1.00  0.00     0.219 HD
ENDBRANCH   8  10
BRANCH   8  12
HETATM   12  C6  UNL     1       2.818  -0.537  -0.236  1.00  0.00     0.014 C 
HETATM   13  C7  UNL     1       3.051   0.304   1.015  1.00  0.00     0.023 C 
HETATM   14  C8  UNL     1       3.016   0.283  -1.492  1.00  0.00     0.023 C 
HETATM   15  C9  UNL     1       3.962  -1.556  -0.237  1.00  0.00     0.023 C 
ENDBRANCH   8  12
ENDBRANCH   5   7
BRANCH   6  16
HETATM   16  C10 UNL     1      -2.613  -0.492   0.529  1.00  0.00     0.084 C 
HETATM   17  C11 UNL     1      -1.988  -1.630   1.237  1.00  0.00     0.032 C 
HETATM   18  C12 UNL     1      -3.219  -1.002  -0.761  1.00  0.00     0.032 C 
ENDBRANCH   6  16
TORSDOF 4
