REMARK  5 active torsions:
REMARK  status: ('A' for Active; 'I' for Inactive)
REMARK    1  A    between atoms: N1_2  and  C3_4 
REMARK    2  A    between atoms: C3_4  and  C4_5 
REMARK    3  A    between atoms: C4_5  and  N2_6 
REMARK    4  A    between atoms: C5_8  and  N4_11 
REMARK    5  A    between atoms: N4_11  and  C7_13 
ROOT
HETATM    1  N2  UNL     1       2.494  -0.554   0.712  1.00  0.00    -0.366 N 
ATOM      2  H2  UNL     1       2.430  -0.609   1.729  1.00  0.00     0.161 HD
HETATM    3  C5  UNL     1       1.427  -0.774  -0.027  1.00  0.00     0.180 C 
HETATM    4  C6  UNL     1       1.574  -0.685  -1.445  1.00  0.00     0.136 C 
HETATM    5  N3  UNL     1       1.720  -0.609  -2.596  1.00  0.00    -0.188 NA
ENDROOT
BRANCH   3   6
HETATM    6  N4  UNL     1       0.222  -1.072   0.648  1.00  0.00    -0.358 N 
ATOM      7  H4  UNL     1       0.275  -1.662   1.478  1.00  0.00     0.162 HD
BRANCH   6   8
HETATM    8  C7  UNL     1      -1.065  -0.602   0.245  1.00  0.00     0.034 C 
HETATM    9  C8  UNL     1      -0.970   0.883   0.055  1.00  0.00     0.040 C 
HETATM   10  C9  UNL     1      -2.271   1.461  -0.479  1.00  0.00    -0.040 C 
HETATM   11  C10 UNL     1      -2.019   2.917  -0.784  1.00  0.00     0.015 C 
HETATM   12  C11 UNL     1      -2.621   0.696  -1.727  1.00  0.00     0.018 C 
HETATM   13  C17 UNL     1      -3.294   1.279   0.623  1.00  0.00     0.018 C 
HETATM   14  C12 UNL     1      -2.903  -0.730  -1.395  1.00  0.00    -0.040 C 
HETATM   15  C13 UNL     1      -3.315  -1.504  -2.633  1.00  0.00     0.015 C 
HETATM   16  C14 UNL     1      -3.923  -0.887  -0.286  1.00  0.00     0.018 C 
HETATM   17  C19 UNL     1      -1.611  -1.374  -0.893  1.00  0.00     0.040 C 
HETATM   18  C15 UNL     1      -3.372  -0.187   0.936  1.00  0.00    -0.040 C 
HETATM   19  C16 UNL     1      -4.380  -0.327   2.085  1.00  0.00     0.015 C 
HETATM   20  C18 UNL     1      -2.082  -0.790   1.399  1.00  0.00     0.040 C 
ENDBRANCH   6   8
ENDBRANCH   3   6
BRANCH   1  21
HETATM   21  C4  UNL     1       3.759  -0.234   0.083  1.00  0.00     0.141 C 
BRANCH  21  22
HETATM   22  C3  UNL     1       4.779  -0.155   1.196  1.00  0.00     0.135 C 
BRANCH  22  23
HETATM   23  N1  UNL     1       6.099   0.157   0.787  1.00  0.00    -0.419 N 
HETATM   24  C1  UNL     1       6.312   1.472   0.287  1.00  0.00     0.142 C 
HETATM   25  C2  UNL     1       6.826  -0.880   0.137  1.00  0.00     0.142 C 
ENDBRANCH  22  23
ENDBRANCH  21  22
ENDBRANCH   1  21
TORSDOF 5
