REMARK  5 active torsions:
REMARK  status: ('A' for Active; 'I' for Inactive)
REMARK    1  A    between atoms: C2_2  and  C4_4 
REMARK    2  A    between atoms: C4_4  and  C5_5 
REMARK    3  A    between atoms: C6_6  and  N1_7 
REMARK       I    between atoms: N1_7  and  C7_9 
REMARK    4  A    between atoms: C7_9  and  C8_11 
REMARK    5  A    between atoms: N2_18  and  C13_19 
ROOT
HETATM    1  C5  UNL     1      -0.645   1.201   1.073  1.00  0.00     0.139 C 
HETATM    2  C6  UNL     1       0.715   1.068   1.621  1.00  0.00     0.257 C 
HETATM    3  O2  UNL     1       0.364   0.420   2.906  1.00  0.00    -0.276 OA
HETATM    4  C12 UNL     1      -0.511  -0.567   2.475  1.00  0.00     0.365 C 
HETATM    5  O3  UNL     1      -0.638  -1.676   3.075  1.00  0.00    -0.238 OA
HETATM    6  N2  UNL     1      -1.208  -0.121   1.284  1.00  0.00    -0.314 N 
ENDROOT
BRANCH   2   7
HETATM    7  N1  UNL     1       1.426   0.002   0.892  1.00  0.00    -0.332 N 
HETATM    8  C7  UNL     1       2.846   0.086   0.787  1.00  0.00     0.227 C 
HETATM    9  O1  UNL     1       3.478   1.036   1.297  1.00  0.00    -0.273 OA
ATOM     10  H1  UNL     1       0.916  -0.776   0.473  1.00  0.00     0.165 HD
BRANCH   8  11
HETATM   11  C8  UNL     1       3.601  -0.967   0.060  1.00  0.00     0.030 C 
HETATM   12  C9  UNL     1       5.078  -0.670   0.079  1.00  0.00     0.024 C 
HETATM   13  C10 UNL     1       3.136  -0.988  -1.376  1.00  0.00     0.024 C 
HETATM   14  C11 UNL     1       3.412  -2.325   0.715  1.00  0.00     0.024 C 
ENDBRANCH   8  11
ENDBRANCH   2   7
BRANCH   1  15
HETATM   15  C4  UNL     1      -0.777   1.733  -0.272  1.00  0.00     0.033 C 
BRANCH  15  16
HETATM   16  C2  UNL     1      -0.322   3.133  -0.479  1.00  0.00    -0.021 C 
HETATM   17  C1  UNL     1      -0.583   3.541  -1.955  1.00  0.00     0.009 C 
HETATM   18  C3  UNL     1       1.109   3.410  -0.249  1.00  0.00     0.009 C 
ENDBRANCH  15  16
ENDBRANCH   1  15
BRANCH   6  19
HETATM   19  C13 UNL     1      -2.187  -0.918   0.638  1.00  0.00     0.090 C 
HETATM   20  C14 UNL     1      -3.579  -0.322   0.661  1.00  0.00     0.025 C 
HETATM   21  C15 UNL     1      -4.540  -1.492   0.398  1.00  0.00     0.002 C 
HETATM   22  C16 UNL     1      -4.255  -2.168  -0.905  1.00  0.00     0.000 C 
HETATM   23  C17 UNL     1      -2.795  -2.511  -1.097  1.00  0.00     0.002 C 
HETATM   24  C18 UNL     1      -1.900  -1.323  -0.782  1.00  0.00     0.025 C 
ENDBRANCH   6  19
TORSDOF 5
