REMARK  5 active torsions:
REMARK  status: ('A' for Active; 'I' for Inactive)
REMARK    1  A    between atoms: C3_3  and  C4_4 
REMARK    2  A    between atoms: C4_4  and  C5_5 
REMARK    3  A    between atoms: C5_5  and  C6_6 
REMARK    4  A    between atoms: C6_6  and  O1_7 
REMARK    5  A    between atoms: C14_15  and  O2_16 
ROOT
HETATM    1  C6  UNL     1       1.136  -0.600   0.219  1.00  0.00     0.121 C 
HETATM    2  C8  UNL     1       0.059   0.041  -0.731  1.00  0.00     0.056 C 
HETATM    3  C9  UNL     1      -1.314  -0.447  -0.423  1.00  0.00    -0.029 C 
HETATM    4  C10 UNL     1      -2.230   0.070  -1.531  1.00  0.00     0.011 C 
HETATM    5  C11 UNL     1      -3.505   0.531  -0.871  1.00  0.00     0.006 C 
HETATM    6  C12 UNL     1      -3.374   0.283   0.589  1.00  0.00    -0.007 C 
HETATM    7  C13 UNL     1      -3.872   1.485   1.378  1.00  0.00     0.036 C 
HETATM    8  C14 UNL     1      -2.766   2.471   1.256  1.00  0.00     0.118 C 
HETATM    9  C15 UNL     1      -1.607   1.763   0.546  1.00  0.00     0.037 C 
HETATM   10  C16 UNL     1      -1.857   0.267   0.761  1.00  0.00     0.001 C 
HETATM   11  C17 UNL     1      -1.380  -1.910  -0.468  1.00  0.00    -0.003 C 
HETATM   12  C18 UNL     1      -2.680  -2.582  -0.271  1.00  0.00     0.011 C 
HETATM   13  C19 UNL     1      -0.354  -2.633   0.416  1.00  0.00     0.086 C 
HETATM   14  C20 UNL     1       0.930  -2.071   0.006  1.00  0.00     0.161 C 
HETATM   15  O3  UNL     1       1.778  -2.730  -0.474  1.00  0.00    -0.295 OA
ENDROOT
BRANCH   1  16
HETATM   16  C5  UNL     1       2.420  -0.131  -0.367  1.00  0.00     0.050 C 
BRANCH  16  17
HETATM   17  C4  UNL     1       3.696  -0.511   0.241  1.00  0.00     0.030 C 
BRANCH  17  18
HETATM   18  C3  UNL     1       4.879   0.069  -0.509  1.00  0.00    -0.031 C 
HETATM   19  C2  UNL     1       4.740   0.823  -1.575  1.00  0.00    -0.035 C 
HETATM   20  C1  UNL     1       5.929   1.359  -2.263  1.00  0.00     0.036 C 
ENDBRANCH  17  18
ENDBRANCH  16  17
ENDBRANCH   1  16
BRANCH   1  21
HETATM   21  O1  UNL     1       0.886  -0.203   1.458  1.00  0.00    -0.377 OA
HETATM   22  C7  UNL     1       1.573  -0.402   2.559  1.00  0.00     0.203 C 
ENDBRANCH   1  21
BRANCH   8  23
HETATM   23  O2  UNL     1      -3.079   3.611   0.550  1.00  0.00    -0.396 OA
ATOM     24  H2  UNL     1      -2.372   4.241   0.472  1.00  0.00     0.210 HD
ENDBRANCH   8  23
TORSDOF 5
