REMARK  7 active torsions:
REMARK  status: ('A' for Active; 'I' for Inactive)
REMARK    1  A    between atoms: C2_2  and  C3_3 
REMARK    2  A    between atoms: C3_3  and  C4_4 
REMARK    3  A    between atoms: C4_4  and  S1_5 
REMARK    4  A    between atoms: C10_13  and  C12_15 
REMARK    5  A    between atoms: C12_15  and  C13_17 
REMARK    6  A    between atoms: C14_18  and  C15_19 
REMARK    7  A    between atoms: C17_21  and  C19_23 
ROOT
HETATM    1  C3  UNL     1      -3.603  -0.802  -0.279  1.00  0.00     0.073 C 
HETATM    2  C6  UNL     1      -3.409  -0.059  -1.516  1.00  0.00     0.054 C 
HETATM    3  C7  UNL     1      -2.202  -0.309  -2.391  1.00  0.00     0.052 C 
HETATM    4  C8  UNL     1      -1.511  -1.434  -1.685  1.00  0.00     0.048 C 
HETATM    5  C9  UNL     1      -1.413  -0.834  -0.277  1.00  0.00     0.140 C 
HETATM    6  O2  UNL     1      -2.434  -1.351   0.351  1.00  0.00    -0.373 OA
HETATM    7  C10 UNL     1       0.013  -0.774  -0.034  1.00  0.00     0.055 C 
HETATM    8  C11 UNL     1       0.574  -2.174  -0.284  1.00  0.00     0.027 C 
HETATM    9  C21 UNL     1       0.512   0.120  -1.178  1.00  0.00     0.094 C 
HETATM   10  S2  UNL     1      -0.859   0.941  -2.108  1.00  0.00    -0.163 SA
ENDROOT
BRANCH   7  11
HETATM   11  C12 UNL     1       0.471  -0.337   1.275  1.00  0.00     0.160 C 
HETATM   12  O3  UNL     1      -0.325  -0.036   2.222  1.00  0.00    -0.292 OA
BRANCH  11  13
HETATM   13  C13 UNL     1       1.879  -0.217   1.580  1.00  0.00     0.047 C 
HETATM   14  C14 UNL     1       2.899  -0.454   0.803  1.00  0.00    -0.018 C 
BRANCH  14  15
HETATM   15  C15 UNL     1       4.314  -0.287   1.256  1.00  0.00     0.017 A 
HETATM   16  C16 UNL     1       4.670   1.030   1.934  1.00  0.00     0.019 A 
HETATM   17  C17 UNL     1       5.218   0.651   0.584  1.00  0.00    -0.037 A 
HETATM   18  C18 UNL     1       6.710   0.345   0.597  1.00  0.00     0.016 C 
BRANCH  17  19
HETATM   19  C19 UNL     1       4.753   1.519  -0.570  1.00  0.00     0.005 C 
HETATM   20  C20 UNL     1       5.854   2.386  -1.081  1.00  0.00     0.006 C 
ENDBRANCH  17  19
ENDBRANCH  14  15
ENDBRANCH  11  13
ENDBRANCH   7  11
BRANCH   1  21
HETATM   21  C2  UNL     1      -4.612  -1.966  -0.403  1.00  0.00     0.034 C 
HETATM   22  C1  UNL     1      -5.972  -1.554  -0.838  1.00  0.00     0.008 C 
ENDBRANCH   1  21
BRANCH   1  23
HETATM   23  C4  UNL     1      -4.273   0.090   0.735  1.00  0.00     0.146 C 
BRANCH  23  24
HETATM   24  S1  UNL     1      -3.528   1.534   1.254  1.00  0.00     0.013 S 
HETATM   25  C5  UNL     1      -4.635   2.296   2.472  1.00  0.00     0.127 C 
HETATM   26  O1  UNL     1      -3.182   2.703   0.149  1.00  0.00    -0.258 OA
ENDBRANCH  23  24
ENDBRANCH   1  23
TORSDOF 7
