REMARK  8 active torsions:
REMARK  status: ('A' for Active; 'I' for Inactive)
REMARK       I    between atoms: N1_2  and  C2_3 
REMARK    1  A    between atoms: N1_2  and  C17_22 
REMARK    2  A    between atoms: C2_3  and  C3_5 
REMARK    3  A    between atoms: C4_6  and  C5_7 
REMARK    4  A    between atoms: C5_7  and  C6_8 
REMARK    5  A    between atoms: C6_8  and  C7_9 
REMARK    6  A    between atoms: C7_9  and  C8_10 
REMARK    7  A    between atoms: C8_10  and  O3_12 
REMARK    8  A    between atoms: O3_12  and  C9_13 
ROOT
HETATM    1  C5  UNL     1      -0.707   2.064   0.080  1.00  0.00     0.028 C 
ENDROOT
BRANCH   1   2
HETATM    2  C4  UNL     1      -0.994   0.892  -0.768  1.00  0.00    -0.021 C 
HETATM    3  C3  UNL     1      -2.202   0.312  -0.668  1.00  0.00     0.070 C 
BRANCH   3   4
HETATM    4  C2  UNL     1      -2.515  -0.843  -1.488  1.00  0.00     0.243 C 
HETATM    5  N1  UNL     1      -3.758  -1.470  -1.411  1.00  0.00    -0.348 N 
HETATM    6  C1  UNL     1      -3.990  -2.641  -2.288  1.00  0.00     0.153 C 
HETATM    7  O1  UNL     1      -1.640  -1.271  -2.274  1.00  0.00    -0.268 OA
BRANCH   5   8
HETATM    8  C17 UNL     1      -4.864  -1.090  -0.551  1.00  0.00     0.087 C 
HETATM    9  C18 UNL     1      -5.434   0.222  -0.934  1.00  0.00     0.025 C 
HETATM   10  C19 UNL     1      -6.954   0.189  -1.031  1.00  0.00     0.002 C 
HETATM   11  C20 UNL     1      -7.590   0.495   0.307  1.00  0.00     0.000 C 
HETATM   12  C21 UNL     1      -7.601  -0.693   1.223  1.00  0.00     0.000 C 
HETATM   13  C22 UNL     1      -6.578  -0.620   2.291  1.00  0.00     0.000 C 
HETATM   14  C23 UNL     1      -5.168  -0.373   1.872  1.00  0.00     0.002 C 
HETATM   15  C24 UNL     1      -4.582  -1.317   0.902  1.00  0.00     0.025 C 
ENDBRANCH   5   8
ENDBRANCH   3   4
ENDBRANCH   1   2
BRANCH   1  16
HETATM   16  C6  UNL     1       0.464   1.758   0.970  1.00  0.00     0.013 C 
BRANCH  16  17
HETATM   17  C7  UNL     1       1.667   1.452   0.131  1.00  0.00     0.111 C 
BRANCH  17  18
HETATM   18  C8  UNL     1       2.809   1.164   1.041  1.00  0.00     0.259 C 
HETATM   19  O2  UNL     1       2.672   1.200   2.274  1.00  0.00    -0.265 OA
BRANCH  18  20
HETATM   20  O3  UNL     1       4.029   0.855   0.488  1.00  0.00    -0.316 OA
BRANCH  20  21
HETATM   21  C9  UNL     1       5.164   0.568   1.271  1.00  0.00     0.136 C 
HETATM   22  C10 UNL     1       6.247   1.558   0.999  1.00  0.00     0.068 C 
HETATM   23  C11 UNL     1       7.259   1.098  -0.028  1.00  0.00     0.225 C 
HETATM   24  C12 UNL     1       8.362   0.375   0.702  1.00  0.00     0.038 C 
HETATM   25  N2  UNL     1       6.624   0.144  -0.898  1.00  0.00     0.093 N 
HETATM   26  C13 UNL     1       7.987  -1.074   0.530  1.00  0.00     0.038 C 
HETATM   27  C14 UNL     1       6.588  -1.044  -0.047  1.00  0.00     0.225 C 
HETATM   28  C15 UNL     1       5.548  -0.862   1.007  1.00  0.00     0.068 C 
HETATM   29  C16 UNL     1       7.357  -0.087  -2.119  1.00  0.00     0.310 C 
ENDBRANCH  20  21
ENDBRANCH  18  20
ENDBRANCH  17  18
ENDBRANCH  16  17
ENDBRANCH   1  16
TORSDOF 8
