REMARK  7 active torsions:
REMARK  status: ('A' for Active; 'I' for Inactive)
REMARK    1  A    between atoms: C2_2  and  C3_3 
REMARK    2  A    between atoms: C3_3  and  N1_4 
REMARK       I    between atoms: N1_4  and  C4_5 
REMARK    3  A    between atoms: N1_4  and  C11_13 
REMARK    4  A    between atoms: C4_5  and  C5_7 
REMARK    5  A    between atoms: C7_9  and  C8_10 
REMARK    6  A    between atoms: C15_19  and  O4_20 
REMARK    7  A    between atoms: O4_20  and  C16_21 
ROOT
HETATM    1  C11 UNL     1      -0.058  -1.418  -1.088  1.00  0.00     0.236 C 
HETATM    2  O2  UNL     1      -1.113  -1.430  -0.220  1.00  0.00    -0.346 OA
HETATM    3  C12 UNL     1      -2.272  -1.560  -1.018  1.00  0.00     0.134 C 
HETATM    4  C13 UNL     1      -3.078  -2.766  -0.704  1.00  0.00     0.056 C 
HETATM    5  C14 UNL     1      -3.010  -0.266  -0.785  1.00  0.00     0.217 C 
HETATM    6  O3  UNL     1      -4.187  -0.303  -0.394  1.00  0.00    -0.287 OA
HETATM    7  C15 UNL     1      -2.234   0.931  -1.056  1.00  0.00     0.115 C 
HETATM    8  C20 UNL     1      -1.091   0.748  -1.724  1.00  0.00     0.024 C 
HETATM    9  C21 UNL     1      -0.586  -0.548  -2.192  1.00  0.00     0.071 C 
HETATM   10  C22 UNL     1      -1.828  -1.460  -2.469  1.00  0.00     0.002 C 
HETATM   11  C23 UNL     1      -1.407  -2.719  -3.102  1.00  0.00     0.019 C 
HETATM   12  C24 UNL     1      -2.821  -0.732  -3.319  1.00  0.00     0.019 C 
ENDROOT
BRANCH   1  13
HETATM   13  N1  UNL     1       1.246  -1.267  -0.625  1.00  0.00    -0.317 N 
HETATM   14  C4  UNL     1       1.828  -0.164   0.060  1.00  0.00     0.251 C 
HETATM   15  O1  UNL     1       1.047   0.772   0.320  1.00  0.00    -0.268 OA
BRANCH  13  16
HETATM   16  C3  UNL     1       2.179  -2.386  -0.897  1.00  0.00     0.155 C 
BRANCH  16  17
HETATM   17  C2  UNL     1       2.203  -3.377   0.183  1.00  0.00    -0.017 C 
HETATM   18  C1  UNL     1       1.882  -4.673   0.004  1.00  0.00     0.008 C 
ENDBRANCH  16  17
ENDBRANCH  13  16
BRANCH  14  19
HETATM   19  C5  UNL     1       3.221  -0.038   0.467  1.00  0.00     0.003 C 
HETATM   20  C6  UNL     1       4.006   0.557  -0.700  1.00  0.00     0.054 C 
HETATM   21  C7  UNL     1       3.655   0.395   1.777  1.00  0.00    -0.011 C 
BRANCH  21  22
HETATM   22  C8  UNL     1       3.397   1.661   2.438  1.00  0.00     0.001 C 
HETATM   23  C9  UNL     1       4.207   1.558   3.798  1.00  0.00     0.013 C 
HETATM   24  C10 UNL     1       1.995   1.853   2.956  1.00  0.00     0.013 C 
ENDBRANCH  21  22
ENDBRANCH  14  19
ENDBRANCH   1  13
BRANCH   7  25
HETATM   25  O4  UNL     1      -2.628   2.171  -0.667  1.00  0.00    -0.338 OA
BRANCH  25  26
HETATM   26  C16 UNL     1      -2.790   2.780   0.542  1.00  0.00     0.057 C 
HETATM   27  C17 UNL     1      -3.795   2.130   1.485  1.00  0.00     0.045 C 
HETATM   28  C18 UNL     1      -3.399   4.170   0.254  1.00  0.00     0.045 C 
HETATM   29  C19 UNL     1      -1.554   3.059   1.348  1.00  0.00     0.045 C 
ENDBRANCH  25  26
ENDBRANCH   7  25
TORSDOF 7
