REMARK  8 active torsions:
REMARK  status: ('A' for Active; 'I' for Inactive)
REMARK    1  A    between atoms: C2_2  and  C3_3 
REMARK    2  A    between atoms: C3_3  and  C4_4 
REMARK    3  A    between atoms: C4_4  and  O2_6 
REMARK    4  A    between atoms: O2_6  and  C5_7 
REMARK    5  A    between atoms: C5_7  and  C6_8 
REMARK    6  A    between atoms: C6_8  and  C8_10 
REMARK    7  A    between atoms: C8_10  and  C9_11 
REMARK    8  A    between atoms: C21_23  and  C22_24 
ROOT
HETATM    1  C9  UNL     1      -0.776  -0.409  -0.462  1.00  0.00    -0.002 C 
HETATM    2  C10 UNL     1      -1.241   0.969  -0.077  1.00  0.00     0.015 C 
HETATM    3  C11 UNL     1      -2.699   1.238  -0.285  1.00  0.00    -0.039 C 
HETATM    4  C12 UNL     1      -3.017   1.552  -1.719  1.00  0.00     0.015 C 
HETATM    5  C13 UNL     1      -3.007   2.524   0.508  1.00  0.00     0.010 C 
HETATM    6  C14 UNL     1      -4.232   2.380   1.370  1.00  0.00     0.002 C 
HETATM    7  C15 UNL     1      -5.374   1.685   0.691  1.00  0.00     0.009 C 
HETATM    8  C16 UNL     1      -5.002   0.303   0.216  1.00  0.00    -0.043 C 
HETATM    9  C17 UNL     1      -5.542  -0.714   1.241  1.00  0.00     0.015 C 
HETATM   10  C18 UNL     1      -5.563  -0.080  -1.098  1.00  0.00     0.015 C 
HETATM   11  C19 UNL     1      -3.486   0.152   0.320  1.00  0.00     0.002 C 
HETATM   12  C20 UNL     1      -3.096  -1.234   0.008  1.00  0.00     0.018 C 
HETATM   13  C21 UNL     1      -1.791  -1.424  -0.737  1.00  0.00     0.059 C 
ENDROOT
BRANCH   1  14
HETATM   14  C8  UNL     1       0.399  -0.764   0.361  1.00  0.00     0.012 C 
BRANCH  14  15
HETATM   15  C6  UNL     1       1.626   0.202   0.070  1.00  0.00     0.006 C 
HETATM   16  C7  UNL     1       2.010  -0.247  -1.336  1.00  0.00     0.012 C 
BRANCH  15  17
HETATM   17  C5  UNL     1       2.642  -0.374   1.088  1.00  0.00     0.183 C 
BRANCH  17  18
HETATM   18  O2  UNL     1       3.939  -0.163   0.849  1.00  0.00    -0.319 OA
BRANCH  18  19
HETATM   19  C4  UNL     1       4.759   0.815   0.505  1.00  0.00     0.296 C 
HETATM   20  O1  UNL     1       4.310   1.946   0.317  1.00  0.00    -0.262 OA
BRANCH  19  21
HETATM   21  C3  UNL     1       6.230   0.464   0.343  1.00  0.00     0.174 A 
HETATM   22  O4  UNL     1       6.302  -0.718  -0.555  1.00  0.00    -0.359 OA
HETATM   23  C24 UNL     1       6.799   0.535  -0.935  1.00  0.00     0.164 A 
HETATM   24  C25 UNL     1       5.990   1.067  -2.122  1.00  0.00     0.043 C 
BRANCH  21  25
HETATM   25  C2  UNL     1       6.830  -0.057   1.655  1.00  0.00     0.047 C 
HETATM   26  C1  UNL     1       8.262  -0.454   1.442  1.00  0.00     0.009 C 
ENDBRANCH  21  25
ENDBRANCH  19  21
ENDBRANCH  18  19
ENDBRANCH  17  18
ENDBRANCH  15  17
ENDBRANCH  14  15
ENDBRANCH   1  14
BRANCH  13  27
HETATM   27  C22 UNL     1      -1.372  -2.806  -0.411  1.00  0.00     0.127 C 
HETATM   28  C23 UNL     1      -1.709  -3.990  -1.249  1.00  0.00     0.091 C 
HETATM   29  O3  UNL     1      -0.731  -3.039   0.574  1.00  0.00    -0.298 OA
ENDBRANCH  13  27
TORSDOF 8
