REMARK  7 active torsions:
REMARK  status: ('A' for Active; 'I' for Inactive)
REMARK    1  A    between atoms: C2_2  and  C3_3 
REMARK    2  A    between atoms: N1_10  and  C10_11 
REMARK    3  A    between atoms: C10_11  and  C11_12 
REMARK    4  A    between atoms: C11_12  and  C12_13 
REMARK    5  A    between atoms: C12_13  and  C13_14 
REMARK    6  A    between atoms: C13_14  and  N2_15 
REMARK    7  A    between atoms: N3_18  and  C16_19 
ROOT
HETATM    1  C10 UNL     1      -1.801  -1.330   0.031  1.00  0.00     0.117 C 
ENDROOT
BRANCH   1   2
HETATM    2  N1  UNL     1      -3.197  -1.269  -0.164  1.00  0.00    -0.407 N 
HETATM    3  C5  UNL     1      -3.929  -0.211   0.409  1.00  0.00     0.090 C 
HETATM    4  C4  UNL     1      -4.232   0.826  -0.627  1.00  0.00     0.050 C 
HETATM    5  C6  UNL     1      -5.129  -0.646   1.211  1.00  0.00     0.053 C 
HETATM    6  C3  UNL     1      -5.671   1.178  -0.768  1.00  0.00     0.082 C 
HETATM    7  N4  UNL     1      -6.351   1.272   0.491  1.00  0.00    -0.392 N 
HETATM    8  C24 UNL     1      -6.104   0.433   1.402  1.00  0.00    -0.015 C 
ATOM      9  H4  UNL     1      -7.032   2.014   0.650  1.00  0.00     0.159 HD
HETATM   10  C25 UNL     1      -6.817   0.516   2.733  1.00  0.00     0.063 C 
HETATM   11  C7  UNL     1      -5.851  -1.838   0.661  1.00  0.00     0.014 C 
HETATM   12  C8  UNL     1      -4.844  -2.950   0.471  1.00  0.00     0.020 C 
HETATM   13  C9  UNL     1      -3.873  -2.426  -0.598  1.00  0.00     0.117 C 
BRANCH   6  14
HETATM   14  C2  UNL     1      -5.874   2.529  -1.453  1.00  0.00     0.021 C 
HETATM   15  C1  UNL     1      -5.229   3.658  -0.682  1.00  0.00     0.007 C 
ENDBRANCH   6  14
ENDBRANCH   1   2
BRANCH   1  16
HETATM   16  C11 UNL     1      -1.024  -0.267  -0.653  1.00  0.00     0.021 C 
BRANCH  16  17
HETATM   17  C12 UNL     1       0.453  -0.318  -0.467  1.00  0.00     0.021 C 
BRANCH  17  18
HETATM   18  C13 UNL     1       1.100  -1.579  -0.954  1.00  0.00     0.117 C 
BRANCH  18  19
HETATM   19  N2  UNL     1       2.503  -1.579  -0.767  1.00  0.00    -0.406 N 
HETATM   20  C14 UNL     1       3.253  -0.655  -1.553  1.00  0.00     0.137 C 
HETATM   21  C15 UNL     1       4.194   0.185  -0.663  1.00  0.00     0.141 C 
HETATM   22  N3  UNL     1       5.053  -0.737  -0.038  1.00  0.00    -0.386 N 
HETATM   23  C22 UNL     1       4.519  -1.921   0.466  1.00  0.00     0.078 C 
HETATM   24  C23 UNL     1       2.998  -1.800   0.544  1.00  0.00     0.161 C 
BRANCH  22  25
HETATM   25  C16 UNL     1       6.345  -0.318   0.348  1.00  0.00     0.083 C 
HETATM   26  C17 UNL     1       6.254   0.764   1.389  1.00  0.00     0.025 C 
HETATM   27  C18 UNL     1       6.202   2.150   0.847  1.00  0.00     0.002 C 
HETATM   28  C19 UNL     1       7.295   2.456  -0.117  1.00  0.00     0.000 C 
HETATM   29  C20 UNL     1       8.049   1.272  -0.618  1.00  0.00     0.002 C 
HETATM   30  C21 UNL     1       7.240   0.035  -0.813  1.00  0.00     0.025 C 
ENDBRANCH  22  25
ENDBRANCH  18  19
ENDBRANCH  17  18
ENDBRANCH  16  17
ENDBRANCH   1  16
TORSDOF 7
