REMARK  7 active torsions:
REMARK  status: ('A' for Active; 'I' for Inactive)
REMARK    1  A    between atoms: N1_4  and  C4_5 
REMARK    2  A    between atoms: C4_5  and  C6_7 
REMARK    3  A    between atoms: C7_8  and  C8_9 
REMARK    4  A    between atoms: N2_18  and  C17_19 
REMARK    5  A    between atoms: C17_19  and  C18_20 
REMARK    6  A    between atoms: C20_24  and  N4_25 
REMARK    7  A    between atoms: C23_28  and  O1_29 
ROOT
HETATM    1  C1  UNL     1       1.537  -2.131   1.583  1.00  0.00     0.034 C 
HETATM    2  C2  UNL     1       0.475  -1.741   0.591  1.00  0.00     0.098 C 
HETATM    3  C3  UNL     1      -0.019  -0.351   0.974  1.00  0.00     0.147 C 
HETATM    4  N1  UNL     1      -1.187  -0.027   0.251  1.00  0.00    -0.385 N 
HETATM    5  C15 UNL     1      -1.387  -0.746  -0.940  1.00  0.00     0.078 C 
HETATM    6  C16 UNL     1      -0.113  -1.156  -1.651  1.00  0.00     0.167 C 
HETATM    7  N2  UNL     1       0.837  -1.752  -0.743  1.00  0.00    -0.379 N 
ENDROOT
BRANCH   7   8
HETATM    8  C17 UNL     1       1.994  -2.289  -1.264  1.00  0.00     0.100 C 
BRANCH   8   9
HETATM    9  C18 UNL     1       3.229  -1.566  -0.889  1.00  0.00     0.011 A 
HETATM   10  C19 UNL     1       4.360  -2.225  -0.428  1.00  0.00     0.120 A 
HETATM   11  N3  UNL     1       5.459  -1.539  -0.122  1.00  0.00    -0.201 N 
HETATM   12  C20 UNL     1       5.544  -0.186  -0.240  1.00  0.00     0.679 A 
ATOM     13  H3  UNL     1       6.274  -2.051   0.216  1.00  0.00     0.183 HD
HETATM   14  N5  UNL     1       4.442   0.420  -0.686  1.00  0.00    -0.201 N 
HETATM   15  C25 UNL     1       3.307  -0.195  -1.011  1.00  0.00     0.120 A 
ATOM     16  H5  UNL     1       4.472   1.435  -0.786  1.00  0.00     0.183 HD
BRANCH  12  17
HETATM   17  N4  UNL     1       6.740   0.475   0.103  1.00  0.00    -0.215 N 
HETATM   18  C21 UNL     1       7.957  -0.142   0.555  1.00  0.00     0.144 C 
HETATM   19  C22 UNL     1       9.012   0.663  -0.214  1.00  0.00     0.054 C 
HETATM   20  C23 UNL     1       8.376   2.013  -0.446  1.00  0.00     0.138 C 
HETATM   21  C24 UNL     1       6.960   1.897   0.067  1.00  0.00     0.173 C 
BRANCH  20  22
HETATM   22  O1  UNL     1       9.069   2.984   0.267  1.00  0.00    -0.394 OA
ATOM     23  H1  UNL     1       8.669   3.833   0.121  1.00  0.00     0.210 HD
ENDBRANCH  20  22
ENDBRANCH  12  17
ENDBRANCH   8   9
ENDBRANCH   7   8
BRANCH   4  24
HETATM   24  C4  UNL     1      -2.379   0.153   0.997  1.00  0.00     0.084 C 
HETATM   25  C5  UNL     1      -2.297   1.312   1.975  1.00  0.00     0.033 C 
BRANCH  24  26
HETATM   26  C6  UNL     1      -3.571   0.222   0.117  1.00  0.00     0.022 A 
HETATM   27  C7  UNL     1      -4.959   0.419   0.728  1.00  0.00     0.008 A 
HETATM   28  C12 UNL     1      -4.633  -0.835   0.096  1.00  0.00    -0.037 A 
HETATM   29  C13 UNL     1      -4.506  -2.046   1.035  1.00  0.00     0.015 C 
HETATM   30  C14 UNL     1      -5.062  -1.258  -1.279  1.00  0.00     0.015 C 
BRANCH  27  31
HETATM   31  C8  UNL     1      -5.815   1.514   0.233  1.00  0.00    -0.047 C 
HETATM   32  C9  UNL     1      -6.204   1.533  -1.187  1.00  0.00     0.015 C 
HETATM   33  C10 UNL     1      -5.068   2.833   0.496  1.00  0.00     0.015 C 
HETATM   34  C11 UNL     1      -7.094   1.621   1.070  1.00  0.00     0.015 C 
ENDBRANCH  27  31
ENDBRANCH  24  26
ENDBRANCH   4  24
TORSDOF 7
