REMARK  14 active torsions:
REMARK  status: ('A' for Active; 'I' for Inactive)
REMARK    1  A    between atoms: C2_2  and  N1_3 
REMARK    2  A    between atoms: C3_4  and  C4_5 
REMARK       I    between atoms: C4_5  and  N2_7 
REMARK    3  A    between atoms: N2_7  and  C5_9 
REMARK    4  A    between atoms: C5_9  and  C6_10 
REMARK    5  A    between atoms: C6_10  and  C7_11 
REMARK    6  A    between atoms: C7_11  and  C8_12 
REMARK    7  A    between atoms: C8_12  and  C9_13 
REMARK    8  A    between atoms: C9_13  and  N3_14 
REMARK    9  A    between atoms: C18_23  and  N4_24 
REMARK   10  A    between atoms: C19_29  and  N6_30 
REMARK   11  A    between atoms: C22_33  and  C23_34 
REMARK   12  A    between atoms: N7_37  and  C26_38 
REMARK   13  A    between atoms: C26_38  and  C27_39 
REMARK   14  A    between atoms: C27_39  and  O2_40 
ROOT
HETATM    1  N1  UNL     1      -1.601   0.272   1.154  1.00  0.00    -0.178 N 
HETATM    2  C3  UNL     1      -0.555   0.061   0.298  1.00  0.00     0.122 A 
HETATM    3  C17 UNL     1      -0.790  -0.192  -1.069  1.00  0.00     0.084 A 
HETATM    4  C18 UNL     1      -2.072  -0.221  -1.504  1.00  0.00     0.117 A 
HETATM    5  N5  UNL     1      -3.039  -0.014  -0.641  1.00  0.00    -0.177 N 
ATOM      6  H5  UNL     1      -3.994  -0.043  -0.998  1.00  0.00     0.185 HD
HETATM    7  C19 UNL     1      -2.882   0.236   0.689  1.00  0.00     0.684 A 
ENDROOT
BRANCH   2   8
HETATM    8  C4  UNL     1       0.826  -0.028   0.702  1.00  0.00     0.269 C 
HETATM    9  O1  UNL     1       1.185  -0.336   1.835  1.00  0.00    -0.266 OA
HETATM   10  N2  UNL     1       1.853   0.253  -0.247  1.00  0.00    -0.356 N 
ATOM     11  H2  UNL     1       1.612   0.544  -1.195  1.00  0.00     0.162 HD
BRANCH  10  12
HETATM   12  C5  UNL     1       3.278   0.118   0.157  1.00  0.00     0.123 C 
BRANCH  12  13
HETATM   13  C6  UNL     1       3.537  -1.320   0.425  1.00  0.00     0.020 C 
BRANCH  13  14
HETATM   14  C7  UNL     1       4.846  -1.659   0.991  1.00  0.00     0.003 C 
BRANCH  14  15
HETATM   15  C8  UNL     1       6.123  -1.347   0.347  1.00  0.00     0.020 C 
BRANCH  15  16
HETATM   16  C9  UNL     1       6.526   0.060   0.209  1.00  0.00     0.127 C 
BRANCH  16  17
HETATM   17  N3  UNL     1       7.827   0.229  -0.403  1.00  0.00    -0.374 N 
HETATM   18  C10 UNL     1       8.942  -0.204   0.319  1.00  0.00     0.064 C 
HETATM   19  C11 UNL     1       9.991  -0.916  -0.486  1.00  0.00     0.053 C 
HETATM   20  C12 UNL     1      10.341   0.031  -1.638  1.00  0.00    -0.039 C 
HETATM   21  C13 UNL     1      10.666   1.375  -1.034  1.00  0.00     0.015 C 
HETATM   22  C14 UNL     1      11.468  -0.504  -2.463  1.00  0.00     0.015 C 
HETATM   23  C15 UNL     1       9.104   0.127  -2.498  1.00  0.00     0.053 C 
HETATM   24  C16 UNL     1       7.889   0.557  -1.749  1.00  0.00     0.064 C 
ENDBRANCH  16  17
ENDBRANCH  15  16
ENDBRANCH  14  15
ENDBRANCH  13  14
ENDBRANCH  12  13
ENDBRANCH  10  12
ENDBRANCH   2   8
BRANCH   1  25
HETATM   25  C2  UNL     1      -1.400   0.597   2.528  1.00  0.00     0.143 C 
HETATM   26  C1  UNL     1      -1.286   2.119   2.731  1.00  0.00     0.027 C 
ENDBRANCH   1  25
BRANCH   7  27
HETATM   27  N6  UNL     1      -4.022   0.426   1.480  1.00  0.00    -0.217 N 
HETATM   28  C20 UNL     1      -4.858   1.615   1.198  1.00  0.00     0.141 C 
HETATM   29  C21 UNL     1      -6.187   1.122   0.590  1.00  0.00     0.026 C 
HETATM   30  C22 UNL     1      -6.366  -0.325   0.901  1.00  0.00     0.002 C 
HETATM   31  C29 UNL     1      -6.057  -0.538   2.371  1.00  0.00     0.026 C 
HETATM   32  C30 UNL     1      -4.540  -0.408   2.535  1.00  0.00     0.141 C 
BRANCH  30  33
HETATM   33  C23 UNL     1      -7.744  -0.858   0.586  1.00  0.00     0.084 C 
HETATM   34  C24 UNL     1      -8.856  -0.183   1.327  1.00  0.00     0.034 C 
HETATM   35  C25 UNL     1     -10.069  -0.669   0.554  1.00  0.00     0.127 C 
HETATM   36  N7  UNL     1      -9.582  -0.864  -0.823  1.00  0.00    -0.350 N 
HETATM   37  C28 UNL     1      -8.159  -0.738  -0.806  1.00  0.00     0.224 C 
HETATM   38  O3  UNL     1      -7.479  -0.559  -1.850  1.00  0.00    -0.273 OA
BRANCH  36  39
HETATM   39  C26 UNL     1     -10.485  -1.130  -1.917  1.00  0.00     0.151 C 
BRANCH  39  40
HETATM   40  C27 UNL     1     -10.962   0.131  -2.589  1.00  0.00     0.183 C 
BRANCH  40  41
HETATM   41  O2  UNL     1     -11.626   0.912  -1.637  1.00  0.00    -0.399 OA
ATOM     42  H2  UNL     1     -11.927   1.707  -2.061  1.00  0.00     0.209 HD
ENDBRANCH  40  41
ENDBRANCH  39  40
ENDBRANCH  36  39
ENDBRANCH  30  33
ENDBRANCH   7  27
BRANCH   4  43
HETATM   43  N4  UNL     1      -2.301  -0.448  -2.754  1.00  0.00    -0.385 N 
ATOM     44  H42 UNL     1      -1.550  -0.609  -3.425  1.00  0.00     0.157 HD
ATOM     45  H41 UNL     1      -3.267  -0.470  -3.082  1.00  0.00     0.157 HD
ENDBRANCH   4  43
TORSDOF 14
