REMARK  14 active torsions:
REMARK  status: ('A' for Active; 'I' for Inactive)
REMARK    1  A    between atoms: C1_2  and  C2_3 
REMARK       I    between atoms: C1_2  and  N4_35 
REMARK    2  A    between atoms: C2_3  and  C3_4 
REMARK    3  A    between atoms: C3_4  and  C4_5 
REMARK       I    between atoms: C4_5  and  N1_7 
REMARK    4  A    between atoms: N1_7  and  N2_9 
REMARK    5  A    between atoms: C5_11  and  C6_12 
REMARK    6  A    between atoms: C5_11  and  C14_22 
REMARK    7  A    between atoms: C6_12  and  C7_13 
REMARK    8  A    between atoms: C7_13  and  O4_15 
REMARK    9  A    between atoms: O4_15  and  C8_16 
REMARK       I    between atoms: C14_22  and  N3_24 
REMARK   10  A    between atoms: N3_24  and  C15_26 
REMARK   11  A    between atoms: C15_26  and  C16_27 
REMARK   12  A    between atoms: C16_27  and  C17_29 
REMARK   13  A    between atoms: N4_35  and  N5_37 
REMARK   14  A    between atoms: C23_39  and  C24_40 
ROOT
HETATM    1  N2  UNL     1      -1.179   0.476  -1.758  1.00  0.00    -0.296 N 
ATOM      2  H2  UNL     1      -0.746   1.170  -1.148  1.00  0.00     0.187 HD
HETATM    3  C5  UNL     1      -2.385   0.192  -1.488  1.00  0.00     0.102 C 
ENDROOT
BRANCH   1   4
HETATM    4  N1  UNL     1      -0.370  -0.018  -2.757  1.00  0.00    -0.270 N 
HETATM    5  C4  UNL     1       0.931   0.492  -3.032  1.00  0.00     0.236 C 
HETATM    6  O2  UNL     1       1.314   1.449  -2.294  1.00  0.00    -0.272 OA
ATOM      7  H1  UNL     1      -0.720  -0.787  -3.328  1.00  0.00     0.190 HD
BRANCH   5   8
HETATM    8  C3  UNL     1       1.793  -0.051  -4.108  1.00  0.00     0.114 C 
BRANCH   8   9
HETATM    9  C2  UNL     1       3.155   0.550  -4.124  1.00  0.00     0.114 C 
BRANCH   9  10
HETATM   10  C1  UNL     1       3.873   0.266  -2.852  1.00  0.00     0.236 C 
HETATM   11  O1  UNL     1       3.360  -0.475  -1.945  1.00  0.00    -0.272 OA
HETATM   12  N4  UNL     1       5.156   0.809  -2.598  1.00  0.00    -0.270 N 
ATOM     13  H4  UNL     1       5.596   1.404  -3.300  1.00  0.00     0.190 HD
BRANCH  12  14
HETATM   14  N5  UNL     1       5.823   0.548  -1.416  1.00  0.00    -0.308 N 
HETATM   15  C23 UNL     1       6.247   1.398  -0.599  1.00  0.00     0.119 C 
ATOM     16  H5  UNL     1       5.986  -0.432  -1.186  1.00  0.00     0.186 HD
BRANCH  15  17
HETATM   17  C24 UNL     1       6.945   1.267   0.647  1.00  0.00    -0.008 A 
HETATM   18  C25 UNL     1       7.292   2.443   1.357  1.00  0.00     0.014 A 
HETATM   19  C26 UNL     1       7.951   2.409   2.548  1.00  0.00     0.002 A 
HETATM   20  C27 UNL     1       8.308   1.218   3.113  1.00  0.00     0.012 A 
HETATM   21  C28 UNL     1       7.997   0.041   2.471  1.00  0.00    -0.025 A 
HETATM   22  C29 UNL     1       8.366  -1.172   3.058  1.00  0.00     0.012 A 
HETATM   23  C33 UNL     1       7.319   0.072   1.244  1.00  0.00    -0.014 A 
HETATM   24  C30 UNL     1       8.053  -2.342   2.411  1.00  0.00     0.001 A 
HETATM   25  C31 UNL     1       7.387  -2.324   1.206  1.00  0.00     0.001 A 
HETATM   26  C32 UNL     1       7.018  -1.115   0.618  1.00  0.00     0.013 A 
ENDBRANCH  15  17
ENDBRANCH  12  14
ENDBRANCH   9  10
ENDBRANCH   8   9
ENDBRANCH   5   8
ENDBRANCH   1   4
BRANCH   3  27
HETATM   27  C6  UNL     1      -3.134  -0.791  -2.282  1.00  0.00     0.175 C 
BRANCH  27  28
HETATM   28  C7  UNL     1      -3.457  -2.019  -1.476  1.00  0.00     0.269 C 
HETATM   29  O3  UNL     1      -3.064  -2.182  -0.293  1.00  0.00    -0.265 OA
BRANCH  28  30
HETATM   30  O4  UNL     1      -4.221  -3.046  -2.016  1.00  0.00    -0.279 OA
BRANCH  30  31
HETATM   31  C8  UNL     1      -4.530  -4.200  -1.272  1.00  0.00     0.079 A 
HETATM   32  C9  UNL     1      -5.603  -4.273  -0.430  1.00  0.00     0.037 A 
HETATM   33  C10 UNL     1      -5.809  -5.472   0.255  1.00  0.00     0.003 A 
HETATM   34  C11 UNL     1      -4.983  -6.553   0.107  1.00  0.00     0.000 A 
HETATM   35  C12 UNL     1      -3.914  -6.465  -0.739  1.00  0.00     0.003 A 
HETATM   36  C13 UNL     1      -3.696  -5.291  -1.421  1.00  0.00     0.037 A 
ENDBRANCH  30  31
ENDBRANCH  28  30
ENDBRANCH  27  28
ENDBRANCH   3  27
BRANCH   3  37
HETATM   37  C14 UNL     1      -2.998   0.851  -0.339  1.00  0.00     0.266 C 
HETATM   38  O5  UNL     1      -2.320   1.668   0.365  1.00  0.00    -0.266 OA
HETATM   39  N3  UNL     1      -4.341   0.626   0.042  1.00  0.00    -0.349 N 
ATOM     40  H3  UNL     1      -4.905  -0.024  -0.506  1.00  0.00     0.163 HD
BRANCH  39  41
HETATM   41  C15 UNL     1      -4.939   1.279   1.171  1.00  0.00     0.206 C 
BRANCH  41  42
HETATM   42  C16 UNL     1      -4.997   2.746   1.076  1.00  0.00     0.177 C 
HETATM   43  O6  UNL     1      -4.583   3.324   0.062  1.00  0.00    -0.291 OA
BRANCH  42  44
HETATM   44  C17 UNL     1      -5.539   3.577   2.159  1.00  0.00     0.011 A 
HETATM   45  C18 UNL     1      -6.019   2.984   3.313  1.00  0.00     0.015 A 
HETATM   46  C19 UNL     1      -6.531   3.769   4.340  1.00  0.00     0.001 A 
HETATM   47  C20 UNL     1      -6.550   5.141   4.187  1.00  0.00     0.000 A 
HETATM   48  C21 UNL     1      -6.080   5.757   3.052  1.00  0.00     0.001 A 
HETATM   49  C22 UNL     1      -5.582   4.943   2.059  1.00  0.00     0.015 A 
ENDBRANCH  42  44
ENDBRANCH  41  42
ENDBRANCH  39  41
ENDBRANCH   3  37
TORSDOF 14
