REMARK  15 active torsions:
REMARK  status: ('A' for Active; 'I' for Inactive)
REMARK    1  A    between atoms: O1_2  and  C2_3 
REMARK    2  A    between atoms: C4_5  and  C5_6 
REMARK    3  A    between atoms: C5_6  and  C6_7 
REMARK    4  A    between atoms: C6_7  and  N1_8 
REMARK    5  A    between atoms: N1_8  and  C7_10 
REMARK    6  A    between atoms: C8_13  and  N3_14 
REMARK    7  A    between atoms: N3_14  and  C9_15 
REMARK    8  A    between atoms: C12_18  and  C13_19 
REMARK    9  A    between atoms: N5_27  and  C19_29 
REMARK   10  A    between atoms: C23_33  and  O2_34 
REMARK   11  A    between atoms: O2_34  and  C24_35 
REMARK   12  A    between atoms: C24_35  and  C25_36 
REMARK   13  A    between atoms: C25_36  and  N6_37 
REMARK   14  A    between atoms: C30_44  and  O3_45 
REMARK   15  A    between atoms: C32_47  and  O4_48 
ROOT
HETATM    1  C7  UNL     1       1.359  -0.563  -1.248  1.00  0.00     0.696 A 
HETATM    2  N2  UNL     1       1.562   0.749  -1.214  1.00  0.00    -0.148 N 
ATOM      3  H2  UNL     1       2.429   1.121  -1.602  1.00  0.00     0.188 HD
HETATM    4  C8  UNL     1       0.643   1.632  -0.672  1.00  0.00     0.288 A 
HETATM    5  N4  UNL     1      -0.485   1.039  -0.181  1.00  0.00    -0.148 N 
ATOM      6  H4  UNL     1      -1.193   1.649   0.227  1.00  0.00     0.188 HD
HETATM    7  C18 UNL     1      -0.738  -0.268  -0.190  1.00  0.00     0.700 A 
HETATM    8  N5  UNL     1      -1.731  -0.806   0.235  1.00  0.00    -0.191 N 
ATOM      9  H5  UNL     1      -1.516  -1.783   0.036  1.00  0.00     0.184 HD
HETATM   10  N7  UNL     1       0.252  -1.067  -0.756  1.00  0.00    -0.022 N 
ATOM     11  H7  UNL     1       0.112  -2.077  -0.789  1.00  0.00     0.203 HD
ENDROOT
BRANCH   1  12
HETATM   12  N1  UNL     1       2.274  -1.356  -1.781  1.00  0.00    -0.225 N 
ATOM     13  H1  UNL     1       3.138  -0.981  -2.174  1.00  0.00     0.177 HD
BRANCH  12  14
HETATM   14  C6  UNL     1       1.995  -2.800  -1.784  1.00  0.00     0.142 C 
BRANCH  14  15
HETATM   15  C5  UNL     1       2.360  -3.384  -0.436  1.00  0.00     0.059 C 
BRANCH  15  16
HETATM   16  C4  UNL     1       3.823  -3.316  -0.191  1.00  0.00    -0.051 A 
HETATM   17  C3  UNL     1       4.528  -2.195   0.133  1.00  0.00     0.047 A 
HETATM   18  C2  UNL     1       5.903  -2.198   0.394  1.00  0.00     0.104 A 
HETATM   19  C32 UNL     1       6.551  -3.421   0.314  1.00  0.00     0.135 A 
HETATM   20  C30 UNL     1       5.884  -4.585  -0.006  1.00  0.00     0.104 A 
HETATM   21  C29 UNL     1       4.534  -4.525  -0.256  1.00  0.00     0.047 A 
BRANCH  18  22
HETATM   22  O1  UNL     1       6.606  -1.048   0.714  1.00  0.00    -0.353 OA
HETATM   23  C1  UNL     1       5.876   0.175   0.753  1.00  0.00     0.210 C 
ENDBRANCH  18  22
BRANCH  19  24
HETATM   24  O4  UNL     1       7.913  -3.487   0.560  1.00  0.00    -0.351 OA
HETATM   25  C33 UNL     1       8.726  -3.434  -0.627  1.00  0.00     0.210 C 
ENDBRANCH  19  24
BRANCH  20  26
HETATM   26  O3  UNL     1       6.609  -5.762  -0.060  1.00  0.00    -0.353 OA
HETATM   27  C31 UNL     1       5.878  -6.956  -0.387  1.00  0.00     0.210 C 
ENDBRANCH  20  26
ENDBRANCH  15  16
ENDBRANCH  14  15
ENDBRANCH  12  14
ENDBRANCH   1  12
BRANCH   4  28
HETATM   28  N3  UNL     1       0.798   2.788  -0.583  1.00  0.00    -0.370 NA
BRANCH  28  29
HETATM   29  C9  UNL     1       0.982   4.093  -0.488  1.00  0.00     0.111 A 
HETATM   30  C10 UNL     1       1.371   4.727   0.714  1.00  0.00     0.045 A 
HETATM   31  C11 UNL     1       1.591   6.069   0.811  1.00  0.00     0.011 A 
HETATM   32  C12 UNL     1       1.437   6.884  -0.292  1.00  0.00    -0.054 A 
HETATM   33  C16 UNL     1       1.059   6.308  -1.482  1.00  0.00     0.011 A 
HETATM   34  C17 UNL     1       0.836   4.955  -1.584  1.00  0.00     0.045 A 
BRANCH  32  35
HETATM   35  C13 UNL     1       1.697   8.334  -0.180  1.00  0.00     0.010 C 
HETATM   36  C14 UNL     1       0.449   9.183  -0.189  1.00  0.00     0.015 C 
HETATM   37  C15 UNL     1       2.712   8.845  -1.180  1.00  0.00     0.015 C 
ENDBRANCH  32  35
ENDBRANCH  28  29
ENDBRANCH   4  28
BRANCH   8  38
HETATM   38  C19 UNL     1      -2.912  -0.927   0.791  1.00  0.00     0.051 A 
HETATM   39  C20 UNL     1      -3.112  -1.104   2.182  1.00  0.00     0.030 A 
HETATM   40  C21 UNL     1      -4.362  -1.289   2.683  1.00  0.00     0.005 A 
HETATM   41  C22 UNL     1      -5.481  -1.310   1.848  1.00  0.00     0.037 A 
HETATM   42  C23 UNL     1      -5.319  -1.140   0.495  1.00  0.00     0.070 A 
HETATM   43  C28 UNL     1      -4.059  -0.952  -0.024  1.00  0.00     0.066 A 
BRANCH  42  44
HETATM   44  O2  UNL     1      -6.374  -1.159  -0.377  1.00  0.00    -0.349 OA
BRANCH  44  45
HETATM   45  C24 UNL     1      -7.716  -1.372  -0.178  1.00  0.00     0.206 C 
BRANCH  45  46
HETATM   46  C25 UNL     1      -8.117  -2.732   0.298  1.00  0.00     0.297 C 
BRANCH  46  47
HETATM   47  N6  UNL     1      -9.585  -2.732   0.436  1.00  0.00     0.082 N 
HETATM   48  C26 UNL     1     -10.073  -4.008   0.872  1.00  0.00     0.309 C 
HETATM   49  C27 UNL     1      -9.998  -1.646   1.283  1.00  0.00     0.309 C 
ENDBRANCH  46  47
ENDBRANCH  45  46
ENDBRANCH  44  45
ENDBRANCH  42  44
ENDBRANCH   8  38
TORSDOF 15
