REMARK  13 active torsions:
REMARK  status: ('A' for Active; 'I' for Inactive)
REMARK    1  A    between atoms: C2_2  and  N1_3 
REMARK    2  A    between atoms: N1_3  and  C3_4 
REMARK       I    between atoms: N1_3  and  C5_6 
REMARK    3  A    between atoms: C5_6  and  C6_8 
REMARK    4  A    between atoms: N3_11  and  C7_12 
REMARK    5  A    between atoms: C10_15  and  N4_16 
REMARK    6  A    between atoms: N4_16  and  C11_18 
REMARK    7  A    between atoms: C11_18  and  C12_19 
REMARK    8  A    between atoms: C19_30  and  N7_31 
REMARK    9  A    between atoms: N7_31  and  C20_33 
REMARK   10  A    between atoms: C20_33  and  C21_34 
REMARK   11  A    between atoms: C21_34  and  N8_35 
REMARK   12  A    between atoms: N8_35  and  C22_38 
REMARK   13  A    between atoms: C22_38  and  C23_39 
ROOT
HETATM    1  C6  UNL     1      -2.818  -2.728  -0.299  1.00  0.00     0.146 A 
HETATM    2  N2  UNL     1      -4.020  -2.196  -0.442  1.00  0.00    -0.291 N 
ATOM      3  H2  UNL     1      -4.882  -2.741  -0.479  1.00  0.00     0.187 HD
HETATM    4  N3  UNL     1      -3.977  -0.868  -0.532  1.00  0.00    -0.286 N 
HETATM    5  C9  UNL     1      -2.686  -0.515  -0.444  1.00  0.00     0.124 A 
HETATM    6  C10 UNL     1      -2.073   0.733  -0.482  1.00  0.00     0.148 A 
HETATM    7  N6  UNL     1      -0.747   0.795  -0.374  1.00  0.00    -0.175 N 
ATOM      8  H6  UNL     1      -0.279   1.701  -0.400  1.00  0.00     0.186 HD
HETATM    9  C19 UNL     1      -0.004  -0.354  -0.228  1.00  0.00     0.680 A 
HETATM   10  N10 UNL     1      -0.586  -1.546  -0.192  1.00  0.00    -0.187 N 
ATOM     11  H10 UNL     1      -0.018  -2.386  -0.084  1.00  0.00     0.184 HD
HETATM   12  C29 UNL     1      -1.933  -1.650  -0.299  1.00  0.00     0.115 A 
ENDROOT
BRANCH   9  13
HETATM   13  N7  UNL     1       1.274  -0.255  -0.124  1.00  0.00    -0.224 N 
ATOM     14  H7  UNL     1       1.672   0.683  -0.157  1.00  0.00     0.177 HD
BRANCH  13  15
HETATM   15  C20 UNL     1       2.184  -1.344   0.034  1.00  0.00     0.165 C 
BRANCH  15  16
HETATM   16  C21 UNL     1       3.195  -1.505  -1.055  1.00  0.00     0.252 C 
BRANCH  16  17
HETATM   17  N8  UNL     1       4.133  -0.428  -1.208  1.00  0.00    -0.073 N 
ATOM     18  H82 UNL     1       4.631  -0.483  -2.096  1.00  0.00     0.277 HD
ATOM     19  H81 UNL     1       3.664   0.466  -1.352  1.00  0.00     0.277 HD
BRANCH  17  20
HETATM   20  C22 UNL     1       5.053  -0.383  -0.070  1.00  0.00     0.237 C 
BRANCH  20  21
HETATM   21  C23 UNL     1       6.142   0.655  -0.240  1.00  0.00     0.014 C 
HETATM   22  C24 UNL     1       7.058   0.657   0.975  1.00  0.00     0.036 C 
HETATM   23  C25 UNL     1       8.344  -0.102   0.733  1.00  0.00     0.272 C 
HETATM   24  N9  UNL     1       9.138   0.527  -0.310  1.00  0.00     0.084 N 
HETATM   25  C26 UNL     1       9.764   1.748   0.165  1.00  0.00     0.309 C 
HETATM   26  C27 UNL     1       8.342   0.832  -1.475  1.00  0.00     0.272 C 
HETATM   27  C28 UNL     1       6.957   0.267  -1.443  1.00  0.00     0.036 C 
ENDBRANCH  20  21
ENDBRANCH  17  20
ENDBRANCH  16  17
ENDBRANCH  15  16
ENDBRANCH  13  15
ENDBRANCH   9  13
BRANCH   6  28
HETATM   28  N4  UNL     1      -2.788   1.774  -0.611  1.00  0.00    -0.368 N 
ATOM     29  H4  UNL     1      -3.796   1.639  -0.682  1.00  0.00     0.161 HD
BRANCH  28  30
HETATM   30  C11 UNL     1      -2.311   3.106  -0.665  1.00  0.00     0.178 C 
BRANCH  30  31
HETATM   31  C12 UNL     1      -3.210   4.076   0.036  1.00  0.00     0.033 A 
HETATM   32  N5  UNL     1      -4.297   3.592   0.643  1.00  0.00    -0.367 N 
HETATM   33  C13 UNL     1      -5.157   4.388   1.312  1.00  0.00     0.095 A 
ATOM     34  H5  UNL     1      -4.483   2.590   0.599  1.00  0.00     0.165 HD
HETATM   35  C14 UNL     1      -4.916   5.754   1.378  1.00  0.00    -0.046 A 
HETATM   36  C15 UNL     1      -5.867   6.601   2.109  1.00  0.00     0.049 C 
HETATM   37  C16 UNL     1      -3.798   6.289   0.759  1.00  0.00     0.017 A 
HETATM   38  C17 UNL     1      -2.955   5.427   0.090  1.00  0.00    -0.037 A 
HETATM   39  C18 UNL     1      -1.739   5.947  -0.601  1.00  0.00     0.050 C 
ENDBRANCH  30  31
ENDBRANCH  28  30
ENDBRANCH   6  28
BRANCH   1  40
HETATM   40  C5  UNL     1      -2.437  -4.128  -0.134  1.00  0.00     0.274 C 
HETATM   41  N1  UNL     1      -3.329  -5.216  -0.073  1.00  0.00    -0.347 N 
HETATM   42  O1  UNL     1      -1.199  -4.436  -0.031  1.00  0.00    -0.266 OA
BRANCH  41  43
HETATM   43  C2  UNL     1      -4.773  -5.104  -0.156  1.00  0.00     0.121 C 
HETATM   44  C1  UNL     1      -5.189  -5.178  -1.600  1.00  0.00     0.026 C 
ENDBRANCH  41  43
BRANCH  41  45
HETATM   45  C3  UNL     1      -2.753  -6.553   0.092  1.00  0.00     0.121 C 
HETATM   46  C4  UNL     1      -2.603  -6.892   1.554  1.00  0.00     0.026 C 
ENDBRANCH  41  45
ENDBRANCH   1  40
BRANCH   4  47
HETATM   47  C7  UNL     1      -5.177  -0.094  -0.680  1.00  0.00     0.145 C 
HETATM   48  C8  UNL     1      -5.762   0.197   0.671  1.00  0.00     0.028 C 
ENDBRANCH   4  47
TORSDOF 13
