REMARK  13 active torsions:
REMARK  status: ('A' for Active; 'I' for Inactive)
REMARK    1  A    between atoms: C2_2  and  C3_3 
REMARK    2  A    between atoms: C3_3  and  N1_4 
REMARK    3  A    between atoms: N1_4  and  C4_6 
REMARK    4  A    between atoms: C5_9  and  N3_10 
REMARK    5  A    between atoms: C8_13  and  N4_14 
REMARK    6  A    between atoms: C18_26  and  N6_27 
REMARK    7  A    between atoms: N6_27  and  S1_29 
REMARK    8  A    between atoms: S1_29  and  N7_32 
REMARK    9  A    between atoms: N7_32  and  C19_34 
REMARK   10  A    between atoms: C19_34  and  C20_35 
REMARK   11  A    between atoms: C22_37  and  O3_38 
REMARK   12  A    between atoms: O3_38  and  C23_39 
REMARK   13  A    between atoms: C25_41  and  O4_42 
ROOT
HETATM    1  C4  UNL     1       0.172  -1.899  -0.169  1.00  0.00     0.132 A 
HETATM    2  N2  UNL     1      -1.085  -1.416  -0.155  1.00  0.00    -0.176 N 
ATOM      3  H2  UNL     1      -1.851  -2.049  -0.386  1.00  0.00     0.186 HD
HETATM    4  C5  UNL     1      -1.379  -0.143   0.148  1.00  0.00     0.682 A 
HETATM    5  N5  UNL     1      -0.328   0.667   0.450  1.00  0.00    -0.191 N 
ATOM      6  H5  UNL     1      -0.507   1.643   0.685  1.00  0.00     0.184 HD
HETATM    7  C16 UNL     1       0.939   0.218   0.447  1.00  0.00     0.068 A 
HETATM    8  C17 UNL     1       2.001   1.053   0.774  1.00  0.00     0.064 A 
HETATM    9  C18 UNL     1       3.306   0.618   0.793  1.00  0.00     0.082 A 
HETATM   10  C22 UNL     1       3.580  -0.713   0.471  1.00  0.00     0.130 A 
HETATM   11  C25 UNL     1       2.543  -1.567   0.141  1.00  0.00     0.120 A 
HETATM   12  C27 UNL     1       1.253  -1.099   0.134  1.00  0.00     0.072 A 
ENDROOT
BRANCH   4  13
HETATM   13  N3  UNL     1      -2.710   0.349   0.167  1.00  0.00    -0.217 N 
HETATM   14  C6  UNL     1      -3.283   0.875  -1.044  1.00  0.00     0.143 C 
HETATM   15  C7  UNL     1      -4.764   0.629  -1.049  1.00  0.00     0.045 C 
HETATM   16  C8  UNL     1      -5.487   1.264   0.127  1.00  0.00     0.082 C 
HETATM   17  C14 UNL     1      -4.531   1.468   1.236  1.00  0.00     0.045 C 
HETATM   18  C15 UNL     1      -3.515   0.344   1.367  1.00  0.00     0.143 C 
BRANCH  16  19
HETATM   19  N4  UNL     1      -6.658   0.564   0.388  1.00  0.00    -0.408 N 
HETATM   20  C9  UNL     1      -7.664   0.538  -0.613  1.00  0.00     0.117 C 
HETATM   21  C10 UNL     1      -9.056   0.794  -0.043  1.00  0.00     0.019 C 
HETATM   22  C11 UNL     1      -8.815   1.525   1.279  1.00  0.00     0.003 C 
HETATM   23  C12 UNL     1      -8.203   0.527   2.224  1.00  0.00     0.019 C 
HETATM   24  C13 UNL     1      -6.925  -0.052   1.603  1.00  0.00     0.117 C 
ENDBRANCH  16  19
ENDBRANCH   4  13
BRANCH   1  25
HETATM   25  N1  UNL     1       0.406  -3.140  -0.448  1.00  0.00    -0.372 N 
ATOM     26  H1  UNL     1       1.370  -3.474  -0.449  1.00  0.00     0.161 HD
BRANCH  25  27
HETATM   27  C3  UNL     1      -0.666  -4.074  -0.761  1.00  0.00     0.147 C 
BRANCH  27  28
HETATM   28  C2  UNL     1      -0.137  -5.288  -1.424  1.00  0.00    -0.018 C 
HETATM   29  C1  UNL     1      -0.507  -5.663  -2.638  1.00  0.00     0.008 C 
ENDBRANCH  27  28
ENDBRANCH  25  27
ENDBRANCH   1  25
BRANCH  11  30
HETATM   30  O4  UNL     1       2.880  -2.897  -0.176  1.00  0.00    -0.352 OA
HETATM   31  C26 UNL     1       3.246  -3.100  -1.557  1.00  0.00     0.210 C 
ENDBRANCH  11  30
BRANCH   9  32
HETATM   32  N6  UNL     1       4.400   1.445   1.140  1.00  0.00    -0.265 N 
ATOM     33  H6  UNL     1       5.080   1.112   1.824  1.00  0.00     0.180 HD
BRANCH  32  34
HETATM   34  S1  UNL     1       4.608   2.984   0.442  1.00  0.00     0.319 S 
HETATM   35  O1  UNL     1       3.300   3.527  -0.016  1.00  0.00    -0.183 OA
HETATM   36  O2  UNL     1       5.230   3.947   1.434  1.00  0.00    -0.183 OA
BRANCH  34  37
HETATM   37  N7  UNL     1       5.693   2.937  -0.913  1.00  0.00    -0.303 N 
ATOM     38  H7  UNL     1       5.407   2.783  -1.880  1.00  0.00     0.173 HD
BRANCH  37  39
HETATM   39  C19 UNL     1       7.062   3.147  -0.480  1.00  0.00     0.133 C 
BRANCH  39  40
HETATM   40  C20 UNL     1       8.038   3.114  -1.615  1.00  0.00     0.016 C 
HETATM   41  C21 UNL     1       9.447   3.343  -1.055  1.00  0.00     0.006 C 
ENDBRANCH  39  40
ENDBRANCH  37  39
ENDBRANCH  34  37
ENDBRANCH  32  34
ENDBRANCH   9  32
BRANCH  10  42
HETATM   42  O3  UNL     1       4.868  -1.212   0.473  1.00  0.00    -0.346 OA
BRANCH  42  43
HETATM   43  C23 UNL     1       5.504  -1.813   1.575  1.00  0.00     0.171 C 
HETATM   44  C24 UNL     1       6.917  -2.241   1.234  1.00  0.00     0.034 C 
ENDBRANCH  42  43
ENDBRANCH  10  42
TORSDOF 13
