REMARK  13 active torsions:
REMARK  status: ('A' for Active; 'I' for Inactive)
REMARK    1  A    between atoms: C2_2  and  O1_3 
REMARK    2  A    between atoms: O1_3  and  C3_4 
REMARK    3  A    between atoms: C5_8  and  C6_9 
REMARK    4  A    between atoms: C7_10  and  C8_11 
REMARK    5  A    between atoms: C11_14  and  N2_15 
REMARK    6  A    between atoms: C13_20  and  N5_21 
REMARK    7  A    between atoms: N5_21  and  C14_23 
REMARK    8  A    between atoms: C14_23  and  C15_25 
REMARK    9  A    between atoms: C15_25  and  N6_26 
REMARK   10  A    between atoms: N7_29  and  C18_30 
REMARK   11  A    between atoms: C18_30  and  C19_31 
REMARK   12  A    between atoms: C19_31  and  C20_32 
REMARK   13  A    between atoms: C20_32  and  N8_33 
ROOT
HETATM    1  C8  UNL     1       4.102  -0.214  -0.553  1.00  0.00    -0.034 A 
HETATM    2  C9  UNL     1       3.987  -0.366  -1.911  1.00  0.00     0.014 A 
HETATM    3  C10 UNL     1       2.813  -0.863  -2.422  1.00  0.00     0.033 A 
HETATM    4  C11 UNL     1       1.796  -1.191  -1.579  1.00  0.00     0.061 A 
HETATM    5  C13 UNL     1       1.851  -1.059  -0.182  1.00  0.00     0.061 A 
HETATM    6  C28 UNL     1       3.036  -0.560   0.297  1.00  0.00     0.043 A 
ENDROOT
BRANCH   5   7
HETATM    7  N5  UNL     1       0.748  -1.484   0.574  1.00  0.00    -0.344 N 
ATOM      8  H5  UNL     1       0.071  -2.042   0.054  1.00  0.00     0.167 HD
BRANCH   7   9
HETATM    9  C14 UNL     1       0.416  -1.276   1.915  1.00  0.00     0.117 C 
HETATM   10  S1  UNL     1       1.265  -0.389   2.943  1.00  0.00    -0.059 SA
BRANCH   9  11
HETATM   11  C15 UNL     1      -0.844  -1.912   2.430  1.00  0.00     0.137 C 
BRANCH  11  12
HETATM   12  N6  UNL     1      -1.981  -1.751   1.626  1.00  0.00    -0.341 N 
HETATM   13  C16 UNL     1      -2.500  -0.466   1.525  1.00  0.00     0.112 C 
HETATM   14  C17 UNL     1      -3.425  -0.200   0.368  1.00  0.00     0.108 C 
HETATM   15  N7  UNL     1      -4.055  -1.281  -0.202  1.00  0.00    -0.364 N 
HETATM   16  C26 UNL     1      -3.320  -2.513  -0.281  1.00  0.00     0.172 C 
HETATM   17  C27 UNL     1      -2.522  -2.831   0.937  1.00  0.00     0.089 C 
BRANCH  15  18
HETATM   18  C18 UNL     1      -5.369  -1.326  -0.647  1.00  0.00     0.065 C 
BRANCH  18  19
HETATM   19  C19 UNL     1      -6.507  -1.299   0.287  1.00  0.00     0.075 C 
BRANCH  19  20
HETATM   20  C20 UNL     1      -6.728  -0.110   1.133  1.00  0.00     0.277 C 
BRANCH  20  21
HETATM   21  N8  UNL     1      -6.987   1.115   0.357  1.00  0.00     0.088 N 
HETATM   22  C21 UNL     1      -7.178   2.165   1.317  1.00  0.00     0.272 C 
HETATM   23  C22 UNL     1      -7.678   3.453   0.744  1.00  0.00     0.030 C 
HETATM   24  C23 UNL     1      -8.991   3.166   0.043  1.00  0.00     0.003 C 
HETATM   25  C24 UNL     1      -8.793   2.112  -1.007  1.00  0.00     0.030 C 
HETATM   26  C25 UNL     1      -8.148   0.863  -0.465  1.00  0.00     0.272 C 
ENDBRANCH  20  21
ENDBRANCH  19  20
ENDBRANCH  18  19
ENDBRANCH  15  18
ENDBRANCH  11  12
ENDBRANCH   9  11
ENDBRANCH   7   9
ENDBRANCH   5   7
BRANCH   4  27
HETATM   27  N2  UNL     1       0.607  -1.695  -2.187  1.00  0.00    -0.331 N 
HETATM   28  C12 UNL     1       0.702  -2.798  -2.855  1.00  0.00     0.201 C 
HETATM   29  N3  UNL     1      -0.500  -3.288  -3.457  1.00  0.00    -0.066 NA
HETATM   30  N4  UNL     1       1.900  -3.512  -3.011  1.00  0.00    -0.066 NA
ATOM     31  H2  UNL     1      -0.283  -1.204  -2.098  1.00  0.00     0.168 HD
ENDBRANCH   4  27
BRANCH   1  32
HETATM   32  C7  UNL     1       5.317   0.275   0.084  1.00  0.00     0.012 C 
HETATM   33  C6  UNL     1       6.403   0.584  -0.599  1.00  0.00     0.015 C 
BRANCH  33  34
HETATM   34  C5  UNL     1       7.632   1.074   0.019  1.00  0.00    -0.005 A 
HETATM   35  C4  UNL     1       7.802   1.276   1.361  1.00  0.00     0.104 A 
HETATM   36  N1  UNL     1       8.993   1.724   1.857  1.00  0.00    -0.331 N 
HETATM   37  C3  UNL     1      10.034   1.982   1.055  1.00  0.00     0.223 A 
ATOM     38  H1  UNL     1       9.092   1.865   2.862  1.00  0.00     0.168 HD
HETATM   39  N9  UNL     1       9.857   1.781  -0.261  1.00  0.00    -0.331 N 
HETATM   40  C29 UNL     1       8.706   1.342  -0.794  1.00  0.00     0.104 A 
ATOM     41  H9  UNL     1      10.638   1.972  -0.888  1.00  0.00     0.168 HD
BRANCH  37  42
HETATM   42  O1  UNL     1      11.252   2.439   1.572  1.00  0.00    -0.322 OA
BRANCH  42  43
HETATM   43  C2  UNL     1      12.292   2.683   0.642  1.00  0.00     0.174 C 
HETATM   44  C1  UNL     1      13.550   3.164   1.328  1.00  0.00     0.034 C 
ENDBRANCH  42  43
ENDBRANCH  37  42
ENDBRANCH  33  34
ENDBRANCH   1  32
TORSDOF 13
