REMARK  12 active torsions:
REMARK  status: ('A' for Active; 'I' for Inactive)
REMARK    1  A    between atoms: O1_2  and  C2_3 
REMARK    2  A    between atoms: C2_3  and  C3_4 
REMARK    3  A    between atoms: C3_4  and  N1_5 
REMARK    4  A    between atoms: N1_5  and  C4_6 
REMARK    5  A    between atoms: N1_5  and  C26_43 
REMARK    6  A    between atoms: C4_6  and  C5_7 
REMARK    7  A    between atoms: N3_10  and  C6_11 
REMARK    8  A    between atoms: C6_11  and  C7_12 
REMARK       I    between atoms: C7_12  and  N4_14 
REMARK    9  A    between atoms: C10_17  and  C11_18 
REMARK   10  A    between atoms: C11_18  and  C12_19 
REMARK   11  A    between atoms: C12_19  and  N5_20 
REMARK   12  A    between atoms: C21_31  and  N7_32 
ROOT
HETATM    1  C5  UNL     1      -2.341  -0.321  -0.438  1.00  0.00     0.054 A 
HETATM    2  N2  UNL     1      -1.435  -1.259  -0.078  1.00  0.00    -0.300 N 
ATOM      3  H2  UNL     1      -1.675  -2.132   0.393  1.00  0.00     0.187 HD
HETATM    4  N3  UNL     1      -0.212  -0.915  -0.405  1.00  0.00    -0.293 N 
HETATM    5  C18 UNL     1      -0.302   0.273  -0.990  1.00  0.00     0.128 A 
HETATM    6  C19 UNL     1      -1.641   0.713  -1.044  1.00  0.00     0.050 A 
HETATM    7  C20 UNL     1      -2.060   1.971  -1.617  1.00  0.00     0.122 A 
HETATM    8  N6  UNL     1      -1.088   2.762  -2.130  1.00  0.00    -0.327 N 
ATOM      9  H6  UNL     1      -0.121   2.441  -2.093  1.00  0.00     0.169 HD
HETATM   10  C21 UNL     1      -1.354   3.954  -2.686  1.00  0.00     0.114 A 
HETATM   11  C22 UNL     1      -2.652   4.407  -2.748  1.00  0.00     0.053 A 
HETATM   12  C23 UNL     1      -3.231   5.573  -3.257  1.00  0.00     0.036 A 
HETATM   13  C24 UNL     1      -4.584   5.434  -3.022  1.00  0.00     0.091 A 
HETATM   14  N8  UNL     1      -4.807   4.267  -2.415  1.00  0.00    -0.351 N 
ATOM     15  H8  UNL     1      -5.721   3.916  -2.129  1.00  0.00     0.166 HD
HETATM   16  C25 UNL     1      -3.646   3.630  -2.240  1.00  0.00     0.120 A 
HETATM   17  N9  UNL     1      -3.291   2.417  -1.684  1.00  0.00    -0.327 N 
ATOM     18  H9  UNL     1      -4.033   1.831  -1.301  1.00  0.00     0.169 HD
ENDROOT
BRANCH   4  19
HETATM   19  C6  UNL     1       1.002  -1.717  -0.177  1.00  0.00     0.251 C 
BRANCH  19  20
HETATM   20  C7  UNL     1       1.583  -1.342   1.126  1.00  0.00     0.239 C 
HETATM   21  O2  UNL     1       1.076  -1.738   2.210  1.00  0.00    -0.271 OA
HETATM   22  N4  UNL     1       2.761  -0.504   1.166  1.00  0.00    -0.350 N 
HETATM   23  C8  UNL     1       3.420  -0.065   2.378  1.00  0.00     0.126 C 
HETATM   24  C17 UNL     1       3.445   0.002  -0.006  1.00  0.00     0.130 C 
HETATM   25  C9  UNL     1       4.448   0.895   1.899  1.00  0.00     0.026 C 
HETATM   26  C10 UNL     1       4.800   0.493   0.521  1.00  0.00     0.007 C 
BRANCH  26  27
HETATM   27  C11 UNL     1       5.753  -0.634   0.383  1.00  0.00     0.036 C 
BRANCH  27  28
HETATM   28  C12 UNL     1       7.102  -0.442   0.987  1.00  0.00     0.273 C 
BRANCH  28  29
HETATM   29  N5  UNL     1       7.842   0.671   0.460  1.00  0.00     0.088 N 
HETATM   30  C13 UNL     1       8.268   0.541  -0.894  1.00  0.00     0.272 C 
HETATM   31  C14 UNL     1       9.734   0.912  -0.958  1.00  0.00     0.032 C 
HETATM   32  C15 UNL     1      10.057   1.480   0.391  1.00  0.00     0.032 C 
HETATM   33  C16 UNL     1       9.043   0.799   1.285  1.00  0.00     0.272 C 
ENDBRANCH  28  29
ENDBRANCH  27  28
ENDBRANCH  26  27
ENDBRANCH  19  20
ENDBRANCH   4  19
BRANCH   1  34
HETATM   34  C4  UNL     1      -3.777  -0.372  -0.230  1.00  0.00     0.155 C 
BRANCH  34  35
HETATM   35  N1  UNL     1      -4.193  -1.653   0.447  1.00  0.00    -0.281 NA
BRANCH  35  36
HETATM   36  C3  UNL     1      -4.005  -2.725  -0.430  1.00  0.00     0.084 C 
BRANCH  36  37
HETATM   37  C2  UNL     1      -3.968  -4.087   0.146  1.00  0.00     0.145 C 
BRANCH  37  38
HETATM   38  O1  UNL     1      -5.018  -4.634   0.778  1.00  0.00    -0.367 OA
HETATM   39  C1  UNL     1      -6.104  -4.946  -0.036  1.00  0.00     0.208 C 
ENDBRANCH  37  38
ENDBRANCH  36  37
ENDBRANCH  35  36
BRANCH  35  40
HETATM   40  C26 UNL     1      -5.353  -1.377   1.150  1.00  0.00     0.063 C 
HETATM   41  C27 UNL     1      -6.626  -1.103   0.387  1.00  0.00     0.020 C 
HETATM   42  C28 UNL     1      -7.508  -0.539   1.484  1.00  0.00     0.002 C 
HETATM   43  C29 UNL     1      -6.868  -0.906   2.816  1.00  0.00     0.002 C 
HETATM   44  C30 UNL     1      -5.801  -1.992   2.400  1.00  0.00     0.020 C 
ENDBRANCH  35  40
ENDBRANCH  34  35
ENDBRANCH   1  34
BRANCH  10  45
HETATM   45  N7  UNL     1      -0.431   4.714  -3.168  1.00  0.00    -0.385 N 
ATOM     46  H72 UNL     1       0.531   4.378  -3.122  1.00  0.00     0.157 HD
ATOM     47  H71 UNL     1      -0.633   5.620  -3.591  1.00  0.00     0.157 HD
ENDBRANCH  10  45
TORSDOF 12
