REMARK  12 active torsions:
REMARK  status: ('A' for Active; 'I' for Inactive)
REMARK    1  A    between atoms: O1_2  and  C2_3 
REMARK    2  A    between atoms: C2_3  and  C3_4 
REMARK    3  A    between atoms: N1_6  and  C5_7 
REMARK    4  A    between atoms: C5_7  and  C6_8 
REMARK    5  A    between atoms: C7_9  and  C8_10 
REMARK    6  A    between atoms: C9_18  and  C10_19 
REMARK    7  A    between atoms: C10_19  and  C11_20 
REMARK    8  A    between atoms: C11_20  and  C12_21 
REMARK    9  A    between atoms: C12_21  and  C13_22 
REMARK   10  A    between atoms: C13_22  and  C14_23 
REMARK       I    between atoms: N7_29  and  C16_31 
REMARK   11  A    between atoms: C16_31  and  C17_33 
REMARK   12  A    between atoms: C17_33  and  C18_34 
ROOT
HETATM    1  C10 UNL     1      -2.101   1.073  -0.417  1.00  0.00     0.048 C 
ENDROOT
BRANCH   1   2
HETATM    2  C9  UNL     1      -3.360   1.305  -1.170  1.00  0.00     0.010 A 
HETATM    3  C6  UNL     1      -4.496   0.571  -1.406  1.00  0.00     0.005 A 
HETATM    4  C7  UNL     1      -5.416   1.127  -2.222  1.00  0.00     0.088 A 
HETATM    5  N4  UNL     1      -5.127   2.361  -2.712  1.00  0.00    -0.323 N 
HETATM    6  S1  UNL     1      -3.650   2.746  -2.094  1.00  0.00    -0.018 SA
ATOM      7  H4  UNL     1      -5.704   2.929  -3.332  1.00  0.00     0.174 HD
BRANCH   3   8
HETATM    8  C5  UNL     1      -4.712  -0.724  -0.641  1.00  0.00     0.170 C 
BRANCH   8   9
HETATM    9  N1  UNL     1      -5.263  -0.596   0.669  1.00  0.00    -0.359 N 
HETATM   10  C4  UNL     1      -6.539  -0.436   1.013  1.00  0.00     0.118 A 
HETATM   11  C3  UNL     1      -7.033  -0.411   2.312  1.00  0.00     0.048 A 
HETATM   12  N8  UNL     1      -6.149  -0.561   3.310  1.00  0.00    -0.365 N 
HETATM   13  C27 UNL     1      -4.828  -0.729   3.006  1.00  0.00     0.105 A 
ATOM     14  H8  UNL     1      -6.459  -0.550   4.282  1.00  0.00     0.165 HD
HETATM   15  C26 UNL     1      -4.400  -0.747   1.713  1.00  0.00     0.107 A 
BRANCH  11  16
HETATM   16  C2  UNL     1      -8.483  -0.225   2.565  1.00  0.00     0.225 C 
BRANCH  16  17
HETATM   17  O1  UNL     1      -8.854   1.095   2.691  1.00  0.00    -0.390 OA
HETATM   18  C1  UNL     1     -10.248   1.090   2.927  1.00  0.00     0.201 C 
ENDBRANCH  16  17
ENDBRANCH  11  16
ENDBRANCH   8   9
ENDBRANCH   3   8
BRANCH   4  19
HETATM   19  C8  UNL     1      -6.660   0.521  -2.774  1.00  0.00     0.138 C 
HETATM   20  N2  UNL     1      -7.149  -0.601  -2.530  1.00  0.00    -0.386 N 
ATOM     21  H22 UNL     1      -6.601  -1.147  -1.865  1.00  0.00     0.157 HD
ATOM     22  H21 UNL     1      -8.001  -1.016  -2.908  1.00  0.00     0.157 HD
HETATM   23  N3  UNL     1      -7.449   1.307  -3.731  1.00  0.00    -0.081 NA
ENDBRANCH   4  19
ENDBRANCH   1   2
BRANCH   1  24
HETATM   24  C11 UNL     1      -1.148   0.132  -1.134  1.00  0.00     0.006 C 
BRANCH  24  25
HETATM   25  C12 UNL     1      -0.747   0.650  -2.478  1.00  0.00     0.007 C 
BRANCH  25  26
HETATM   26  C13 UNL     1       0.189  -0.316  -3.135  1.00  0.00     0.066 C 
BRANCH  26  27
HETATM   27  C14 UNL     1       1.443  -0.522  -2.321  1.00  0.00     0.069 A 
HETATM   28  N5  UNL     1       2.566   0.166  -2.404  1.00  0.00    -0.296 N 
HETATM   29  N6  UNL     1       3.553  -0.112  -1.656  1.00  0.00    -0.279 N 
ATOM     30  H5  UNL     1       2.642   0.929  -3.076  1.00  0.00     0.187 HD
HETATM   31  C15 UNL     1       3.454  -1.111  -0.779  1.00  0.00     0.167 A 
ATOM     32  H6  UNL     1       4.417   0.426  -1.726  1.00  0.00     0.189 HD
HETATM   33  N7  UNL     1       4.271  -1.604   0.081  1.00  0.00    -0.306 N 
HETATM   34  S2  UNL     1       1.822  -1.642  -1.095  1.00  0.00    -0.038 SA
HETATM   35  C16 UNL     1       5.551  -1.304   0.436  1.00  0.00     0.227 C 
ATOM     36  H7  UNL     1       3.879  -2.384   0.609  1.00  0.00     0.171 HD
HETATM   37  O2  UNL     1       6.080  -2.016   1.367  1.00  0.00    -0.273 OA
BRANCH  35  38
HETATM   38  C17 UNL     1       6.426  -0.254  -0.114  1.00  0.00     0.141 C 
BRANCH  38  39
HETATM   39  C18 UNL     1       7.766  -0.230   0.528  1.00  0.00    -0.048 A 
HETATM   40  C19 UNL     1       8.028   0.529   1.651  1.00  0.00     0.014 A 
HETATM   41  C20 UNL     1       9.289   0.552   2.253  1.00  0.00    -0.061 A 
HETATM   42  C21 UNL     1       9.521   1.387   3.461  1.00  0.00     0.048 C 
HETATM   43  C22 UNL     1      10.311  -0.205   1.719  1.00  0.00     0.013 A 
HETATM   44  C23 UNL     1      10.077  -0.974   0.596  1.00  0.00    -0.061 A 
HETATM   45  C24 UNL     1      11.153  -1.799  -0.006  1.00  0.00     0.048 C 
HETATM   46  C25 UNL     1       8.830  -0.973   0.031  1.00  0.00     0.014 A 
ENDBRANCH  38  39
ENDBRANCH  35  38
ENDBRANCH  26  27
ENDBRANCH  25  26
ENDBRANCH  24  25
ENDBRANCH   1  24
TORSDOF 12
