REMARK  14 active torsions:
REMARK  status: ('A' for Active; 'I' for Inactive)
REMARK    1  A    between atoms: N1_1  and  C1_5 
REMARK    2  A    between atoms: C1_5  and  C2_6 
REMARK    3  A    between atoms: C1_5  and  C24_33 
REMARK    4  A    between atoms: C2_6  and  C11_20 
REMARK    5  A    between atoms: N2_7  and  N3_9 
REMARK       I    between atoms: N3_9  and  C3_10 
REMARK    6  A    between atoms: C3_10  and  C4_12 
REMARK    7  A    between atoms: C4_12  and  O2_13 
REMARK    8  A    between atoms: O2_13  and  C5_14 
REMARK    9  A    between atoms: C11_20  and  C12_21 
REMARK   10  A    between atoms: C11_20  and  C18_27 
REMARK   11  A    between atoms: C27_36  and  O3_37 
REMARK   12  A    between atoms: O3_37  and  C28_38 
REMARK   13  A    between atoms: C28_38  and  C29_39 
REMARK   14  A    between atoms: C29_39  and  N4_40 
ROOT
HETATM    1  C2  UNL     1      -1.129  -0.902   0.333  1.00  0.00     0.064 C 
HETATM    2  N2  UNL     1      -2.286  -0.450   0.032  1.00  0.00    -0.237 N 
ATOM      3  H2  UNL     1      -2.755  -1.085  -0.614  1.00  0.00     0.201 HD
ENDROOT
BRANCH   1   4
HETATM    4  C1  UNL     1      -0.286  -0.134   1.265  1.00  0.00     0.265 C 
BRANCH   4   5
HETATM    5  N1  UNL     1      -1.045   0.886   1.997  1.00  0.00    -0.066 N 
ATOM      6  H13 UNL     1      -1.542   1.505   1.356  1.00  0.00     0.275 HD
ATOM      7  H12 UNL     1      -1.844   0.474   2.479  1.00  0.00     0.275 HD
ATOM      8  H11 UNL     1      -0.461   1.418   2.642  1.00  0.00     0.275 HD
ENDBRANCH   4   5
BRANCH   4   9
HETATM    9  C24 UNL     1       0.930   0.428   0.629  1.00  0.00    -0.022 A 
HETATM   10  C25 UNL     1       2.139  -0.215   0.596  1.00  0.00     0.012 A 
HETATM   11  C26 UNL     1       3.262   0.291   0.020  1.00  0.00     0.037 A 
HETATM   12  C27 UNL     1       3.192   1.559  -0.587  1.00  0.00     0.068 A 
HETATM   13  C33 UNL     1       1.926   2.204  -0.538  1.00  0.00     0.037 A 
HETATM   14  C34 UNL     1       0.826   1.671   0.045  1.00  0.00     0.012 A 
BRANCH  12  15
HETATM   15  O3  UNL     1       4.218   2.093  -1.150  1.00  0.00    -0.350 OA
BRANCH  15  16
HETATM   16  C28 UNL     1       5.363   2.425  -1.648  1.00  0.00     0.196 C 
BRANCH  16  17
HETATM   17  C29 UNL     1       6.573   2.523  -0.712  1.00  0.00     0.164 C 
BRANCH  17  18
HETATM   18  N4  UNL     1       6.855   1.231  -0.077  1.00  0.00    -0.224 N 
HETATM   19  C30 UNL     1       8.098   0.882   0.122  1.00  0.00     0.679 A 
HETATM   20  N5  UNL     1       9.136   1.645  -0.225  1.00  0.00    -0.188 N 
HETATM   21  N7  UNL     1       8.310  -0.312   0.695  1.00  0.00    -0.188 N 
HETATM   22  C31 UNL     1      10.403   1.258  -0.020  1.00  0.00     0.199 A 
ATOM     23  H5  UNL     1       8.960   2.551  -0.660  1.00  0.00     0.185 HD
HETATM   24  N6  UNL     1      10.642   0.063   0.553  1.00  0.00    -0.348 N 
HETATM   25  C32 UNL     1       9.598  -0.701   0.901  1.00  0.00     0.199 A 
ATOM     26  H6  UNL     1      11.597  -0.254   0.718  1.00  0.00     0.167 HD
ATOM     27  H7  UNL     1       7.530  -0.910   0.968  1.00  0.00     0.185 HD
ATOM     28  H4  UNL     1       6.093   0.615   0.205  1.00  0.00     0.177 HD
ENDBRANCH  17  18
ENDBRANCH  16  17
ENDBRANCH  15  16
ENDBRANCH  12  15
ENDBRANCH   4   9
ENDBRANCH   1   4
BRANCH   1  29
HETATM   29  C11 UNL     1      -0.638  -2.150  -0.258  1.00  0.00     0.102 C 
BRANCH  29  30
HETATM   30  C12 UNL     1      -1.449  -2.721  -1.333  1.00  0.00    -0.044 A 
HETATM   31  C13 UNL     1      -1.690  -4.069  -1.353  1.00  0.00     0.008 A 
HETATM   32  C14 UNL     1      -2.427  -4.713  -2.349  1.00  0.00     0.001 A 
HETATM   33  C15 UNL     1      -2.928  -3.921  -3.357  1.00  0.00     0.000 A 
HETATM   34  C16 UNL     1      -2.692  -2.567  -3.346  1.00  0.00     0.001 A 
HETATM   35  C17 UNL     1      -1.962  -1.950  -2.353  1.00  0.00     0.008 A 
ENDBRANCH  29  30
BRANCH  29  36
HETATM   36  C18 UNL     1      -0.690  -3.153   0.882  1.00  0.00    -0.044 A 
HETATM   37  C19 UNL     1       0.387  -3.912   1.230  1.00  0.00     0.008 A 
HETATM   38  C20 UNL     1       0.277  -4.822   2.265  1.00  0.00     0.001 A 
HETATM   39  C21 UNL     1      -0.925  -4.962   2.946  1.00  0.00     0.000 A 
HETATM   40  C22 UNL     1      -2.001  -4.183   2.578  1.00  0.00     0.001 A 
HETATM   41  C23 UNL     1      -1.906  -3.273   1.549  1.00  0.00     0.008 A 
ENDBRANCH  29  36
ENDBRANCH   1  29
BRANCH   2  42
HETATM   42  N3  UNL     1      -2.997   0.497   0.276  1.00  0.00    -0.285 NA
HETATM   43  C3  UNL     1      -3.834   1.614   0.564  1.00  0.00     0.336 C 
HETATM   44  O1  UNL     1      -3.718   2.780   0.133  1.00  0.00    -0.253 OA
BRANCH  43  45
HETATM   45  C4  UNL     1      -5.015   1.420   1.495  1.00  0.00     0.296 C 
BRANCH  45  46
HETATM   46  O2  UNL     1      -5.820   2.549   1.576  1.00  0.00    -0.341 OA
BRANCH  46  47
HETATM   47  C5  UNL     1      -6.549   3.127   0.546  1.00  0.00     0.069 A 
HETATM   48  C6  UNL     1      -6.628   2.674  -0.729  1.00  0.00     0.037 A 
HETATM   49  C7  UNL     1      -7.375   3.323  -1.673  1.00  0.00     0.003 A 
HETATM   50  C8  UNL     1      -8.084   4.465  -1.381  1.00  0.00     0.000 A 
HETATM   51  C9  UNL     1      -8.005   4.927  -0.084  1.00  0.00     0.003 A 
HETATM   52  C10 UNL     1      -7.259   4.288   0.877  1.00  0.00     0.037 A 
ENDBRANCH  46  47
ENDBRANCH  45  46
ENDBRANCH  43  45
ENDBRANCH   2  42
TORSDOF 14
