REMARK  15 active torsions:
REMARK  status: ('A' for Active; 'I' for Inactive)
REMARK    1  A    between atoms: C2_2  and  C3_3 
REMARK    2  A    between atoms: C2_2  and  C6_8 
REMARK    3  A    between atoms: C3_3  and  O1_4 
REMARK    4  A    between atoms: O1_4  and  C4_5 
REMARK    5  A    between atoms: C16_19  and  C17_20 
REMARK    6  A    between atoms: C17_20  and  C18_21 
REMARK    7  A    between atoms: C18_21  and  C19_22 
REMARK    8  A    between atoms: C19_22  and  C20_23 
REMARK    9  A    between atoms: C20_23  and  C21_24 
REMARK   10  A    between atoms: C21_24  and  C22_25 
REMARK   11  A    between atoms: C22_25  and  N1_26 
REMARK   12  A    between atoms: N1_26  and  C23_28 
REMARK   13  A    between atoms: C23_28  and  N2_30 
REMARK   14  A    between atoms: N2_30  and  C24_32 
REMARK   15  A    between atoms: C26_34  and  C27_35 
ROOT
HETATM    1  C17 UNL     1      -0.212   1.535   0.687  1.00  0.00     0.033 C 
ENDROOT
BRANCH   1   2
HETATM    2  C16 UNL     1      -1.201   2.147  -0.199  1.00  0.00     0.130 C 
HETATM    3  O3  UNL     1      -1.691   3.380  -0.139  1.00  0.00    -0.385 OA
HETATM    4  C15 UNL     1      -2.588   3.508  -1.205  1.00  0.00     0.173 C 
HETATM    5  C14 UNL     1      -3.034   2.099  -1.558  1.00  0.00     0.022 C 
HETATM    6  C13 UNL     1      -4.497   1.898  -1.112  1.00  0.00     0.022 C 
HETATM    7  C29 UNL     1      -2.218   1.144  -0.727  1.00  0.00    -0.004 C 
HETATM    8  C11 UNL     1      -4.462   0.485  -0.728  1.00  0.00    -0.011 C 
HETATM    9  C6  UNL     1      -5.451  -0.271  -0.007  1.00  0.00    -0.063 C 
HETATM   10  C9  UNL     1      -3.205   0.586   0.178  1.00  0.00    -0.022 C 
HETATM   11  C12 UNL     1      -4.180  -0.276  -1.999  1.00  0.00     0.021 C 
HETATM   12  C7  UNL     1      -4.631  -0.930   1.111  1.00  0.00     0.036 C 
HETATM   13  C8  UNL     1      -3.177  -0.800   0.663  1.00  0.00     0.015 C 
HETATM   14  C10 UNL     1      -3.512   1.413   1.381  1.00  0.00     0.017 C 
HETATM   15  C30 UNL     1      -1.388   0.153  -1.517  1.00  0.00     0.019 C 
BRANCH   9  16
HETATM   16  C2  UNL     1      -6.759   0.160   0.370  1.00  0.00    -0.040 C 
HETATM   17  C1  UNL     1      -7.324   1.310   0.121  1.00  0.00     0.021 C 
BRANCH  16  18
HETATM   18  C3  UNL     1      -7.613  -0.854   1.135  1.00  0.00     0.216 C 
BRANCH  18  19
HETATM   19  O1  UNL     1      -7.803  -1.954   0.470  1.00  0.00    -0.317 OA
BRANCH  19  20
HETATM   20  C4  UNL     1      -7.876  -3.059  -0.170  1.00  0.00     0.255 C 
HETATM   21  C5  UNL     1      -9.066  -3.691  -0.842  1.00  0.00     0.126 C 
HETATM   22  O2  UNL     1      -6.778  -3.734  -0.259  1.00  0.00    -0.266 OA
ENDBRANCH  19  20
ENDBRANCH  18  19
ENDBRANCH  16  18
ENDBRANCH   9  16
ENDBRANCH   1   2
BRANCH   1  23
HETATM   23  C18 UNL     1       1.127   2.202   0.684  1.00  0.00     0.002 C 
BRANCH  23  24
HETATM   24  C19 UNL     1       2.171   1.262   1.362  1.00  0.00     0.000 C 
BRANCH  24  25
HETATM   25  C20 UNL     1       2.273   0.058   0.495  1.00  0.00     0.002 C 
BRANCH  25  26
HETATM   26  C21 UNL     1       3.178  -1.050   0.762  1.00  0.00     0.020 C 
BRANCH  26  27
HETATM   27  C22 UNL     1       4.645  -0.810   0.815  1.00  0.00     0.122 C 
BRANCH  27  28
HETATM   28  N1  UNL     1       5.149  -0.120  -0.348  1.00  0.00    -0.367 N 
ATOM     29  H1  UNL     1       4.480   0.347  -0.959  1.00  0.00     0.161 HD
BRANCH  28  30
HETATM   30  C23 UNL     1       6.537  -0.056  -0.690  1.00  0.00     0.173 C 
HETATM   31  S1  UNL     1       6.906   0.762  -2.035  1.00  0.00    -0.041 SA
BRANCH  30  32
HETATM   32  N2  UNL     1       7.469  -0.738   0.074  1.00  0.00    -0.318 N 
ATOM     33  H2  UNL     1       7.050  -1.286   0.825  1.00  0.00     0.170 HD
BRANCH  32  34
HETATM   34  C24 UNL     1       8.870  -0.835   0.033  1.00  0.00     0.126 A 
HETATM   35  C25 UNL     1       9.475  -2.044   0.464  1.00  0.00     0.085 A 
HETATM   36  C26 UNL     1      10.831  -1.895   0.395  1.00  0.00     0.136 A 
HETATM   37  N3  UNL     1      11.040  -0.662  -0.051  1.00  0.00    -0.293 N 
HETATM   38  N4  UNL     1       9.855  -0.025  -0.268  1.00  0.00    -0.281 N 
ATOM     39  H3  UNL     1      11.959  -0.249  -0.209  1.00  0.00     0.187 HD
HETATM   40  C28 UNL     1       9.780   1.363  -0.677  1.00  0.00     0.179 C 
BRANCH  36  41
HETATM   41  C27 UNL     1      11.872  -2.934   0.729  1.00  0.00     0.434 C 
HETATM   42  F1  UNL     1      11.888  -3.814  -0.340  1.00  0.00    -0.165 F 
HETATM   43  F2  UNL     1      13.060  -2.308   0.901  1.00  0.00    -0.165 F 
HETATM   44  F3  UNL     1      11.544  -3.617   1.885  1.00  0.00    -0.165 F 
ENDBRANCH  36  41
ENDBRANCH  32  34
ENDBRANCH  30  32
ENDBRANCH  28  30
ENDBRANCH  27  28
ENDBRANCH  26  27
ENDBRANCH  25  26
ENDBRANCH  24  25
ENDBRANCH  23  24
ENDBRANCH   1  23
TORSDOF 15
