REMARK  14 active torsions:
REMARK  status: ('A' for Active; 'I' for Inactive)
REMARK    1  A    between atoms: C2_2  and  C3_3 
REMARK    2  A    between atoms: C3_3  and  C4_4 
REMARK    3  A    between atoms: C4_4  and  O2_6 
REMARK    4  A    between atoms: O2_6  and  C5_7 
REMARK    5  A    between atoms: C6_8  and  O3_9 
REMARK    6  A    between atoms: C15_19  and  C16_20 
REMARK    7  A    between atoms: C16_20  and  C17_23 
REMARK    8  A    between atoms: C17_23  and  N1_24 
REMARK    9  A    between atoms: N1_24  and  O4_25 
REMARK   10  A    between atoms: O4_25  and  C18_26 
REMARK   11  A    between atoms: C18_26  and  C19_27 
REMARK   12  A    between atoms: C19_27  and  C20_30 
REMARK   13  A    between atoms: C20_30  and  N2_31 
REMARK   14  A    between atoms: N2_31  and  C21_34 
ROOT
HETATM    1  C5  UNL     1      -5.336  -0.144  -0.419  1.00  0.00     0.169 C 
HETATM    2  C6  UNL     1      -5.832  -1.183   0.543  1.00  0.00     0.148 C 
HETATM    3  C7  UNL     1      -5.191  -1.189   1.874  1.00  0.00     0.039 C 
HETATM    4  C8  UNL     1      -3.681  -1.086   1.718  1.00  0.00    -0.003 C 
HETATM    5  C9  UNL     1      -3.238  -2.333   0.999  1.00  0.00     0.006 C 
HETATM    6  C10 UNL     1      -1.725  -2.512   1.052  1.00  0.00     0.006 C 
HETATM    7  C11 UNL     1      -1.131  -1.155   1.273  1.00  0.00    -0.005 C 
HETATM    8  C12 UNL     1       0.316  -1.051   1.225  1.00  0.00    -0.001 C 
HETATM    9  C13 UNL     1       1.091  -2.337   1.363  1.00  0.00     0.006 C 
HETATM   10  C14 UNL     1       2.506  -1.844   1.081  1.00  0.00     0.012 C 
HETATM   11  C15 UNL     1       2.363  -0.457   0.525  1.00  0.00     0.073 C 
HETATM   12  C24 UNL     1       0.969  -0.476  -0.026  1.00  0.00    -0.030 C 
HETATM   13  C25 UNL     1       0.894  -1.402  -1.190  1.00  0.00     0.016 C 
HETATM   14  C26 UNL     1       0.328   0.848  -0.252  1.00  0.00     0.010 C 
HETATM   15  C27 UNL     1      -0.957   1.074   0.474  1.00  0.00     0.006 C 
HETATM   16  C28 UNL     1      -1.875  -0.109   0.424  1.00  0.00    -0.001 C 
HETATM   17  C29 UNL     1      -3.252   0.173   0.997  1.00  0.00    -0.027 C 
HETATM   18  C30 UNL     1      -3.029   1.190   2.130  1.00  0.00     0.016 C 
HETATM   19  C31 UNL     1      -4.244   0.742   0.064  1.00  0.00    -0.010 C 
HETATM   20  C32 UNL     1      -4.985   1.925   0.752  1.00  0.00     0.018 C 
HETATM   21  C33 UNL     1      -3.652   1.423  -1.154  1.00  0.00     0.018 C 
ENDROOT
BRANCH  11  22
HETATM   22  C16 UNL     1       3.480   0.082  -0.204  1.00  0.00     0.294 C 
HETATM   23  F1  UNL     1       3.310   1.338  -0.718  1.00  0.00    -0.198 F 
HETATM   24  F2  UNL     1       4.517   0.271   0.755  1.00  0.00    -0.198 F 
BRANCH  22  25
HETATM   25  C17 UNL     1       4.145  -0.752  -1.242  1.00  0.00     0.269 C 
BRANCH  25  26
HETATM   26  N1  UNL     1       5.299  -0.738  -1.445  1.00  0.00    -0.292 NA
BRANCH  26  27
HETATM   27  O4  UNL     1       6.547  -0.718  -1.660  1.00  0.00    -0.204 OA
BRANCH  27  28
HETATM   28  C18 UNL     1       7.427  -1.861  -1.654  1.00  0.00     0.298 C 
BRANCH  28  29
HETATM   29  C19 UNL     1       8.811  -1.464  -1.991  1.00  0.00     0.291 C 
HETATM   30  F3  UNL     1       8.876  -0.854  -3.243  1.00  0.00    -0.202 F 
HETATM   31  F4  UNL     1       9.568  -2.669  -2.154  1.00  0.00    -0.202 F 
BRANCH  29  32
HETATM   32  C20 UNL     1       9.566  -0.646  -1.008  1.00  0.00     0.313 C 
BRANCH  32  33
HETATM   33  N2  UNL     1       8.935   0.603  -0.723  1.00  0.00    -0.066 N 
ATOM     34  H22 UNL     1       8.697   1.101  -1.581  1.00  0.00     0.277 HD
ATOM     35  H21 UNL     1       7.995   0.466  -0.350  1.00  0.00     0.277 HD
BRANCH  33  36
HETATM   36  C21 UNL     1       9.739   1.431   0.163  1.00  0.00     0.178 C 
HETATM   37  C22 UNL     1       9.984   0.833   1.504  1.00  0.00     0.039 C 
HETATM   38  C23 UNL     1       9.006   2.756   0.374  1.00  0.00     0.039 C 
ENDBRANCH  33  36
ENDBRANCH  32  33
ENDBRANCH  29  32
ENDBRANCH  28  29
ENDBRANCH  27  28
ENDBRANCH  26  27
ENDBRANCH  25  26
ENDBRANCH  22  25
ENDBRANCH  11  22
BRANCH   1  39
HETATM   39  O2  UNL     1      -6.475   0.689  -0.693  1.00  0.00    -0.313 OA
BRANCH  39  40
HETATM   40  C4  UNL     1      -7.099   0.780  -1.907  1.00  0.00     0.259 C 
HETATM   41  O1  UNL     1      -6.659   0.064  -2.860  1.00  0.00    -0.265 OA
BRANCH  40  42
HETATM   42  C3  UNL     1      -8.246   1.636  -2.223  1.00  0.00     0.111 C 
BRANCH  42  43
HETATM   43  C2  UNL     1      -8.648   2.581  -1.149  1.00  0.00     0.005 C 
HETATM   44  C1  UNL     1      -9.052   1.839   0.103  1.00  0.00     0.005 C 
ENDBRANCH  42  43
ENDBRANCH  40  42
ENDBRANCH  39  40
ENDBRANCH   1  39
BRANCH   2  45
HETATM   45  O3  UNL     1      -7.213  -1.196   0.698  1.00  0.00    -0.393 OA
ATOM     46  H3  UNL     1      -7.527  -1.854   1.307  1.00  0.00     0.210 HD
ENDBRANCH   2  45
TORSDOF 14
