REMARK  12 active torsions:
REMARK  status: ('A' for Active; 'I' for Inactive)
REMARK    1  A    between atoms: O1_2  and  C2_3 
REMARK    2  A    between atoms: C4_5  and  C5_6 
REMARK    3  A    between atoms: C6_7  and  C7_8 
REMARK    4  A    between atoms: C10_11  and  C11_12 
REMARK    5  A    between atoms: C11_12  and  O2_13 
REMARK    6  A    between atoms: O2_13  and  C12_14 
REMARK    7  A    between atoms: N1_17  and  C15_18 
REMARK    8  A    between atoms: C18_22  and  O3_23 
REMARK    9  A    between atoms: C22_28  and  O4_29 
REMARK   10  A    between atoms: O4_29  and  C23_30 
REMARK   11  A    between atoms: C23_30  and  C24_31 
REMARK   12  A    between atoms: C28_37  and  O5_38 
ROOT
HETATM    1  C2  UNL     1       4.879  -1.511  -0.976  1.00  0.00     0.102 A 
HETATM    2  C3  UNL     1       3.517  -1.678  -1.029  1.00  0.00     0.051 A 
HETATM    3  C4  UNL     1       2.628  -0.717  -0.552  1.00  0.00    -0.033 A 
HETATM    4  C20 UNL     1       3.171   0.412  -0.023  1.00  0.00     0.014 A 
HETATM    5  C21 UNL     1       4.546   0.613   0.046  1.00  0.00     0.040 A 
HETATM    6  C22 UNL     1       5.413  -0.341  -0.427  1.00  0.00     0.102 A 
ENDROOT
BRANCH   3   7
HETATM    7  C5  UNL     1       1.214  -0.985  -0.655  1.00  0.00     0.012 C 
HETATM    8  C6  UNL     1       0.322  -0.131  -0.232  1.00  0.00     0.012 C 
BRANCH   8   9
HETATM    9  C7  UNL     1      -1.116  -0.318  -0.296  1.00  0.00    -0.034 A 
HETATM   10  C8  UNL     1      -1.987   0.665   0.186  1.00  0.00     0.012 A 
HETATM   11  C9  UNL     1      -3.357   0.531   0.144  1.00  0.00     0.013 A 
HETATM   12  C10 UNL     1      -3.926  -0.603  -0.388  1.00  0.00    -0.001 A 
HETATM   13  C18 UNL     1      -3.077  -1.573  -0.863  1.00  0.00     0.074 A 
HETATM   14  C19 UNL     1      -1.688  -1.441  -0.822  1.00  0.00     0.048 A 
BRANCH  12  15
HETATM   15  C11 UNL     1      -5.397  -0.757  -0.442  1.00  0.00     0.211 C 
BRANCH  15  16
HETATM   16  O2  UNL     1      -6.052   0.350   0.097  1.00  0.00    -0.364 OA
BRANCH  16  17
HETATM   17  C12 UNL     1      -7.433   0.179   0.028  1.00  0.00     0.230 C 
HETATM   18  C13 UNL     1      -7.997   1.269  -0.861  1.00  0.00     0.066 C 
HETATM   19  C14 UNL     1      -9.363   1.490  -0.248  1.00  0.00     0.114 C 
HETATM   20  N1  UNL     1      -9.336   0.935   1.066  1.00  0.00    -0.228 NA
HETATM   21  N2  UNL     1      -8.107   0.361   1.273  1.00  0.00    -0.132 NA
BRANCH  20  22
HETATM   22  C15 UNL     1     -10.448   0.065   1.355  1.00  0.00     0.068 C 
HETATM   23  C16 UNL     1     -10.472  -1.150   0.451  1.00  0.00     0.027 C 
HETATM   24  C17 UNL     1     -11.773   0.738   1.263  1.00  0.00     0.027 C 
ENDBRANCH  20  22
ENDBRANCH  16  17
ENDBRANCH  15  16
ENDBRANCH  12  15
BRANCH  13  25
HETATM   25  O3  UNL     1      -3.634  -2.713  -1.398  1.00  0.00    -0.360 OA
ATOM     26  H3  UNL     1      -3.047  -3.384  -1.726  1.00  0.00     0.217 HD
ENDBRANCH  13  25
ENDBRANCH   8   9
ENDBRANCH   3   7
BRANCH   1  27
HETATM   27  O1  UNL     1       5.708  -2.500  -1.465  1.00  0.00    -0.353 OA
HETATM   28  C1  UNL     1       5.189  -3.672  -2.015  1.00  0.00     0.210 C 
ENDBRANCH   1  27
BRANCH   6  29
HETATM   29  O4  UNL     1       6.792  -0.182  -0.379  1.00  0.00    -0.344 OA
BRANCH  29  30
HETATM   30  C23 UNL     1       7.333   0.983   0.167  1.00  0.00     0.216 C 
BRANCH  30  31
HETATM   31  C24 UNL     1       8.812   0.998   0.142  1.00  0.00    -0.008 A 
HETATM   32  C25 UNL     1       9.583  -0.023  -0.366  1.00  0.00     0.036 A 
HETATM   33  C26 UNL     1      10.965   0.023  -0.376  1.00  0.00     0.059 A 
HETATM   34 CL1  UNL     1      11.948  -1.273  -1.020  1.00  0.00    -0.082 Cl
HETATM   35  C27 UNL     1      11.612   1.128   0.139  1.00  0.00     0.090 A 
HETATM   36 CL2  UNL     1      13.355   1.277   0.170  1.00  0.00    -0.079 Cl
HETATM   37  C28 UNL     1      10.859   2.165   0.654  1.00  0.00     0.114 A 
HETATM   38  C30 UNL     1       9.479   2.092   0.651  1.00  0.00     0.077 A 
HETATM   39 CL3  UNL     1       8.546   3.417   1.309  1.00  0.00    -0.081 Cl
BRANCH  37  40
HETATM   40  O5  UNL     1      11.501   3.275   1.172  1.00  0.00    -0.352 OA
HETATM   41  C29 UNL     1      11.866   3.337   2.542  1.00  0.00     0.210 C 
ENDBRANCH  37  40
ENDBRANCH  30  31
ENDBRANCH  29  30
ENDBRANCH   6  29
TORSDOF 12
