REMARK  13 active torsions:
REMARK  status: ('A' for Active; 'I' for Inactive)
REMARK    1  A    between atoms: C2_2  and  O1_3 
REMARK    2  A    between atoms: O1_3  and  C3_4 
REMARK    3  A    between atoms: C6_7  and  N1_8 
REMARK    4  A    between atoms: N1_8  and  C7_10 
REMARK    5  A    between atoms: C10_14  and  O2_15 
REMARK    6  A    between atoms: O2_15  and  C11_16 
REMARK    7  A    between atoms: C11_16  and  C12_17 
REMARK    8  A    between atoms: C14_19  and  C15_20 
REMARK    9  A    between atoms: C24_36  and  O3_37 
REMARK   10  A    between atoms: O3_37  and  C25_38 
REMARK   11  A    between atoms: C25_38  and  C26_39 
REMARK   12  A    between atoms: C26_39  and  C27_40 
REMARK   13  A    between atoms: C27_40  and  N4_41 
ROOT
HETATM    1  C3  UNL     1       3.388  -0.128   1.286  1.00  0.00     0.103 A 
HETATM    2  C4  UNL     1       2.137  -0.255   0.742  1.00  0.00     0.057 A 
HETATM    3  C5  UNL     1       1.951  -0.523  -0.588  1.00  0.00     0.038 A 
HETATM    4  C6  UNL     1       0.704  -0.655  -1.156  1.00  0.00     0.119 A 
HETATM    5  N2  UNL     1       0.625  -0.919  -2.472  1.00  0.00    -0.332 N 
ATOM      6  H2  UNL     1      -0.298  -1.017  -2.895  1.00  0.00     0.168 HD
HETATM    7  C20 UNL     1       1.710  -1.060  -3.256  1.00  0.00     0.079 A 
HETATM    8  C21 UNL     1       1.529  -1.355  -4.719  1.00  0.00     0.089 C 
HETATM    9  N3  UNL     1       2.933  -0.935  -2.718  1.00  0.00    -0.345 N 
ATOM     10  H3  UNL     1       3.766  -1.039  -3.297  1.00  0.00     0.167 HD
HETATM   11  C22 UNL     1       3.044  -0.669  -1.398  1.00  0.00     0.050 A 
HETATM   12  C23 UNL     1       4.321  -0.541  -0.848  1.00  0.00     0.070 A 
HETATM   13  C24 UNL     1       4.547  -0.272   0.479  1.00  0.00     0.104 A 
ENDROOT
BRANCH   4  14
HETATM   14  N1  UNL     1      -0.310  -0.517  -0.398  1.00  0.00    -0.342 N 
ATOM     15  H1  UNL     1      -0.148  -0.316   0.589  1.00  0.00     0.167 HD
BRANCH  14  16
HETATM   16  C7  UNL     1      -1.673  -0.628  -0.853  1.00  0.00     0.037 A 
HETATM   17  C8  UNL     1      -2.435  -1.711  -0.466  1.00  0.00     0.056 A 
HETATM   18  C9  UNL     1      -3.759  -1.836  -0.895  1.00  0.00     0.071 A 
HETATM   19 CL1  UNL     1      -4.618  -3.258  -0.358  1.00  0.00    -0.081 Cl
HETATM   20  C10 UNL     1      -4.343  -0.901  -1.707  1.00  0.00     0.112 A 
HETATM   21  C18 UNL     1      -3.552   0.169  -2.076  1.00  0.00     0.071 A 
HETATM   22 CL4  UNL     1      -4.192   1.445  -3.124  1.00  0.00    -0.081 Cl
HETATM   23  C19 UNL     1      -2.245   0.312  -1.665  1.00  0.00     0.056 A 
BRANCH  20  24
HETATM   24  O2  UNL     1      -5.616  -0.968  -2.150  1.00  0.00    -0.347 OA
BRANCH  24  25
HETATM   25  C11 UNL     1      -6.792  -0.456  -1.649  1.00  0.00     0.180 C 
BRANCH  25  26
HETATM   26  C12 UNL     1      -7.230  -0.886  -0.296  1.00  0.00     0.011 C 
HETATM   27  C13 UNL     1      -8.558  -0.165   0.033  1.00  0.00     0.014 C 
HETATM   28  C14 UNL     1      -7.771   0.890   0.819  1.00  0.00     0.025 C 
HETATM   29  C17 UNL     1      -6.643  -0.125   0.868  1.00  0.00     0.014 C 
BRANCH  28  30
HETATM   30  C15 UNL     1      -8.448   1.167   2.124  1.00  0.00     0.113 C 
HETATM   31  C16 UNL     1      -7.667   2.215   2.901  1.00  0.00     0.051 C 
HETATM   32 CL2  UNL     1      -8.674  -0.307   3.083  1.00  0.00    -0.102 Cl
HETATM   33 CL3  UNL     1     -10.051   1.856   1.776  1.00  0.00    -0.102 Cl
ENDBRANCH  28  30
ENDBRANCH  25  26
ENDBRANCH  24  25
ENDBRANCH  20  24
ENDBRANCH  14  16
ENDBRANCH   4  14
BRANCH   1  34
HETATM   34  O1  UNL     1       3.622   0.139   2.612  1.00  0.00    -0.349 OA
BRANCH  34  35
HETATM   35  C2  UNL     1       2.670   0.316   3.618  1.00  0.00     0.171 C 
HETATM   36  C1  UNL     1       1.842  -0.934   3.776  1.00  0.00     0.034 C 
ENDBRANCH  34  35
ENDBRANCH   1  34
BRANCH  13  37
HETATM   37  O3  UNL     1       5.777  -0.136   1.050  1.00  0.00    -0.348 OA
BRANCH  37  38
HETATM   38  C25 UNL     1       7.055  -0.180   0.550  1.00  0.00     0.177 C 
BRANCH  38  39
HETATM   39  C26 UNL     1       7.426   0.886  -0.436  1.00  0.00     0.054 C 
BRANCH  39  40
HETATM   40  C27 UNL     1       8.857   0.738  -0.928  1.00  0.00     0.234 C 
BRANCH  40  41
HETATM   41  N4  UNL     1       9.809   0.824   0.144  1.00  0.00    -0.079 N 
HETATM   42  C28 UNL     1       9.837   2.146   0.684  1.00  0.00     0.266 C 
ATOM     43  H42 UNL     1       9.633   0.124   0.865  1.00  0.00     0.276 HD
ATOM     44  H41 UNL     1      10.736   0.513  -0.147  1.00  0.00     0.276 HD
ENDBRANCH  40  41
ENDBRANCH  39  40
ENDBRANCH  38  39
ENDBRANCH  37  38
ENDBRANCH  13  37
TORSDOF 13
