REMARK  12 active torsions:
REMARK  status: ('A' for Active; 'I' for Inactive)
REMARK    1  A    between atoms: C2_2  and  O1_3 
REMARK    2  A    between atoms: O1_3  and  C3_4 
REMARK    3  A    between atoms: C5_6  and  N1_7 
REMARK       I    between atoms: N1_7  and  C6_9 
REMARK    4  A    between atoms: C6_9  and  C7_11 
REMARK    5  A    between atoms: C12_18  and  O3_19 
REMARK    6  A    between atoms: O3_19  and  C13_20 
REMARK    7  A    between atoms: C17_24  and  O4_25 
REMARK    8  A    between atoms: O4_25  and  C18_26 
REMARK    9  A    between atoms: C18_26  and  C19_27 
REMARK   10  A    between atoms: C19_27  and  N2_28 
REMARK   11  A    between atoms: N2_28  and  C20_29 
REMARK   12  A    between atoms: N2_28  and  C22_31 
ROOT
HETATM    1  C7  UNL     1      -1.400   1.485  -3.226  1.00  0.00     0.069 A 
HETATM    2  C8  UNL     1      -1.492   2.660  -3.998  1.00  0.00     0.044 A 
HETATM    3  C9  UNL     1      -0.488   3.020  -4.836  1.00  0.00     0.036 A 
HETATM    4 CL1  UNL     1      -0.654   4.503  -5.784  1.00  0.00    -0.084 Cl
HETATM    5  C10 UNL     1       0.654   2.285  -4.983  1.00  0.00     0.050 A 
HETATM    6  C11 UNL     1       0.729   1.122  -4.207  1.00  0.00     0.070 A 
HETATM    7 CL2  UNL     1       2.253   0.247  -4.408  1.00  0.00    -0.081 Cl
HETATM    8  C12 UNL     1      -0.266   0.728  -3.351  1.00  0.00     0.113 A 
ENDROOT
BRANCH   1   9
HETATM    9  C6  UNL     1      -2.570   1.171  -2.428  1.00  0.00     0.259 C 
HETATM   10  N1  UNL     1      -2.781   0.032  -1.668  1.00  0.00    -0.323 N 
ATOM     11  H1  UNL     1      -2.050  -0.680  -1.676  1.00  0.00     0.169 HD
HETATM   12  O2  UNL     1      -3.524   2.031  -2.409  1.00  0.00    -0.267 OA
BRANCH  10  13
HETATM   13  C5  UNL     1      -3.956  -0.228  -0.864  1.00  0.00     0.038 A 
HETATM   14  C4  UNL     1      -4.755   0.709  -0.299  1.00  0.00     0.068 A 
HETATM   15  C3  UNL     1      -5.894   0.403   0.432  1.00  0.00     0.097 A 
HETATM   16  C28 UNL     1      -6.225  -0.921   0.591  1.00  0.00     0.068 A 
HETATM   17  C27 UNL     1      -5.443  -1.901   0.037  1.00  0.00    -0.025 A 
HETATM   18  N3  UNL     1      -7.327  -1.564   1.276  1.00  0.00    -0.387 N 
HETATM   19  C26 UNL     1      -4.315  -1.569  -0.687  1.00  0.00     0.039 A 
HETATM   20  C30 UNL     1      -6.036  -3.246   0.375  1.00  0.00     0.060 C 
HETATM   21  C29 UNL     1      -7.446  -2.910   0.716  1.00  0.00     0.124 C 
ATOM     22  H3  UNL     1      -7.908  -1.157   2.008  1.00  0.00     0.159 HD
BRANCH  15  23
HETATM   23  O1  UNL     1      -6.680   1.390   0.990  1.00  0.00    -0.349 OA
BRANCH  23  24
HETATM   24  C2  UNL     1      -6.295   2.744   0.795  1.00  0.00     0.171 C 
HETATM   25  C1  UNL     1      -7.279   3.654   1.474  1.00  0.00     0.034 C 
ENDBRANCH  23  24
ENDBRANCH  15  23
ENDBRANCH  10  13
ENDBRANCH   1   9
BRANCH   8  26
HETATM   26  O3  UNL     1      -0.099  -0.417  -2.623  1.00  0.00    -0.306 OA
BRANCH  26  27
HETATM   27  C13 UNL     1       0.858  -0.870  -1.801  1.00  0.00     0.104 A 
HETATM   28  C14 UNL     1       1.285  -0.202  -0.685  1.00  0.00    -0.024 A 
HETATM   29  C15 UNL     1       0.674   1.091  -0.371  1.00  0.00     0.051 C 
HETATM   30  C16 UNL     1       2.291  -0.726   0.148  1.00  0.00     0.046 A 
HETATM   31  C17 UNL     1       2.890  -1.934  -0.127  1.00  0.00     0.071 A 
HETATM   32  C24 UNL     1       2.452  -2.611  -1.263  1.00  0.00     0.063 A 
HETATM   33  C25 UNL     1       1.470  -2.088  -2.064  1.00  0.00     0.071 A 
HETATM   34 CL3  UNL     1       0.961  -3.108  -3.410  1.00  0.00    -0.081 Cl
BRANCH  31  35
HETATM   35  O4  UNL     1       3.875  -2.508   0.624  1.00  0.00    -0.349 OA
BRANCH  35  36
HETATM   36  C18 UNL     1       4.552  -2.153   1.744  1.00  0.00     0.195 C 
BRANCH  36  37
HETATM   37  C19 UNL     1       5.386  -0.908   1.570  1.00  0.00     0.148 C 
BRANCH  37  38
HETATM   38  N2  UNL     1       6.083  -0.554   2.744  1.00  0.00    -0.392 N 
BRANCH  38  39
HETATM   39  C20 UNL     1       7.128  -1.362   3.207  1.00  0.00     0.054 C 
HETATM   40  C21 UNL     1       8.373  -1.405   2.363  1.00  0.00     0.054 C 
ENDBRANCH  38  39
BRANCH  38  41
HETATM   41  C22 UNL     1       6.091   0.809   3.065  1.00  0.00     0.117 C 
HETATM   42  C23 UNL     1       6.908   1.589   2.030  1.00  0.00     0.026 C 
ENDBRANCH  38  41
ENDBRANCH  37  38
ENDBRANCH  36  37
ENDBRANCH  35  36
ENDBRANCH  31  35
ENDBRANCH  26  27
ENDBRANCH   8  26
TORSDOF 12
