REMARK  16 active torsions:
REMARK  status: ('A' for Active; 'I' for Inactive)
REMARK    1  A    between atoms: C2_2  and  C3_3 
REMARK    2  A    between atoms: C3_3  and  C4_4 
REMARK    3  A    between atoms: C4_4  and  C5_5 
REMARK    4  A    between atoms: C5_5  and  C6_6 
REMARK    5  A    between atoms: C6_6  and  C7_7 
REMARK    6  A    between atoms: C7_7  and  C8_8 
REMARK    7  A    between atoms: C8_8  and  C9_9 
REMARK    8  A    between atoms: C9_9  and  C10_10 
REMARK       I    between atoms: N2_15  and  C12_16 
REMARK       I    between atoms: C12_16  and  N3_18 
REMARK    9  A    between atoms: C19_26  and  C20_27 
REMARK   10  A    between atoms: C20_27  and  C21_28 
REMARK   11  A    between atoms: C25_35  and  C26_36 
REMARK   12  A    between atoms: C26_36  and  C27_37 
REMARK   13  A    between atoms: C27_37  and  C28_38 
REMARK   14  A    between atoms: C28_38  and  C29_39 
REMARK   15  A    between atoms: C29_39  and  N6_40 
REMARK   16  A    between atoms: C30_44  and  O4_45 
ROOT
HETATM    1  C10 UNL     1       1.312  -0.035  -0.370  1.00  0.00     0.083 C 
HETATM    2  C11 UNL     1       0.204  -0.044  -1.404  1.00  0.00     0.241 C 
HETATM    3  O1  UNL     1       0.239  -1.042  -2.215  1.00  0.00    -0.271 OA
HETATM    4  N1  UNL     1      -0.827   0.881  -1.591  1.00  0.00    -0.259 N 
ATOM      5  H1  UNL     1      -0.686   1.465  -2.415  1.00  0.00     0.190 HD
HETATM    6  N2  UNL     1      -2.010   1.190  -0.906  1.00  0.00    -0.202 N 
HETATM    7  C12 UNL     1      -2.125   2.523  -0.397  1.00  0.00     0.344 C 
HETATM    8  O2  UNL     1      -3.277   2.775   0.145  1.00  0.00    -0.245 OA
HETATM    9  N3  UNL     1      -1.245   3.589  -0.374  1.00  0.00    -0.329 N 
HETATM   10  C13 UNL     1       0.091   3.762  -0.816  1.00  0.00     0.155 C 
HETATM   11  C14 UNL     1       0.018   4.782  -1.966  1.00  0.00     0.256 C 
HETATM   12  N4  UNL     1      -0.464   6.033  -1.505  1.00  0.00    -0.072 N 
HETATM   13  C15 UNL     1       0.595   7.027  -1.721  1.00  0.00     0.272 C 
HETATM   14  C16 UNL     1      -1.579   6.488  -2.342  1.00  0.00     0.272 C 
HETATM   15  C17 UNL     1      -0.846   5.963  -0.130  1.00  0.00     0.256 C 
HETATM   16  C18 UNL     1      -1.771   4.846   0.236  1.00  0.00     0.155 C 
HETATM   17  C19 UNL     1      -3.104   0.227  -0.702  1.00  0.00     0.107 C 
HETATM   18  C24 UNL     1      -3.296  -0.225   0.697  1.00  0.00     0.266 C 
HETATM   19  O3  UNL     1      -4.010   0.555   1.394  1.00  0.00    -0.266 OA
HETATM   20  N5  UNL     1      -2.822  -1.353   1.346  1.00  0.00    -0.348 N 
ATOM     21  H5  UNL     1      -2.204  -1.134   2.127  1.00  0.00     0.163 HD
HETATM   22  C25 UNL     1      -3.012  -2.769   1.158  1.00  0.00     0.117 C 
HETATM   23  C30 UNL     1      -1.833  -3.639   1.354  1.00  0.00     0.163 C 
HETATM   24  C31 UNL     1      -0.757  -3.606   0.381  1.00  0.00     0.003 C 
HETATM   25  C32 UNL     1       0.369  -2.949   0.335  1.00  0.00    -0.028 C 
HETATM   26  C33 UNL     1       0.953  -1.992   1.268  1.00  0.00     0.032 C 
HETATM   27  C34 UNL     1       0.916  -0.565   0.942  1.00  0.00    -0.002 C 
HETATM   28  C35 UNL     1       1.553   0.172   2.133  1.00  0.00     0.011 C 
ENDROOT
BRANCH  17  29
HETATM   29  C20 UNL     1      -4.381   0.512  -1.398  1.00  0.00     0.069 C 
BRANCH  29  30
HETATM   30  C21 UNL     1      -4.441   0.571  -2.862  1.00  0.00    -0.017 C 
HETATM   31  C22 UNL     1      -3.639   1.591  -3.593  1.00  0.00     0.010 C 
HETATM   32  C23 UNL     1      -4.236  -0.806  -3.509  1.00  0.00     0.010 C 
ENDBRANCH  29  30
ENDBRANCH  17  29
BRANCH   1  33
HETATM   33  C9  UNL     1       2.568  -0.507  -1.014  1.00  0.00     0.014 C 
BRANCH  33  34
HETATM   34  C8  UNL     1       3.800  -0.534  -0.178  1.00  0.00     0.001 C 
BRANCH  34  35
HETATM   35  C7  UNL     1       5.005  -1.024  -0.966  1.00  0.00     0.000 C 
BRANCH  35  36
HETATM   36  C6  UNL     1       6.264  -1.042  -0.160  1.00  0.00     0.000 C 
BRANCH  36  37
HETATM   37  C5  UNL     1       6.659   0.321   0.359  1.00  0.00     0.000 C 
BRANCH  37  38
HETATM   38  C4  UNL     1       7.925   0.204   1.141  1.00  0.00     0.004 C 
BRANCH  38  39
HETATM   39  C3  UNL     1       7.863  -0.691   2.334  1.00  0.00     0.026 C 
BRANCH  39  40
HETATM   40  C2  UNL     1       9.236  -0.661   2.957  1.00  0.00    -0.037 C 
HETATM   41  C1  UNL     1       9.913  -1.788   3.057  1.00  0.00     0.007 C 
ENDBRANCH  39  40
ENDBRANCH  38  39
ENDBRANCH  37  38
ENDBRANCH  36  37
ENDBRANCH  35  36
ENDBRANCH  34  35
ENDBRANCH  33  34
ENDBRANCH   1  33
BRANCH  22  42
HETATM   42  C26 UNL     1      -4.033  -3.188   2.199  1.00  0.00     0.028 C 
BRANCH  42  43
HETATM   43  C27 UNL     1      -4.417  -4.617   2.213  1.00  0.00     0.004 C 
BRANCH  43  44
HETATM   44  C28 UNL     1      -5.014  -4.987   0.866  1.00  0.00     0.027 C 
BRANCH  44  45
HETATM   45  C29 UNL     1      -5.381  -6.471   0.973  1.00  0.00     0.229 C 
BRANCH  45  46
HETATM   46  N6  UNL     1      -6.333  -6.620   2.047  1.00  0.00    -0.079 N 
ATOM     47  H63 UNL     1      -5.997  -6.233   2.929  1.00  0.00     0.274 HD
ATOM     48  H62 UNL     1      -7.150  -6.019   1.936  1.00  0.00     0.274 HD
ATOM     49  H61 UNL     1      -6.577  -7.608   2.118  1.00  0.00     0.274 HD
ENDBRANCH  45  46
ENDBRANCH  44  45
ENDBRANCH  43  44
ENDBRANCH  42  43
ENDBRANCH  22  42
BRANCH  23  50
HETATM   50  O4  UNL     1      -1.476  -3.560   2.693  1.00  0.00    -0.390 OA
ATOM     51  H4  UNL     1      -0.718  -4.119   2.819  1.00  0.00     0.210 HD
ENDBRANCH  23  50
TORSDOF 16
