REMARK  17 active torsions:
REMARK  status: ('A' for Active; 'I' for Inactive)
REMARK    1  A    between atoms: C2_2  and  C3_3 
REMARK    2  A    between atoms: C3_3  and  C4_5 
REMARK    3  A    between atoms: C4_5  and  C5_6 
REMARK    4  A    between atoms: C5_6  and  C6_7 
REMARK    5  A    between atoms: C6_7  and  C7_8 
REMARK    6  A    between atoms: C7_8  and  C8_9 
REMARK    7  A    between atoms: C8_9  and  C9_10 
REMARK    8  A    between atoms: C9_10  and  C10_11 
REMARK    9  A    between atoms: C12_16  and  C13_17 
REMARK   10  A    between atoms: C13_17  and  C14_18 
REMARK   11  A    between atoms: C18_25  and  C19_26 
REMARK   12  A    between atoms: C19_26  and  C20_27 
REMARK   13  A    between atoms: C23_30  and  O4_31 
REMARK   14  A    between atoms: C24_35  and  C25_36 
REMARK   15  A    between atoms: C25_36  and  C26_37 
REMARK   16  A    between atoms: C30_44  and  C31_45 
REMARK   17  A    between atoms: C31_45  and  C32_46 
ROOT
HETATM    1  C10 UNL     1       0.833  -0.153  -0.986  1.00  0.00     0.149 C 
HETATM    2  C11 UNL     1       0.479  -0.028   0.410  1.00  0.00     0.229 C 
HETATM    3  O2  UNL     1       0.606   1.072   0.988  1.00  0.00    -0.273 OA
HETATM    4  N1  UNL     1      -0.013  -1.099   1.185  1.00  0.00    -0.347 N 
ATOM      5  H1  UNL     1       0.283  -1.152   2.160  1.00  0.00     0.163 HD
HETATM    6  C12 UNL     1      -0.924  -2.148   0.689  1.00  0.00     0.177 C 
HETATM    7  C17 UNL     1      -1.918  -2.318   1.788  1.00  0.00     0.244 C 
HETATM    8  O3  UNL     1      -1.668  -3.362   2.506  1.00  0.00    -0.271 OA
HETATM    9  N2  UNL     1      -3.007  -1.548   2.122  1.00  0.00    -0.325 N 
ATOM     10  H2  UNL     1      -2.956  -1.191   3.076  1.00  0.00     0.169 HD
HETATM   11  C18 UNL     1      -4.189  -1.133   1.447  1.00  0.00     0.063 C 
HETATM   12  C23 UNL     1      -4.537   0.300   1.525  1.00  0.00     0.159 C 
HETATM   13  N3  UNL     1      -3.777   1.460   1.591  1.00  0.00    -0.356 N 
ATOM     14  H3  UNL     1      -3.673   1.817   2.541  1.00  0.00     0.162 HD
HETATM   15  C24 UNL     1      -3.108   2.262   0.613  1.00  0.00     0.176 C 
HETATM   16  C29 UNL     1      -2.947   1.596  -0.726  1.00  0.00     0.241 C 
HETATM   17  O5  UNL     1      -4.103   1.455  -1.291  1.00  0.00    -0.271 OA
HETATM   18  N4  UNL     1      -1.819   1.157  -1.370  1.00  0.00    -0.348 N 
ATOM     19  H4  UNL     1      -1.790   0.147  -1.507  1.00  0.00     0.163 HD
HETATM   20  C30 UNL     1      -0.665   1.849  -1.892  1.00  0.00     0.155 C 
HETATM   21  C35 UNL     1       0.503   0.936  -1.909  1.00  0.00     0.162 C 
HETATM   22  O6  UNL     1       1.342   1.081  -2.818  1.00  0.00    -0.295 OA
ENDROOT
BRANCH   1  23
HETATM   23  C9  UNL     1       2.318  -0.471  -1.049  1.00  0.00     0.022 C 
BRANCH  23  24
HETATM   24  C8  UNL     1       3.194   0.554  -0.447  1.00  0.00     0.001 C 
BRANCH  24  25
HETATM   25  C7  UNL     1       4.645   0.103  -0.603  1.00  0.00     0.000 C 
BRANCH  25  26
HETATM   26  C6  UNL     1       4.954  -1.191   0.049  1.00  0.00     0.000 C 
BRANCH  26  27
HETATM   27  C5  UNL     1       6.384  -1.559  -0.148  1.00  0.00     0.007 C 
BRANCH  27  28
HETATM   28  C4  UNL     1       7.347  -0.556   0.435  1.00  0.00     0.078 C 
BRANCH  28  29
HETATM   29  C3  UNL     1       8.756  -1.044   0.191  1.00  0.00     0.126 C 
HETATM   30  O1  UNL     1       8.948  -2.092  -0.400  1.00  0.00    -0.298 OA
BRANCH  29  31
HETATM   31  C2  UNL     1       9.927  -0.260   0.664  1.00  0.00     0.074 C 
HETATM   32  C1  UNL     1      10.604  -0.988   1.834  1.00  0.00     0.013 C 
ENDBRANCH  29  31
ENDBRANCH  28  29
ENDBRANCH  27  28
ENDBRANCH  26  27
ENDBRANCH  25  26
ENDBRANCH  24  25
ENDBRANCH  23  24
ENDBRANCH   1  23
BRANCH  20  33
HETATM   33  C31 UNL     1      -0.424   3.209  -1.364  1.00  0.00     0.037 C 
BRANCH  33  34
HETATM   34  C32 UNL     1       0.811   3.820  -2.017  1.00  0.00    -0.020 C 
HETATM   35  C33 UNL     1       0.918   5.216  -1.354  1.00  0.00     0.009 C 
HETATM   36  C34 UNL     1       0.449   4.109  -3.457  1.00  0.00     0.009 C 
ENDBRANCH  33  34
ENDBRANCH  20  33
BRANCH   6  37
HETATM   37  C13 UNL     1      -0.022  -3.362   0.542  1.00  0.00     0.038 C 
BRANCH  37  38
HETATM   38  C14 UNL     1      -0.761  -4.528   0.011  1.00  0.00    -0.020 C 
HETATM   39  C15 UNL     1      -1.310  -4.205  -1.365  1.00  0.00     0.009 C 
HETATM   40  C16 UNL     1       0.179  -5.730  -0.167  1.00  0.00     0.009 C 
ENDBRANCH  37  38
ENDBRANCH   6  37
BRANCH  15  41
HETATM   41  C25 UNL     1      -3.836   3.528   0.290  1.00  0.00     0.038 C 
BRANCH  41  42
HETATM   42  C26 UNL     1      -4.035   4.470   1.406  1.00  0.00    -0.020 C 
HETATM   43  C27 UNL     1      -4.849   4.057   2.574  1.00  0.00     0.009 C 
HETATM   44  C28 UNL     1      -4.672   5.760   0.858  1.00  0.00     0.009 C 
ENDBRANCH  41  42
ENDBRANCH  15  41
BRANCH  11  45
HETATM   45  C19 UNL     1      -4.500  -1.774   0.133  1.00  0.00     0.065 C 
BRANCH  45  46
HETATM   46  C20 UNL     1      -4.690  -3.289   0.278  1.00  0.00    -0.017 C 
HETATM   47  C21 UNL     1      -5.839  -3.520   1.236  1.00  0.00     0.010 C 
HETATM   48  C22 UNL     1      -5.182  -3.758  -1.082  1.00  0.00     0.010 C 
ENDBRANCH  45  46
ENDBRANCH  11  45
BRANCH  12  49
HETATM   49  O4  UNL     1      -5.824   0.501   1.536  1.00  0.00    -0.345 OA
ATOM     50  H4  UNL     1      -6.048   1.423   1.586  1.00  0.00     0.219 HD
ENDBRANCH  12  49
TORSDOF 17
