REMARK  16 active torsions:
REMARK  status: ('A' for Active; 'I' for Inactive)
REMARK    1  A    between atoms: C5_6  and  C6_7 
REMARK       I    between atoms: C6_7  and  N2_9 
REMARK    2  A    between atoms: N2_9  and  C7_11 
REMARK    3  A    between atoms: C7_11  and  C8_12 
REMARK    4  A    between atoms: C8_12  and  C9_13 
REMARK    5  A    between atoms: C9_13  and  C10_14 
REMARK    6  A    between atoms: C10_14  and  C11_15 
REMARK    7  A    between atoms: C11_15  and  N3_16 
REMARK    8  A    between atoms: C11_15  and  C27_34 
REMARK       I    between atoms: N3_16  and  C12_18 
REMARK    9  A    between atoms: C12_18  and  C13_20 
REMARK   10  A    between atoms: C13_20  and  C14_21 
REMARK   11  A    between atoms: C14_21  and  C15_22 
REMARK   12  A    between atoms: C15_22  and  C16_23 
REMARK   13  A    between atoms: C16_23  and  C17_24 
REMARK       I    between atoms: C27_34  and  N4_36 
REMARK   14  A    between atoms: C30_39  and  C31_40 
REMARK   15  A    between atoms: C31_40  and  N6_44 
REMARK   16  A    between atoms: N6_44  and  C32_46 
ROOT
HETATM    1  C11 UNL     1      -0.990   0.473   1.189  1.00  0.00     0.176 C 
ENDROOT
BRANCH   1   2
HETATM    2  C10 UNL     1      -1.560  -0.868   0.704  1.00  0.00     0.035 C 
BRANCH   2   3
HETATM    3  C9  UNL     1      -0.830  -1.952   1.421  1.00  0.00     0.004 C 
BRANCH   3   4
HETATM    4  C8  UNL     1      -1.338  -3.335   1.042  1.00  0.00     0.020 C 
BRANCH   4   5
HETATM    5  C7  UNL     1      -2.773  -3.522   1.371  1.00  0.00     0.122 C 
BRANCH   5   6
HETATM    6  N2  UNL     1      -3.213  -4.839   0.998  1.00  0.00    -0.359 N 
HETATM    7  C6  UNL     1      -3.189  -5.262  -0.350  1.00  0.00     0.251 C 
HETATM    8  O1  UNL     1      -2.796  -4.522  -1.294  1.00  0.00    -0.271 OA
ATOM      9  H2  UNL     1      -3.548  -5.479   1.718  1.00  0.00     0.162 HD
BRANCH   7  10
HETATM   10  C5  UNL     1      -3.636  -6.627  -0.736  1.00  0.00     0.313 C 
HETATM   11  N1  UNL     1      -3.634  -6.854  -2.163  1.00  0.00     0.098 N 
HETATM   12  C1  UNL     1      -4.540  -5.961  -2.842  1.00  0.00     0.310 C 
HETATM   13  C2  UNL     1      -4.215  -8.210  -2.209  1.00  0.00     0.273 C 
HETATM   14  C3  UNL     1      -5.354  -8.166  -1.212  1.00  0.00     0.033 C 
HETATM   15  C4  UNL     1      -5.044  -6.947  -0.343  1.00  0.00     0.047 C 
ENDBRANCH   7  10
ENDBRANCH   5   6
ENDBRANCH   4   5
ENDBRANCH   3   4
ENDBRANCH   2   3
ENDBRANCH   1   2
BRANCH   1  16
HETATM   16  N3  UNL     1       0.419   0.439   0.850  1.00  0.00    -0.348 N 
HETATM   17  C12 UNL     1       1.461   0.281   1.775  1.00  0.00     0.218 C 
HETATM   18  O2  UNL     1       1.201   0.150   2.991  1.00  0.00    -0.274 OA
ATOM     19  H3  UNL     1       0.671   0.537  -0.133  1.00  0.00     0.163 HD
BRANCH  17  20
HETATM   20  C13 UNL     1       2.872   0.266   1.328  1.00  0.00     0.103 C 
BRANCH  20  21
HETATM   21  C14 UNL     1       3.828  -0.086   2.420  1.00  0.00     0.009 C 
BRANCH  21  22
HETATM   22  C15 UNL     1       5.255  -0.064   1.918  1.00  0.00     0.001 C 
BRANCH  22  23
HETATM   23  C16 UNL     1       5.511  -0.994   0.777  1.00  0.00     0.005 C 
BRANCH  23  24
HETATM   24  C17 UNL     1       6.939  -0.941   0.347  1.00  0.00    -0.006 C 
HETATM   25  C18 UNL     1       7.234  -1.864  -0.816  1.00  0.00    -0.009 C 
HETATM   26  C19 UNL     1       8.758  -1.998  -0.927  1.00  0.00     0.010 C 
HETATM   27  C23 UNL     1       6.780  -1.309  -2.141  1.00  0.00     0.010 C 
HETATM   28  C20 UNL     1       9.372  -0.643  -1.155  1.00  0.00    -0.013 C 
HETATM   29  C21 UNL     1       8.884  -0.085  -2.479  1.00  0.00     0.009 C 
HETATM   30  C26 UNL     1       9.011   0.258  -0.003  1.00  0.00     0.010 C 
HETATM   31  C22 UNL     1       7.379   0.050  -2.370  1.00  0.00    -0.013 C 
HETATM   32  C24 UNL     1       7.002   0.992  -1.256  1.00  0.00     0.010 C 
HETATM   33  C25 UNL     1       7.482   0.418   0.060  1.00  0.00    -0.009 C 
ENDBRANCH  23  24
ENDBRANCH  22  23
ENDBRANCH  21  22
ENDBRANCH  20  21
ENDBRANCH  17  20
ENDBRANCH   1  16
BRANCH   1  34
HETATM   34  C27 UNL     1      -1.682   1.600   0.548  1.00  0.00     0.243 C 
HETATM   35  O3  UNL     1      -0.999   2.335  -0.208  1.00  0.00    -0.271 OA
HETATM   36  N4  UNL     1      -3.081   1.859   0.771  1.00  0.00    -0.339 N 
HETATM   37  C28 UNL     1      -4.079   1.197   1.576  1.00  0.00     0.129 C 
HETATM   38  C30 UNL     1      -4.072   2.782   0.331  1.00  0.00     0.155 C 
HETATM   39  C29 UNL     1      -4.868   2.476   1.611  1.00  0.00     0.053 C 
BRANCH  38  40
HETATM   40  C31 UNL     1      -3.738   4.203   0.196  1.00  0.00     0.094 C 
HETATM   41  N5  UNL     1      -2.788   4.727   0.838  1.00  0.00    -0.387 N 
ATOM     42  H52 UNL     1      -2.213   4.148   1.450  1.00  0.00     0.157 HD
ATOM     43  H51 UNL     1      -2.556   5.716   0.744  1.00  0.00     0.157 HD
BRANCH  40  44
HETATM   44  N6  UNL     1      -4.542   5.012  -0.659  1.00  0.00    -0.374 N 
ATOM     45  H6  UNL     1      -4.889   4.572  -1.511  1.00  0.00     0.161 HD
BRANCH  44  46
HETATM   46  C32 UNL     1      -4.909   6.363  -0.449  1.00  0.00     0.082 C 
HETATM   47  C33 UNL     1      -5.645   6.646   0.840  1.00  0.00     0.025 C 
HETATM   48  C34 UNL     1      -6.331   8.000   0.623  1.00  0.00     0.002 C 
HETATM   49  C35 UNL     1      -5.283   9.042   0.371  1.00  0.00     0.000 C 
HETATM   50  C36 UNL     1      -4.474   8.704  -0.850  1.00  0.00     0.002 C 
HETATM   51  C37 UNL     1      -3.779   7.364  -0.560  1.00  0.00     0.025 C 
ENDBRANCH  44  46
ENDBRANCH  40  44
ENDBRANCH  38  40
ENDBRANCH   1  34
TORSDOF 16
