REMARK  16 active torsions:
REMARK  status: ('A' for Active; 'I' for Inactive)
REMARK    1  A    between atoms: C2_2  and  C3_3 
REMARK    2  A    between atoms: C3_3  and  C4_4 
REMARK    3  A    between atoms: C4_4  and  C5_5 
REMARK    4  A    between atoms: C5_5  and  C6_6 
REMARK    5  A    between atoms: C6_6  and  C7_7 
REMARK    6  A    between atoms: C11_14  and  C12_15 
REMARK    7  A    between atoms: C12_15  and  N2_16 
REMARK       I    between atoms: N2_16  and  C13_17 
REMARK    8  A    between atoms: N2_16  and  C23_30 
REMARK    9  A    between atoms: C13_17  and  C14_19 
REMARK   10  A    between atoms: C14_19  and  C15_20 
REMARK   11  A    between atoms: C15_20  and  C16_21 
REMARK   12  A    between atoms: C16_21  and  C17_22 
REMARK   13  A    between atoms: C17_22  and  C18_23 
REMARK   14  A    between atoms: C18_23  and  O3_24 
REMARK   15  A    between atoms: C23_30  and  C25_32 
REMARK   16  A    between atoms: C31_42  and  C32_43 
ROOT
HETATM    1  C7  UNL     1      -3.569   1.385  -0.173  1.00  0.00     0.176 C 
HETATM    2  N1  UNL     1      -2.633   1.575   0.893  1.00  0.00    -0.347 N 
ATOM      3  H1  UNL     1      -2.976   1.271   1.804  1.00  0.00     0.163 HD
HETATM    4  C8  UNL     1      -1.341   2.097   0.919  1.00  0.00     0.226 C 
HETATM    5  O1  UNL     1      -1.064   3.078   1.713  1.00  0.00    -0.273 OA
HETATM    6  C9  UNL     1      -0.126   1.707   0.144  1.00  0.00     0.112 C 
HETATM    7  C10 UNL     1       0.677   3.005  -0.142  1.00  0.00     0.025 C 
HETATM    8  C11 UNL     1       0.764   0.743   0.745  1.00  0.00     0.016 C 
HETATM    9  C27 UNL     1       0.186   0.026   1.941  1.00  0.00     0.159 C 
HETATM   10  O4  UNL     1      -0.134   0.715   2.880  1.00  0.00    -0.293 OA
HETATM   11  C28 UNL     1       0.020  -1.405   1.975  1.00  0.00     0.103 C 
HETATM   12  C29 UNL     1      -1.168  -1.991   1.248  1.00  0.00     0.130 C 
HETATM   13  N3  UNL     1      -2.334  -2.094   2.077  1.00  0.00    -0.359 N 
ATOM     14  H3  UNL     1      -2.179  -2.480   3.008  1.00  0.00     0.162 HD
HETATM   15  C30 UNL     1      -3.664  -1.736   1.782  1.00  0.00     0.240 C 
HETATM   16  O5  UNL     1      -4.261  -1.136   2.762  1.00  0.00    -0.271 OA
HETATM   17  C31 UNL     1      -4.451  -1.930   0.590  1.00  0.00     0.180 C 
HETATM   18  N4  UNL     1      -4.260  -1.099  -0.549  1.00  0.00    -0.346 N 
ATOM     19  H4  UNL     1      -4.754  -1.457  -1.366  1.00  0.00     0.163 HD
HETATM   20  C35 UNL     1      -3.581   0.061  -0.830  1.00  0.00     0.241 C 
HETATM   21  O6  UNL     1      -2.807  -0.022  -1.866  1.00  0.00    -0.271 OA
ENDROOT
BRANCH   8  22
HETATM   22  C12 UNL     1       1.538  -0.177  -0.114  1.00  0.00     0.106 C 
BRANCH  22  23
HETATM   23  N2  UNL     1       2.449   0.276  -1.094  1.00  0.00    -0.323 N 
HETATM   24  C13 UNL     1       3.736   0.779  -0.584  1.00  0.00     0.224 C 
HETATM   25  O2  UNL     1       3.875   0.746   0.653  1.00  0.00    -0.273 OA
BRANCH  24  26
HETATM   26  C14 UNL     1       4.793   1.289  -1.444  1.00  0.00     0.103 C 
BRANCH  26  27
HETATM   27  C15 UNL     1       5.975   1.904  -0.766  1.00  0.00     0.009 C 
BRANCH  27  28
HETATM   28  C16 UNL     1       6.789   1.077   0.140  1.00  0.00     0.004 C 
BRANCH  28  29
HETATM   29  C17 UNL     1       7.378  -0.128  -0.597  1.00  0.00     0.038 C 
BRANCH  29  30
HETATM   30  C18 UNL     1       8.211  -0.848   0.431  1.00  0.00     0.058 C 
HETATM   31  C19 UNL     1       7.302  -1.286   1.583  1.00  0.00     0.038 C 
HETATM   32  C20 UNL     1       8.229  -2.361   2.190  1.00  0.00     0.003 C 
HETATM   33  C21 UNL     1       8.642  -3.158   0.977  1.00  0.00     0.003 C 
HETATM   34  C22 UNL     1       8.757  -2.116  -0.125  1.00  0.00     0.038 C 
BRANCH  30  35
HETATM   35  O3  UNL     1       9.203   0.027   0.887  1.00  0.00    -0.390 OA
ATOM     36  H3  UNL     1       9.728  -0.427   1.535  1.00  0.00     0.210 HD
ENDBRANCH  30  35
ENDBRANCH  29  30
ENDBRANCH  28  29
ENDBRANCH  27  28
ENDBRANCH  26  27
ENDBRANCH  24  26
BRANCH  23  37
HETATM   37  C23 UNL     1       2.338   0.210  -2.491  1.00  0.00     0.088 C 
HETATM   38  C24 UNL     1       1.212   0.856  -3.207  1.00  0.00     0.033 C 
BRANCH  37  39
HETATM   39  C25 UNL     1       2.463  -1.193  -3.106  1.00  0.00     0.021 C 
HETATM   40  C26 UNL     1       1.461  -2.183  -2.710  1.00  0.00     0.007 C 
ENDBRANCH  37  39
ENDBRANCH  23  37
ENDBRANCH  22  23
ENDBRANCH   8  22
BRANCH   1  41
HETATM   41  C6  UNL     1      -4.999   1.738   0.312  1.00  0.00     0.035 C 
BRANCH  41  42
HETATM   42  C5  UNL     1      -5.112   3.151   0.756  1.00  0.00     0.002 C 
BRANCH  42  43
HETATM   43  C4  UNL     1      -6.507   3.443   1.216  1.00  0.00     0.000 C 
BRANCH  43  44
HETATM   44  C3  UNL     1      -7.510   3.216   0.132  1.00  0.00    -0.000 C 
BRANCH  44  45
HETATM   45  C2  UNL     1      -8.890   3.545   0.684  1.00  0.00    -0.005 C 
HETATM   46  C1  UNL     1      -9.914   3.314  -0.391  1.00  0.00     0.005 C 
ENDBRANCH  44  45
ENDBRANCH  43  44
ENDBRANCH  42  43
ENDBRANCH  41  42
ENDBRANCH   1  41
BRANCH  17  47
HETATM   47  C32 UNL     1      -4.356  -3.425   0.227  1.00  0.00     0.009 C 
HETATM   48  C33 UNL     1      -5.138  -3.765  -1.009  1.00  0.00     0.012 C 
HETATM   49  C34 UNL     1      -4.836  -4.285   1.356  1.00  0.00     0.012 C 
ENDBRANCH  17  47
TORSDOF 16
