REMARK  14 active torsions:
REMARK  status: ('A' for Active; 'I' for Inactive)
REMARK    1  A    between atoms: C2_2  and  C3_3 
REMARK    2  A    between atoms: C3_3  and  C4_4 
REMARK    3  A    between atoms: C4_4  and  N1_5 
REMARK    4  A    between atoms: C4_4  and  C34_45 
REMARK       I    between atoms: N1_5  and  C5_7 
REMARK    5  A    between atoms: C5_7  and  C6_9 
REMARK    6  A    between atoms: C11_14  and  C12_15 
REMARK    7  A    between atoms: C12_15  and  N2_16 
REMARK    8  A    between atoms: N2_16  and  C13_19 
REMARK       I    between atoms: N3_23  and  C17_24 
REMARK    9  A    between atoms: C17_24  and  C18_26 
REMARK   10  A    between atoms: C18_26  and  C19_27 
REMARK   11  A    between atoms: C18_26  and  N4_34 
REMARK   12  A    between atoms: C19_27  and  C20_28 
REMARK       I    between atoms: N4_34  and  C26_36 
REMARK   13  A    between atoms: C28_39  and  C29_40 
REMARK   14  A    between atoms: C34_45  and  C35_47 
ROOT
HETATM    1  C6  UNL     1       1.256   0.198   0.426  1.00  0.00     0.105 C 
HETATM    2  C7  UNL     1       1.529   1.233  -0.600  1.00  0.00     0.007 C 
HETATM    3  C8  UNL     1       2.967   1.170  -1.058  1.00  0.00     0.006 C 
HETATM    4  C9  UNL     1       3.460   2.539  -1.567  1.00  0.00     0.001 C 
HETATM    5  C10 UNL     1       3.589   3.394  -0.342  1.00  0.00     0.007 C 
HETATM    6  C11 UNL     1       2.290   3.454   0.365  1.00  0.00     0.017 C 
HETATM    7  C15 UNL     1       1.173   2.630  -0.226  1.00  0.00     0.014 C 
HETATM    8  C16 UNL     1       0.024   2.762   0.735  1.00  0.00     0.132 C 
HETATM    9  N3  UNL     1      -0.722   1.545   0.814  1.00  0.00    -0.344 N 
HETATM   10  C17 UNL     1      -2.130   1.622   0.611  1.00  0.00     0.243 C 
HETATM   11  O2  UNL     1      -2.605   2.800   0.434  1.00  0.00    -0.271 OA
HETATM   12  C28 UNL     1      -0.029   0.314   1.144  1.00  0.00     0.104 C 
ENDROOT
BRANCH  10  13
HETATM   13  C18 UNL     1      -3.060   0.465   0.593  1.00  0.00     0.177 C 
BRANCH  13  14
HETATM   14  C19 UNL     1      -3.046  -0.049  -0.851  1.00  0.00     0.039 C 
BRANCH  14  15
HETATM   15  C20 UNL     1      -3.923  -1.229  -1.075  1.00  0.00    -0.012 C 
HETATM   16  C21 UNL     1      -3.501  -2.369  -0.219  1.00  0.00     0.005 C 
HETATM   17  C22 UNL     1      -4.516  -3.505  -0.435  1.00  0.00     0.000 C 
HETATM   18  C23 UNL     1      -4.350  -3.984  -1.845  1.00  0.00     0.000 C 
HETATM   19  C24 UNL     1      -4.753  -2.847  -2.757  1.00  0.00     0.000 C 
HETATM   20  C25 UNL     1      -3.870  -1.642  -2.529  1.00  0.00     0.005 C 
ENDBRANCH  14  15
ENDBRANCH  13  14
BRANCH  13  21
HETATM   21  N4  UNL     1      -4.403   1.006   0.852  1.00  0.00    -0.348 N 
HETATM   22  C26 UNL     1      -5.220   0.536   1.887  1.00  0.00     0.214 C 
HETATM   23  C27 UNL     1      -6.561   1.119   2.096  1.00  0.00     0.117 C 
HETATM   24  O3  UNL     1      -4.846  -0.388   2.667  1.00  0.00    -0.274 OA
ATOM     25  H4  UNL     1      -4.753   1.754   0.253  1.00  0.00     0.163 HD
ENDBRANCH  13  21
ENDBRANCH  10  13
BRANCH  12  26
HETATM   26  C29 UNL     1      -0.012   0.136   2.633  1.00  0.00     0.009 C 
HETATM   27  C30 UNL     1       0.794   1.047   3.451  1.00  0.00     0.007 C 
HETATM   28  C31 UNL     1       1.129   0.301   4.743  1.00  0.00     0.000 C 
HETATM   29  C32 UNL     1       1.058  -1.151   4.420  1.00  0.00     0.000 C 
HETATM   30  C33 UNL     1       0.408  -1.241   3.084  1.00  0.00     0.007 C 
ENDBRANCH  12  26
BRANCH   1  31
HETATM   31  C5  UNL     1       1.346  -1.147  -0.208  1.00  0.00     0.224 C 
HETATM   32  N1  UNL     1       2.484  -1.805  -0.664  1.00  0.00    -0.349 N 
ATOM     33  H1  UNL     1       3.396  -1.355  -0.583  1.00  0.00     0.163 HD
HETATM   34  O1  UNL     1       0.229  -1.783  -0.352  1.00  0.00    -0.273 OA
BRANCH  32  35
HETATM   35  C4  UNL     1       2.382  -3.126  -1.253  1.00  0.00     0.164 C 
BRANCH  35  36
HETATM   36  C3  UNL     1       3.320  -4.072  -0.483  1.00  0.00     0.033 C 
BRANCH  36  37
HETATM   37  C2  UNL     1       2.875  -4.085   0.964  1.00  0.00    -0.002 C 
HETATM   38  C1  UNL     1       3.789  -5.011   1.745  1.00  0.00     0.005 C 
ENDBRANCH  36  37
ENDBRANCH  35  36
BRANCH  35  39
HETATM   39  C34 UNL     1       2.882  -3.116  -2.651  1.00  0.00     0.236 C 
HETATM   40  O4  UNL     1       3.384  -2.050  -3.129  1.00  0.00    -0.285 OA
BRANCH  39  41
HETATM   41  C35 UNL     1       2.822  -4.291  -3.511  1.00  0.00     0.302 C 
HETATM   42  N5  UNL     1       3.342  -4.231  -4.835  1.00  0.00    -0.054 NA
HETATM   43  O5  UNL     1       2.324  -5.378  -3.138  1.00  0.00    -0.268 OA
ENDBRANCH  39  41
ENDBRANCH  35  39
ENDBRANCH  32  35
ENDBRANCH   1  31
BRANCH   6  44
HETATM   44  C12 UNL     1       1.812   4.895   0.381  1.00  0.00     0.237 C 
BRANCH  44  45
HETATM   45  N2  UNL     1       1.669   5.326  -0.981  1.00  0.00    -0.075 N 
ATOM     46  H22 UNL     1       2.535   5.185  -1.502  1.00  0.00     0.277 HD
ATOM     47  H21 UNL     1       1.059   4.696  -1.502  1.00  0.00     0.277 HD
BRANCH  45  48
HETATM   48  C13 UNL     1       1.214   6.698  -1.090  1.00  0.00     0.228 C 
HETATM   49  C14 UNL     1       1.116   7.029  -2.565  1.00  0.00     0.034 C 
ENDBRANCH  45  48
ENDBRANCH  44  45
ENDBRANCH   6  44
TORSDOF 14
