REMARK  17 active torsions:
REMARK  status: ('A' for Active; 'I' for Inactive)
REMARK    1  A    between atoms: C2_2  and  C3_3 
REMARK    2  A    between atoms: C3_3  and  N1_4 
REMARK    3  A    between atoms: N1_4  and  C5_6 
REMARK    4  A    between atoms: C5_6  and  O1_7 
REMARK    5  A    between atoms: C5_6  and  C6_9 
REMARK    6  A    between atoms: C9_12  and  C10_13 
REMARK    7  A    between atoms: C10_13  and  N2_14 
REMARK    8  A    between atoms: N3_17  and  C12_18 
REMARK    9  A    between atoms: C12_18  and  C13_19 
REMARK   10  A    between atoms: C19_25  and  C20_26 
REMARK   11  A    between atoms: C20_26  and  C21_27 
REMARK   12  A    between atoms: C21_27  and  C22_28 
REMARK   13  A    between atoms: C22_28  and  C23_29 
REMARK   14  A    between atoms: C23_29  and  N4_30 
REMARK       I    between atoms: N4_30  and  C24_32 
REMARK       I    between atoms: C24_32  and  N5_34 
REMARK   15  A    between atoms: N5_34  and  C25_36 
REMARK   16  A    between atoms: C28_39  and  C29_40 
REMARK       I    between atoms: C29_40  and  N6_42 
REMARK   17  A    between atoms: N6_42  and  C30_44 
ROOT
HETATM    1  N2  UNL     1       2.631   1.431  -0.510  1.00  0.00    -0.313 N 
HETATM    2  C11 UNL     1       2.025   2.187   0.520  1.00  0.00     0.322 C 
HETATM    3  O2  UNL     1       2.426   3.313   0.919  1.00  0.00    -0.247 OA
HETATM    4  N3  UNL     1       0.869   1.447   1.035  1.00  0.00    -0.327 N 
HETATM    5  C19 UNL     1       0.738   0.324   0.177  1.00  0.00     0.121 C 
HETATM    6  C28 UNL     1       1.541   0.665  -1.073  1.00  0.00     0.204 C 
ENDROOT
BRANCH   1   7
HETATM    7  C10 UNL     1       4.036   1.418  -0.919  1.00  0.00     0.185 C 
BRANCH   7   8
HETATM    8  C9  UNL     1       4.767   0.382  -0.150  1.00  0.00     0.028 A 
HETATM    9  C8  UNL     1       5.588   0.600   0.890  1.00  0.00     0.029 A 
HETATM   10  C7  UNL     1       6.035  -0.665   1.284  1.00  0.00     0.036 A 
HETATM   11  C6  UNL     1       5.486  -1.639   0.488  1.00  0.00     0.083 A 
HETATM   12  N7  UNL     1       4.704  -0.928  -0.390  1.00  0.00    -0.355 N 
ATOM     13  H7  UNL     1       4.145  -1.349  -1.132  1.00  0.00     0.166 HD
BRANCH  11  14
HETATM   14  C5  UNL     1       5.615  -3.081   0.456  1.00  0.00     0.165 C 
BRANCH  14  15
HETATM   15  N1  UNL     1       6.355  -3.881   1.291  1.00  0.00    -0.364 N 
HETATM   16  C4  UNL     1       6.308  -5.356   1.014  1.00  0.00     0.151 C 
BRANCH  15  17
HETATM   17  C3  UNL     1       7.172  -3.531   2.393  1.00  0.00     0.124 C 
BRANCH  17  18
HETATM   18  C2  UNL     1       8.621  -3.232   2.030  1.00  0.00     0.015 C 
HETATM   19  C1  UNL     1       9.287  -4.410   1.381  1.00  0.00     0.006 C 
ENDBRANCH  17  18
ENDBRANCH  15  17
ENDBRANCH  14  15
BRANCH  14  20
HETATM   20  O1  UNL     1       4.936  -3.665  -0.487  1.00  0.00    -0.344 OA
ATOM     21  H1  UNL     1       4.424  -3.111  -1.065  1.00  0.00     0.219 HD
ENDBRANCH  14  20
ENDBRANCH  11  14
ENDBRANCH   7   8
ENDBRANCH   1   7
BRANCH   6  22
HETATM   22  C29 UNL     1       0.783   1.452  -2.068  1.00  0.00     0.243 C 
HETATM   23  O4  UNL     1       0.954   2.700  -2.101  1.00  0.00    -0.271 OA
HETATM   24  N6  UNL     1      -0.133   0.921  -3.007  1.00  0.00    -0.355 N 
ATOM     25  H6  UNL     1      -0.283  -0.088  -3.010  1.00  0.00     0.162 HD
BRANCH  24  26
HETATM   26  C30 UNL     1      -0.863   1.712  -3.954  1.00  0.00     0.084 C 
HETATM   27  C31 UNL     1      -2.247   1.228  -4.225  1.00  0.00     0.025 C 
HETATM   28  C32 UNL     1      -2.634   1.686  -5.597  1.00  0.00     0.002 C 
HETATM   29  C33 UNL     1      -1.341   1.914  -6.304  1.00  0.00     0.002 C 
HETATM   30  C34 UNL     1      -0.217   1.680  -5.334  1.00  0.00     0.025 C 
ENDBRANCH  24  26
ENDBRANCH   6  22
BRANCH   4  31
HETATM   31  C12 UNL     1       0.206   1.959   2.198  1.00  0.00     0.132 C 
BRANCH  31  32
HETATM   32  C13 UNL     1      -0.940   2.897   1.963  1.00  0.00     0.004 C 
HETATM   33  C14 UNL     1      -1.486   3.311   3.298  1.00  0.00     0.006 C 
HETATM   34  C15 UNL     1      -2.520   4.355   3.314  1.00  0.00     0.000 C 
HETATM   35  C16 UNL     1      -2.404   5.422   2.261  1.00  0.00     0.000 C 
HETATM   36  C17 UNL     1      -1.935   4.867   0.940  1.00  0.00     0.000 C 
HETATM   37  C18 UNL     1      -0.601   4.133   1.180  1.00  0.00     0.006 C 
ENDBRANCH  31  32
ENDBRANCH   4  31
BRANCH   5  38
HETATM   38  C20 UNL     1      -0.595  -0.222  -0.158  1.00  0.00     0.028 C 
BRANCH  38  39
HETATM   39  C21 UNL     1      -1.352  -0.745   1.011  1.00  0.00     0.004 C 
BRANCH  39  40
HETATM   40  C22 UNL     1      -2.712  -1.351   0.586  1.00  0.00     0.020 C 
BRANCH  40  41
HETATM   41  C23 UNL     1      -3.606  -0.360  -0.069  1.00  0.00     0.124 C 
BRANCH  41  42
HETATM   42  N4  UNL     1      -4.862  -0.943  -0.440  1.00  0.00    -0.343 N 
HETATM   43  C24 UNL     1      -5.796  -1.500   0.454  1.00  0.00     0.316 C 
HETATM   44  O3  UNL     1      -5.549  -1.496   1.685  1.00  0.00    -0.247 OA
HETATM   45  N5  UNL     1      -7.027  -2.074  -0.004  1.00  0.00    -0.339 N 
ATOM     46  H5  UNL     1      -7.250  -2.085  -0.999  1.00  0.00     0.164 HD
ATOM     47  H4  UNL     1      -5.098  -0.955  -1.432  1.00  0.00     0.164 HD
BRANCH  45  48
HETATM   48  C25 UNL     1      -7.942  -2.632   0.947  1.00  0.00     0.078 C 
HETATM   49  C26 UNL     1      -8.316  -4.058   0.616  1.00  0.00     0.032 C 
HETATM   50  C27 UNL     1      -9.232  -1.825   0.990  1.00  0.00     0.032 C 
ENDBRANCH  45  48
ENDBRANCH  41  42
ENDBRANCH  40  41
ENDBRANCH  39  40
ENDBRANCH  38  39
ENDBRANCH   5  38
TORSDOF 17
