REMARK  12 active torsions:
REMARK  status: ('A' for Active; 'I' for Inactive)
REMARK    1  A    between atoms: C2_2  and  C3_3 
REMARK    2  A    between atoms: C3_3  and  C4_4 
REMARK    3  A    between atoms: C4_4  and  C5_5 
REMARK    4  A    between atoms: C5_5  and  N1_6 
REMARK    5  A    between atoms: S1_11  and  C7_13 
REMARK    6  A    between atoms: C16_27  and  C17_28 
REMARK       I    between atoms: C17_28  and  N5_30 
REMARK    7  A    between atoms: N5_30  and  C18_32 
REMARK    8  A    between atoms: C18_32  and  C19_33 
REMARK    9  A    between atoms: C19_33  and  N6_34 
REMARK   10  A    between atoms: N7_37  and  C22_38 
REMARK   11  A    between atoms: C22_38  and  C23_39 
REMARK   12  A    between atoms: C23_39  and  N8_40 
ROOT
HETATM    1  N1  UNL     1      -3.938  -0.561   1.621  1.00  0.00    -0.344 N 
HETATM    2  C6  UNL     1      -4.593  -0.352   0.394  1.00  0.00     0.179 C 
HETATM    3  N2  UNL     1      -5.648  -0.913   0.011  1.00  0.00    -0.377 N 
ATOM      4  H21 UNL     1      -6.123  -0.761  -0.879  1.00  0.00     0.158 HD
ATOM      5  H22 UNL     1      -6.057  -1.620   0.622  1.00  0.00     0.158 HD
HETATM    6  S1  UNL     1      -3.886   0.871  -0.663  1.00  0.00     0.124 S 
HETATM    7  O1  UNL     1      -2.752   0.243  -1.400  1.00  0.00    -0.236 OA
HETATM    8  N4  UNL     1      -3.423   1.998   0.323  1.00  0.00    -0.339 N 
ATOM      9  H4  UNL     1      -2.815   2.762   0.027  1.00  0.00     0.169 HD
HETATM   10  C15 UNL     1      -3.909   1.887   1.670  1.00  0.00     0.164 C 
HETATM   11  C16 UNL     1      -3.466   0.602   2.358  1.00  0.00     0.196 C 
ENDROOT
BRANCH  11  12
HETATM   12  C17 UNL     1      -1.996   0.692   2.462  1.00  0.00     0.242 C 
HETATM   13  O2  UNL     1      -1.462   1.553   3.238  1.00  0.00    -0.271 OA
HETATM   14  N5  UNL     1      -1.099  -0.132   1.740  1.00  0.00    -0.358 N 
ATOM     15  H5  UNL     1      -1.477  -0.831   1.101  1.00  0.00     0.162 HD
BRANCH  14  16
HETATM   16  C18 UNL     1       0.347  -0.013   1.881  1.00  0.00     0.152 C 
BRANCH  16  17
HETATM   17  C19 UNL     1       1.035  -1.018   0.992  1.00  0.00     0.292 C 
BRANCH  17  18
HETATM   18  N6  UNL     1       2.458  -0.974   1.074  1.00  0.00     0.093 N 
HETATM   19  C20 UNL     1       3.071   0.213   0.542  1.00  0.00     0.291 C 
HETATM   20  C21 UNL     1       4.579   0.062   0.788  1.00  0.00     0.147 C 
HETATM   21  N7  UNL     1       5.061  -0.973  -0.031  1.00  0.00    -0.407 N 
HETATM   22  C28 UNL     1       4.104  -1.892  -0.509  1.00  0.00     0.147 C 
HETATM   23  C29 UNL     1       3.012  -2.183   0.492  1.00  0.00     0.291 C 
BRANCH  21  24
HETATM   24  C22 UNL     1       6.227  -0.750  -0.808  1.00  0.00     0.147 C 
BRANCH  24  25
HETATM   25  C23 UNL     1       7.483  -0.621  -0.020  1.00  0.00     0.291 C 
BRANCH  25  26
HETATM   26  N8  UNL     1       8.618  -0.428  -0.884  1.00  0.00     0.094 N 
HETATM   27  C24 UNL     1       9.856  -0.358  -0.126  1.00  0.00     0.298 C 
HETATM   28  C25 UNL     1      10.609   0.908  -0.317  1.00  0.00     0.198 C 
HETATM   29  O3  UNL     1       9.919   2.042  -0.569  1.00  0.00    -0.388 OA
HETATM   30  C26 UNL     1       8.621   1.941  -0.985  1.00  0.00     0.198 C 
HETATM   31  C27 UNL     1       8.499   0.672  -1.800  1.00  0.00     0.298 C 
ENDBRANCH  25  26
ENDBRANCH  24  25
ENDBRANCH  21  24
ENDBRANCH  17  18
ENDBRANCH  16  17
ENDBRANCH  14  16
ENDBRANCH  11  12
BRANCH   1  32
HETATM   32  C5  UNL     1      -3.772  -1.841   2.200  1.00  0.00     0.126 C 
BRANCH  32  33
HETATM   33  C4  UNL     1      -4.017  -3.062   1.409  1.00  0.00     0.020 C 
BRANCH  33  34
HETATM   34  C3  UNL     1      -3.142  -3.278   0.214  1.00  0.00     0.001 C 
BRANCH  34  35
HETATM   35  C2  UNL     1      -3.513  -4.567  -0.509  1.00  0.00    -0.004 C 
HETATM   36  C1  UNL     1      -4.943  -4.545  -0.987  1.00  0.00     0.005 C 
ENDBRANCH  34  35
ENDBRANCH  33  34
ENDBRANCH  32  33
ENDBRANCH   1  32
BRANCH   6  37
HETATM   37  C7  UNL     1      -5.056   1.464  -1.831  1.00  0.00     0.114 A 
HETATM   38  S2  UNL     1      -5.363   0.807  -3.371  1.00  0.00    -0.088 SA
HETATM   39  C8  UNL     1      -6.579   1.883  -3.893  1.00  0.00     0.065 A 
HETATM   40  C9  UNL     1      -6.711   2.741  -2.826  1.00  0.00    -0.001 A 
HETATM   41  C10 UNL     1      -7.622   3.820  -2.807  1.00  0.00     0.016 A 
HETATM   42  C14 UNL     1      -5.926   2.523  -1.765  1.00  0.00     0.070 A 
HETATM   43  C11 UNL     1      -7.735   4.668  -1.728  1.00  0.00     0.025 A 
HETATM   44  C12 UNL     1      -6.906   4.401  -0.662  1.00  0.00     0.005 A 
HETATM   45  C13 UNL     1      -7.022   5.321   0.516  1.00  0.00     0.068 C 
HETATM   46  N3  UNL     1      -6.057   3.383  -0.697  1.00  0.00    -0.358 N 
ATOM     47  H3  UNL     1      -5.464   3.227   0.118  1.00  0.00     0.166 HD
ENDBRANCH   6  37
TORSDOF 12
