REMARK  16 active torsions:
REMARK  status: ('A' for Active; 'I' for Inactive)
REMARK    1  A    between atoms: C2_2  and  C3_3 
REMARK    2  A    between atoms: C3_3  and  C4_4 
REMARK    3  A    between atoms: C4_4  and  C5_5 
REMARK    4  A    between atoms: C5_5  and  O1_6 
REMARK    5  A    between atoms: O1_6  and  C6_7 
REMARK       I    between atoms: C6_7  and  N1_9 
REMARK    6  A    between atoms: N2_12  and  C9_13 
REMARK    7  A    between atoms: C9_13  and  O3_14 
REMARK    8  A    between atoms: C9_13  and  C10_16 
REMARK    9  A    between atoms: C10_16  and  C11_17 
REMARK   10  A    between atoms: C10_16  and  N4_28 
REMARK   11  A    between atoms: C11_17  and  C12_18 
REMARK   12  A    between atoms: C12_18  and  C13_19 
REMARK       I    between atoms: C13_19  and  N3_21 
REMARK   13  A    between atoms: N3_21  and  C14_23 
REMARK   14  A    between atoms: C14_23  and  C17_26 
REMARK       I    between atoms: N4_28  and  C18_30 
REMARK   15  A    between atoms: C18_30  and  O7_32 
REMARK   16  A    between atoms: O7_32  and  C19_33 
ROOT
HETATM    1  C10 UNL     1      -0.875  -1.930  -0.062  1.00  0.00     0.161 C 
ENDROOT
BRANCH   1   2
HETATM    2  C9  UNL     1       0.188  -1.273  -0.935  1.00  0.00     0.137 C 
BRANCH   2   3
HETATM    3  N2  UNL     1       1.405  -0.710  -0.564  1.00  0.00    -0.361 N 
HETATM    4  C8  UNL     1       1.947  -0.631   0.734  1.00  0.00     0.144 C 
HETATM    5  C7  UNL     1       2.616   0.784   0.864  1.00  0.00     0.148 C 
HETATM    6  N1  UNL     1       3.690   0.808  -0.067  1.00  0.00    -0.325 N 
HETATM    7  C6  UNL     1       4.992   1.260   0.319  1.00  0.00     0.362 C 
HETATM    8  C29 UNL     1       3.481   0.302  -1.414  1.00  0.00     0.148 C 
HETATM    9  O2  UNL     1       5.208   1.486   1.529  1.00  0.00    -0.238 OA
HETATM   10  C28 UNL     1       2.092  -0.027  -1.688  1.00  0.00     0.144 C 
BRANCH   7  11
HETATM   11  O1  UNL     1       5.984   1.459  -0.596  1.00  0.00    -0.304 OA
BRANCH  11  12
HETATM   12  C5  UNL     1       7.299   1.876  -0.366  1.00  0.00     0.180 C 
BRANCH  12  13
HETATM   13  C4  UNL     1       8.202   0.875   0.284  1.00  0.00     0.027 C 
BRANCH  13  14
HETATM   14  C3  UNL     1       9.585   1.430   0.550  1.00  0.00     0.002 C 
BRANCH  14  15
HETATM   15  C2  UNL     1      10.204   1.915  -0.729  1.00  0.00    -0.004 C 
HETATM   16  C1  UNL     1      11.622   2.448  -0.536  1.00  0.00     0.005 C 
ENDBRANCH  14  15
ENDBRANCH  13  14
ENDBRANCH  12  13
ENDBRANCH  11  12
ENDBRANCH   7  11
ENDBRANCH   2   3
BRANCH   2  17
HETATM   17  O3  UNL     1      -0.176  -1.242  -2.185  1.00  0.00    -0.348 OA
ATOM     18  H3  UNL     1      -1.007  -1.626  -2.438  1.00  0.00     0.219 HD
ENDBRANCH   2  17
ENDBRANCH   1   2
BRANCH   1  19
HETATM   19  C11 UNL     1      -0.420  -2.787   0.962  1.00  0.00     0.043 C 
BRANCH  19  20
HETATM   20  C12 UNL     1      -1.503  -3.564   1.771  1.00  0.00     0.105 C 
BRANCH  20  21
HETATM   21  C13 UNL     1      -2.216  -4.403   0.763  1.00  0.00     0.218 C 
HETATM   22  O4  UNL     1      -2.960  -3.915  -0.089  1.00  0.00    -0.274 OA
HETATM   23  N3  UNL     1      -2.020  -5.840   0.773  1.00  0.00    -0.346 N 
ATOM     24  H3  UNL     1      -1.441  -6.280   1.488  1.00  0.00     0.163 HD
BRANCH  23  25
HETATM   25  C14 UNL     1      -2.654  -6.632  -0.240  1.00  0.00     0.078 C 
HETATM   26  C15 UNL     1      -2.179  -8.098  -0.008  1.00  0.00     0.046 C 
HETATM   27  C16 UNL     1      -4.152  -6.703  -0.154  1.00  0.00     0.046 C 
BRANCH  25  28
HETATM   28  C17 UNL     1      -2.136  -6.248  -1.570  1.00  0.00     0.261 C 
HETATM   29  O5  UNL     1      -1.175  -5.421  -1.551  1.00  0.00    -0.304 OA
ENDBRANCH  25  28
ENDBRANCH  23  25
ENDBRANCH  20  21
ENDBRANCH  19  20
ENDBRANCH   1  19
BRANCH   1  30
HETATM   30  N4  UNL     1      -1.604  -0.742   0.343  1.00  0.00    -0.325 N 
HETATM   31  C18 UNL     1      -2.707  -0.142  -0.223  1.00  0.00     0.362 C 
HETATM   32  O6  UNL     1      -3.404  -0.529  -1.171  1.00  0.00    -0.238 OA
ATOM     33  H4  UNL     1      -1.243  -0.279   1.177  1.00  0.00     0.165 HD
BRANCH  31  34
HETATM   34  O7  UNL     1      -3.092   1.114   0.319  1.00  0.00    -0.282 OA
BRANCH  34  35
HETATM   35  C19 UNL     1      -4.145   1.906  -0.155  1.00  0.00     0.117 C 
HETATM   36  C20 UNL     1      -3.961   2.075  -1.631  1.00  0.00     0.059 C 
HETATM   37  C21 UNL     1      -3.953   3.203   0.600  1.00  0.00     0.051 C 
HETATM   38  C22 UNL     1      -4.439   4.442  -0.058  1.00  0.00     0.020 C 
HETATM   39  C23 UNL     1      -5.920   4.621  -0.024  1.00  0.00     0.014 C 
HETATM   40  C24 UNL     1      -6.453   4.947  -1.407  1.00  0.00     0.023 C 
HETATM   41  C25 UNL     1      -6.296   5.853   0.825  1.00  0.00     0.023 C 
HETATM   42  C26 UNL     1      -6.686   3.487   0.525  1.00  0.00     0.144 C 
HETATM   43  O8  UNL     1      -7.113   3.663   1.662  1.00  0.00    -0.296 OA
HETATM   44  C27 UNL     1      -7.070   2.155  -0.000  1.00  0.00     0.156 C 
HETATM   45  S1  UNL     1      -5.663   1.046   0.212  1.00  0.00    -0.123 SA
ENDBRANCH  34  35
ENDBRANCH  31  34
ENDBRANCH   1  30
TORSDOF 16
