REMARK  18 active torsions:
REMARK  status: ('A' for Active; 'I' for Inactive)
REMARK    1  A    between atoms: C2_2  and  C3_3 
REMARK    2  A    between atoms: C3_3  and  C4_4 
REMARK    3  A    between atoms: C4_4  and  C5_5 
REMARK    4  A    between atoms: C5_5  and  O1_6 
REMARK    5  A    between atoms: O1_6  and  C6_7 
REMARK       I    between atoms: C6_7  and  N1_9 
REMARK    6  A    between atoms: N2_12  and  C9_13 
REMARK    7  A    between atoms: C9_13  and  C10_14 
REMARK    8  A    between atoms: C10_14  and  N3_15 
REMARK    9  A    between atoms: N3_15  and  C11_16 
REMARK   10  A    between atoms: C11_16  and  O3_17 
REMARK   11  A    between atoms: C11_16  and  C12_19 
REMARK   12  A    between atoms: C14_21  and  C15_22 
REMARK   13  A    between atoms: N5_32  and  C23_33 
REMARK   14  A    between atoms: C23_33  and  C24_34 
REMARK       I    between atoms: C24_34  and  N6_36 
REMARK   15  A    between atoms: N6_36  and  C25_38 
REMARK   16  A    between atoms: C25_38  and  C28_41 
REMARK   17  A    between atoms: C28_41  and  O5_42 
REMARK   18  A    between atoms: C28_41  and  O6_44 
ROOT
HETATM    1  C12 UNL     1      -2.283   0.282   0.562  1.00  0.00     0.118 A 
HETATM    2  C13 UNL     1      -3.150   1.220   1.159  1.00  0.00     0.068 A 
HETATM    3  C14 UNL     1      -4.255   1.324   0.346  1.00  0.00     0.061 A 
HETATM    4  N4  UNL     1      -4.026   0.502  -0.659  1.00  0.00    -0.297 N 
ATOM      5  H4  UNL     1      -4.669   0.370  -1.440  1.00  0.00     0.187 HD
HETATM    6  N5  UNL     1      -2.840  -0.150  -0.540  1.00  0.00    -0.278 N 
ENDROOT
BRANCH   1   7
HETATM    7  C11 UNL     1      -0.929   0.078   1.113  1.00  0.00     0.242 C 
BRANCH   7   8
HETATM    8  N3  UNL     1       0.078  -0.720   0.630  1.00  0.00    -0.390 NA
BRANCH   8   9
HETATM    9  C10 UNL     1       1.111  -1.507   0.172  1.00  0.00     0.197 C 
BRANCH   9  10
HETATM   10  C9  UNL     1       2.276  -0.673  -0.325  1.00  0.00     0.091 C 
BRANCH  10  11
HETATM   11  N2  UNL     1       3.446  -1.283  -0.812  1.00  0.00    -0.287 NA
HETATM   12  C8  UNL     1       4.235  -2.080   0.015  1.00  0.00     0.114 C 
HETATM   13  C7  UNL     1       5.390  -1.558   0.771  1.00  0.00     0.143 C 
HETATM   14  N1  UNL     1       6.001  -0.405   0.138  1.00  0.00    -0.326 N 
HETATM   15  C6  UNL     1       7.383  -0.279  -0.013  1.00  0.00     0.362 C 
HETATM   16  C31 UNL     1       4.993   0.546  -0.355  1.00  0.00     0.143 C 
HETATM   17  O2  UNL     1       8.150  -1.219   0.381  1.00  0.00    -0.238 OA
HETATM   18  C30 UNL     1       4.273  -0.192  -1.457  1.00  0.00     0.114 C 
BRANCH  15  19
HETATM   19  O1  UNL     1       8.024   0.791  -0.563  1.00  0.00    -0.304 OA
BRANCH  19  20
HETATM   20  C5  UNL     1       9.356   1.023  -0.788  1.00  0.00     0.180 C 
BRANCH  20  21
HETATM   21  C4  UNL     1      10.276   0.920   0.401  1.00  0.00     0.027 C 
BRANCH  21  22
HETATM   22  C3  UNL     1      11.660   1.288  -0.088  1.00  0.00     0.002 C 
BRANCH  22  23
HETATM   23  C2  UNL     1      12.719   1.166   0.977  1.00  0.00    -0.004 C 
HETATM   24  C1  UNL     1      12.859  -0.235   1.450  1.00  0.00     0.005 C 
ENDBRANCH  22  23
ENDBRANCH  21  22
ENDBRANCH  20  21
ENDBRANCH  19  20
ENDBRANCH  15  19
ENDBRANCH  10  11
ENDBRANCH   9  10
ENDBRANCH   8   9
ENDBRANCH   7   8
BRANCH   7  25
HETATM   25  O3  UNL     1      -0.717   0.792   2.190  1.00  0.00    -0.334 OA
ATOM     26  H3  UNL     1      -1.414   1.344   2.524  1.00  0.00     0.220 HD
ENDBRANCH   7  25
ENDBRANCH   1   7
BRANCH   6  27
HETATM   27  C23 UNL     1      -2.547  -1.307  -1.412  1.00  0.00     0.252 C 
BRANCH  27  28
HETATM   28  C24 UNL     1      -3.657  -2.266  -0.856  1.00  0.00     0.238 C 
HETATM   29  O4  UNL     1      -3.361  -3.132  -0.061  1.00  0.00    -0.272 OA
HETATM   30  N6  UNL     1      -4.937  -2.018  -1.340  1.00  0.00    -0.346 N 
ATOM     31  H6  UNL     1      -4.941  -1.259  -2.021  1.00  0.00     0.163 HD
BRANCH  30  32
HETATM   32  C25 UNL     1      -6.243  -2.545  -1.135  1.00  0.00     0.075 C 
HETATM   33  C26 UNL     1      -6.243  -4.076  -1.365  1.00  0.00     0.043 C 
HETATM   34  C27 UNL     1      -7.121  -2.053  -2.362  1.00  0.00     0.043 C 
BRANCH  32  35
HETATM   35  C28 UNL     1      -6.972  -2.169   0.026  1.00  0.00     0.283 C 
BRANCH  35  36
HETATM   36  O5  UNL     1      -6.106  -1.706   1.052  1.00  0.00    -0.369 OA
ATOM     37  H5  UNL     1      -6.593  -1.455   1.828  1.00  0.00     0.212 HD
ENDBRANCH  35  36
BRANCH  35  38
HETATM   38  O6  UNL     1      -8.199  -2.099   0.475  1.00  0.00    -0.364 OA
HETATM   39  C29 UNL     1      -8.768  -1.676   1.651  1.00  0.00     0.204 C 
ENDBRANCH  35  38
ENDBRANCH  32  35
ENDBRANCH  30  32
ENDBRANCH  27  28
ENDBRANCH   6  27
BRANCH   3  40
HETATM   40  C15 UNL     1      -5.429   2.192   0.546  1.00  0.00    -0.007 A 
HETATM   41  C16 UNL     1      -5.873   2.910  -0.574  1.00  0.00     0.020 A 
HETATM   42  C17 UNL     1      -7.068   3.589  -0.481  1.00  0.00    -0.061 A 
HETATM   43  C18 UNL     1      -7.551   4.414  -1.640  1.00  0.00     0.048 C 
HETATM   44  C19 UNL     1      -7.834   3.555   0.712  1.00  0.00     0.013 A 
HETATM   45  C20 UNL     1      -7.377   2.835   1.788  1.00  0.00    -0.061 A 
HETATM   46  C21 UNL     1      -8.208   2.688   2.998  1.00  0.00     0.048 C 
HETATM   47  C22 UNL     1      -6.165   2.171   1.655  1.00  0.00     0.020 A 
ENDBRANCH   3  40
TORSDOF 18
