REMARK  13 active torsions:
REMARK  status: ('A' for Active; 'I' for Inactive)
REMARK    1  A    between atoms: C2_2  and  O1_3 
REMARK    2  A    between atoms: O1_3  and  C3_4 
REMARK    3  A    between atoms: C3_4  and  C4_6 
REMARK    4  A    between atoms: C7_14  and  N3_15 
REMARK    5  A    between atoms: C8_17  and  C9_18 
REMARK    6  A    between atoms: C9_18  and  C10_19 
REMARK    7  A    between atoms: C10_19  and  N4_20 
REMARK       I    between atoms: N5_23  and  C13_24 
REMARK    8  A    between atoms: C13_24  and  C14_26 
REMARK    9  A    between atoms: C14_26  and  C15_27 
REMARK   10  A    between atoms: C15_27  and  C16_28 
REMARK   11  A    between atoms: C16_28  and  C17_29 
REMARK   12  A    between atoms: C17_29  and  C18_30 
REMARK   13  A    between atoms: C18_30  and  N6_31 
ROOT
HETATM    1  C4  UNL     1      -5.873   0.607  -0.708  1.00  0.00     0.136 A 
HETATM    2  N1  UNL     1      -6.080   1.995  -0.903  1.00  0.00    -0.291 N 
ATOM      3  H1  UNL     1      -6.983   2.401  -0.656  1.00  0.00     0.187 HD
HETATM    4  N2  UNL     1      -5.153   2.766  -1.387  1.00  0.00    -0.265 N 
ATOM      5  H2  UNL     1      -5.367   3.756  -1.503  1.00  0.00     0.190 HD
HETATM    6  C5  UNL     1      -3.950   2.347  -1.738  1.00  0.00     0.274 A 
HETATM    7  O3  UNL     1      -3.049   3.089  -2.196  1.00  0.00    -0.266 OA
HETATM    8  C6  UNL     1      -3.679   1.004  -1.588  1.00  0.00     0.091 A 
HETATM    9  C7  UNL     1      -2.407   0.549  -1.976  1.00  0.00     0.122 A 
HETATM   10  N7  UNL     1      -2.179  -0.756  -1.856  1.00  0.00    -0.340 N 
ATOM     11  H7  UNL     1      -1.264  -1.123  -2.120  1.00  0.00     0.167 HD
HETATM   12  C21 UNL     1      -3.110  -1.606  -1.400  1.00  0.00     0.067 A 
HETATM   13  C22 UNL     1      -2.845  -2.974  -1.443  1.00  0.00     0.063 A 
HETATM   14 CL1  UNL     1      -1.250  -3.498  -1.920  1.00  0.00    -0.082 Cl
HETATM   15  C23 UNL     1      -3.803  -3.899  -1.123  1.00  0.00     0.050 A 
HETATM   16  C24 UNL     1      -5.059  -3.474  -0.753  1.00  0.00     0.036 A 
HETATM   17 CL2  UNL     1      -6.299  -4.643  -0.346  1.00  0.00    -0.084 Cl
HETATM   18  C25 UNL     1      -5.333  -2.118  -0.703  1.00  0.00     0.038 A 
HETATM   19  C26 UNL     1      -4.379  -1.198  -1.003  1.00  0.00     0.008 A 
HETATM   20  C27 UNL     1      -4.669   0.152  -1.078  1.00  0.00     0.030 A 
ENDROOT
BRANCH   9  21
HETATM   21  N3  UNL     1      -1.613   1.405  -2.402  1.00  0.00    -0.355 N 
HETATM   22  C8  UNL     1      -0.359   1.612  -2.888  1.00  0.00     0.064 C 
ATOM     23  H3  UNL     1      -2.088   2.307  -2.378  1.00  0.00     0.166 HD
BRANCH  22  24
HETATM   24  C9  UNL     1       0.734   0.837  -2.169  1.00  0.00     0.074 C 
BRANCH  24  25
HETATM   25  C10 UNL     1       0.702   1.207  -0.726  1.00  0.00     0.277 C 
BRANCH  25  26
HETATM   26  N4  UNL     1       1.679   0.564   0.102  1.00  0.00     0.091 N 
HETATM   27  C11 UNL     1       1.450   1.027   1.459  1.00  0.00     0.292 C 
HETATM   28  C12 UNL     1       2.239   0.230   2.473  1.00  0.00     0.156 C 
HETATM   29  N5  UNL     1       3.166  -0.602   1.747  1.00  0.00    -0.349 N 
HETATM   30  C13 UNL     1       4.561  -0.468   1.956  1.00  0.00     0.219 C 
HETATM   31  C19 UNL     1       2.649  -1.570   0.824  1.00  0.00     0.156 C 
HETATM   32  O4  UNL     1       5.007   0.371   2.819  1.00  0.00    -0.273 OA
HETATM   33  C20 UNL     1       1.628  -0.860  -0.047  1.00  0.00     0.292 C 
BRANCH  30  34
HETATM   34  C14 UNL     1       5.487  -1.292   1.185  1.00  0.00     0.103 C 
BRANCH  34  35
HETATM   35  C15 UNL     1       6.931  -0.827   1.288  1.00  0.00     0.009 C 
BRANCH  35  36
HETATM   36  C16 UNL     1       7.056   0.533   0.721  1.00  0.00     0.002 C 
BRANCH  36  37
HETATM   37  C17 UNL     1       8.399   1.165   0.703  1.00  0.00     0.027 C 
BRANCH  37  38
HETATM   38  C18 UNL     1       9.096   1.376   1.988  1.00  0.00     0.229 C 
BRANCH  38  39
HETATM   39  N6  UNL     1       9.377   0.168   2.685  1.00  0.00    -0.079 N 
ATOM     40  H63 UNL     1       8.526  -0.377   2.821  1.00  0.00     0.274 HD
ATOM     41  H62 UNL     1       9.899  -0.478   2.093  1.00  0.00     0.274 HD
ATOM     42  H61 UNL     1       9.858   0.314   3.572  1.00  0.00     0.274 HD
ENDBRANCH  38  39
ENDBRANCH  37  38
ENDBRANCH  36  37
ENDBRANCH  35  36
ENDBRANCH  34  35
ENDBRANCH  30  34
ENDBRANCH  25  26
ENDBRANCH  24  25
ENDBRANCH  22  24
ENDBRANCH   9  21
BRANCH   1  43
HETATM   43  C3  UNL     1      -6.884  -0.011   0.082  1.00  0.00     0.312 C 
HETATM   44  O2  UNL     1      -7.039  -0.963   0.857  1.00  0.00    -0.258 OA
BRANCH  43  45
HETATM   45  O1  UNL     1      -8.196   0.638  -0.030  1.00  0.00    -0.317 OA
BRANCH  45  46
HETATM   46  C2  UNL     1      -9.300   0.118   0.687  1.00  0.00     0.175 C 
HETATM   47  C1  UNL     1     -10.472   1.006   0.330  1.00  0.00     0.034 C 
ENDBRANCH  45  46
ENDBRANCH  43  45
ENDBRANCH   1  43
TORSDOF 13
