REMARK  13 active torsions:
REMARK  status: ('A' for Active; 'I' for Inactive)
REMARK    1  A    between atoms: O1_2  and  C2_3 
REMARK    2  A    between atoms: C2_3  and  C3_4 
REMARK    3  A    between atoms: C3_4  and  O2_5 
REMARK    4  A    between atoms: O2_5  and  C4_6 
REMARK    5  A    between atoms: C4_6  and  C5_7 
REMARK    6  A    between atoms: C5_7  and  N1_8 
REMARK    7  A    between atoms: N2_11  and  C8_12 
REMARK    8  A    between atoms: C10_14  and  N3_15 
REMARK    9  A    between atoms: N3_15  and  C11_17 
REMARK   10  A    between atoms: C15_29  and  N7_30 
REMARK   11  A    between atoms: C16_35  and  C17_36 
REMARK   12  A    between atoms: C17_36  and  N9_37 
REMARK   13  A    between atoms: N9_37  and  C19_40 
ROOT
HETATM    1  C8  UNL     1       1.479   0.421  -1.252  1.00  0.00     0.124 A 
HETATM    2  C9  UNL     1       2.652   0.054  -0.674  1.00  0.00     0.098 A 
HETATM    3  C10 UNL     1       3.893   0.055  -1.303  1.00  0.00     0.126 A 
HETATM    4  N6  UNL     1       3.943   0.456  -2.593  1.00  0.00    -0.177 N 
ATOM      5  H6  UNL     1       4.828   0.477  -3.100  1.00  0.00     0.185 HD
HETATM    6  C15 UNL     1       2.796   0.826  -3.190  1.00  0.00     0.679 A 
HETATM    7  N8  UNL     1       1.600   0.821  -2.580  1.00  0.00    -0.177 N 
ATOM      8  H8  UNL     1       0.770   1.114  -3.096  1.00  0.00     0.185 HD
ENDROOT
BRANCH   1   9
HETATM    9  N2  UNL     1       0.249   0.456  -0.621  1.00  0.00    -0.330 N 
HETATM   10  C7  UNL     1      -0.341   1.806  -0.259  1.00  0.00     0.157 C 
HETATM   11  C6  UNL     1      -1.617   1.625  -1.109  1.00  0.00     0.295 C 
HETATM   12  N1  UNL     1      -1.987   0.271  -0.874  1.00  0.00     0.120 N 
HETATM   13  C16 UNL     1      -0.817  -0.371  -0.155  1.00  0.00     0.381 C 
BRANCH  12  14
HETATM   14  C5  UNL     1      -3.129   0.236   0.014  1.00  0.00     0.301 C 
BRANCH  14  15
HETATM   15  C4  UNL     1      -4.394   0.724  -0.610  1.00  0.00     0.198 C 
BRANCH  15  16
HETATM   16  O2  UNL     1      -5.477   0.678   0.266  1.00  0.00    -0.387 OA
BRANCH  16  17
HETATM   17  C3  UNL     1      -5.379   1.475   1.369  1.00  0.00     0.193 C 
BRANCH  17  18
HETATM   18  C2  UNL     1      -5.267   2.945   1.031  1.00  0.00     0.193 C 
BRANCH  18  19
HETATM   19  O1  UNL     1      -5.159   3.771   2.125  1.00  0.00    -0.394 OA
HETATM   20  C1  UNL     1      -6.201   3.740   3.018  1.00  0.00     0.201 C 
ENDBRANCH  18  19
ENDBRANCH  17  18
ENDBRANCH  16  17
ENDBRANCH  15  16
ENDBRANCH  14  15
ENDBRANCH  12  14
BRANCH  13  21
HETATM   21  C17 UNL     1      -0.839  -1.807  -0.385  1.00  0.00     0.303 C 
BRANCH  21  22
HETATM   22  N9  UNL     1       0.092  -2.675   0.214  1.00  0.00     0.036 N 
HETATM   23  C18 UNL     1       0.580  -2.281   1.492  1.00  0.00     0.363 C 
HETATM   24  O3  UNL     1       1.123  -3.048  -0.570  1.00  0.00    -0.060 OA
BRANCH  22  25
HETATM   25  C19 UNL     1      -0.586  -3.993   0.479  1.00  0.00     0.252 C 
HETATM   26  C20 UNL     1       0.431  -4.845   1.200  1.00  0.00     0.050 C 
HETATM   27  C21 UNL     1      -0.849  -4.658  -0.869  1.00  0.00     0.050 C 
ENDBRANCH  22  25
ENDBRANCH  21  22
ENDBRANCH  13  21
ENDBRANCH   1   9
BRANCH   3  28
HETATM   28  N3  UNL     1       5.079  -0.381  -0.633  1.00  0.00    -0.327 N 
ATOM     29  H3  UNL     1       5.232  -1.372  -0.446  1.00  0.00     0.169 HD
BRANCH  28  30
HETATM   30  C11 UNL     1       5.944   0.487  -0.272  1.00  0.00     0.128 A 
HETATM   31  N4  UNL     1       5.758   1.781  -0.502  1.00  0.00    -0.337 N 
HETATM   32  C12 UNL     1       6.696   2.714  -0.151  1.00  0.00     0.183 A 
ATOM     33  H4  UNL     1       4.895   2.088  -0.951  1.00  0.00     0.168 HD
HETATM   34  N5  UNL     1       7.848   2.329   0.445  1.00  0.00    -0.342 N 
HETATM   35  C13 UNL     1       8.051   1.045   0.682  1.00  0.00     0.125 A 
ATOM     36  H5  UNL     1       8.550   3.021   0.708  1.00  0.00     0.167 HD
HETATM   37 CL1  UNL     1       9.545   0.532   1.439  1.00  0.00    -0.063 Cl
HETATM   38  C14 UNL     1       7.106   0.073   0.334  1.00  0.00     0.093 A 
HETATM   39 BR1  UNL     1       7.423  -1.758   0.705  1.00  0.00    -0.044 Br
ENDBRANCH  28  30
ENDBRANCH   3  28
BRANCH   6  40
HETATM   40  N7  UNL     1       2.878   1.231  -4.434  1.00  0.00    -0.234 N 
ATOM     41  H72 UNL     1       3.787   1.235  -4.897  1.00  0.00     0.174 HD
ATOM     42  H71 UNL     1       2.008   1.512  -4.887  1.00  0.00     0.174 HD
ENDBRANCH   6  40
TORSDOF 13
