REMARK  12 active torsions:
REMARK  status: ('A' for Active; 'I' for Inactive)
REMARK    1  A    between atoms: O1_2  and  C2_3 
REMARK    2  A    between atoms: C2_3  and  C3_4 
REMARK    3  A    between atoms: C3_4  and  O2_5 
REMARK    4  A    between atoms: O2_5  and  C4_6 
REMARK    5  A    between atoms: C5_9  and  N2_10 
REMARK    6  A    between atoms: N2_10  and  C6_12 
REMARK    7  A    between atoms: C6_12  and  C7_13 
REMARK    8  A    between atoms: C7_13  and  N3_14 
REMARK    9  A    between atoms: N5_23  and  C13_25 
REMARK   10  A    between atoms: C13_25  and  C14_26 
REMARK   11  A    between atoms: C14_26  and  C15_27 
REMARK   12  A    between atoms: C21_35  and  C22_36 
ROOT
HETATM    1  C4  UNL     1       0.732   1.350   0.580  1.00  0.00     0.175 A 
HETATM    2  N1  UNL     1       1.815   0.509   0.661  1.00  0.00    -0.169 N 
ATOM      3  H1  UNL     1       2.719   0.820   0.305  1.00  0.00     0.186 HD
HETATM    4  C5  UNL     1       1.705  -0.708   1.197  1.00  0.00     0.681 A 
HETATM    5  N4  UNL     1       0.478  -1.072   1.655  1.00  0.00    -0.176 N 
ATOM      6  H4  UNL     1       0.377  -2.000   2.067  1.00  0.00     0.186 HD
HETATM    7  C12 UNL     1      -0.597  -0.295   1.600  1.00  0.00     0.135 A 
HETATM    8  N5  UNL     1      -1.759  -0.625   2.022  1.00  0.00    -0.375 N 
ATOM      9  H5  UNL     1      -2.518   0.051   1.929  1.00  0.00     0.161 HD
HETATM   10  C21 UNL     1      -0.494   0.996   1.036  1.00  0.00     0.104 A 
ENDROOT
BRANCH  10  11
HETATM   11  C22 UNL     1      -1.665   1.871   1.047  1.00  0.00     0.124 A 
HETATM   12  N7  UNL     1      -2.929   1.444   1.378  1.00  0.00    -0.340 N 
HETATM   13  C23 UNL     1      -3.805   2.448   1.286  1.00  0.00     0.062 A 
ATOM     14  H7  UNL     1      -3.165   0.491   1.656  1.00  0.00     0.167 HD
HETATM   15  C24 UNL     1      -5.168   2.574   1.499  1.00  0.00     0.058 A 
HETATM   16  C28 UNL     1      -3.111   3.563   0.887  1.00  0.00     0.063 A 
HETATM   17  C25 UNL     1      -5.832   3.774   1.321  1.00  0.00     0.074 A 
HETATM   18 CL1  UNL     1      -7.550   3.839   1.613  1.00  0.00    -0.081 Cl
HETATM   19  C26 UNL     1      -5.124   4.897   0.918  1.00  0.00     0.140 A 
HETATM   20  F1  UNL     1      -5.779   6.070   0.745  1.00  0.00    -0.204 F 
HETATM   21  C27 UNL     1      -3.770   4.760   0.710  1.00  0.00     0.075 A 
HETATM   22  N8  UNL     1      -1.813   3.165   0.754  1.00  0.00    -0.340 N 
ATOM     23  H8  UNL     1      -1.051   3.779   0.467  1.00  0.00     0.167 HD
ENDBRANCH  10  11
BRANCH   1  24
HETATM   24  O2  UNL     1       0.921   2.614  -0.006  1.00  0.00    -0.332 OA
BRANCH  24  25
HETATM   25  C3  UNL     1       0.861   2.553  -1.456  1.00  0.00     0.203 C 
BRANCH  25  26
HETATM   26  C2  UNL     1       1.062   3.917  -2.038  1.00  0.00     0.193 C 
BRANCH  26  27
HETATM   27  O1  UNL     1       1.011   3.871  -3.402  1.00  0.00    -0.394 OA
HETATM   28  C1  UNL     1      -0.149   3.420  -3.967  1.00  0.00     0.201 C 
ENDBRANCH  26  27
ENDBRANCH  25  26
ENDBRANCH  24  25
ENDBRANCH   1  24
BRANCH   8  29
HETATM   29  C13 UNL     1      -2.046  -1.882   2.612  1.00  0.00     0.127 C 
BRANCH  29  30
HETATM   30  C14 UNL     1      -2.330  -2.903   1.542  1.00  0.00     0.076 C 
BRANCH  30  31
HETATM   31  C15 UNL     1      -3.484  -2.554   0.677  1.00  0.00     0.011 A 
HETATM   32  C16 UNL     1      -3.234  -1.837  -0.467  1.00  0.00     0.025 A 
HETATM   33  C17 UNL     1      -4.300  -1.503  -1.282  1.00  0.00     0.004 A 
HETATM   34  C18 UNL     1      -5.585  -1.881  -0.953  1.00  0.00     0.024 A 
HETATM   35  C19 UNL     1      -5.775  -2.599   0.207  1.00  0.00     0.005 A 
HETATM   36  C20 UNL     1      -7.164  -2.996   0.544  1.00  0.00     0.068 C 
HETATM   37  N6  UNL     1      -4.744  -2.924   0.998  1.00  0.00    -0.363 N 
ATOM     38  H6  UNL     1      -4.911  -3.456   1.852  1.00  0.00     0.165 HD
ENDBRANCH  30  31
ENDBRANCH  29  30
ENDBRANCH   8  29
BRANCH   4  39
HETATM   39  N2  UNL     1       2.670  -1.530   1.305  1.00  0.00    -0.224 N 
ATOM     40  H2  UNL     1       2.429  -2.422   1.738  1.00  0.00     0.177 HD
BRANCH  39  41
HETATM   41  C6  UNL     1       4.026  -1.402   0.919  1.00  0.00     0.168 C 
BRANCH  41  42
HETATM   42  C7  UNL     1       4.394  -2.479  -0.081  1.00  0.00     0.292 C 
BRANCH  42  43
HETATM   43  N3  UNL     1       5.751  -2.410  -0.510  1.00  0.00     0.094 N 
HETATM   44  C8  UNL     1       6.713  -2.725   0.510  1.00  0.00     0.298 C 
HETATM   45  C9  UNL     1       8.067  -2.839  -0.182  1.00  0.00     0.198 C 
HETATM   46  O3  UNL     1       7.947  -2.777  -1.562  1.00  0.00    -0.388 OA
HETATM   47  C10 UNL     1       7.408  -1.587  -2.010  1.00  0.00     0.198 C 
HETATM   48  C11 UNL     1       6.087  -1.270  -1.297  1.00  0.00     0.298 C 
ENDBRANCH  42  43
ENDBRANCH  41  42
ENDBRANCH  39  41
ENDBRANCH   4  39
TORSDOF 12
