REMARK  13 active torsions:
REMARK  status: ('A' for Active; 'I' for Inactive)
REMARK    1  A    between atoms: C2_2  and  C3_3 
REMARK    2  A    between atoms: C3_3  and  N1_4 
REMARK    3  A    between atoms: N1_4  and  C4_6 
REMARK    4  A    between atoms: C5_9  and  N3_10 
REMARK    5  A    between atoms: N3_10  and  C6_12 
REMARK    6  A    between atoms: C6_12  and  C7_13 
REMARK    7  A    between atoms: C7_13  and  N4_14 
REMARK    8  A    between atoms: N5_17  and  C10_18 
REMARK    9  A    between atoms: N7_31  and  C19_33 
REMARK   10  A    between atoms: C19_33  and  C20_34 
REMARK   11  A    between atoms: C22_36  and  O1_37 
REMARK   12  A    between atoms: C24_39  and  O2_40 
REMARK   13  A    between atoms: C26_42  and  O3_43 
ROOT
HETATM    1  C4  UNL     1      -0.476   2.554   0.905  1.00  0.00     0.707 A 
HETATM    2  N2  UNL     1       0.303   1.453   0.697  1.00  0.00    -0.022 N 
ATOM      3  H2  UNL     1       1.233   1.395   1.113  1.00  0.00     0.203 HD
HETATM    4  C5  UNL     1      -0.160   0.457  -0.052  1.00  0.00     0.707 A 
HETATM    5  N6  UNL     1      -1.400   0.504  -0.622  1.00  0.00    -0.022 N 
ATOM      6  H6  UNL     1      -1.728  -0.276  -1.191  1.00  0.00     0.203 HD
HETATM    7  C18 UNL     1      -2.183   1.567  -0.436  1.00  0.00     0.707 A 
HETATM    8  N7  UNL     1      -3.361   1.699  -0.926  1.00  0.00    -0.221 N 
ATOM      9  H7  UNL     1      -3.855   2.564  -0.706  1.00  0.00     0.178 HD
HETATM   10  N8  UNL     1      -1.687   2.581   0.338  1.00  0.00    -0.022 N 
ATOM     11  H8  UNL     1      -2.273   3.402   0.491  1.00  0.00     0.203 HD
ENDROOT
BRANCH   4  12
HETATM   12  N3  UNL     1       0.530  -0.583  -0.265  1.00  0.00    -0.224 N 
ATOM     13  H3  UNL     1       0.092  -1.293  -0.851  1.00  0.00     0.177 HD
BRANCH  12  14
HETATM   14  C6  UNL     1       1.842  -0.891   0.209  1.00  0.00     0.158 C 
BRANCH  14  15
HETATM   15  C7  UNL     1       2.788  -0.768  -0.972  1.00  0.00     0.143 C 
BRANCH  15  16
HETATM   16  N4  UNL     1       4.148  -1.061  -0.595  1.00  0.00    -0.376 N 
HETATM   17  C8  UNL     1       4.481  -2.428  -0.247  1.00  0.00     0.143 C 
HETATM   18  C9  UNL     1       5.719  -2.554   0.566  1.00  0.00     0.143 C 
HETATM   19  N5  UNL     1       6.843  -1.777   0.044  1.00  0.00    -0.375 N 
HETATM   20  C12 UNL     1       6.515  -0.423  -0.235  1.00  0.00     0.096 A 
HETATM   21  C13 UNL     1       7.506   0.530  -0.198  1.00  0.00     0.146 A 
HETATM   22  C17 UNL     1       5.184  -0.094  -0.546  1.00  0.00     0.062 A 
HETATM   23  F1  UNL     1       8.749   0.130   0.103  1.00  0.00    -0.204 F 
HETATM   24  C14 UNL     1       7.210   1.849  -0.469  1.00  0.00     0.068 A 
HETATM   25  C15 UNL     1       5.904   2.180  -0.774  1.00  0.00     0.039 A 
HETATM   26 CL1  UNL     1       5.460   3.826  -1.125  1.00  0.00    -0.084 Cl
HETATM   27  C16 UNL     1       4.903   1.211  -0.810  1.00  0.00     0.055 A 
BRANCH  19  28
HETATM   28  C10 UNL     1       8.132  -2.358  -0.158  1.00  0.00     0.119 C 
HETATM   29  C11 UNL     1       8.863  -2.760   1.103  1.00  0.00     0.026 C 
ENDBRANCH  19  28
ENDBRANCH  15  16
ENDBRANCH  14  15
ENDBRANCH  12  14
ENDBRANCH   4  12
BRANCH   1  30
HETATM   30  N1  UNL     1      -0.001   3.487   1.628  1.00  0.00    -0.222 N 
ATOM     31  H1  UNL     1       0.935   3.359   2.011  1.00  0.00     0.178 HD
BRANCH  30  32
HETATM   32  C3  UNL     1      -0.689   4.708   1.943  1.00  0.00     0.164 C 
BRANCH  32  33
HETATM   33  C2  UNL     1      -0.293   5.755   0.931  1.00  0.00    -0.017 C 
HETATM   34  C1  UNL     1      -1.194   6.325   0.167  1.00  0.00     0.008 C 
ENDBRANCH  32  33
ENDBRANCH  30  32
ENDBRANCH   1  30
BRANCH   8  35
HETATM   35  C19 UNL     1      -4.048   0.759  -1.746  1.00  0.00     0.176 C 
BRANCH  35  36
HETATM   36  C20 UNL     1      -4.940  -0.127  -0.935  1.00  0.00    -0.035 A 
HETATM   37  C21 UNL     1      -4.584  -1.379  -0.505  1.00  0.00     0.048 A 
HETATM   38  C22 UNL     1      -5.412  -2.185   0.242  1.00  0.00     0.104 A 
HETATM   39  C24 UNL     1      -6.654  -1.701   0.569  1.00  0.00     0.135 A 
HETATM   40  C26 UNL     1      -7.064  -0.442   0.160  1.00  0.00     0.104 A 
HETATM   41  C28 UNL     1      -6.196   0.344  -0.596  1.00  0.00     0.048 A 
BRANCH  38  42
HETATM   42  O1  UNL     1      -4.963  -3.433   0.628  1.00  0.00    -0.353 OA
HETATM   43  C23 UNL     1      -3.677  -3.876   0.263  1.00  0.00     0.210 C 
ENDBRANCH  38  42
BRANCH  39  44
HETATM   44  O2  UNL     1      -7.525  -2.483   1.324  1.00  0.00    -0.351 OA
HETATM   45  C25 UNL     1      -8.401  -3.344   0.620  1.00  0.00     0.210 C 
ENDBRANCH  39  44
BRANCH  40  46
HETATM   46  O3  UNL     1      -8.309   0.068   0.476  1.00  0.00    -0.353 OA
HETATM   47  C27 UNL     1      -8.699   1.352   0.047  1.00  0.00     0.210 C 
ENDBRANCH  40  46
ENDBRANCH  35  36
ENDBRANCH   8  35
TORSDOF 13
