REMARK  9 active torsions:
REMARK  status: ('A' for Active; 'I' for Inactive)
REMARK    1  A    between atoms: C2_2  and  C3_3 
REMARK    2  A    between atoms: C3_3  and  O1_4 
REMARK    3  A    between atoms: O1_4  and  C4_5 
REMARK    4  A    between atoms: C4_5  and  C5_7 
REMARK    5  A    between atoms: C5_7  and  C6_8 
REMARK    6  A    between atoms: C6_8  and  O3_10 
REMARK    7  A    between atoms: C6_8  and  C8_12 
REMARK    8  A    between atoms: C15_20  and  C16_21 
REMARK    9  A    between atoms: C16_21  and  O5_24 
ROOT
HETATM    1  C8  UNL     1       0.171  -1.173   0.054  1.00  0.00     0.093 C 
HETATM    2  C9  UNL     1       0.355  -2.517   0.629  1.00  0.00     0.044 C 
HETATM    3  C10 UNL     1      -0.500  -3.372  -0.300  1.00  0.00     0.035 C 
HETATM    4  C11 UNL     1      -1.105  -2.407  -1.322  1.00  0.00     0.129 C 
HETATM    5  O4  UNL     1       0.057  -1.552  -1.309  1.00  0.00    -0.371 OA
HETATM    6  C12 UNL     1      -2.200  -1.603  -0.973  1.00  0.00     0.050 C 
HETATM    7  C13 UNL     1      -3.572  -1.424  -1.475  1.00  0.00     0.129 C 
HETATM    8  C14 UNL     1      -4.066  -0.134  -0.769  1.00  0.00     0.040 C 
HETATM    9  C15 UNL     1      -3.258   0.401   0.351  1.00  0.00     0.026 C 
HETATM   10  C19 UNL     1      -2.178  -0.449   0.976  1.00  0.00     0.002 C 
HETATM   11  C20 UNL     1      -0.782  -0.229   0.595  1.00  0.00     0.047 C 
HETATM   12  C21 UNL     1      -2.610  -1.799   0.446  1.00  0.00     0.023 C 
HETATM   13  C22 UNL     1      -4.082  -2.099   0.482  1.00  0.00     0.173 C 
HETATM   14  O6  UNL     1      -4.360  -2.420  -0.868  1.00  0.00    -0.385 OA
ENDROOT
BRANCH   1  15
HETATM   15  C6  UNL     1       1.543  -0.518   0.126  1.00  0.00     0.094 C 
HETATM   16  C7  UNL     1       2.649  -1.453  -0.260  1.00  0.00     0.049 C 
BRANCH  15  17
HETATM   17  C5  UNL     1       1.707   0.744  -0.618  1.00  0.00     0.151 C 
BRANCH  17  18
HETATM   18  C4  UNL     1       3.023   1.354  -0.256  1.00  0.00     0.261 C 
HETATM   19  O2  UNL     1       3.426   2.408  -0.867  1.00  0.00    -0.265 OA
BRANCH  18  20
HETATM   20  O1  UNL     1       3.870   0.873   0.706  1.00  0.00    -0.321 OA
BRANCH  20  21
HETATM   21  C3  UNL     1       5.102   1.416   1.064  1.00  0.00     0.178 C 
BRANCH  21  22
HETATM   22  C2  UNL     1       6.122   1.450  -0.022  1.00  0.00     0.022 C 
HETATM   23  C1  UNL     1       7.420   2.053   0.516  1.00  0.00     0.007 C 
ENDBRANCH  21  22
ENDBRANCH  20  21
ENDBRANCH  18  20
ENDBRANCH  17  18
ENDBRANCH  15  17
BRANCH  15  24
HETATM   24  O3  UNL     1       1.737  -0.173   1.488  1.00  0.00    -0.387 OA
ATOM     25  H3  UNL     1       1.631  -0.986   1.967  1.00  0.00     0.210 HD
ENDBRANCH  15  24
ENDBRANCH   1  15
BRANCH   9  26
HETATM   26  C16 UNL     1      -2.943   1.883   0.239  1.00  0.00     0.055 C 
HETATM   27  C17 UNL     1      -4.299   2.627   0.218  1.00  0.00     0.045 C 
HETATM   28  C18 UNL     1      -2.224   2.369   1.450  1.00  0.00     0.045 C 
BRANCH  26  29
HETATM   29  O5  UNL     1      -2.380   2.261  -0.971  1.00  0.00    -0.390 OA
ATOM     30  H5  UNL     1      -2.183   3.188  -1.041  1.00  0.00     0.210 HD
ENDBRANCH  26  29
ENDBRANCH   9  26
TORSDOF 9
