REMARK  1 active torsions:
REMARK  status: ('A' for Active; 'I' for Inactive)
REMARK    1  A    between atoms: N1_1  and  C1_4 
ROOT
HETATM    1  C1  UNL     1      -0.019   0.788   0.007  1.00  0.00     0.682 A 
HETATM    2  N2  UNL     1      -1.239   0.253   0.108  1.00  0.00    -0.150 N 
ATOM      3  H2  UNL     1      -2.026   0.898   0.180  1.00  0.00     0.188 HD
HETATM    4  C2  UNL     1      -1.520  -1.062   0.123  1.00  0.00     0.307 A 
HETATM    5  O1  UNL     1      -2.724  -1.477   0.223  1.00  0.00    -0.259 OA
HETATM    6  S1  UNL     1      -0.159  -2.079  -0.000  1.00  0.00     0.033 SA
HETATM    7  C3  UNL     1       1.296  -1.201  -0.119  1.00  0.00     0.307 A 
HETATM    8  O2  UNL     1       2.450  -1.722  -0.221  1.00  0.00    -0.259 OA
HETATM    9  N3  UNL     1       1.137   0.129  -0.097  1.00  0.00    -0.150 N 
ATOM     10  H3  UNL     1       1.983   0.694  -0.167  1.00  0.00     0.188 HD
ENDROOT
BRANCH   1  11
HETATM   11  N1  UNL     1      -0.014   2.108   0.015  1.00  0.00    -0.234 N 
ATOM     12  H12 UNL     1      -0.897   2.612   0.094  1.00  0.00     0.174 HD
ATOM     13  H11 UNL     1       0.917   2.516  -0.062  1.00  0.00     0.174 HD
ENDBRANCH   1  11
TORSDOF 1
