REMARK  1 active torsions:
REMARK  status: ('A' for Active; 'I' for Inactive)
REMARK    1  A    between atoms: N1_1  and  C1_4 
ROOT
HETATM    1  C1  UNL     1      -1.027   0.761  -0.023  1.00  0.00     0.171 C 
HETATM    2  N2  UNL     1      -1.607  -0.366   0.402  1.00  0.00    -0.334 N 
ATOM      3  H2  UNL     1      -2.604  -0.327   0.616  1.00  0.00     0.168 HD
HETATM    4  C2  UNL     1      -0.976  -1.565   0.574  1.00  0.00     0.200 C 
HETATM    5  N3  UNL     1       0.343  -1.817   0.664  1.00  0.00    -0.185 N 
ATOM      6  H3  UNL     1       0.617  -2.670   1.152  1.00  0.00     0.185 HD
HETATM    7  C3  UNL     1       1.334  -1.054   0.174  1.00  0.00     0.719 A 
HETATM    8  N4  UNL     1       2.669  -1.097  -0.107  1.00  0.00    -0.113 N 
ATOM      9  H4  UNL     1       3.391  -1.811  -0.015  1.00  0.00     0.203 HD
HETATM   10  N5  UNL     1       2.658   0.155  -0.547  1.00  0.00     0.018 NA
HETATM   11  N6  UNL     1       1.365   0.210  -0.279  1.00  0.00    -0.027 N 
HETATM   12  C4  UNL     1       0.283   1.038  -0.331  1.00  0.00     0.324 C 
HETATM   13  O1  UNL     1       0.563   2.190  -0.715  1.00  0.00    -0.262 OA
ENDROOT
BRANCH   1  14
HETATM   14  N1  UNL     1      -1.816   1.758  -0.171  1.00  0.00    -0.381 N 
ATOM     15  H12 UNL     1      -2.789   1.552   0.058  1.00  0.00     0.157 HD
ATOM     16  H11 UNL     1      -1.373   2.618  -0.495  1.00  0.00     0.157 HD
ENDBRANCH   1  14
TORSDOF 1
