REMARK  6 active torsions:
REMARK  status: ('A' for Active; 'I' for Inactive)
REMARK    1  A    between atoms: O1_1  and  C1_3 
REMARK    2  A    between atoms: C1_3  and  O2_4 
REMARK    3  A    between atoms: O2_4  and  C2_5 
REMARK    4  A    between atoms: C2_5  and  C3_6 
REMARK    5  A    between atoms: C8_11  and  N1_12 
REMARK    6  A    between atoms: N1_12  and  C9_14 
ROOT
HETATM    1  C3  UNL     1       1.379   0.620  -1.012  1.00  0.00     0.032 C 
HETATM    2  C4  UNL     1       2.074   1.925  -0.922  1.00  0.00     0.009 C 
HETATM    3  C5  UNL     1       1.525   2.957  -0.008  1.00  0.00     0.001 C 
HETATM    4  C6  UNL     1       0.640   2.528   1.102  1.00  0.00     0.002 C 
HETATM    5  C7  UNL     1       0.341   1.038   1.112  1.00  0.00     0.025 C 
HETATM    6  C8  UNL     1       0.014   0.686  -0.280  1.00  0.00     0.083 C 
ENDROOT
BRANCH   6   7
HETATM    7  N1  UNL     1      -0.794  -0.394  -0.610  1.00  0.00    -0.411 N 
ATOM      8  H1  UNL     1      -0.396  -1.320  -0.767  1.00  0.00     0.154 HD
BRANCH   7   9
HETATM    9  C9  UNL     1      -2.186  -0.169  -0.722  1.00  0.00     0.104 C 
HETATM   10  C10 UNL     1      -2.978   0.105   0.502  1.00  0.00     0.054 C 
HETATM   11  C11 UNL     1      -3.373  -1.332   0.921  1.00  0.00     0.234 C 
HETATM   12  N2  UNL     1      -3.371  -2.138  -0.256  1.00  0.00    -0.073 N 
HETATM   13  C12 UNL     1      -2.958  -1.318  -1.364  1.00  0.00     0.256 C 
ATOM     14  H22 UNL     1      -2.802  -2.978  -0.156  1.00  0.00     0.277 HD
ATOM     15  H21 UNL     1      -4.267  -2.597  -0.419  1.00  0.00     0.277 HD
ENDBRANCH   7   9
ENDBRANCH   6   7
BRANCH   1  16
HETATM   16  C2  UNL     1       2.225  -0.507  -0.484  1.00  0.00     0.177 C 
BRANCH  16  17
HETATM   17  O2  UNL     1       1.618  -1.746  -0.518  1.00  0.00    -0.367 OA
BRANCH  17  18
HETATM   18  C1  UNL     1       2.478  -2.688   0.010  1.00  0.00     0.334 C 
BRANCH  18  19
HETATM   19  O1  UNL     1       2.819  -2.374   1.340  1.00  0.00    -0.377 OA
ATOM     20  H1  UNL     1       3.411  -3.022   1.703  1.00  0.00     0.212 HD
ENDBRANCH  18  19
ENDBRANCH  17  18
ENDBRANCH  16  17
ENDBRANCH   1  16
TORSDOF 6
