REMARK  7 active torsions:
REMARK  status: ('A' for Active; 'I' for Inactive)
REMARK    1  A    between atoms: C2_2  and  C3_3 
REMARK    2  A    between atoms: C4_5  and  C5_6 
REMARK    3  A    between atoms: C5_6  and  N1_7 
REMARK    4  A    between atoms: C5_6  and  C11_14 
REMARK    5  A    between atoms: N1_7  and  C6_9 
REMARK    6  A    between atoms: C11_14  and  N3_18 
REMARK    7  A    between atoms: N3_18  and  N4_20 
ROOT
HETATM    1  C5  UNL     1      -0.870  -0.583   0.530  1.00  0.00     0.083 C 
ENDROOT
BRANCH   1   2
HETATM    2  C4  UNL     1      -1.689   0.590   0.264  1.00  0.00     0.208 A 
HETATM    3  C3  UNL     1      -2.498   0.863  -0.910  1.00  0.00     0.179 A 
HETATM    4  O1  UNL     1      -1.291   1.588  -0.633  1.00  0.00    -0.365 OA
BRANCH   3   5
HETATM    5  C2  UNL     1      -3.683   1.795  -0.809  1.00  0.00    -0.003 C 
HETATM    6  C1  UNL     1      -3.938   2.716  -1.713  1.00  0.00     0.009 C 
ENDBRANCH   3   5
ENDBRANCH   1   2
BRANCH   1   7
HETATM    7  N1  UNL     1       0.454  -0.278   1.078  1.00  0.00    -0.383 N 
ATOM      8  H1  UNL     1       0.742  -0.613   1.997  1.00  0.00     0.160 HD
BRANCH   7   9
HETATM    9  C6  UNL     1       1.308   0.498   0.276  1.00  0.00     0.081 C 
HETATM   10  C7  UNL     1       1.716  -0.068  -1.050  1.00  0.00     0.025 C 
HETATM   11  C8  UNL     1       2.811   0.953  -1.427  1.00  0.00     0.002 C 
HETATM   12  C9  UNL     1       3.675   0.858  -0.177  1.00  0.00     0.002 C 
HETATM   13  C10 UNL     1       2.698   0.645   0.937  1.00  0.00     0.025 C 
ENDBRANCH   7   9
ENDBRANCH   1   7
BRANCH   1  14
HETATM   14  C11 UNL     1      -0.833  -1.723  -0.374  1.00  0.00     0.138 C 
HETATM   15  N2  UNL     1      -1.478  -1.862  -1.440  1.00  0.00    -0.383 N 
ATOM     16  H22 UNL     1      -2.075  -1.070  -1.678  1.00  0.00     0.157 HD
ATOM     17  H21 UNL     1      -1.452  -2.661  -2.074  1.00  0.00     0.157 HD
BRANCH  14  18
HETATM   18  N3  UNL     1       0.025  -2.861  -0.032  1.00  0.00    -0.291 N 
ATOM     19  H3  UNL     1       0.837  -3.078  -0.610  1.00  0.00     0.188 HD
BRANCH  18  20
HETATM   20  N4  UNL     1      -0.267  -3.652   1.088  1.00  0.00    -0.344 N 
ATOM     21  H42 UNL     1      -1.082  -3.421   1.656  1.00  0.00     0.176 HD
ATOM     22  H41 UNL     1       0.330  -4.444   1.326  1.00  0.00     0.176 HD
ENDBRANCH  18  20
ENDBRANCH  14  18
ENDBRANCH   1  14
TORSDOF 7
