REMARK  7 active torsions:
REMARK  status: ('A' for Active; 'I' for Inactive)
REMARK    1  A    between atoms: C2_2  and  O1_3 
REMARK    2  A    between atoms: C2_2  and  C3_5 
REMARK    3  A    between atoms: C3_5  and  C4_6 
REMARK    4  A    between atoms: C4_6  and  C5_7 
REMARK    5  A    between atoms: C4_6  and  C11_17 
REMARK    6  A    between atoms: C6_8  and  C7_9 
REMARK    7  A    between atoms: C11_17  and  O2_19 
ROOT
HETATM    1  C4  UNL     1      -1.388  -0.444  -1.001  1.00  0.00     0.038 C 
ENDROOT
BRANCH   1   2
HETATM    2  C3  UNL     1      -2.450   0.451  -0.449  1.00  0.00     0.042 C 
BRANCH   2   3
HETATM    3  C2  UNL     1      -2.431   0.657   1.026  1.00  0.00     0.114 C 
HETATM    4  C1  UNL     1      -3.606   1.602   1.328  1.00  0.00     0.039 C 
BRANCH   3   5
HETATM    5  O1  UNL     1      -1.310   1.300   1.501  1.00  0.00    -0.396 OA
ATOM      6  H1  UNL     1      -0.584   0.716   1.314  1.00  0.00     0.210 HD
ENDBRANCH   3   5
ENDBRANCH   2   3
ENDBRANCH   1   2
BRANCH   1   7
HETATM    7  C5  UNL     1      -0.013   0.034  -0.733  1.00  0.00    -0.021 C 
HETATM    8  C6  UNL     1       0.930  -0.786  -0.301  1.00  0.00    -0.005 C 
BRANCH   8   9
HETATM    9  C7  UNL     1       2.324  -0.348  -0.019  1.00  0.00     0.106 C 
HETATM   10  C8  UNL     1       2.528   1.117  -0.359  1.00  0.00     0.048 C 
HETATM   11  C9  UNL     1       4.005   1.376  -0.225  1.00  0.00     0.122 C 
HETATM   12  N1  UNL     1       4.432   1.089   1.090  1.00  0.00    -0.386 N 
HETATM   13  C10 UNL     1       3.553   0.381   1.926  1.00  0.00     0.171 C 
ATOM     14  H1  UNL     1       5.349   1.386   1.422  1.00  0.00     0.160 HD
HETATM   15  N2  UNL     1       2.744  -0.624   1.324  1.00  0.00    -0.378 N 
ATOM     16  H2  UNL     1       2.482  -1.480   1.813  1.00  0.00     0.160 HD
ENDBRANCH   8   9
ENDBRANCH   1   7
BRANCH   1  17
HETATM   17  C11 UNL     1      -1.609  -1.895  -0.744  1.00  0.00     0.121 C 
HETATM   18  C12 UNL     1      -2.938  -2.279  -1.397  1.00  0.00     0.040 C 
BRANCH  17  19
HETATM   19  O2  UNL     1      -1.580  -2.259   0.589  1.00  0.00    -0.395 OA
ATOM     20  H2  UNL     1      -1.721  -3.184   0.753  1.00  0.00     0.210 HD
ENDBRANCH  17  19
ENDBRANCH   1  17
TORSDOF 7
