REMARK  8 active torsions:
REMARK  status: ('A' for Active; 'I' for Inactive)
REMARK    1  A    between atoms: O1_1  and  C1_3 
REMARK    2  A    between atoms: C1_3  and  O2_4 
REMARK    3  A    between atoms: C1_3  and  N1_6 
REMARK    4  A    between atoms: N1_6  and  C2_9 
REMARK    5  A    between atoms: C2_9  and  C3_10 
REMARK    6  A    between atoms: C5_12  and  C6_13 
REMARK    7  A    between atoms: C6_13  and  O3_14 
REMARK    8  A    between atoms: C6_13  and  C7_16 
ROOT
HETATM    1  C3  UNL     1       1.317  -0.249  -1.231  1.00  0.00     0.018 A 
HETATM    2  C4  UNL     1       0.704  -1.453  -0.585  1.00  0.00     0.014 A 
HETATM    3  C5  UNL     1      -0.087  -0.159  -0.867  1.00  0.00     0.021 A 
ENDROOT
BRANCH   1   4
HETATM    4  C2  UNL     1       2.426   0.390  -0.435  1.00  0.00     0.243 C 
BRANCH   4   5
HETATM    5  N1  UNL     1       3.463  -0.585  -0.256  1.00  0.00    -0.025 N 
ATOM      6  H12 UNL     1       3.765  -0.961  -1.155  1.00  0.00     0.283 HD
ATOM      7  H11 UNL     1       3.090  -1.436   0.166  1.00  0.00     0.283 HD
BRANCH   5   8
HETATM    8  C1  UNL     1       4.595  -0.090   0.500  1.00  0.00     0.464 C 
BRANCH   8   9
HETATM    9  O1  UNL     1       5.508  -1.152   0.585  1.00  0.00    -0.350 OA
ATOM     10  H1  UNL     1       5.071  -1.883   1.006  1.00  0.00     0.214 HD
ENDBRANCH   8   9
BRANCH   8  11
HETATM   11  O2  UNL     1       5.226   0.966  -0.109  1.00  0.00    -0.350 OA
ATOM     12  H2  UNL     1       4.608   1.685  -0.167  1.00  0.00     0.214 HD
ENDBRANCH   8  11
ENDBRANCH   5   8
ENDBRANCH   4   5
ENDBRANCH   1   4
BRANCH   3  13
HETATM   13  C6  UNL     1      -0.617   0.542   0.323  1.00  0.00     0.126 C 
BRANCH  13  14
HETATM   14  O3  UNL     1      -0.078  -0.025   1.476  1.00  0.00    -0.395 OA
ATOM     15  H3  UNL     1      -0.418   0.425   2.240  1.00  0.00     0.210 HD
ENDBRANCH  13  14
BRANCH  13  16
HETATM   16  C7  UNL     1      -2.091   0.574   0.461  1.00  0.00     0.015 C 
HETATM   17  C8  UNL     1      -2.813   1.246  -0.672  1.00  0.00     0.007 C 
HETATM   18  C9  UNL     1      -4.257   1.036  -0.204  1.00  0.00     0.000 C 
HETATM   19  C10 UNL     1      -4.243  -0.341   0.430  1.00  0.00     0.000 C 
HETATM   20  C11 UNL     1      -2.773  -0.746   0.508  1.00  0.00     0.007 C 
ENDBRANCH  13  16
ENDBRANCH   3  13
TORSDOF 8
