REMARK  8 active torsions:
REMARK  status: ('A' for Active; 'I' for Inactive)
REMARK    1  A    between atoms: C1_4  and  C2_5 
REMARK    2  A    between atoms: C2_5  and  O1_6 
REMARK    3  A    between atoms: C2_5  and  C3_8 
REMARK    4  A    between atoms: C3_8  and  O2_9 
REMARK    5  A    between atoms: C3_8  and  C4_11 
REMARK    6  A    between atoms: C4_11  and  C5_12 
REMARK    7  A    between atoms: C5_12  and  O3_13 
REMARK    8  A    between atoms: C5_12  and  N2_15 
ROOT
HETATM    1  C3  UNL     1      -2.023   0.605   0.352  1.00  0.00     0.156 C 
ENDROOT
BRANCH   1   2
HETATM    2  C2  UNL     1      -2.417  -0.433  -0.678  1.00  0.00     0.184 C 
BRANCH   2   3
HETATM    3  C1  UNL     1      -3.498  -1.316  -0.161  1.00  0.00     0.087 C 
HETATM    4  N1  UNL     1      -4.524  -1.655  -0.825  1.00  0.00    -0.409 N 
ATOM      5  H12 UNL     1      -4.598  -1.290  -1.774  1.00  0.00     0.155 HD
ATOM      6  H11 UNL     1      -5.265  -2.260  -0.471  1.00  0.00     0.155 HD
ENDBRANCH   2   3
BRANCH   2   7
HETATM    7  O1  UNL     1      -2.904   0.171  -1.843  1.00  0.00    -0.388 OA
ATOM      8  H1  UNL     1      -2.214   0.735  -2.173  1.00  0.00     0.210 HD
ENDBRANCH   2   7
ENDBRANCH   1   2
BRANCH   1   9
HETATM    9  O2  UNL     1      -3.243   1.318   0.581  1.00  0.00    -0.393 OA
ATOM     10  H2  UNL     1      -2.996   1.969   1.227  1.00  0.00     0.210 HD
ENDBRANCH   1   9
BRANCH   1  11
HETATM   11  C4  UNL     1      -1.046   1.605  -0.081  1.00  0.00     0.088 C 
BRANCH  11  12
HETATM   12  C5  UNL     1       0.313   1.234  -0.510  1.00  0.00     0.221 C 
BRANCH  12  13
HETATM   13  O3  UNL     1       0.886   2.524  -0.900  1.00  0.00    -0.377 OA
ATOM     14  H3  UNL     1       1.763   2.285  -1.177  1.00  0.00     0.212 HD
ENDBRANCH  12  13
BRANCH  12  15
HETATM   15  N2  UNL     1       1.223   0.693   0.420  1.00  0.00    -0.367 N 
HETATM   16  C6  UNL     1       0.958  -0.541   1.022  1.00  0.00     0.060 C 
HETATM   17  C7  UNL     1       2.216  -1.254   1.521  1.00  0.00     0.044 C 
HETATM   18  C8  UNL     1       3.237  -1.442   0.458  1.00  0.00     0.007 C 
HETATM   19  C9  UNL     1       3.047  -0.400  -0.641  1.00  0.00     0.020 C 
HETATM   20  C10 UNL     1       2.604   0.872   0.048  1.00  0.00     0.124 C 
ENDBRANCH  12  15
ENDBRANCH  11  12
ENDBRANCH   1  11
TORSDOF 8
