REMARK  8 active torsions:
REMARK  status: ('A' for Active; 'I' for Inactive)
REMARK    1  A    between atoms: C1_2  and  C2_4 
REMARK    2  A    between atoms: C4_6  and  C5_7 
REMARK    3  A    between atoms: C5_7  and  N1_8 
REMARK    4  A    between atoms: C5_7  and  C9_16 
REMARK    5  A    between atoms: N1_8  and  S1_10 
REMARK    6  A    between atoms: S1_10  and  C6_13 
REMARK       I    between atoms: C9_16  and  N2_18 
REMARK    7  A    between atoms: C13_22  and  C14_23 
REMARK       I    between atoms: C14_23  and  N3_25 
REMARK    8  A    between atoms: N3_25  and  C15_27 
ROOT
HETATM    1  C5  UNL     1      -1.787  -0.436  -0.787  1.00  0.00     0.189 C 
ENDROOT
BRANCH   1   2
HETATM    2  C4  UNL     1      -2.554  -0.443   0.510  1.00  0.00     0.019 C 
HETATM    3  C3  UNL     1      -3.582  -1.566   0.504  1.00  0.00     0.024 C 
HETATM    4  C2  UNL     1      -4.768  -1.223   1.362  1.00  0.00     0.105 C 
HETATM    5  C24 UNL     1      -4.233  -0.534   2.604  1.00  0.00     0.096 C 
HETATM    6  C23 UNL     1      -3.729   0.822   2.218  1.00  0.00     0.021 C 
HETATM    7 CL1  UNL     1      -5.541  -0.323   3.788  1.00  0.00    -0.124 Cl
HETATM    8  C22 UNL     1      -3.195   0.888   0.795  1.00  0.00     0.009 C 
BRANCH   4   9
HETATM    9  C1  UNL     1      -5.403  -2.515   1.766  1.00  0.00     0.178 C 
HETATM   10  O1  UNL     1      -5.530  -2.857   2.954  1.00  0.00    -0.648 OA
HETATM   11  O2  UNL     1      -5.861  -3.349   0.763  1.00  0.00    -0.648 OA
ENDBRANCH   4   9
ENDBRANCH   1   2
BRANCH   1  12
HETATM   12  N1  UNL     1      -2.752  -0.236  -1.837  1.00  0.00    -0.305 N 
ATOM     13  H1  UNL     1      -3.601  -0.798  -1.901  1.00  0.00     0.173 HD
BRANCH  12  14
HETATM   14  S1  UNL     1      -2.403   0.978  -2.957  1.00  0.00     0.231 S 
HETATM   15  O3  UNL     1      -1.126   0.766  -3.709  1.00  0.00    -0.206 OA
HETATM   16  O4  UNL     1      -3.494   1.055  -4.006  1.00  0.00    -0.206 OA
BRANCH  14  17
HETATM   17  C6  UNL     1      -2.298   2.556  -2.171  1.00  0.00     0.129 A 
HETATM   18  C7  UNL     1      -3.441   3.485  -2.127  1.00  0.00     0.023 A 
HETATM   19  C8  UNL     1      -2.304   3.735  -3.078  1.00  0.00     0.023 A 
ENDBRANCH  14  17
ENDBRANCH  12  14
ENDBRANCH   1  12
BRANCH   1  20
HETATM   20  C9  UNL     1      -1.167  -1.799  -0.881  1.00  0.00     0.244 C 
HETATM   21  O5  UNL     1      -1.638  -2.713  -1.580  1.00  0.00    -0.271 OA
HETATM   22  N2  UNL     1       0.017  -2.056  -0.139  1.00  0.00    -0.337 N 
HETATM   23  C10 UNL     1       0.732  -3.318  -0.019  1.00  0.00     0.127 C 
HETATM   24  C13 UNL     1       0.803  -1.108   0.618  1.00  0.00     0.179 C 
HETATM   25  C11 UNL     1       1.285  -3.274   1.383  1.00  0.00     0.022 C 
HETATM   26  C12 UNL     1       1.156  -1.849   1.878  1.00  0.00     0.037 C 
BRANCH  24  27
HETATM   27  C14 UNL     1       2.013  -0.675  -0.142  1.00  0.00     0.241 C 
HETATM   28  O6  UNL     1       2.163  -1.115  -1.303  1.00  0.00    -0.271 OA
HETATM   29  N3  UNL     1       2.973   0.207   0.419  1.00  0.00    -0.354 N 
ATOM     30  H3  UNL     1       2.849   0.567   1.365  1.00  0.00     0.162 HD
BRANCH  29  31
HETATM   31  C15 UNL     1       4.113   0.587  -0.352  1.00  0.00     0.092 C 
HETATM   32  C16 UNL     1       4.201   2.101  -0.589  1.00  0.00     0.104 C 
HETATM   33  C17 UNL     1       5.614   2.193  -1.093  1.00  0.00     0.137 C 
HETATM   34  O7  UNL     1       5.998   2.918  -1.981  1.00  0.00    -0.297 OA
HETATM   35  C18 UNL     1       6.393   1.240  -0.296  1.00  0.00     0.022 A 
HETATM   36  C19 UNL     1       7.531   1.791   0.497  1.00  0.00     0.018 A 
HETATM   37  C20 UNL     1       7.766   0.837  -0.662  1.00  0.00     0.018 A 
HETATM   38  C21 UNL     1       5.439   0.274   0.352  1.00  0.00     0.042 C 
ENDBRANCH  29  31
ENDBRANCH  24  27
ENDBRANCH   1  20
TORSDOF 8
