REMARK  8 active torsions:
REMARK  status: ('A' for Active; 'I' for Inactive)
REMARK       I    between atoms: C1_2  and  N1_3 
REMARK    1  A    between atoms: C1_2  and  C7_10 
REMARK    2  A    between atoms: N1_3  and  C2_5 
REMARK    3  A    between atoms: N2_13  and  S1_14 
REMARK    4  A    between atoms: S1_14  and  N3_17 
REMARK    5  A    between atoms: N3_17  and  C10_19 
REMARK    6  A    between atoms: C14_26  and  C15_27 
REMARK    7  A    between atoms: C15_27  and  C16_28 
REMARK    8  A    between atoms: C16_28  and  N5_29 
ROOT
HETATM    1  C10 UNL     1      -0.409   0.342   0.219  1.00  0.00     0.124 C 
HETATM    2  C11 UNL     1       0.255   0.571   1.552  1.00  0.00     0.258 C 
HETATM    3  N4  UNL     1      -0.200  -0.447   2.479  1.00  0.00    -0.073 N 
ATOM      4  H41 UNL     1      -0.029  -0.179   3.448  1.00  0.00     0.277 HD
ATOM      5  H42 UNL     1       0.388  -1.280   2.445  1.00  0.00     0.277 HD
HETATM    6  C12 UNL     1      -1.599  -0.765   2.246  1.00  0.00     0.232 C 
HETATM    7  C13 UNL     1      -2.314   0.488   1.706  1.00  0.00     0.034 C 
HETATM    8  C14 UNL     1      -1.859   0.876   0.372  1.00  0.00     0.014 C 
ENDROOT
BRANCH   1   9
HETATM    9  N3  UNL     1       0.239   0.894  -0.888  1.00  0.00    -0.295 N 
ATOM     10  H3  UNL     1       0.411   1.899  -0.905  1.00  0.00     0.174 HD
BRANCH   9  11
HETATM   11  S1  UNL     1       0.742  -0.028  -2.184  1.00  0.00     0.324 S 
HETATM   12  O2  UNL     1       0.617   0.834  -3.448  1.00  0.00    -0.182 OA
HETATM   13  O3  UNL     1      -0.202  -1.192  -2.515  1.00  0.00    -0.182 OA
BRANCH  11  14
HETATM   14  N2  UNL     1       2.360  -0.560  -2.184  1.00  0.00    -0.253 N 
HETATM   15  C9  UNL     1       2.662  -1.388  -1.113  1.00  0.00     0.083 C 
HETATM   16  C8  UNL     1       4.062  -1.321  -0.570  1.00  0.00     0.060 C 
HETATM   17  C7  UNL     1       4.432   0.148  -0.552  1.00  0.00     0.087 C 
HETATM   18  C26 UNL     1       4.565   0.543  -2.002  1.00  0.00     0.060 C 
HETATM   19  C25 UNL     1       3.303   0.298  -2.734  1.00  0.00     0.083 C 
BRANCH  17  20
HETATM   20  C1  UNL     1       5.660   0.404   0.225  1.00  0.00     0.222 C 
HETATM   21  O1  UNL     1       5.559   1.172   1.221  1.00  0.00    -0.273 OA
HETATM   22  N1  UNL     1       6.917  -0.158  -0.087  1.00  0.00    -0.356 N 
ATOM     23  H1  UNL     1       7.008  -0.780  -0.890  1.00  0.00     0.162 HD
BRANCH  22  24
HETATM   24  C2  UNL     1       8.068   0.139   0.718  1.00  0.00     0.084 C 
HETATM   25  C3  UNL     1       8.716  -1.085   1.317  1.00  0.00     0.025 C 
HETATM   26  C4  UNL     1      10.094  -0.577   1.736  1.00  0.00     0.002 C 
HETATM   27  C5  UNL     1      10.336   0.683   0.934  1.00  0.00     0.002 C 
HETATM   28  C6  UNL     1       9.195   0.752  -0.078  1.00  0.00     0.025 C 
ENDBRANCH  22  24
ENDBRANCH  17  20
ENDBRANCH  11  14
ENDBRANCH   9  11
ENDBRANCH   1   9
BRANCH   8  29
HETATM   29  C15 UNL     1      -2.594   0.520  -0.835  1.00  0.00     0.027 C 
BRANCH  29  30
HETATM   30  C16 UNL     1      -4.007   0.881  -1.025  1.00  0.00     0.127 C 
BRANCH  30  31
HETATM   31  N5  UNL     1      -4.920   0.329  -0.100  1.00  0.00    -0.373 N 
HETATM   32  C17 UNL     1      -5.124  -1.064  -0.173  1.00  0.00     0.065 C 
HETATM   33  C18 UNL     1      -6.517  -1.559  -0.265  1.00  0.00     0.077 C 
HETATM   34  C19 UNL     1      -7.364  -0.817   0.730  1.00  0.00     0.135 C 
HETATM   35  O4  UNL     1      -8.652  -1.318   0.814  1.00  0.00    -0.385 OA
HETATM   36  C23 UNL     1      -7.348   0.637   0.313  1.00  0.00     0.053 C 
HETATM   37  C20 UNL     1      -9.638  -0.396   0.563  1.00  0.00     0.168 C 
HETATM   38  C21 UNL     1      -9.496   0.306  -0.769  1.00  0.00     0.027 C 
HETATM   39  C22 UNL     1      -8.077   0.811  -0.995  1.00  0.00     0.014 C 
HETATM   40  C24 UNL     1      -5.969   1.151   0.344  1.00  0.00     0.070 C 
ENDBRANCH  30  31
ENDBRANCH  29  30
ENDBRANCH   8  29
TORSDOF 8
