REMARK  8 active torsions:
REMARK  status: ('A' for Active; 'I' for Inactive)
REMARK    1  A    between atoms: C2_2  and  C3_3 
REMARK    2  A    between atoms: C3_3  and  C4_4 
REMARK    3  A    between atoms: C4_4  and  N1_5 
REMARK       I    between atoms: N1_5  and  C5_7 
REMARK    4  A    between atoms: C5_7  and  C6_9 
REMARK       I    between atoms: N2_14  and  C11_15 
REMARK    5  A    between atoms: C11_15  and  C12_17 
REMARK    6  A    between atoms: C12_17  and  N3_18 
REMARK    7  A    between atoms: C12_17  and  C19_31 
REMARK       I    between atoms: N3_18  and  C13_20 
REMARK    8  A    between atoms: C13_20  and  C14_22 
ROOT
HETATM    1  C6  UNL     1       0.563  -0.293   1.693  1.00  0.00     0.183 C 
HETATM    2  C7  UNL     1       0.997   0.392   2.932  1.00  0.00     0.024 A 
HETATM    3  C8  UNL     1       0.961   0.133   4.309  1.00  0.00     0.014 A 
HETATM    4  C9  UNL     1      -0.303   0.028   3.722  1.00  0.00     0.011 A 
HETATM    5  C10 UNL     1      -1.135   0.885   2.808  1.00  0.00     0.132 C 
HETATM    6  N2  UNL     1      -0.783   0.192   1.556  1.00  0.00    -0.336 N 
HETATM    7  C11 UNL     1      -1.712   0.032   0.513  1.00  0.00     0.243 C 
HETATM    8  O2  UNL     1      -1.440  -0.703  -0.511  1.00  0.00    -0.271 OA
ENDROOT
BRANCH   1   9
HETATM    9  C5  UNL     1       1.447  -0.016   0.543  1.00  0.00     0.241 C 
HETATM   10  N1  UNL     1       2.789  -0.464   0.469  1.00  0.00    -0.347 N 
ATOM     11  H1  UNL     1       3.160  -1.002   1.252  1.00  0.00     0.163 HD
HETATM   12  O1  UNL     1       0.997   0.642  -0.410  1.00  0.00    -0.271 OA
BRANCH  10  13
HETATM   13  C4  UNL     1       3.662  -0.202  -0.652  1.00  0.00     0.064 C 
HETATM   14  C22 UNL     1       3.998   1.287  -0.724  1.00  0.00     0.068 C 
HETATM   15  C23 UNL     1       5.462   0.967  -0.677  1.00  0.00     0.159 C 
HETATM   16  O5  UNL     1       6.168   1.532   0.366  1.00  0.00    -0.348 OA
HETATM   17  C27 UNL     1       5.103  -0.432  -0.259  1.00  0.00     0.182 C 
HETATM   18  C24 UNL     1       6.177   0.637   1.402  1.00  0.00     0.158 C 
HETATM   19  C25 UNL     1       5.752   1.398   2.643  1.00  0.00     0.078 C 
HETATM   20  C26 UNL     1       7.571   0.047   1.641  1.00  0.00     0.078 C 
HETATM   21  O6  UNL     1       5.342  -0.407   1.108  1.00  0.00    -0.345 OA
BRANCH  13  22
HETATM   22  C3  UNL     1       3.231  -0.782  -1.972  1.00  0.00     0.033 C 
BRANCH  22  23
HETATM   23  C2  UNL     1       4.194  -0.469  -3.088  1.00  0.00    -0.002 C 
HETATM   24  C1  UNL     1       3.704  -1.075  -4.385  1.00  0.00     0.005 C 
ENDBRANCH  22  23
ENDBRANCH  13  22
ENDBRANCH  10  13
ENDBRANCH   1   9
BRANCH   7  25
HETATM   25  C12 UNL     1      -3.047   0.655   0.466  1.00  0.00     0.180 C 
BRANCH  25  26
HETATM   26  N3  UNL     1      -3.977  -0.273  -0.213  1.00  0.00    -0.345 N 
HETATM   27  C13 UNL     1      -5.099  -0.799   0.444  1.00  0.00     0.261 C 
HETATM   28  O3  UNL     1      -5.297  -0.460   1.637  1.00  0.00    -0.270 OA
ATOM     29  H3  UNL     1      -3.798  -0.537  -1.182  1.00  0.00     0.163 HD
BRANCH  27  30
HETATM   30  C14 UNL     1      -6.057  -1.734  -0.205  1.00  0.00     0.210 C 
HETATM   31  F1  UNL     1      -7.016  -2.155   0.717  1.00  0.00    -0.230 F 
HETATM   32  C15 UNL     1      -5.337  -2.944  -0.721  1.00  0.00     0.177 C 
HETATM   33  N4  UNL     1      -6.012  -3.293  -1.940  1.00  0.00    -0.357 N 
HETATM   34  C16 UNL     1      -6.452  -2.079  -2.531  1.00  0.00     0.225 C 
ATOM     35  H4  UNL     1      -6.149  -4.233  -2.310  1.00  0.00     0.162 HD
HETATM   36  O4  UNL     1      -6.613  -1.814  -3.744  1.00  0.00    -0.273 OA
HETATM   37  C17 UNL     1      -6.698  -1.133  -1.416  1.00  0.00     0.125 C 
HETATM   38  C18 UNL     1      -8.215  -1.043  -1.259  1.00  0.00     0.024 C 
ENDBRANCH  27  30
ENDBRANCH  25  26
BRANCH  25  39
HETATM   39  C19 UNL     1      -3.098   1.973  -0.263  1.00  0.00     0.009 C 
HETATM   40  C20 UNL     1      -2.217   3.028   0.328  1.00  0.00     0.012 C 
HETATM   41  C21 UNL     1      -2.882   1.841  -1.748  1.00  0.00     0.012 C 
ENDBRANCH  25  39
ENDBRANCH   7  25
TORSDOF 8
