REMARK  15 active torsions:
REMARK  status: ('A' for Active; 'I' for Inactive)
REMARK    1  A    between atoms: C2_2  and  C3_3 
REMARK    2  A    between atoms: C3_3  and  C4_4 
REMARK    3  A    between atoms: C4_4  and  C5_5 
REMARK    4  A    between atoms: C5_5  and  C6_6 
REMARK    5  A    between atoms: C6_6  and  C7_7 
REMARK    6  A    between atoms: C7_7  and  C8_8 
REMARK    7  A    between atoms: C14_14  and  N1_15 
REMARK    8  A    between atoms: C17_19  and  N2_20 
REMARK    9  A    between atoms: C27_35  and  O2_36 
REMARK   10  A    between atoms: C29_38  and  O3_39 
REMARK   11  A    between atoms: C30_41  and  C31_42 
REMARK   12  A    between atoms: C31_42  and  O4_43 
REMARK   13  A    between atoms: C31_42  and  N5_45 
REMARK   14  A    between atoms: C35_49  and  C36_50 
REMARK   15  A    between atoms: C36_50  and  C37_51 
ROOT
HETATM    1  C8  UNL     1      -3.153  -0.584  -0.645  1.00  0.00     0.083 C 
HETATM    2  C9  UNL     1      -2.685  -1.349  -1.829  1.00  0.00    -0.018 C 
HETATM    3  C10 UNL     1      -2.002  -2.613  -1.739  1.00  0.00    -0.025 C 
HETATM    4  C11 UNL     1      -1.455  -3.168  -0.491  1.00  0.00     0.066 C 
HETATM    5  C12 UNL     1      -0.514  -2.233   0.144  1.00  0.00    -0.038 A 
HETATM    6  C13 UNL     1       0.679  -2.776   0.561  1.00  0.00     0.040 A 
HETATM    7  C14 UNL     1       1.587  -1.934   1.162  1.00  0.00     0.069 A 
HETATM    8  C22 UNL     1       1.385  -0.576   1.368  1.00  0.00     0.109 A 
HETATM    9  C23 UNL     1       0.165  -0.069   0.909  1.00  0.00     0.026 A 
HETATM   10  C24 UNL     1      -0.764  -0.855   0.336  1.00  0.00     0.031 A 
HETATM   11  C25 UNL     1      -2.099  -0.257   0.321  1.00  0.00     0.168 C 
HETATM   12  O1  UNL     1      -2.294   0.568   1.224  1.00  0.00    -0.292 OA
HETATM   13  C26 UNL     1       0.238   1.410   0.869  1.00  0.00     0.027 C 
HETATM   14  C27 UNL     1      -0.355   2.400   0.276  1.00  0.00     0.108 C 
HETATM   15  C29 UNL     1       0.022   3.815   0.639  1.00  0.00     0.089 C 
HETATM   16  C30 UNL     1       0.811   3.872   1.880  1.00  0.00     0.122 C 
HETATM   17  C34 UNL     1       1.920   2.876   1.928  1.00  0.00     0.063 C 
HETATM   18  C35 UNL     1       1.684   1.630   1.231  1.00  0.00     0.103 C 
HETATM   19  O5  UNL     1       2.049   0.465   1.939  1.00  0.00    -0.332 OA
ENDROOT
BRANCH   7  20
HETATM   20  N1  UNL     1       2.855  -2.445   1.636  1.00  0.00    -0.340 N 
HETATM   21  C15 UNL     1       3.805  -2.679   0.796  1.00  0.00     0.110 A 
HETATM   22  C16 UNL     1       5.026  -3.169   1.238  1.00  0.00     0.097 A 
HETATM   23  N4  UNL     1       3.675  -2.468  -0.518  1.00  0.00    -0.332 N 
HETATM   24  C17 UNL     1       6.056  -3.426   0.360  1.00  0.00     0.107 A 
HETATM   25  N3  UNL     1       5.845  -3.187  -0.952  1.00  0.00    -0.332 N 
HETATM   26  C20 UNL     1       4.667  -2.711  -1.398  1.00  0.00     0.080 A 
ATOM     27  H3  UNL     1       6.594  -3.371  -1.620  1.00  0.00     0.168 HD
HETATM   28  C21 UNL     1       4.406  -2.439  -2.826  1.00  0.00     0.089 C 
ATOM     29  H4  UNL     1       2.788  -2.108  -0.869  1.00  0.00     0.168 HD
ATOM     30  H1  UNL     1       2.997  -2.619   2.631  1.00  0.00     0.167 HD
BRANCH  24  31
HETATM   31  N2  UNL     1       7.300  -3.928   0.827  1.00  0.00    -0.376 N 
HETATM   32  C18 UNL     1       7.475  -4.171   2.236  1.00  0.00     0.150 C 
HETATM   33  C19 UNL     1       8.396  -4.197  -0.109  1.00  0.00     0.150 C 
ENDBRANCH  24  31
ENDBRANCH   7  20
BRANCH  18  34
HETATM   34  C36 UNL     1       2.538   1.384  -0.028  1.00  0.00     0.070 C 
BRANCH  34  35
HETATM   35  C37 UNL     1       2.321   2.169  -1.197  1.00  0.00    -0.033 C 
HETATM   36  C38 UNL     1       1.924   1.586  -2.355  1.00  0.00     0.007 C 
ENDBRANCH  34  35
ENDBRANCH  18  34
BRANCH  14  37
HETATM   37  O2  UNL     1      -1.364   2.279  -0.674  1.00  0.00    -0.353 OA
HETATM   38  C28 UNL     1      -1.656   3.287  -1.566  1.00  0.00     0.210 C 
ENDBRANCH  14  37
BRANCH   1  39
HETATM   39  C7  UNL     1      -4.382  -1.164   0.024  1.00  0.00     0.016 C 
BRANCH  39  40
HETATM   40  C6  UNL     1      -5.535  -1.207  -0.919  1.00  0.00     0.001 C 
BRANCH  40  41
HETATM   41  C5  UNL     1      -6.790  -1.770  -0.270  1.00  0.00     0.000 C 
BRANCH  41  42
HETATM   42  C4  UNL     1      -7.878  -1.760  -1.325  1.00  0.00     0.004 C 
BRANCH  42  43
HETATM   43  C3  UNL     1      -9.181  -2.303  -0.775  1.00  0.00     0.026 C 
BRANCH  43  44
HETATM   44  C2  UNL     1      -9.678  -1.512   0.368  1.00  0.00    -0.037 C 
HETATM   45  C1  UNL     1     -10.855  -0.886   0.379  1.00  0.00     0.007 C 
ENDBRANCH  43  44
ENDBRANCH  42  43
ENDBRANCH  41  42
ENDBRANCH  40  41
ENDBRANCH  39  40
ENDBRANCH   1  39
BRANCH  15  46
HETATM   46  O3  UNL     1       0.189   4.692  -0.359  1.00  0.00    -0.361 OA
ATOM     47  H3  UNL     1       0.426   5.583  -0.130  1.00  0.00     0.217 HD
ENDBRANCH  15  46
BRANCH  16  48
HETATM   48  C31 UNL     1       1.217   5.213   2.248  1.00  0.00     0.123 C 
BRANCH  48  49
HETATM   49  O4  UNL     1       0.494   5.768   3.200  1.00  0.00    -0.349 OA
ATOM     50  H4  UNL     1       0.760   6.647   3.441  1.00  0.00     0.219 HD
ENDBRANCH  48  49
BRANCH  48  51
HETATM   51  N5  UNL     1       2.229   6.052   1.794  1.00  0.00    -0.374 N 
HETATM   52  C32 UNL     1       3.201   5.753   0.801  1.00  0.00     0.150 C 
HETATM   53  C33 UNL     1       2.334   7.405   2.385  1.00  0.00     0.150 C 
ENDBRANCH  48  51
ENDBRANCH  16  48
TORSDOF 15
