REMARK  15 active torsions:
REMARK  status: ('A' for Active; 'I' for Inactive)
REMARK    1  A    between atoms: O1_2  and  C2_3 
REMARK       I    between atoms: C2_3  and  N1_5 
REMARK    2  A    between atoms: N1_5  and  C3_7 
REMARK    3  A    between atoms: C3_7  and  C4_8 
REMARK    4  A    between atoms: C4_8  and  C5_9 
REMARK    5  A    between atoms: C5_9  and  N2_10 
REMARK    6  A    between atoms: C7_12  and  C8_13 
REMARK    7  A    between atoms: C8_13  and  C9_14 
REMARK    8  A    between atoms: C9_14  and  C10_15 
REMARK    9  A    between atoms: C12_19  and  C13_20 
REMARK   10  A    between atoms: C13_20  and  N3_22 
REMARK   11  A    between atoms: C20_28  and  C21_29 
REMARK   12  A    between atoms: C22_30  and  C23_31 
REMARK   13  A    between atoms: C29_37  and  O5_38 
REMARK   14  A    between atoms: C29_37  and  C32_42 
REMARK   15  A    between atoms: O5_38  and  C30_39 
ROOT
HETATM    1  C10 UNL     1       0.817  -1.144  -0.183  1.00  0.00     0.061 C 
HETATM    2  C11 UNL     1       0.349  -1.727  -1.456  1.00  0.00     0.269 C 
HETATM    3  O3  UNL     1      -0.591  -1.414  -2.207  1.00  0.00    -0.264 OA
HETATM    4  O4  UNL     1       1.199  -2.793  -1.725  1.00  0.00    -0.313 OA
HETATM    5  C12 UNL     1       1.685  -3.320  -0.502  1.00  0.00     0.170 C 
HETATM    6  C17 UNL     1       1.113  -2.482   0.580  1.00  0.00     0.036 C 
HETATM    7  C18 UNL     1      -0.216  -2.867   1.102  1.00  0.00     0.009 C 
HETATM    8  C19 UNL     1      -1.156  -1.707   0.887  1.00  0.00     0.010 C 
HETATM    9  C20 UNL     1      -0.213  -0.510   0.617  1.00  0.00     0.026 C 
ENDROOT
BRANCH   9  10
HETATM   10  C21 UNL     1      -1.039   0.555   0.089  1.00  0.00    -0.024 C 
HETATM   11  C22 UNL     1      -2.347   0.476  -0.039  1.00  0.00    -0.025 C 
BRANCH  11  12
HETATM   12  C23 UNL     1      -3.255   1.542  -0.576  1.00  0.00     0.019 C 
HETATM   13  C24 UNL     1      -3.701   1.073  -1.915  1.00  0.00     0.010 C 
HETATM   14  C25 UNL     1      -5.054   1.381  -2.374  1.00  0.00     0.013 C 
HETATM   15  C26 UNL     1      -5.954   2.166  -1.465  1.00  0.00    -0.006 C 
HETATM   16  C27 UNL     1      -7.409   1.746  -1.788  1.00  0.00     0.018 C 
HETATM   17  C28 UNL     1      -5.878   3.613  -1.906  1.00  0.00     0.018 C 
HETATM   18  C29 UNL     1      -5.700   1.951   0.010  1.00  0.00     0.163 C 
HETATM   19  C33 UNL     1      -4.273   1.986   0.416  1.00  0.00     0.001 C 
HETATM   20  C34 UNL     1      -3.784   3.397   0.813  1.00  0.00     0.019 C 
HETATM   21  C35 UNL     1      -4.100   1.237   1.725  1.00  0.00     0.019 C 
BRANCH  18  22
HETATM   22  O5  UNL     1      -6.610   2.650   0.608  1.00  0.00    -0.299 OA
BRANCH  22  23
HETATM   23  C30 UNL     1      -7.472   3.382   1.159  1.00  0.00     0.256 C 
HETATM   24  C31 UNL     1      -8.558   3.147   2.099  1.00  0.00     0.126 C 
HETATM   25  O6  UNL     1      -7.250   4.539   0.733  1.00  0.00    -0.266 OA
ENDBRANCH  22  23
ENDBRANCH  18  22
BRANCH  18  26
HETATM   26  C32 UNL     1      -6.130   0.556   0.348  1.00  0.00     0.268 C 
HETATM   27  N4  UNL     1      -5.794  -0.666  -0.208  1.00  0.00    -0.059 NA
HETATM   28  O7  UNL     1      -6.963   0.395   1.307  1.00  0.00    -0.273 OA
ENDBRANCH  18  26
ENDBRANCH  11  12
ENDBRANCH   9  10
BRANCH   1  29
HETATM   29  C9  UNL     1       2.120  -0.438  -0.403  1.00  0.00     0.026 C 
BRANCH  29  30
HETATM   30  C8  UNL     1       2.707   0.265   0.761  1.00  0.00     0.046 C 
BRANCH  30  31
HETATM   31  C7  UNL     1       4.068   0.829   0.374  1.00  0.00     0.062 C 
HETATM   32  N2  UNL     1       5.035  -0.081   0.064  1.00  0.00    -0.378 N 
HETATM   33  C6  UNL     1       5.062  -1.395   0.575  1.00  0.00     0.154 C 
BRANCH  32  34
HETATM   34  C5  UNL     1       6.293   0.339  -0.351  1.00  0.00     0.064 C 
BRANCH  34  35
HETATM   35  C4  UNL     1       7.369   0.519   0.676  1.00  0.00     0.064 C 
BRANCH  35  36
HETATM   36  C3  UNL     1       7.156   1.582   1.691  1.00  0.00     0.130 C 
BRANCH  36  37
HETATM   37  N1  UNL     1       7.074   2.906   1.063  1.00  0.00    -0.337 N 
HETATM   38  C2  UNL     1       8.175   3.457   0.364  1.00  0.00     0.360 C 
HETATM   39  O2  UNL     1       9.255   2.833   0.276  1.00  0.00    -0.239 OA
ATOM     40  H1  UNL     1       6.207   3.439   1.131  1.00  0.00     0.164 HD
BRANCH  38  41
HETATM   41  O1  UNL     1       8.147   4.704  -0.267  1.00  0.00    -0.309 OA
HETATM   42  C1  UNL     1       9.320   5.175  -0.953  1.00  0.00     0.215 C 
ENDBRANCH  38  41
ENDBRANCH  36  37
ENDBRANCH  35  36
ENDBRANCH  34  35
ENDBRANCH  32  34
ENDBRANCH  30  31
ENDBRANCH  29  30
ENDBRANCH   1  29
BRANCH   5  43
HETATM   43  C13 UNL     1       1.451  -4.792  -0.430  1.00  0.00     0.247 C 
HETATM   44  C14 UNL     1       2.191  -5.394  -1.639  1.00  0.00     0.045 C 
BRANCH  43  45
HETATM   45  N3  UNL     1       1.884  -5.425   0.764  1.00  0.00     0.086 N 
HETATM   46  C15 UNL     1       0.886  -6.353   1.247  1.00  0.00     0.310 C 
HETATM   47  C16 UNL     1       3.148  -6.121   0.647  1.00  0.00     0.310 C 
ENDBRANCH  43  45
ENDBRANCH   5  43
TORSDOF 15
