REMARK  15 active torsions:
REMARK  status: ('A' for Active; 'I' for Inactive)
REMARK    1  A    between atoms: C2_2  and  C3_3 
REMARK    2  A    between atoms: C3_3  and  C4_4 
REMARK    3  A    between atoms: C8_9  and  C9_10 
REMARK    4  A    between atoms: C9_10  and  C10_11 
REMARK    5  A    between atoms: C10_11  and  C11_12 
REMARK    6  A    between atoms: N1_21  and  C17_22 
REMARK    7  A    between atoms: C17_22  and  C18_23 
REMARK       I    between atoms: C18_23  and  N2_25 
REMARK    8  A    between atoms: N2_25  and  C19_27 
REMARK    9  A    between atoms: C19_27  and  C20_28 
REMARK   10  A    between atoms: C19_27  and  C23_33 
REMARK   11  A    between atoms: C20_28  and  C21_29 
REMARK   12  A    between atoms: C21_29  and  C22_30 
REMARK   13  A    between atoms: C23_33  and  O6_34 
REMARK   14  A    between atoms: C23_33  and  N3_36 
REMARK   15  A    between atoms: N4_39  and  C26_40 
ROOT
HETATM    1  C18 UNL     1      -0.250  -1.897   1.509  1.00  0.00     0.240 C 
HETATM    2  O3  UNL     1       0.720  -2.610   1.058  1.00  0.00    -0.271 OA
HETATM    3  N2  UNL     1      -0.161  -0.517   1.438  1.00  0.00    -0.325 N 
ATOM      4  H2  UNL     1      -0.960   0.015   1.782  1.00  0.00     0.168 HD
ENDROOT
BRANCH   1   5
HETATM    5  C17 UNL     1      -1.363  -2.659   2.060  1.00  0.00     0.232 C 
BRANCH   5   6
HETATM    6  N1  UNL     1      -2.463  -1.904   2.601  1.00  0.00    -0.301 N 
HETATM    7  C7  UNL     1      -3.620  -1.533   1.826  1.00  0.00     0.196 C 
HETATM    8  C6  UNL     1      -4.645  -2.619   2.076  1.00  0.00     0.078 C 
HETATM    9  O1  UNL     1      -3.290  -1.373   0.519  1.00  0.00    -0.314 OA
HETATM   10  S2  UNL     1      -4.140  -0.007   2.646  1.00  0.00    -0.099 SA
HETATM   11  C5  UNL     1      -5.904  -2.152   1.382  1.00  0.00     0.042 C 
HETATM   12  C4  UNL     1      -5.521  -2.039  -0.094  1.00  0.00    -0.050 C 
HETATM   13  C8  UNL     1      -4.338  -1.186  -0.366  1.00  0.00     0.053 C 
HETATM   14  C15 UNL     1      -3.050  -0.093   4.097  1.00  0.00     0.181 C 
HETATM   15  C16 UNL     1      -2.545  -1.476   3.960  1.00  0.00     0.232 C 
HETATM   16  O2  UNL     1      -2.227  -2.176   4.983  1.00  0.00    -0.272 OA
BRANCH  12  17
HETATM   17  C3  UNL     1      -6.694  -1.897  -0.973  1.00  0.00     0.036 C 
BRANCH  17  18
HETATM   18  C2  UNL     1      -7.621  -0.768  -0.748  1.00  0.00    -0.000 C 
HETATM   19  C1  UNL     1      -8.735  -0.870  -1.808  1.00  0.00     0.005 C 
ENDBRANCH  17  18
ENDBRANCH  12  17
BRANCH  13  20
HETATM   20  C9  UNL     1      -4.586   0.247  -0.684  1.00  0.00     0.069 C 
BRANCH  20  21
HETATM   21  C10 UNL     1      -3.283   0.990  -0.927  1.00  0.00     0.045 C 
BRANCH  21  22
HETATM   22  C11 UNL     1      -3.646   2.429  -1.232  1.00  0.00    -0.051 A 
HETATM   23  C12 UNL     1      -3.762   3.386  -0.304  1.00  0.00     0.014 A 
HETATM   24  C13 UNL     1      -4.096   4.643  -0.727  1.00  0.00     0.050 A 
HETATM   25  S1  UNL     1      -4.240   4.453  -2.416  1.00  0.00    -0.113 SA
HETATM   26  C14 UNL     1      -3.873   2.791  -2.535  1.00  0.00     0.056 A 
ENDBRANCH  21  22
ENDBRANCH  20  21
ENDBRANCH  13  20
ENDBRANCH   5   6
ENDBRANCH   1   5
BRANCH   3  27
HETATM   27  C19 UNL     1       0.988   0.265   0.908  1.00  0.00     0.063 C 
BRANCH  27  28
HETATM   28  C20 UNL     1       0.621   1.076  -0.229  1.00  0.00     0.072 C 
BRANCH  28  29
HETATM   29  C21 UNL     1       1.611   2.033  -0.775  1.00  0.00     0.119 C 
BRANCH  29  30
HETATM   30  C22 UNL     1       1.046   2.772  -1.978  1.00  0.00     0.172 C 
HETATM   31  O4  UNL     1       1.779   3.653  -2.504  1.00  0.00    -0.648 OA
HETATM   32  O5  UNL     1      -0.208   2.431  -2.402  1.00  0.00    -0.648 OA
ENDBRANCH  29  30
ENDBRANCH  28  29
ENDBRANCH  27  28
BRANCH  27  33
HETATM   33  C23 UNL     1       2.192  -0.538   1.060  1.00  0.00     0.161 C 
BRANCH  33  34
HETATM   34  O6  UNL     1       2.343  -0.918   2.367  1.00  0.00    -0.345 OA
ATOM     35  H6  UNL     1       3.129  -1.442   2.466  1.00  0.00     0.219 HD
ENDBRANCH  33  34
BRANCH  33  36
HETATM   36  N3  UNL     1       3.217  -1.042   0.304  1.00  0.00    -0.357 N 
HETATM   37  C24 UNL     1       3.475  -1.024  -1.102  1.00  0.00     0.155 C 
HETATM   38  C25 UNL     1       4.808  -0.382  -1.371  1.00  0.00     0.292 C 
HETATM   39  N4  UNL     1       5.879  -0.783  -0.538  1.00  0.00     0.096 N 
HETATM   40  C32 UNL     1       5.592  -1.067   0.821  1.00  0.00     0.292 C 
HETATM   41  C33 UNL     1       4.299  -1.784   1.037  1.00  0.00     0.155 C 
BRANCH  39  42
HETATM   42  C26 UNL     1       6.968   0.158  -0.631  1.00  0.00     0.223 C 
HETATM   43  C27 UNL     1       6.625   1.547  -0.182  1.00  0.00     0.036 C 
HETATM   44  C28 UNL     1       7.870   2.350   0.138  1.00  0.00     0.002 C 
HETATM   45  C29 UNL     1       9.064   1.840  -0.659  1.00  0.00     0.000 C 
HETATM   46  C30 UNL     1       9.385   0.411  -0.302  1.00  0.00     0.002 C 
HETATM   47  C31 UNL     1       8.151  -0.293   0.221  1.00  0.00     0.036 C 
ENDBRANCH  39  42
ENDBRANCH  33  36
ENDBRANCH  27  33
ENDBRANCH   3  27
TORSDOF 15
