REMARK  16 active torsions:
REMARK  status: ('A' for Active; 'I' for Inactive)
REMARK    1  A    between atoms: C2_2  and  O2_4 
REMARK    2  A    between atoms: O2_4  and  C3_5 
REMARK    3  A    between atoms: C4_6  and  C5_7 
REMARK    4  A    between atoms: C5_7  and  N1_8 
REMARK    5  A    between atoms: N2_14  and  C7_15 
REMARK    6  A    between atoms: C7_15  and  C8_16 
REMARK    7  A    between atoms: C9_17  and  C10_18 
REMARK    8  A    between atoms: C13_27  and  N5_28 
REMARK    9  A    between atoms: N5_28  and  C14_30 
REMARK   10  A    between atoms: C16_33  and  N6_34 
REMARK   11  A    between atoms: C18_40  and  C19_41 
REMARK   12  A    between atoms: C19_41  and  O5_42 
REMARK   13  A    between atoms: C19_41  and  C22_46 
REMARK   14  A    between atoms: O5_42  and  C20_43 
REMARK   15  A    between atoms: N8_48  and  O7_50 
REMARK   16  A    between atoms: C24_54  and  C25_55 
ROOT
HETATM    1  C8  UNL     1       1.726   1.120  -0.465  1.00  0.00     0.004 C 
HETATM    2  C9  UNL     1       0.737   1.968  -0.626  1.00  0.00     0.116 C 
HETATM    3  N3  UNL     1      -0.590   1.828  -0.012  1.00  0.00    -0.337 N 
HETATM    4  C11 UNL     1      -1.208   3.004   0.586  1.00  0.00     0.285 C 
HETATM    5  C12 UNL     1      -0.281   3.903   1.352  1.00  0.00     0.063 C 
HETATM    6  N4  UNL     1      -2.077   2.404   1.621  1.00  0.00    -0.032 N 
ATOM      7  H41 UNL     1      -2.801   3.025   1.982  1.00  0.00     0.282 HD
ATOM      8  H42 UNL     1      -1.622   2.244   2.520  1.00  0.00     0.282 HD
HETATM    9  C13 UNL     1      -2.579   1.195   0.965  1.00  0.00     0.313 C 
HETATM   10  C17 UNL     1      -1.463   0.688   0.120  1.00  0.00     0.162 C 
HETATM   11  C18 UNL     1      -0.791  -0.572   0.622  1.00  0.00     0.139 C 
HETATM   12  N9  UNL     1       0.413  -0.795  -0.104  1.00  0.00    -0.396 N 
ATOM     13  H9  UNL     1       0.394  -1.400  -0.925  1.00  0.00     0.155 HD
HETATM   14  C24 UNL     1       1.624  -0.203   0.283  1.00  0.00     0.213 C 
ENDROOT
BRANCH   1  15
HETATM   15  C7  UNL     1       2.999   1.347  -1.053  1.00  0.00     0.170 C 
BRANCH  15  16
HETATM   16  N2  UNL     1       3.499   0.298  -1.994  1.00  0.00    -0.326 N 
HETATM   17  C3  UNL     1       4.492  -0.522  -1.716  1.00  0.00     0.169 A 
HETATM   18  C4  UNL     1       4.804  -1.466  -2.673  1.00  0.00     0.061 A 
HETATM   19  S1  UNL     1       3.675  -1.130  -3.901  1.00  0.00    -0.083 SA
HETATM   20  C6  UNL     1       2.870   0.165  -3.169  1.00  0.00     0.144 A 
BRANCH  17  21
HETATM   21  O2  UNL     1       5.279  -0.523  -0.537  1.00  0.00    -0.260 OA
BRANCH  21  22
HETATM   22  C2  UNL     1       5.307  -1.451   0.450  1.00  0.00     0.261 C 
HETATM   23  C1  UNL     1       6.248  -1.215   1.615  1.00  0.00     0.126 C 
HETATM   24  O1  UNL     1       4.604  -2.480   0.447  1.00  0.00    -0.265 OA
ENDBRANCH  21  22
ENDBRANCH  17  21
BRANCH  18  25
HETATM   25  C5  UNL     1       5.865  -2.515  -2.700  1.00  0.00     0.280 C 
BRANCH  25  26
HETATM   26  N1  UNL     1       5.750  -3.229  -3.968  1.00  0.00    -0.075 N 
ATOM     27  H13 UNL     1       4.816  -3.606  -4.128  1.00  0.00     0.274 HD
ATOM     28  H12 UNL     1       5.785  -2.609  -4.777  1.00  0.00     0.274 HD
ATOM     29  H11 UNL     1       6.475  -3.946  -3.986  1.00  0.00     0.274 HD
ENDBRANCH  25  26
ENDBRANCH  18  25
ENDBRANCH  15  16
ENDBRANCH   1  15
BRANCH   2  30
HETATM   30  C10 UNL     1       0.922   3.135  -1.409  1.00  0.00     0.227 C 
HETATM   31  O3  UNL     1      -0.017   3.996  -1.609  1.00  0.00    -0.643 OA
HETATM   32  O4  UNL     1       2.069   3.511  -2.045  1.00  0.00    -0.643 OA
ENDBRANCH   2  30
BRANCH  14  33
HETATM   33  C25 UNL     1       1.912   0.009   1.681  1.00  0.00     0.201 C 
HETATM   34  O8  UNL     1       2.263  -0.995   2.398  1.00  0.00    -0.646 OA
HETATM   35  O9  UNL     1       1.855   1.201   2.364  1.00  0.00    -0.646 OA
ENDBRANCH  14  33
BRANCH  11  36
HETATM   36  C19 UNL     1      -1.637  -1.793   0.323  1.00  0.00     0.203 C 
BRANCH  36  37
HETATM   37  O5  UNL     1      -2.887  -1.872   0.896  1.00  0.00    -0.308 OA
BRANCH  37  38
HETATM   38  C20 UNL     1      -4.093  -2.022   0.219  1.00  0.00     0.255 C 
HETATM   39  C21 UNL     1      -5.403  -2.100   0.911  1.00  0.00     0.126 C 
HETATM   40  O6  UNL     1      -3.967  -2.085  -1.022  1.00  0.00    -0.266 OA
ENDBRANCH  37  38
ENDBRANCH  36  37
BRANCH  36  41
HETATM   41  C22 UNL     1      -0.845  -3.060   0.557  1.00  0.00     0.037 C 
HETATM   42  C23 UNL     1      -0.317  -3.440   1.890  1.00  0.00     0.068 C 
HETATM   43  N8  UNL     1      -0.589  -3.880  -0.406  1.00  0.00    -0.275 N 
ATOM     44  H8  UNL     1      -0.051  -4.723  -0.205  1.00  0.00     0.193 HD
BRANCH  43  45
HETATM   45  O7  UNL     1      -1.010  -3.659  -1.674  1.00  0.00    -0.290 OA
ATOM     46  H7  UNL     1      -0.822  -4.263  -2.383  1.00  0.00     0.244 HD
ENDBRANCH  43  45
ENDBRANCH  36  41
ENDBRANCH  11  36
BRANCH   9  47
HETATM   47  N5  UNL     1      -3.708   1.662   0.185  1.00  0.00    -0.346 N 
ATOM     48  H5  UNL     1      -3.658   1.590  -0.831  1.00  0.00     0.163 HD
BRANCH  47  49
HETATM   49  C14 UNL     1      -4.895   2.222   0.771  1.00  0.00     0.111 A 
HETATM   50  C15 UNL     1      -4.974   2.322   2.147  1.00  0.00     0.101 A 
HETATM   51  S2  UNL     1      -6.508   3.030   2.373  1.00  0.00    -0.062 SA
HETATM   52  C16 UNL     1      -6.961   3.159   0.737  1.00  0.00     0.143 A 
HETATM   53  N7  UNL     1      -5.918   2.655   0.089  1.00  0.00    -0.323 N 
ATOM     54  H7  UNL     1      -5.917   2.607  -0.930  1.00  0.00     0.169 HD
BRANCH  52  55
HETATM   55  N6  UNL     1      -8.069   3.638   0.207  1.00  0.00    -0.380 N 
ATOM     56  H62 UNL     1      -8.871   4.025   0.705  1.00  0.00     0.158 HD
ATOM     57  H61 UNL     1      -8.340   3.715  -0.773  1.00  0.00     0.158 HD
ENDBRANCH  52  55
ENDBRANCH  47  49
ENDBRANCH   9  47
TORSDOF 16
