REMARK  15 active torsions:
REMARK  status: ('A' for Active; 'I' for Inactive)
REMARK    1  A    between atoms: C3_3  and  C4_4 
REMARK    2  A    between atoms: C4_4  and  C5_5 
REMARK    3  A    between atoms: C8_9  and  O2_11 
REMARK    4  A    between atoms: C15_19  and  C16_20 
REMARK    5  A    between atoms: C16_20  and  C17_21 
REMARK    6  A    between atoms: C17_21  and  C18_22 
REMARK       I    between atoms: N1_23  and  C19_25 
REMARK    7  A    between atoms: C19_25  and  C20_27 
REMARK    8  A    between atoms: C20_27  and  C21_28 
REMARK    9  A    between atoms: C21_28  and  N2_29 
REMARK   10  A    between atoms: C25_34  and  O6_35 
REMARK   11  A    between atoms: C26_37  and  C27_38 
REMARK   12  A    between atoms: C27_38  and  O7_39 
REMARK   13  A    between atoms: C28_41  and  C29_42 
REMARK   14  A    between atoms: C29_42  and  C30_43 
REMARK   15  A    between atoms: C30_43  and  C31_44 
ROOT
HETATM    1  C1  UNL     1      -8.390  -0.139  -0.961  1.00  0.00     0.012 C 
HETATM    2  C2  UNL     1      -7.235  -0.151  -0.613  1.00  0.00    -0.117 C 
HETATM    3  C3  UNL     1      -5.801  -0.171  -0.208  1.00  0.00     0.096 C 
ENDROOT
BRANCH   3   4
HETATM    4  C4  UNL     1      -4.928   0.223  -1.365  1.00  0.00     0.049 C 
BRANCH   4   5
HETATM    5  C5  UNL     1      -3.432   0.215  -1.049  1.00  0.00     0.158 C 
HETATM    6  O1  UNL     1      -3.205  -1.135  -0.664  1.00  0.00    -0.344 OA
HETATM    7  C6  UNL     1      -2.144  -1.901  -0.290  1.00  0.00     0.069 C 
HETATM    8  C7  UNL     1      -2.832  -2.990   0.028  1.00  0.00     0.044 C 
HETATM    9  C13 UNL     1      -0.712  -1.725  -0.211  1.00  0.00     0.118 C 
HETATM   10  C8  UNL     1      -2.497  -4.319   0.532  1.00  0.00     0.077 C 
HETATM   11  C9  UNL     1      -2.861  -4.461   2.018  1.00  0.00     0.051 C 
HETATM   12  C10 UNL     1      -1.094  -4.774   0.331  1.00  0.00     0.068 C 
HETATM   13  C11 UNL     1      -0.180  -3.853   1.024  1.00  0.00    -0.026 C 
HETATM   14  C12 UNL     1      -0.026  -2.573   0.789  1.00  0.00    -0.004 C 
HETATM   15  C14 UNL     1       0.052  -1.888  -1.474  1.00  0.00     0.177 C 
HETATM   16  C24 UNL     1      -0.360  -0.232  -0.006  1.00  0.00     0.181 C 
HETATM   17  O3  UNL     1      -0.119  -2.545  -2.454  1.00  0.00    -0.293 OA
HETATM   18  C15 UNL     1       1.245  -0.950  -1.272  1.00  0.00     0.193 C 
HETATM   19  O5  UNL     1       1.025  -0.390  -0.021  1.00  0.00    -0.368 OA
HETATM   20  C25 UNL     1      -0.964   0.322   1.206  1.00  0.00     0.180 C 
HETATM   21  C26 UNL     1      -2.252   1.079   1.092  1.00  0.00    -0.021 C 
HETATM   22  C28 UNL     1      -2.871   1.263  -0.237  1.00  0.00    -0.044 C 
BRANCH  10  23
HETATM   23  O2  UNL     1      -3.334  -5.241  -0.131  1.00  0.00    -0.386 OA
ATOM     24  H2  UNL     1      -3.116  -6.106   0.197  1.00  0.00     0.211 HD
ENDBRANCH  10  23
BRANCH  18  25
HETATM   25  C16 UNL     1       2.467  -1.766  -1.403  1.00  0.00     0.045 C 
BRANCH  25  26
HETATM   26  C17 UNL     1       3.724  -0.971  -1.262  1.00  0.00     0.047 C 
BRANCH  26  27
HETATM   27  C18 UNL     1       3.876  -0.383   0.067  1.00  0.00     0.064 C 
HETATM   28  N1  UNL     1       4.907   0.280   0.397  1.00  0.00    -0.341 N 
HETATM   29  C19 UNL     1       6.006   0.542  -0.412  1.00  0.00     0.222 C 
ATOM     30  H1  UNL     1       4.931   0.656   1.345  1.00  0.00     0.167 HD
HETATM   31  O4  UNL     1       5.925   0.414  -1.663  1.00  0.00    -0.273 OA
BRANCH  29  32
HETATM   32  C20 UNL     1       7.317   0.984   0.199  1.00  0.00     0.133 C 
BRANCH  32  33
HETATM   33  C21 UNL     1       8.312   1.083  -0.918  1.00  0.00     0.280 C 
BRANCH  33  34
HETATM   34  N2  UNL     1       9.621   1.505  -0.514  1.00  0.00     0.080 N 
HETATM   35  C22 UNL     1       9.637   2.895  -0.079  1.00  0.00     0.309 C 
HETATM   36  C23 UNL     1      10.097   0.695   0.606  1.00  0.00     0.309 C 
ENDBRANCH  33  34
ENDBRANCH  32  33
ENDBRANCH  29  32
ENDBRANCH  26  27
ENDBRANCH  25  26
ENDBRANCH  18  25
BRANCH  20  37
HETATM   37  O6  UNL     1      -1.247  -0.758   2.085  1.00  0.00    -0.388 OA
ATOM     38  H6  UNL     1      -1.639  -0.398   2.872  1.00  0.00     0.210 HD
ENDBRANCH  20  37
BRANCH  21  39
HETATM   39  C27 UNL     1      -3.152   0.928   2.271  1.00  0.00     0.201 C 
BRANCH  39  40
HETATM   40  O7  UNL     1      -3.584  -0.301   2.621  1.00  0.00    -0.397 OA
ATOM     41  H7  UNL     1      -4.157  -0.397   3.372  1.00  0.00     0.209 HD
ENDBRANCH  39  40
ENDBRANCH  21  39
BRANCH  22  42
HETATM   42  C29 UNL     1      -3.607   2.605  -0.208  1.00  0.00     0.037 C 
BRANCH  42  43
HETATM   43  C30 UNL     1      -3.653   3.298  -1.544  1.00  0.00     0.004 C 
BRANCH  43  44
HETATM   44  C31 UNL     1      -4.451   4.578  -1.355  1.00  0.00    -0.004 C 
HETATM   45  C32 UNL     1      -3.809   5.475  -0.323  1.00  0.00     0.005 C 
ENDBRANCH  43  44
ENDBRANCH  42  43
ENDBRANCH  22  42
ENDBRANCH   4   5
ENDBRANCH   3   4
TORSDOF 15
