REMARK  7 active torsions:
REMARK  status: ('A' for Active; 'I' for Inactive)
REMARK    1  A    between atoms: C2_2  and  O1_3 
REMARK    2  A    between atoms: O1_3  and  C3_4 
REMARK    3  A    between atoms: C3_4  and  C4_6 
REMARK    4  A    between atoms: C7_11  and  N2_12 
REMARK    5  A    between atoms: N2_12  and  N3_14 
REMARK    6  A    between atoms: C8_16  and  C9_17 
REMARK    7  A    between atoms: C15_31  and  N7_32 
ROOT
HETATM    1  C4  UNL     1       2.586  -0.547  -0.634  1.00  0.00     0.106 A 
HETATM    2  C5  UNL     1       2.244  -1.462   0.324  1.00  0.00     0.043 A 
HETATM    3  C6  UNL     1       3.257  -1.865   1.324  1.00  0.00     0.070 C 
HETATM    4  N1  UNL     1       0.996  -1.962   0.318  1.00  0.00    -0.193 N 
ATOM      5  H1  UNL     1       0.731  -2.645   1.027  1.00  0.00     0.184 HD
HETATM    6  C7  UNL     1       0.088  -1.583  -0.601  1.00  0.00     0.698 A 
HETATM    7  N6  UNL     1       0.409  -0.687  -1.545  1.00  0.00    -0.175 N 
ATOM      8  H6  UNL     1      -0.280  -0.401  -2.241  1.00  0.00     0.186 HD
HETATM    9  C15 UNL     1       1.668  -0.163  -1.563  1.00  0.00     0.133 A 
ENDROOT
BRANCH   6  10
HETATM   10  N2  UNL     1      -1.113  -2.057  -0.615  1.00  0.00    -0.132 N 
ATOM     11  H2  UNL     1      -1.372  -2.740   0.097  1.00  0.00     0.205 HD
BRANCH  10  12
HETATM   12  N3  UNL     1      -2.048  -1.694  -1.528  1.00  0.00    -0.295 N 
HETATM   13  C8  UNL     1      -3.158  -1.103  -1.421  1.00  0.00     0.139 C 
ATOM     14  H3  UNL     1      -1.808  -1.948  -2.486  1.00  0.00     0.186 HD
BRANCH  13  15
HETATM   15  C9  UNL     1      -3.737  -0.636  -0.180  1.00  0.00     0.074 A 
HETATM   16  C10 UNL     1      -3.228  -0.731   1.089  1.00  0.00     0.121 A 
HETATM   17  N4  UNL     1      -4.123  -0.155   1.925  1.00  0.00    -0.348 N 
HETATM   18  C11 UNL     1      -5.144   0.275   1.175  1.00  0.00     0.137 A 
ATOM     19  H4  UNL     1      -4.035  -0.065   2.937  1.00  0.00     0.167 HD
HETATM   20  C12 UNL     1      -6.366   0.926   1.300  1.00  0.00     0.103 A 
HETATM   21  N5  UNL     1      -4.949   0.002  -0.110  1.00  0.00    -0.282 N 
HETATM   22 CL1  UNL     1      -7.107   1.511   2.791  1.00  0.00    -0.078 Cl
HETATM   23  C13 UNL     1      -6.875   1.020   0.026  1.00  0.00     0.098 A 
HETATM   24 CL2  UNL     1      -8.402   1.754  -0.415  1.00  0.00    -0.079 Cl
HETATM   25  C14 UNL     1      -5.984   0.440  -0.852  1.00  0.00     0.136 A 
HETATM   26 CL3  UNL     1      -6.128   0.281  -2.604  1.00  0.00    -0.062 Cl
ENDBRANCH  13  15
ENDBRANCH  10  12
ENDBRANCH   6  10
BRANCH   9  27
HETATM   27  N7  UNL     1       1.979   0.696  -2.466  1.00  0.00    -0.384 N 
ATOM     28  H72 UNL     1       2.921   1.088  -2.479  1.00  0.00     0.157 HD
ATOM     29  H71 UNL     1       1.291   0.984  -3.162  1.00  0.00     0.157 HD
ENDBRANCH   9  27
BRANCH   1  30
HETATM   30  C3  UNL     1       3.922   0.006  -0.648  1.00  0.00     0.299 C 
HETATM   31  O2  UNL     1       4.802  -0.589  -1.322  1.00  0.00    -0.259 OA
BRANCH  30  32
HETATM   32  O1  UNL     1       4.290   1.147   0.032  1.00  0.00    -0.318 OA
BRANCH  32  33
HETATM   33  C2  UNL     1       5.566   1.710   0.042  1.00  0.00     0.174 C 
HETATM   34  C1  UNL     1       5.538   2.950   0.909  1.00  0.00     0.034 C 
ENDBRANCH  32  33
ENDBRANCH  30  32
ENDBRANCH   1  30
TORSDOF 7
