REMARK  5 active torsions:
REMARK  status: ('A' for Active; 'I' for Inactive)
REMARK    1  A    between atoms: N1_2  and  C2_4 
REMARK    2  A    between atoms: N2_6  and  C4_7 
REMARK    3  A    between atoms: C5_10  and  N4_11 
REMARK    4  A    between atoms: C7_18  and  C8_19 
REMARK    5  A    between atoms: C8_19  and  C9_20 
ROOT
HETATM    1  C4  UNL     1      -1.651  -1.349  -0.655  1.00  0.00     0.149 A 
HETATM    2  N3  UNL     1      -1.956  -2.450  -1.353  1.00  0.00    -0.175 N 
ATOM      3  H3  UNL     1      -2.945  -2.684  -1.440  1.00  0.00     0.186 HD
HETATM    4  C5  UNL     1      -1.082  -3.272  -1.947  1.00  0.00     0.678 A 
HETATM    5  N5  UNL     1       0.218  -2.949  -1.822  1.00  0.00    -0.183 N 
ATOM      6  H5  UNL     1       0.926  -3.541  -2.256  1.00  0.00     0.185 HD
HETATM    7  C6  UNL     1       0.604  -1.841  -1.123  1.00  0.00     0.122 A 
HETATM    8  S1  UNL     1       2.091  -1.091  -0.724  1.00  0.00    -0.056 SA
HETATM    9  C7  UNL     1       1.483   0.235   0.183  1.00  0.00     0.058 A 
HETATM   10  N6  UNL     1       0.184   0.026   0.126  1.00  0.00    -0.348 N 
ATOM     11  H6  UNL     1      -0.453   0.674   0.589  1.00  0.00     0.166 HD
HETATM   12  C15 UNL     1      -0.295  -1.005  -0.519  1.00  0.00     0.112 A 
ENDROOT
BRANCH   9  13
HETATM   13  C8  UNL     1       2.249   1.337   0.873  1.00  0.00     0.105 C 
BRANCH  13  14
HETATM   14  C9  UNL     1       3.669   1.139   0.500  1.00  0.00    -0.027 A 
HETATM   15  C10 UNL     1       4.537   0.559   1.435  1.00  0.00     0.011 A 
HETATM   16  C11 UNL     1       5.866   0.338   1.159  1.00  0.00     0.028 A 
HETATM   17  C12 UNL     1       6.351   0.700  -0.074  1.00  0.00     0.074 A 
HETATM   18 CL1  UNL     1       8.050   0.410  -0.407  1.00  0.00    -0.081 Cl
HETATM   19  C13 UNL     1       5.519   1.275  -1.018  1.00  0.00     0.160 A 
HETATM   20  F1  UNL     1       6.029   1.616  -2.208  1.00  0.00    -0.203 F 
HETATM   21  C14 UNL     1       4.176   1.493  -0.727  1.00  0.00     0.081 A 
HETATM   22 CL2  UNL     1       3.146   2.223  -1.940  1.00  0.00    -0.080 Cl
ENDBRANCH  13  14
ENDBRANCH   9  13
BRANCH   1  23
HETATM   23  N2  UNL     1      -2.671  -0.554  -0.065  1.00  0.00    -0.361 N 
HETATM   24  C3  UNL     1      -4.120  -0.671   0.046  1.00  0.00     0.151 C 
HETATM   25  C2  UNL     1      -4.060   0.264   1.218  1.00  0.00     0.112 C 
HETATM   26  C16 UNL     1      -2.709   0.681   0.652  1.00  0.00     0.151 C 
BRANCH  25  27
HETATM   27  N1  UNL     1      -5.053   1.289   1.184  1.00  0.00    -0.418 N 
HETATM   28  C1  UNL     1      -4.961   2.194   0.088  1.00  0.00     0.140 C 
ATOM     29  H1  UNL     1      -5.779   1.368   1.896  1.00  0.00     0.153 HD
ENDBRANCH  25  27
ENDBRANCH   1  23
BRANCH   4  30
HETATM   30  N4  UNL     1      -1.516  -4.293  -2.586  1.00  0.00    -0.234 N 
ATOM     31  H42 UNL     1      -2.502  -4.538  -2.681  1.00  0.00     0.174 HD
ATOM     32  H41 UNL     1      -0.850  -4.919  -3.039  1.00  0.00     0.174 HD
ENDBRANCH   4  30
TORSDOF 5
