REMARK  9 active torsions:
REMARK  status: ('A' for Active; 'I' for Inactive)
REMARK    1  A    between atoms: C6_7  and  C7_8 
REMARK    2  A    between atoms: C7_8  and  N1_10 
REMARK    3  A    between atoms: C7_8  and  C16_28 
REMARK    4  A    between atoms: N1_10  and  C8_13 
REMARK    5  A    between atoms: C8_13  and  C9_14 
REMARK    6  A    between atoms: C10_16  and  O2_17 
REMARK    7  A    between atoms: C10_16  and  C11_19 
REMARK    8  A    between atoms: C14_22  and  O3_23 
REMARK    9  A    between atoms: C15_25  and  O4_26 
ROOT
HETATM    1  N1  UNL     1       1.238  -1.139  -0.673  1.00  0.00    -0.035 N 
ATOM      2  H11 UNL     1       0.868  -1.719  -1.426  1.00  0.00     0.280 HD
ATOM      3  H12 UNL     1       1.582  -0.371  -1.249  1.00  0.00     0.280 HD
ENDROOT
BRANCH   1   4
HETATM    4  C7  UNL     1       2.325  -1.817   0.100  1.00  0.00     0.340 C 
HETATM    5 CL2  UNL     1       1.732  -2.700   1.486  1.00  0.00    -0.072 Cl
BRANCH   4   6
HETATM    6  C6  UNL     1       3.293  -0.777   0.489  1.00  0.00     0.092 A 
HETATM    7  C5  UNL     1       4.391  -0.951   1.283  1.00  0.00     0.060 A 
HETATM    8  C4  UNL     1       5.345   0.014   1.558  1.00  0.00     0.028 A 
HETATM    9 CL1  UNL     1       4.576  -2.499   2.136  1.00  0.00    -0.082 Cl
HETATM   10  C3  UNL     1       5.198   1.252   1.007  1.00  0.00     0.026 A 
HETATM   11  C2  UNL     1       4.084   1.449   0.199  1.00  0.00     0.005 A 
HETATM   12  C1  UNL     1       3.988   2.838  -0.372  1.00  0.00     0.068 C 
HETATM   13  N2  UNL     1       3.185   0.489  -0.044  1.00  0.00    -0.359 N 
ATOM     14  H2  UNL     1       2.390   0.702  -0.646  1.00  0.00     0.165 HD
ENDBRANCH   4   6
BRANCH   4  15
HETATM   15  C16 UNL     1       2.919  -2.825  -0.894  1.00  0.00     0.441 C 
HETATM   16  F1  UNL     1       1.900  -3.748  -1.184  1.00  0.00    -0.167 F 
HETATM   17  F2  UNL     1       3.948  -3.524  -0.406  1.00  0.00    -0.167 F 
HETATM   18  F3  UNL     1       3.198  -2.188  -2.096  1.00  0.00    -0.167 F 
ENDBRANCH   4  15
ENDBRANCH   1   4
BRANCH   1  19
HETATM   19  C8  UNL     1       0.238  -0.730   0.249  1.00  0.00     0.270 C 
BRANCH  19  20
HETATM   20  C9  UNL     1      -1.001  -0.129  -0.399  1.00  0.00     0.182 C 
HETATM   21  O1  UNL     1      -1.840   0.222   0.636  1.00  0.00    -0.343 OA
HETATM   22  C10 UNL     1      -3.160   0.143   0.236  1.00  0.00     0.194 C 
HETATM   23  C14 UNL     1      -3.219  -0.866  -0.816  1.00  0.00     0.212 C 
HETATM   24  C15 UNL     1      -1.783  -1.174  -1.153  1.00  0.00     0.182 C 
BRANCH  22  25
HETATM   25  O2  UNL     1      -3.870  -0.269   1.391  1.00  0.00    -0.363 OA
ATOM     26  H2  UNL     1      -4.778  -0.323   1.116  1.00  0.00     0.213 HD
ENDBRANCH  22  25
BRANCH  22  27
HETATM   27  C11 UNL     1      -3.659   1.508  -0.098  1.00  0.00     0.043 C 
HETATM   28  C12 UNL     1      -5.069   1.593  -0.530  1.00  0.00     0.015 C 
HETATM   29  C13 UNL     1      -3.481   2.362   1.145  1.00  0.00     0.015 C 
ENDBRANCH  22  27
BRANCH  23  30
HETATM   30  O3  UNL     1      -3.910  -0.522  -1.962  1.00  0.00    -0.387 OA
ATOM     31  H3  UNL     1      -3.948  -1.179  -2.647  1.00  0.00     0.210 HD
ENDBRANCH  23  30
BRANCH  24  32
HETATM   32  O4  UNL     1      -1.508  -2.463  -0.701  1.00  0.00    -0.390 OA
ATOM     33  H4  UNL     1      -2.001  -3.122  -1.176  1.00  0.00     0.210 HD
ENDBRANCH  24  32
ENDBRANCH  19  20
ENDBRANCH   1  19
TORSDOF 9
