REMARK  8 active torsions:
REMARK  status: ('A' for Active; 'I' for Inactive)
REMARK    1  A    between atoms: O1_1  and  C1_3 
REMARK    2  A    between atoms: C1_3  and  C2_4 
REMARK    3  A    between atoms: C3_6  and  O3_7 
REMARK    4  A    between atoms: O3_7  and  C4_8 
REMARK    5  A    between atoms: C10_19  and  C11_20 
REMARK    6  A    between atoms: C11_20  and  O4_21 
REMARK    7  A    between atoms: C12_23  and  O5_24 
REMARK    8  A    between atoms: C13_26  and  O6_27 
ROOT
HETATM    1  C2  UNL     1      -1.881  -1.442   0.165  1.00  0.00     0.179 C 
HETATM    2  O2  UNL     1      -0.637  -1.152   0.680  1.00  0.00    -0.350 OA
HETATM    3  C3  UNL     1      -0.075   0.008   0.160  1.00  0.00     0.275 C 
HETATM    4  C10 UNL     1      -0.905   1.217   0.313  1.00  0.00     0.096 C 
HETATM    5  C12 UNL     1      -2.385   0.999   0.141  1.00  0.00     0.160 C 
HETATM    6  C13 UNL     1      -2.834  -0.372   0.560  1.00  0.00     0.178 C 
ENDROOT
BRANCH   3   7
HETATM    7  O3  UNL     1       1.144   0.176   0.850  1.00  0.00    -0.316 OA
BRANCH   7   8
HETATM    8  C4  UNL     1       2.396  -0.052   0.387  1.00  0.00     0.119 A 
HETATM    9  C5  UNL     1       3.121   0.933  -0.226  1.00  0.00     0.092 A 
HETATM   10 CL1  UNL     1       2.482   2.533  -0.444  1.00  0.00    -0.079 Cl
HETATM   11  C6  UNL     1       4.409   0.719  -0.709  1.00  0.00     0.082 A 
HETATM   12 CL2  UNL     1       5.321   1.992  -1.492  1.00  0.00    -0.081 Cl
HETATM   13  C7  UNL     1       4.995  -0.520  -0.577  1.00  0.00     0.081 A 
HETATM   14 CL3  UNL     1       6.635  -0.813  -1.185  1.00  0.00    -0.081 Cl
HETATM   15  C8  UNL     1       4.275  -1.519   0.039  1.00  0.00     0.082 A 
HETATM   16 CL4  UNL     1       5.052  -3.087   0.192  1.00  0.00    -0.081 Cl
HETATM   17  C9  UNL     1       3.000  -1.287   0.511  1.00  0.00     0.092 A 
HETATM   18 CL5  UNL     1       2.160  -2.639   1.288  1.00  0.00    -0.079 Cl
ENDBRANCH   7   8
ENDBRANCH   3   7
BRANCH   4  19
HETATM   19  C11 UNL     1      -0.737   1.901   1.665  1.00  0.00     0.176 C 
BRANCH  19  20
HETATM   20  O4  UNL     1      -1.550   3.031   1.735  1.00  0.00    -0.400 OA
ATOM     21  H4  UNL     1      -1.445   3.457   2.578  1.00  0.00     0.209 HD
ENDBRANCH  19  20
ENDBRANCH   4  19
BRANCH   1  22
HETATM   22  C1  UNL     1      -1.870  -1.706  -1.323  1.00  0.00     0.198 C 
BRANCH  22  23
HETATM   23  O1  UNL     1      -1.050  -2.790  -1.637  1.00  0.00    -0.398 OA
ATOM     24  H1  UNL     1      -1.043  -2.956  -2.572  1.00  0.00     0.209 HD
ENDBRANCH  22  23
ENDBRANCH   1  22
BRANCH   5  25
HETATM   25  O5  UNL     1      -2.790   1.215  -1.176  1.00  0.00    -0.392 OA
ATOM     26  H5  UNL     1      -3.724   1.077  -1.285  1.00  0.00     0.210 HD
ENDBRANCH   5  25
BRANCH   6  27
HETATM   27  O6  UNL     1      -4.113  -0.569   0.028  1.00  0.00    -0.390 OA
ATOM     28  H6  UNL     1      -4.722   0.115   0.280  1.00  0.00     0.210 HD
ENDBRANCH   6  27
TORSDOF 8
