REMARK  8 active torsions:
REMARK  status: ('A' for Active; 'I' for Inactive)
REMARK    1  A    between atoms: O1_1  and  C1_3 
REMARK    2  A    between atoms: C1_3  and  C2_4 
REMARK    3  A    between atoms: C3_6  and  O3_7 
REMARK    4  A    between atoms: O3_7  and  C4_8 
REMARK    5  A    between atoms: C4_8  and  C5_9 
REMARK    6  A    between atoms: C11_19  and  O4_20 
REMARK    7  A    between atoms: C12_23  and  O5_24 
REMARK    8  A    between atoms: C13_26  and  O6_27 
ROOT
HETATM    1  C2  UNL     1      -2.564  -0.921   0.864  1.00  0.00     0.179 C 
HETATM    2  O2  UNL     1      -1.209  -0.905   0.913  1.00  0.00    -0.347 OA
HETATM    3  C3  UNL     1      -0.573   0.066   0.190  1.00  0.00     0.313 C 
HETATM    4  C11 UNL     1      -1.245   1.398   0.531  1.00  0.00     0.212 C 
HETATM    5 CL5  UNL     1      -1.638   1.483   2.271  1.00  0.00    -0.080 Cl
HETATM    6  C12 UNL     1      -2.549   1.343  -0.255  1.00  0.00     0.204 C 
HETATM    7  C13 UNL     1      -3.265   0.092   0.083  1.00  0.00     0.182 C 
ENDROOT
BRANCH   3   8
HETATM    8  O3  UNL     1       0.752   0.169   0.521  1.00  0.00    -0.352 OA
BRANCH   8   9
HETATM    9  C4  UNL     1       1.501   0.002  -0.642  1.00  0.00     0.213 C 
BRANCH   9  10
HETATM   10  C5  UNL     1       2.952   0.107  -0.317  1.00  0.00     0.012 A 
HETATM   11  C6  UNL     1       3.912  -0.024  -1.308  1.00  0.00     0.066 A 
HETATM   12 CL1  UNL     1       3.393  -0.316  -2.954  1.00  0.00    -0.082 Cl
HETATM   13  C7  UNL     1       5.240   0.078  -0.978  1.00  0.00     0.058 A 
HETATM   14 CL2  UNL     1       6.432  -0.090  -2.242  1.00  0.00    -0.082 Cl
HETATM   15  C8  UNL     1       5.612   0.309   0.328  1.00  0.00     0.051 A 
HETATM   16  C9  UNL     1       4.683   0.446   1.349  1.00  0.00     0.058 A 
HETATM   17 CL3  UNL     1       5.161   0.740   3.007  1.00  0.00    -0.082 Cl
HETATM   18  C10 UNL     1       3.344   0.336   0.975  1.00  0.00     0.066 A 
HETATM   19 CL4  UNL     1       2.181   0.515   2.296  1.00  0.00    -0.082 Cl
ENDBRANCH   9  10
ENDBRANCH   8   9
ENDBRANCH   3   8
BRANCH   4  20
HETATM   20  O4  UNL     1      -0.487   2.477   0.133  1.00  0.00    -0.368 OA
ATOM     21  H4  UNL     1      -0.904   3.304   0.345  1.00  0.00     0.212 HD
ENDBRANCH   4  20
BRANCH   1  22
HETATM   22  C1  UNL     1      -2.985  -2.318   0.380  1.00  0.00     0.198 C 
BRANCH  22  23
HETATM   23  O1  UNL     1      -4.376  -2.401   0.307  1.00  0.00    -0.398 OA
ATOM     24  H1  UNL     1      -4.636  -3.264   0.008  1.00  0.00     0.209 HD
ENDBRANCH  22  23
ENDBRANCH   1  22
BRANCH   6  25
HETATM   25  O5  UNL     1      -2.201   1.459  -1.600  1.00  0.00    -0.388 OA
ATOM     26  H5  UNL     1      -3.014   1.425  -2.090  1.00  0.00     0.210 HD
ENDBRANCH   6  25
BRANCH   7  27
HETATM   27  O6  UNL     1      -3.702  -0.480  -1.137  1.00  0.00    -0.390 OA
ATOM     28  H6  UNL     1      -4.159   0.180  -1.646  1.00  0.00     0.210 HD
ENDBRANCH   7  27
TORSDOF 8
