REMARK  8 active torsions:
REMARK  status: ('A' for Active; 'I' for Inactive)
REMARK    1  A    between atoms: C2_2  and  C3_3 
REMARK    2  A    between atoms: C3_3  and  N1_4 
REMARK    3  A    between atoms: C4_5  and  N2_6 
REMARK    4  A    between atoms: N2_6  and  C5_8 
REMARK    5  A    between atoms: C5_8  and  C6_9 
REMARK    6  A    between atoms: C6_9  and  C7_10 
REMARK    7  A    between atoms: C9_14  and  O1_15 
REMARK    8  A    between atoms: C10_17  and  C11_18 
ROOT
HETATM    1  N2  UNL     1      -1.143   0.132  -0.725  1.00  0.00    -0.225 N 
ATOM      2  H2  UNL     1      -1.376  -0.854  -0.844  1.00  0.00     0.177 HD
ENDROOT
BRANCH   1   3
HETATM    3  C4  UNL     1      -2.120   0.885  -0.435  1.00  0.00     0.684 A 
HETATM    4  N1  UNL     1      -3.327   0.306  -0.320  1.00  0.00    -0.146 N 
HETATM    5  C15 UNL     1      -4.365   1.098  -0.013  1.00  0.00     0.282 A 
HETATM    6  C14 UNL     1      -4.182   2.475   0.179  1.00  0.00     0.118 A 
HETATM    7  O2  UNL     1      -5.525   0.648   0.115  1.00  0.00    -0.266 OA
HETATM    8  C13 UNL     1      -2.925   3.010   0.049  1.00  0.00     0.142 A 
HETATM    9 BR1  UNL     1      -5.630   3.632   0.618  1.00  0.00    -0.042 Br
HETATM   10  N4  UNL     1      -1.905   2.197  -0.259  1.00  0.00    -0.179 N 
HETATM   11 CL1  UNL     1      -2.687   4.739   0.287  1.00  0.00    -0.062 Cl
ATOM     12  H4  UNL     1      -0.964   2.577  -0.360  1.00  0.00     0.185 HD
BRANCH   4  13
HETATM   13  C3  UNL     1      -3.489  -1.088  -0.517  1.00  0.00     0.151 C 
BRANCH  13  14
HETATM   14  C2  UNL     1      -3.339  -1.927   0.719  1.00  0.00     0.016 C 
HETATM   15  C1  UNL     1      -3.534  -3.377   0.331  1.00  0.00     0.006 C 
ENDBRANCH  13  14
ENDBRANCH   4  13
ENDBRANCH   1   3
BRANCH   1  16
HETATM   16  C5  UNL     1       0.227   0.454  -0.909  1.00  0.00     0.142 C 
BRANCH  16  17
HETATM   17  C6  UNL     1       0.977   0.580   0.394  1.00  0.00     0.061 C 
BRANCH  17  18
HETATM   18  C7  UNL     1       2.399   0.909   0.221  1.00  0.00    -0.028 A 
HETATM   19  C8  UNL     1       2.950   2.175   0.387  1.00  0.00     0.098 A 
HETATM   20  N3  UNL     1       4.266   2.090   0.138  1.00  0.00    -0.346 N 
HETATM   21  C9  UNL     1       4.550   0.817  -0.175  1.00  0.00     0.149 A 
ATOM     22  H3  UNL     1       4.934   2.860   0.180  1.00  0.00     0.167 HD
HETATM   23  C10 UNL     1       3.412   0.049  -0.134  1.00  0.00     0.034 A 
BRANCH  21  24
HETATM   24  O1  UNL     1       5.828   0.387  -0.489  1.00  0.00    -0.346 OA
ATOM     25  H1  UNL     1       6.029  -0.515  -0.711  1.00  0.00     0.219 HD
ENDBRANCH  21  24
BRANCH  23  26
HETATM   26  C11 UNL     1       3.312  -1.401  -0.410  1.00  0.00     0.204 C 
HETATM   27  C12 UNL     1       4.686  -2.012  -0.698  1.00  0.00     0.050 C 
HETATM   28  F1  UNL     1       2.858  -2.024   0.749  1.00  0.00    -0.245 F 
ENDBRANCH  23  26
ENDBRANCH  17  18
ENDBRANCH  16  17
ENDBRANCH   1  16
TORSDOF 8
