REMARK  9 active torsions:
REMARK  status: ('A' for Active; 'I' for Inactive)
REMARK    1  A    between atoms: C2_2  and  C3_3 
REMARK    2  A    between atoms: C2_2  and  N1_26 
REMARK    3  A    between atoms: C3_3  and  C4_4 
REMARK    4  A    between atoms: C4_4  and  C5_5 
REMARK    5  A    between atoms: C6_6  and  C7_7 
REMARK    6  A    between atoms: C7_7  and  C8_8 
REMARK    7  A    between atoms: C8_8  and  C9_9 
REMARK    8  A    between atoms: C16_21  and  O3_22 
REMARK    9  A    between atoms: N1_26  and  C19_28 
ROOT
HETATM    1  C5  UNL     1      -1.155   0.181   0.176  1.00  0.00    -0.062 C 
HETATM    2  C6  UNL     1      -1.926   1.198  -0.701  1.00  0.00     0.050 C 
HETATM    3  C10 UNL     1      -3.275   0.693  -1.005  1.00  0.00     0.178 C 
HETATM    4  F1  UNL     1      -4.146   1.622  -1.516  1.00  0.00    -0.249 F 
HETATM    5  C11 UNL     1      -3.949   0.094   0.207  1.00  0.00     0.049 C 
HETATM    6  C12 UNL     1      -3.166  -1.006   0.833  1.00  0.00     0.075 C 
HETATM    7  C13 UNL     1      -3.974  -2.251   0.811  1.00  0.00     0.248 C 
HETATM    8  F2  UNL     1      -5.240  -1.925   1.269  1.00  0.00    -0.206 F 
HETATM    9  F3  UNL     1      -3.544  -3.303   1.538  1.00  0.00    -0.206 F 
HETATM   10  C14 UNL     1      -4.147  -2.627  -0.645  1.00  0.00     0.082 C 
HETATM   11  C15 UNL     1      -2.825  -2.974  -1.180  1.00  0.00     0.038 C 
HETATM   12  C16 UNL     1      -1.659  -2.107  -0.843  1.00  0.00     0.131 C 
HETATM   13  C17 UNL     1      -1.739  -1.172   0.287  1.00  0.00     0.015 C 
HETATM   14  C18 UNL     1      -0.988  -1.828   1.475  1.00  0.00     0.023 C 
ENDROOT
BRANCH   1  15
HETATM   15  C4  UNL     1       0.266   0.404   0.074  1.00  0.00     0.002 C 
BRANCH  15  16
HETATM   16  C3  UNL     1       1.340  -0.320   0.061  1.00  0.00    -0.002 C 
BRANCH  16  17
HETATM   17  C2  UNL     1       2.736   0.249  -0.066  1.00  0.00     0.096 C 
HETATM   18  C1  UNL     1       2.907   0.982  -1.370  1.00  0.00     0.036 C 
BRANCH  17  19
HETATM   19  N1  UNL     1       3.732  -0.731   0.098  1.00  0.00    -0.407 N 
ATOM     20  H1  UNL     1       3.469  -1.716   0.121  1.00  0.00     0.154 HD
BRANCH  19  21
HETATM   21  C19 UNL     1       5.078  -0.372   0.230  1.00  0.00     0.015 C 
HETATM   22  C20 UNL     1       5.340   0.506   1.467  1.00  0.00     0.037 C 
HETATM   23  C21 UNL     1       5.840  -1.687   0.574  1.00  0.00     0.037 C 
HETATM   24  C22 UNL     1       5.787   0.179  -0.951  1.00  0.00     0.037 C 
ENDBRANCH  19  21
ENDBRANCH  17  19
ENDBRANCH  16  17
ENDBRANCH  15  16
ENDBRANCH   1  15
BRANCH   2  25
HETATM   25  C7  UNL     1      -1.906   2.483   0.068  1.00  0.00     0.022 C 
BRANCH  25  26
HETATM   26  C8  UNL     1      -2.543   3.683  -0.498  1.00  0.00     0.114 C 
BRANCH  26  27
HETATM   27  C9  UNL     1      -2.281   4.803   0.508  1.00  0.00     0.172 C 
HETATM   28  O1  UNL     1      -1.633   4.600   1.561  1.00  0.00    -0.648 OA
HETATM   29  O2  UNL     1      -2.761   6.078   0.274  1.00  0.00    -0.648 OA
ENDBRANCH  26  27
ENDBRANCH  25  26
ENDBRANCH   2  25
BRANCH  12  30
HETATM   30  O3  UNL     1      -0.604  -3.055  -0.737  1.00  0.00    -0.394 OA
ATOM     31  H3  UNL     1       0.139  -2.503  -0.522  1.00  0.00     0.210 HD
ENDBRANCH  12  30
TORSDOF 9
