REMARK  7 active torsions:
REMARK  status: ('A' for Active; 'I' for Inactive)
REMARK    1  A    between atoms: N1_2  and  C2_3 
REMARK       I    between atoms: N1_2  and  C7_9 
REMARK    2  A    between atoms: C2_3  and  C3_4 
REMARK    3  A    between atoms: C3_4  and  C4_5 
REMARK    4  A    between atoms: C4_5  and  C5_6 
REMARK    5  A    between atoms: C5_6  and  C6_7 
REMARK       I    between atoms: C7_9  and  N2_11 
REMARK    6  A    between atoms: N2_11  and  C8_13 
REMARK    7  A    between atoms: C11_18  and  C12_19 
ROOT
HETATM    1  C8  UNL     1       1.699   0.337  -0.749  1.00  0.00     0.686 A 
HETATM    2  N3  UNL     1       1.394  -0.621  -1.644  1.00  0.00    -0.202 N 
ATOM      3  H3  UNL     1       0.451  -0.705  -2.022  1.00  0.00     0.183 HD
HETATM    4  C9  UNL     1       2.357  -1.452  -2.019  1.00  0.00     0.108 A 
HETATM    5  C10 UNL     1       3.657  -1.335  -1.498  1.00  0.00     0.050 A 
HETATM    6  C11 UNL     1       3.958  -0.362  -0.592  1.00  0.00     0.079 A 
HETATM    7  N5  UNL     1       2.954   0.458  -0.239  1.00  0.00    -0.189 N 
ATOM      8  H5  UNL     1       3.140   1.199   0.437  1.00  0.00     0.184 HD
ENDROOT
BRANCH   1   9
HETATM    9  N2  UNL     1       0.787   1.168  -0.357  1.00  0.00    -0.141 N 
HETATM   10  C7  UNL     1      -0.533   1.064  -0.874  1.00  0.00     0.336 C 
HETATM   11  N1  UNL     1      -1.489   0.145  -0.306  1.00  0.00    -0.338 N 
HETATM   12  O1  UNL     1      -0.818   1.811  -1.845  1.00  0.00    -0.246 OA
HETATM   13  C1  UNL     1      -1.076  -0.665   0.798  1.00  0.00     0.154 C 
ATOM     14  H2  UNL     1       1.015   1.895   0.321  1.00  0.00     0.189 HD
BRANCH  11  15
HETATM   15  C2  UNL     1      -2.778   0.077  -0.910  1.00  0.00     0.127 C 
BRANCH  15  16
HETATM   16  C3  UNL     1      -3.806   1.045  -0.417  1.00  0.00     0.020 C 
BRANCH  16  17
HETATM   17  C4  UNL     1      -4.190   0.942   1.022  1.00  0.00     0.002 C 
BRANCH  17  18
HETATM   18  C5  UNL     1      -4.796  -0.378   1.398  1.00  0.00     0.011 C 
BRANCH  18  19
HETATM   19  C6  UNL     1      -6.062  -0.669   0.617  1.00  0.00     0.086 C 
HETATM   20  S1  UNL     1      -7.327   0.573   0.885  1.00  0.00    -0.098 SA
ENDBRANCH  18  19
ENDBRANCH  17  18
ENDBRANCH  16  17
ENDBRANCH  15  16
ENDBRANCH  11  15
ENDBRANCH   1   9
BRANCH   6  21
HETATM   21  C12 UNL     1       5.276  -0.163   0.003  1.00  0.00     0.084 A 
HETATM   22  N4  UNL     1       5.564   0.820   0.914  1.00  0.00    -0.342 N 
HETATM   23  C13 UNL     1       6.842   0.767   1.286  1.00  0.00     0.127 A 
ATOM     24  H4  UNL     1       4.889   1.502   1.261  1.00  0.00     0.167 HD
HETATM   25 CL1  UNL     1       7.636   1.852   2.446  1.00  0.00    -0.063 Cl
HETATM   26  C14 UNL     1       7.423  -0.260   0.624  1.00  0.00     0.096 A 
HETATM   27 CL2  UNL     1       9.072  -0.806   0.709  1.00  0.00    -0.079 Cl
HETATM   28  C15 UNL     1       6.445  -0.849  -0.184  1.00  0.00     0.087 A 
HETATM   29 CL3  UNL     1       6.735  -2.235  -1.240  1.00  0.00    -0.080 Cl
ENDBRANCH   6  21
TORSDOF 7
