REMARK  9 active torsions:
REMARK  status: ('A' for Active; 'I' for Inactive)
REMARK    1  A    between atoms: C2_2  and  C3_3 
REMARK    2  A    between atoms: C4_8  and  N3_9 
REMARK    3  A    between atoms: N3_9  and  C5_11 
REMARK    4  A    between atoms: C7_13  and  N4_14 
REMARK    5  A    between atoms: N4_14  and  C8_16 
REMARK    6  A    between atoms: C8_16  and  C9_17 
REMARK    7  A    between atoms: C16_30  and  C17_31 
REMARK    8  A    between atoms: C17_31  and  C18_32 
REMARK    9  A    between atoms: C18_32  and  C19_33 
ROOT
HETATM    1  C5  UNL     1      -0.620  -0.081  -2.341  1.00  0.00     0.111 A 
HETATM    2  C6  UNL     1       0.455  -0.361  -1.385  1.00  0.00     0.096 A 
HETATM    3  C7  UNL     1       1.749  -0.446  -1.782  1.00  0.00     0.105 A 
HETATM    4  N5  UNL     1       1.981  -0.265  -3.118  1.00  0.00    -0.339 N 
ATOM      5  H5  UNL     1       2.943  -0.326  -3.451  1.00  0.00     0.168 HD
HETATM    6  C15 UNL     1       1.014  -0.011  -4.019  1.00  0.00     0.183 A 
HETATM    7  N6  UNL     1      -0.286   0.075  -3.591  1.00  0.00    -0.338 N 
ATOM      8  H6  UNL     1      -1.017   0.268  -4.275  1.00  0.00     0.168 HD
ENDROOT
BRANCH   1   9
HETATM    9  N3  UNL     1      -1.866  -0.131  -1.752  1.00  0.00    -0.327 N 
ATOM     10  H3  UNL     1      -2.197  -1.082  -1.588  1.00  0.00     0.169 HD
BRANCH   9  11
HETATM   11  C4  UNL     1      -2.684   0.756  -1.373  1.00  0.00     0.129 A 
HETATM   12  N2  UNL     1      -2.812   2.041  -1.375  1.00  0.00    -0.285 N 
HETATM   13  N1  UNL     1      -3.648   2.558  -0.524  1.00  0.00    -0.303 N 
ATOM     14  H2  UNL     1      -2.279   2.627  -2.018  1.00  0.00     0.188 HD
HETATM   15  C3  UNL     1      -4.148   1.417   0.137  1.00  0.00     0.035 A 
ATOM     16  H1  UNL     1      -3.883   3.539  -0.373  1.00  0.00     0.186 HD
HETATM   17  C16 UNL     1      -3.605   0.323  -0.330  1.00  0.00     0.011 A 
BRANCH  15  18
HETATM   18  C2  UNL     1      -5.013   1.627   1.354  1.00  0.00     0.055 C 
HETATM   19  C1  UNL     1      -4.078   2.105   2.508  1.00  0.00     0.011 C 
ENDBRANCH  15  18
BRANCH  17  20
HETATM   20  C17 UNL     1      -3.638  -1.150   0.044  1.00  0.00     0.045 C 
BRANCH  20  21
HETATM   21  C18 UNL     1      -2.661  -1.326   1.195  1.00  0.00     0.020 C 
BRANCH  21  22
HETATM   22  C19 UNL     1      -2.305  -2.754   1.541  1.00  0.00     0.115 C 
HETATM   23 CL2  UNL     1      -3.645  -3.762   2.022  1.00  0.00    -0.130 Cl
ENDBRANCH  21  22
ENDBRANCH  20  21
ENDBRANCH  17  20
ENDBRANCH   9  11
ENDBRANCH   1   9
BRANCH   3  24
HETATM   24  N4  UNL     1       2.743  -0.729  -1.126  1.00  0.00    -0.372 N 
ATOM     25  H4  UNL     1       3.594  -0.707  -1.687  1.00  0.00     0.161 HD
BRANCH  24  26
HETATM   26  C8  UNL     1       3.007  -1.089   0.258  1.00  0.00     0.161 C 
BRANCH  26  27
HETATM   27  C9  UNL     1       4.422  -0.633   0.425  1.00  0.00    -0.016 A 
HETATM   28  C10 UNL     1       4.666   0.735   0.081  1.00  0.00     0.011 A 
HETATM   29  C11 UNL     1       6.014   1.141   0.253  1.00  0.00     0.004 A 
HETATM   30  C12 UNL     1       7.015   0.429   0.672  1.00  0.00     0.044 A 
HETATM   31  C13 UNL     1       6.776  -0.989   1.046  1.00  0.00     0.138 A 
HETATM   32  F1  UNL     1       7.815  -1.703   1.380  1.00  0.00    -0.204 F 
HETATM   33  C14 UNL     1       5.467  -1.361   0.877  1.00  0.00     0.080 A 
HETATM   34 CL1  UNL     1       5.124  -3.062   1.339  1.00  0.00    -0.080 Cl
ENDBRANCH  26  27
ENDBRANCH  24  26
ENDBRANCH   3  24
TORSDOF 9
