REMARK  7 active torsions:
REMARK  status: ('A' for Active; 'I' for Inactive)
REMARK    1  A    between atoms: C3_3  and  O1_4 
REMARK    2  A    between atoms: O1_4  and  C4_5 
REMARK    3  A    between atoms: C4_5  and  C5_6 
REMARK    4  A    between atoms: C5_6  and  C6_7 
REMARK    5  A    between atoms: C16_22  and  O2_23 
REMARK    6  A    between atoms: C17_25  and  O3_27 
REMARK    7  A    between atoms: C19_29  and  O4_30 
ROOT
HETATM    1  C1  UNL     1       0.063  -2.740  -1.394  1.00  0.00     0.024 C 
HETATM    2  C2  UNL     1      -0.039  -1.780  -0.509  1.00  0.00    -0.008 C 
HETATM    3  C3  UNL     1       0.985  -1.716   0.555  1.00  0.00     0.162 C 
HETATM    4  N1  UNL     1       0.639  -1.194   1.669  1.00  0.00    -0.283 N 
ATOM      5  H1  UNL     1       1.323  -1.134   2.423  1.00  0.00     0.188 HD
HETATM    6  N2  UNL     1      -0.636  -0.710   1.877  1.00  0.00    -0.326 N 
ATOM      7  H2  UNL     1      -0.888  -0.484   2.839  1.00  0.00     0.180 HD
HETATM    8  C10 UNL     1      -1.654  -0.490   0.870  1.00  0.00     0.140 C 
HETATM    9  C11 UNL     1      -1.094  -0.735  -0.480  1.00  0.00     0.057 C 
HETATM   10  C12 UNL     1      -2.106  -1.027  -1.538  1.00  0.00     0.023 C 
HETATM   11  C13 UNL     1      -2.971  -2.219  -1.278  1.00  0.00     0.015 C 
HETATM   12  C14 UNL     1      -2.981   0.175  -1.816  1.00  0.00    -0.053 C 
HETATM   13  C15 UNL     1      -3.722   0.051  -2.912  1.00  0.00     0.017 C 
HETATM   14  C16 UNL     1      -3.162   1.445  -1.111  1.00  0.00     0.183 C 
HETATM   15  C17 UNL     1      -3.368   1.307   0.389  1.00  0.00     0.111 C 
HETATM   16  C18 UNL     1      -4.560   0.494   0.757  1.00  0.00     0.051 C 
HETATM   17  C19 UNL     1      -2.106   0.935   1.069  1.00  0.00     0.179 C 
ENDROOT
BRANCH   3  18
HETATM   18  O1  UNL     1       2.274  -2.198   0.373  1.00  0.00    -0.334 OA
BRANCH  18  19
HETATM   19  C4  UNL     1       3.390  -1.628   1.029  1.00  0.00     0.183 C 
BRANCH  19  20
HETATM   20  C5  UNL     1       3.479  -0.187   0.583  1.00  0.00     0.078 C 
BRANCH  20  21
HETATM   21  C6  UNL     1       4.609   0.530   1.196  1.00  0.00     0.015 C 
HETATM   22 CL1  UNL     1       4.674   0.664   2.939  1.00  0.00    -0.089 Cl
HETATM   23  C7  UNL     1       5.559   1.063   0.467  1.00  0.00    -0.070 C 
HETATM   24  C8  UNL     1       6.691   1.782   1.124  1.00  0.00     0.044 C 
HETATM   25  C9  UNL     1       5.579   0.992  -1.028  1.00  0.00     0.044 C 
ENDBRANCH  20  21
ENDBRANCH  19  20
ENDBRANCH  18  19
ENDBRANCH   3  18
BRANCH  17  26
HETATM   26  O4  UNL     1      -1.084   1.753   0.576  1.00  0.00    -0.390 OA
ATOM     27  H4  UNL     1      -1.369   2.651   0.701  1.00  0.00     0.210 HD
ENDBRANCH  17  26
BRANCH  15  28
HETATM   28  O3  UNL     1      -3.656   2.631   0.819  1.00  0.00    -0.385 OA
ATOM     29  H3  UNL     1      -3.785   2.545   1.756  1.00  0.00     0.210 HD
ENDBRANCH  15  28
BRANCH  14  30
HETATM   30  O2  UNL     1      -4.309   2.074  -1.592  1.00  0.00    -0.388 OA
ATOM     31  H2  UNL     1      -4.426   2.898  -1.134  1.00  0.00     0.210 HD
ENDBRANCH  14  30
TORSDOF 7
