REMARK  5 active torsions:
REMARK  status: ('A' for Active; 'I' for Inactive)
REMARK    1  A    between atoms: C2_5  and  N2_6 
REMARK    2  A    between atoms: N2_6  and  N3_8 
REMARK    3  A    between atoms: C9_19  and  C10_20 
REMARK    4  A    between atoms: C10_20  and  C11_21 
REMARK    5  A    between atoms: C11_21  and  C12_22 
ROOT
HETATM    1  O1  UNL     1       0.780  -0.973   1.191  1.00  0.00    -0.267 OA
HETATM    2  C1  UNL     1       0.305  -0.360   0.190  1.00  0.00     0.269 A 
HETATM    3  N1  UNL     1      -0.979  -0.482  -0.187  1.00  0.00    -0.154 N 
ATOM      4  H1  UNL     1      -1.578  -1.096   0.365  1.00  0.00     0.187 HD
HETATM    5  C2  UNL     1      -1.522   0.139  -1.225  1.00  0.00     0.700 A 
HETATM    6  N4  UNL     1      -0.724   0.956  -1.960  1.00  0.00    -0.179 N 
ATOM      7  H4  UNL     1      -1.107   1.449  -2.766  1.00  0.00     0.185 HD
HETATM    8  C8  UNL     1       0.568   1.117  -1.629  1.00  0.00     0.131 A 
HETATM    9 CL1  UNL     1       1.599   2.167  -2.568  1.00  0.00    -0.063 Cl
HETATM   10  C9  UNL     1       1.119   0.466  -0.548  1.00  0.00     0.050 A 
ENDROOT
BRANCH  10  11
HETATM   11  C10 UNL     1       2.540   0.636  -0.173  1.00  0.00     0.055 C 
BRANCH  11  12
HETATM   12  C11 UNL     1       3.285  -0.598  -0.616  1.00  0.00     0.083 C 
BRANCH  12  13
HETATM   13  C12 UNL     1       4.728  -0.528  -0.287  1.00  0.00     0.097 A 
HETATM   14  N5  UNL     1       5.539  -1.550  -0.608  1.00  0.00    -0.286 N 
HETATM   15  N6  UNL     1       6.850  -1.514  -0.323  1.00  0.00    -0.263 N 
ATOM     16  H5  UNL     1       5.151  -2.368  -1.077  1.00  0.00     0.188 HD
HETATM   17  C13 UNL     1       7.417  -0.459   0.297  1.00  0.00     0.298 A 
ATOM     18  H6  UNL     1       7.435  -2.308  -0.583  1.00  0.00     0.190 HD
HETATM   19  O2  UNL     1       8.650  -0.491   0.534  1.00  0.00    -0.263 OA
HETATM   20  C14 UNL     1       6.597   0.589   0.629  1.00  0.00     0.172 A 
HETATM   21  S1  UNL     1       7.247   1.890   1.383  1.00  0.00    -0.054 SA
HETATM   22  N7  UNL     1       5.282   0.533   0.333  1.00  0.00    -0.331 N 
ATOM     23  H7  UNL     1       4.686   1.321   0.587  1.00  0.00     0.168 HD
ENDBRANCH  12  13
ENDBRANCH  11  12
ENDBRANCH  10  11
BRANCH   5  24
HETATM   24  N2  UNL     1      -2.756   0.008  -1.568  1.00  0.00    -0.132 N 
ATOM     25  H2  UNL     1      -3.134   0.504  -2.375  1.00  0.00     0.205 HD
BRANCH  24  26
HETATM   26  N3  UNL     1      -3.557  -0.832  -0.801  1.00  0.00    -0.295 N 
HETATM   27  C3  UNL     1      -4.662  -0.508  -0.270  1.00  0.00     0.004 C 
HETATM   28  C4  UNL     1      -5.524  -1.379   0.543  1.00  0.00     0.054 C 
HETATM   29  C7  UNL     1      -5.329   0.801  -0.346  1.00  0.00     0.054 C 
HETATM   30  C5  UNL     1      -6.052  -0.430   1.604  1.00  0.00     0.006 C 
HETATM   31  C6  UNL     1      -5.847   0.977   1.071  1.00  0.00     0.006 C 
ATOM     32  H3  UNL     1      -3.229  -1.786  -0.654  1.00  0.00     0.186 HD
ENDBRANCH  24  26
ENDBRANCH   5  24
TORSDOF 5
