REMARK  9 active torsions:
REMARK  status: ('A' for Active; 'I' for Inactive)
REMARK    1  A    between atoms: C2_2  and  O1_3 
REMARK    2  A    between atoms: O1_3  and  C3_4 
REMARK    3  A    between atoms: C3_4  and  C4_6 
REMARK    4  A    between atoms: C5_7  and  N1_8 
REMARK    5  A    between atoms: N1_8  and  N2_10 
REMARK    6  A    between atoms: N3_17  and  C12_18 
REMARK    7  A    between atoms: C12_18  and  N4_20 
REMARK    8  A    between atoms: N4_20  and  C13_22 
REMARK    9  A    between atoms: C16_28  and  N6_29 
ROOT
HETATM    1  C4  UNL     1      -0.849   1.296  -0.398  1.00  0.00     0.131 A 
HETATM    2  C5  UNL     1      -0.591  -0.059  -0.181  1.00  0.00     0.165 A 
HETATM    3  N3  UNL     1      -1.439  -0.820  -0.938  1.00  0.00    -0.209 N 
HETATM    4  N5  UNL     1      -2.206   0.011  -1.609  1.00  0.00    -0.274 N 
ATOM      5  H5  UNL     1      -2.939  -0.272  -2.259  1.00  0.00     0.189 HD
HETATM    6  C16 UNL     1      -1.888   1.293  -1.318  1.00  0.00     0.134 A 
ENDROOT
BRANCH   2   7
HETATM    7  N1  UNL     1       0.394  -0.551   0.710  1.00  0.00    -0.281 N 
ATOM      8  H1  UNL     1       0.075  -0.878   1.622  1.00  0.00     0.189 HD
BRANCH   7   9
HETATM    9  N2  UNL     1       1.719  -0.625   0.458  1.00  0.00    -0.306 N 
HETATM   10  C6  UNL     1       2.263  -0.283  -0.778  1.00  0.00     0.083 C 
HETATM   11  C7  UNL     1       3.508   0.554  -0.771  1.00  0.00     0.046 C 
HETATM   12  C8  UNL     1       4.642   0.036   0.033  1.00  0.00     0.005 C 
HETATM   13  C9  UNL     1       4.561  -1.462   0.114  1.00  0.00     0.002 C 
HETATM   14  C10 UNL     1       3.600  -1.958   1.143  1.00  0.00     0.022 C 
HETATM   15  C11 UNL     1       2.569  -0.925   1.547  1.00  0.00     0.148 C 
ENDBRANCH   7   9
ENDBRANCH   2   7
BRANCH   1  16
HETATM   16  C3  UNL     1      -0.206   2.442   0.225  1.00  0.00     0.301 C 
HETATM   17  O2  UNL     1       0.694   2.319   1.086  1.00  0.00    -0.259 OA
BRANCH  16  18
HETATM   18  O1  UNL     1      -0.557   3.729  -0.108  1.00  0.00    -0.318 OA
BRANCH  18  19
HETATM   19  C2  UNL     1       0.057   4.880   0.477  1.00  0.00     0.174 C 
HETATM   20  C1  UNL     1      -0.620   6.077  -0.202  1.00  0.00     0.034 C 
ENDBRANCH  18  19
ENDBRANCH  16  18
ENDBRANCH   1  16
BRANCH   3  21
HETATM   21  C12 UNL     1      -1.440  -2.244  -0.947  1.00  0.00     0.197 C 
HETATM   22  S1  UNL     1      -0.262  -3.067  -1.768  1.00  0.00    -0.039 SA
BRANCH  21  23
HETATM   23  N4  UNL     1      -2.426  -3.018  -0.302  1.00  0.00    -0.330 N 
ATOM     24  H4  UNL     1      -2.313  -4.030  -0.355  1.00  0.00     0.165 HD
BRANCH  23  25
HETATM   25  C13 UNL     1      -3.569  -2.544   0.420  1.00  0.00     0.170 C 
HETATM   26  C14 UNL     1      -4.136  -3.594   1.361  1.00  0.00     0.076 C 
HETATM   27  C15 UNL     1      -4.675  -2.406  -0.663  1.00  0.00     0.076 C 
HETATM   28  F1  UNL     1      -3.428  -1.378   1.081  1.00  0.00    -0.220 F 
ENDBRANCH  23  25
ENDBRANCH  21  23
ENDBRANCH   3  21
BRANCH   6  29
HETATM   29  N6  UNL     1      -2.463   2.309  -1.846  1.00  0.00    -0.383 N 
ATOM     30  H62 UNL     1      -2.223   3.276  -1.627  1.00  0.00     0.157 HD
ATOM     31  H61 UNL     1      -3.227   2.307  -2.522  1.00  0.00     0.157 HD
ENDBRANCH   6  29
TORSDOF 9
