REMARK  6 active torsions:
REMARK  status: ('A' for Active; 'I' for Inactive)
REMARK    1  A    between atoms: C2_2  and  C5_5 
REMARK    2  A    between atoms: C7_7  and  C8_8 
REMARK    3  A    between atoms: N1_9  and  C9_11 
REMARK    4  A    between atoms: C13_17  and  S1_18 
REMARK    5  A    between atoms: S1_18  and  O1_19 
REMARK    6  A    between atoms: C14_21  and  O2_22 
ROOT
HETATM    1  C5  UNL     1      -1.267   0.187   0.228  1.00  0.00    -0.015 A 
HETATM    2  C6  UNL     1       0.094  -0.007   0.218  1.00  0.00     0.023 A 
HETATM    3  C7  UNL     1       0.978   0.941  -0.236  1.00  0.00    -0.019 A 
HETATM    4  C12 UNL     1       0.414   2.133  -0.693  1.00  0.00     0.036 A 
HETATM    5  C13 UNL     1      -0.938   2.372  -0.702  1.00  0.00     0.062 A 
HETATM    6  C14 UNL     1      -1.793   1.395  -0.239  1.00  0.00     0.091 A 
ENDROOT
BRANCH   3   7
HETATM    7  C8  UNL     1       2.426   0.740  -0.249  1.00  0.00     0.095 C 
HETATM    8  N1  UNL     1       2.971  -0.348   0.167  1.00  0.00    -0.387 N 
ATOM      9  H1  UNL     1       2.385  -1.105   0.521  1.00  0.00     0.159 HD
BRANCH   8  10
HETATM   10  C9  UNL     1       4.403  -0.506   0.137  1.00  0.00     0.159 A 
HETATM   11  C10 UNL     1       5.060  -1.737   0.593  1.00  0.00     0.112 A 
HETATM   12  C11 UNL     1       4.938  -1.510  -0.885  1.00  0.00     0.265 A 
HETATM   13  F1  UNL     1       6.008  -1.043  -1.610  1.00  0.00    -0.204 F 
HETATM   14  F2  UNL     1       4.002  -2.323  -1.517  1.00  0.00    -0.204 F 
ENDBRANCH   8  10
ENDBRANCH   3   7
BRANCH   1  15
HETATM   15  C2  UNL     1      -2.231  -0.817   0.709  1.00  0.00    -0.021 C 
HETATM   16  C1  UNL     1      -1.586  -2.076   1.190  1.00  0.00     0.019 C 
HETATM   17  C3  UNL     1      -3.044  -0.259   1.884  1.00  0.00     0.019 C 
HETATM   18  C4  UNL     1      -3.225  -1.179  -0.374  1.00  0.00     0.019 C 
ENDBRANCH   1  15
BRANCH   5  19
HETATM   19  S1  UNL     1      -1.538   3.943  -1.315  1.00  0.00     0.028 SA
BRANCH  19  20
HETATM   20  O1  UNL     1      -1.852   3.906  -2.987  1.00  0.00    -0.325 OA
ATOM     21  H1  UNL     1      -2.170   4.740  -3.312  1.00  0.00     0.228 HD
ENDBRANCH  19  20
ENDBRANCH   5  19
BRANCH   6  22
HETATM   22  O2  UNL     1      -3.157   1.629  -0.245  1.00  0.00    -0.359 OA
ATOM     23  H2  UNL     1      -3.514   2.450  -0.562  1.00  0.00     0.217 HD
ENDBRANCH   6  22
TORSDOF 6
