REMARK  5 active torsions:
REMARK  status: ('A' for Active; 'I' for Inactive)
REMARK    1  A    between atoms: C5_5  and  N1_6 
REMARK       I    between atoms: N1_6  and  C6_8 
REMARK    2  A    between atoms: C6_8  and  C7_10 
REMARK    3  A    between atoms: C15_18  and  O2_19 
REMARK    4  A    between atoms: O2_19  and  C16_20 
REMARK    5  A    between atoms: C16_20  and  C17_22 
ROOT
HETATM    1  C7  UNL     1      -0.542  -0.579  -0.503  1.00  0.00     0.065 C 
HETATM    2  C8  UNL     1      -0.770   0.398  -1.671  1.00  0.00     0.028 C 
HETATM    3  C9  UNL     1      -0.027  -1.838  -1.129  1.00  0.00     0.021 C 
HETATM    4  C10 UNL     1      -1.193  -2.618  -1.629  1.00  0.00     0.002 C 
HETATM    5  C11 UNL     1      -1.900  -3.123  -0.395  1.00  0.00     0.011 C 
HETATM    6  C12 UNL     1      -2.343  -2.058   0.535  1.00  0.00    -0.020 C 
HETATM    7  C13 UNL     1      -2.203  -2.611   1.941  1.00  0.00     0.017 C 
HETATM    8  C14 UNL     1      -3.859  -1.899   0.315  1.00  0.00     0.017 C 
HETATM    9  C15 UNL     1      -1.717  -0.712   0.387  1.00  0.00     0.157 C 
ENDROOT
BRANCH   1  10
HETATM   10  C6  UNL     1       0.655   0.010   0.203  1.00  0.00     0.230 C 
HETATM   11  N1  UNL     1       1.884   0.194  -0.474  1.00  0.00    -0.333 N 
ATOM     12  H1  UNL     1       1.980  -0.070  -1.455  1.00  0.00     0.165 HD
HETATM   13  O1  UNL     1       0.489   0.317   1.405  1.00  0.00    -0.273 OA
BRANCH  11  14
HETATM   14  C5  UNL     1       3.005   0.764   0.250  1.00  0.00     0.234 C 
HETATM   15  C4  UNL     1       4.097  -0.281   0.313  1.00  0.00     0.084 C 
HETATM   16  C2  UNL     1       5.470   0.346   0.435  1.00  0.00     0.029 C 
HETATM   17  C1  UNL     1       5.576   1.280   1.623  1.00  0.00     0.038 C 
HETATM   18  C3  UNL     1       6.474  -0.784   0.535  1.00  0.00     0.038 C 
HETATM   19  N2  UNL     1       5.676   1.144  -0.756  1.00  0.00    -0.353 N 
HETATM   20  C21 UNL     1       4.584   1.943  -1.192  1.00  0.00     0.212 C 
ATOM     21  H2  UNL     1       6.563   1.133  -1.259  1.00  0.00     0.163 HD
HETATM   22  O4  UNL     1       3.438   1.958  -0.378  1.00  0.00    -0.301 OA
HETATM   23  S1  UNL     1       4.723   2.769  -2.570  1.00  0.00    -0.033 SA
ENDBRANCH  11  14
ENDBRANCH   1  10
BRANCH   9  24
HETATM   24  O2  UNL     1      -2.669   0.251  -0.107  1.00  0.00    -0.313 OA
BRANCH  24  25
HETATM   25  C16 UNL     1      -3.112   1.341   0.589  1.00  0.00     0.267 C 
HETATM   26  O3  UNL     1      -2.650   1.508   1.747  1.00  0.00    -0.264 OA
BRANCH  25  27
HETATM   27  C17 UNL     1      -4.089   2.329   0.078  1.00  0.00     0.044 A 
HETATM   28  C18 UNL     1      -4.102   3.642   0.834  1.00  0.00     0.026 C 
HETATM   29  C19 UNL     1      -4.484   2.342  -1.348  1.00  0.00     0.020 A 
HETATM   30  C20 UNL     1      -5.463   1.833  -0.313  1.00  0.00     0.020 A 
ENDBRANCH  25  27
ENDBRANCH  24  25
ENDBRANCH   9  24
TORSDOF 5
