REMARK  6 active torsions:
REMARK  status: ('A' for Active; 'I' for Inactive)
REMARK    1  A    between atoms: C2_2  and  O2_4 
REMARK    2  A    between atoms: O2_4  and  C3_5 
REMARK    3  A    between atoms: C3_5  and  C6_8 
REMARK    4  A    between atoms: C7_9  and  C8_10 
REMARK    5  A    between atoms: C10_12  and  O3_13 
REMARK    6  A    between atoms: C15_19  and  O4_20 
ROOT
HETATM    1  C8  UNL     1       0.553  -0.638   0.495  1.00  0.00     0.034 C 
HETATM    2  C9  UNL     1       1.411  -1.420   1.473  1.00  0.00     0.025 C 
HETATM    3  C10 UNL     1       0.055  -1.574  -0.540  1.00  0.00     0.164 C 
HETATM    4  C11 UNL     1      -1.360  -1.537  -0.815  1.00  0.00    -0.019 C 
HETATM    5  C12 UNL     1      -2.257  -2.490  -0.790  1.00  0.00    -0.013 C 
HETATM    6  C13 UNL     1      -3.618  -1.958  -1.154  1.00  0.00     0.020 C 
HETATM    7  C14 UNL     1      -3.090  -0.920  -2.166  1.00  0.00     0.052 C 
HETATM    8  C15 UNL     1      -2.172  -0.311  -1.114  1.00  0.00     0.090 C 
HETATM    9  C16 UNL     1      -2.938  -0.287   0.201  1.00  0.00     0.061 C 
HETATM   10  C17 UNL     1      -2.673   0.951   0.860  1.00  0.00     0.281 C 
HETATM   11  N1  UNL     1      -1.225   1.126   0.824  1.00  0.00     0.094 N 
HETATM   12  C18 UNL     1      -0.989   2.408   1.455  1.00  0.00     0.273 C 
HETATM   13  C19 UNL     1      -0.460   1.954   2.823  1.00  0.00     0.032 C 
HETATM   14  C20 UNL     1       0.512   0.901   2.334  1.00  0.00     0.038 C 
HETATM   15  C21 UNL     1      -0.392   0.150   1.316  1.00  0.00     0.237 C 
HETATM   16  C22 UNL     1      -4.174  -0.935  -0.174  1.00  0.00    -0.032 C 
HETATM   17  C23 UNL     1      -4.860  -1.726   0.918  1.00  0.00     0.016 C 
HETATM   18  C24 UNL     1      -5.219  -0.063  -0.806  1.00  0.00     0.016 C 
ENDROOT
BRANCH   1  19
HETATM   19  C7  UNL     1       1.504   0.281  -0.180  1.00  0.00    -0.013 C 
HETATM   20  C6  UNL     1       2.787  -0.017  -0.332  1.00  0.00     0.007 C 
BRANCH  20  21
HETATM   21  C3  UNL     1       3.729   0.893  -0.999  1.00  0.00     0.081 C 
HETATM   22  C4  UNL     1       3.206   1.199  -2.385  1.00  0.00     0.051 C 
HETATM   23  C5  UNL     1       3.737   2.195  -0.228  1.00  0.00     0.051 C 
BRANCH  21  24
HETATM   24  O2  UNL     1       5.014   0.343  -1.130  1.00  0.00    -0.307 OA
BRANCH  24  25
HETATM   25  C2  UNL     1       5.763  -0.045  -0.013  1.00  0.00     0.255 C 
HETATM   26  C1  UNL     1       7.110  -0.619  -0.188  1.00  0.00     0.126 C 
HETATM   27  O1  UNL     1       5.233   0.121   1.105  1.00  0.00    -0.266 OA
ENDBRANCH  24  25
ENDBRANCH  21  24
ENDBRANCH  20  21
ENDBRANCH   1  19
BRANCH   3  28
HETATM   28  O3  UNL     1       0.694  -1.357  -1.761  1.00  0.00    -0.390 OA
ATOM     29  H3  UNL     1       0.375  -1.957  -2.425  1.00  0.00     0.210 HD
ENDBRANCH   3  28
BRANCH   8  30
HETATM   30  O4  UNL     1      -1.536   0.780  -1.511  1.00  0.00    -0.385 OA
ATOM     31  H4  UNL     1      -2.050   1.556  -1.700  1.00  0.00     0.211 HD
ENDBRANCH   8  30
TORSDOF 6
