REMARK  6 active torsions:
REMARK  status: ('A' for Active; 'I' for Inactive)
REMARK    1  A    between atoms: C2_2  and  O1_5 
REMARK    2  A    between atoms: O1_5  and  C5_6 
REMARK    3  A    between atoms: C11_12  and  C12_13 
REMARK    4  A    between atoms: C12_13  and  C13_14 
REMARK    5  A    between atoms: C13_14  and  O2_15 
REMARK    6  A    between atoms: C21_24  and  O3_25 
ROOT
HETATM    1  C5  UNL     1      -1.186   0.557  -0.471  1.00  0.00     0.144 C 
HETATM    2  C6  UNL     1       0.140   0.676  -0.433  1.00  0.00    -0.024 C 
HETATM    3  C7  UNL     1       0.894   1.987  -0.507  1.00  0.00     0.044 C 
HETATM    4  C8  UNL     1       2.094   1.461  -1.197  1.00  0.00    -0.001 C 
HETATM    5  C9  UNL     1       3.349   2.184  -1.192  1.00  0.00     0.006 C 
HETATM    6  C10 UNL     1       4.410   1.077  -0.996  1.00  0.00     0.006 C 
HETATM    7  C11 UNL     1       3.562  -0.210  -1.012  1.00  0.00    -0.003 C 
HETATM    8  C14 UNL     1       2.423   0.277  -0.219  1.00  0.00    -0.029 C 
HETATM    9  C15 UNL     1       2.733   0.872   1.128  1.00  0.00     0.016 C 
HETATM   10  C16 UNL     1       1.152  -0.417  -0.280  1.00  0.00     0.028 C 
HETATM   11  C17 UNL     1       0.705  -1.101   0.998  1.00  0.00     0.012 C 
HETATM   12  C18 UNL     1      -0.183  -2.222   0.634  1.00  0.00     0.035 C 
HETATM   13  C19 UNL     1      -1.540  -1.985   0.153  1.00  0.00     0.063 C 
HETATM   14  C20 UNL     1      -1.839  -3.065  -0.899  1.00  0.00     0.041 C 
HETATM   15  C21 UNL     1      -2.545  -2.257   1.280  1.00  0.00     0.215 C 
HETATM   16  C22 UNL     1      -3.933  -2.002   0.818  1.00  0.00     0.159 C 
HETATM   17  O4  UNL     1      -4.839  -2.321   1.550  1.00  0.00    -0.295 OA
HETATM   18  C23 UNL     1      -4.262  -1.384  -0.485  1.00  0.00     0.101 C 
HETATM   19  C24 UNL     1      -3.148  -0.644  -1.128  1.00  0.00     0.133 C 
HETATM   20  N1  UNL     1      -1.867  -0.726  -0.413  1.00  0.00    -0.349 N 
ENDROOT
BRANCH   1  21
HETATM   21  O1  UNL     1      -1.935   1.664  -0.574  1.00  0.00    -0.326 OA
BRANCH  21  22
HETATM   22  C2  UNL     1      -2.547   2.540   0.262  1.00  0.00     0.058 C 
HETATM   23  C1  UNL     1      -3.598   1.966   1.213  1.00  0.00     0.045 C 
HETATM   24  C3  UNL     1      -3.386   3.489  -0.633  1.00  0.00     0.045 C 
HETATM   25  C4  UNL     1      -1.699   3.414   1.148  1.00  0.00     0.045 C 
ENDBRANCH  21  22
ENDBRANCH   1  21
BRANCH  15  26
HETATM   26  O3  UNL     1      -2.409  -3.613   1.599  1.00  0.00    -0.386 OA
ATOM     27  H3  UNL     1      -3.031  -3.781   2.297  1.00  0.00     0.210 HD
ENDBRANCH  15  26
BRANCH   7  28
HETATM   28  C12 UNL     1       4.265  -1.442  -0.722  1.00  0.00     0.031 C 
BRANCH  28  29
HETATM   29  C13 UNL     1       4.954  -1.643   0.579  1.00  0.00     0.164 C 
BRANCH  29  30
HETATM   30  O2  UNL     1       5.568  -2.935   0.481  1.00  0.00    -0.401 OA
ATOM     31  H2  UNL     1       6.009  -3.064   1.313  1.00  0.00     0.209 HD
ENDBRANCH  29  30
ENDBRANCH  28  29
ENDBRANCH   7  28
TORSDOF 6
