REMARK  5 active torsions:
REMARK  status: ('A' for Active; 'I' for Inactive)
REMARK    1  A    between atoms: C6_7  and  C8_9 
REMARK    2  A    between atoms: C15_16  and  O2_17 
REMARK    3  A    between atoms: C17_20  and  O3_21 
REMARK    4  A    between atoms: C18_23  and  C19_24 
REMARK    5  A    between atoms: C20_25  and  C21_26 
ROOT
HETATM    1  C1  UNL     1       4.142  -1.165   0.512  1.00  0.00     0.015 C 
HETATM    2  C2  UNL     1       3.572  -0.749  -0.811  1.00  0.00     0.020 C 
HETATM    3  C3  UNL     1       2.679  -1.848  -1.393  1.00  0.00     0.087 C 
HETATM    4  C4  UNL     1       1.354  -1.339  -1.818  1.00  0.00     0.135 C 
HETATM    5  O1  UNL     1       0.883  -1.780  -2.880  1.00  0.00    -0.297 OA
HETATM    6  C5  UNL     1       0.513  -0.355  -1.120  1.00  0.00     0.103 C 
HETATM    7  C6  UNL     1      -0.178  -0.791   0.123  1.00  0.00    -0.021 C 
HETATM    8  C7  UNL     1      -0.414  -2.278   0.135  1.00  0.00     0.016 C 
HETATM    9  C16 UNL     1       1.089  -0.333   0.871  1.00  0.00     0.054 C 
HETATM   10  C17 UNL     1       1.455   0.491  -0.266  1.00  0.00     0.093 C 
HETATM   11  C18 UNL     1       2.827   0.517  -0.870  1.00  0.00    -0.041 C 
ENDROOT
BRANCH   7  12
HETATM   12  C8  UNL     1      -1.386  -0.030   0.542  1.00  0.00     0.024 C 
HETATM   13  C9  UNL     1      -2.456  -0.114  -0.537  1.00  0.00     0.016 C 
HETATM   14  C10 UNL     1      -3.712   0.590  -0.149  1.00  0.00    -0.047 C 
HETATM   15  C11 UNL     1      -3.652   2.086  -0.418  1.00  0.00     0.015 C 
HETATM   16  C12 UNL     1      -4.827   0.054  -1.056  1.00  0.00     0.015 C 
HETATM   17  C13 UNL     1      -4.127   0.394   1.270  1.00  0.00     0.011 C 
HETATM   18  C14 UNL     1      -3.387  -0.791   1.838  1.00  0.00     0.033 C 
HETATM   19  C15 UNL     1      -1.905  -0.439   1.898  1.00  0.00     0.123 C 
BRANCH  19  20
HETATM   20  O2  UNL     1      -1.256  -1.507   2.465  1.00  0.00    -0.395 OA
ATOM     21  H2  UNL     1      -1.583  -1.765   3.319  1.00  0.00     0.210 HD
ENDBRANCH  19  20
ENDBRANCH   7  12
BRANCH  10  22
HETATM   22  O3  UNL     1       1.010   1.825  -0.157  1.00  0.00    -0.384 OA
ATOM     23  H3  UNL     1       1.596   2.351   0.374  1.00  0.00     0.211 HD
ENDBRANCH  10  22
BRANCH  11  24
HETATM   24  C19 UNL     1       3.505   1.767  -0.567  1.00  0.00     0.009 C 
HETATM   25  C20 UNL     1       4.631   1.971   0.051  1.00  0.00     0.042 C 
BRANCH  25  26
HETATM   26  C21 UNL     1       5.176   3.326   0.275  1.00  0.00     0.258 C 
HETATM   27  O4  UNL     1       6.260   3.506   0.870  1.00  0.00    -0.302 OA
ENDBRANCH  25  26
ENDBRANCH  11  24
TORSDOF 5
