REMARK  6 active torsions:
REMARK  status: ('A' for Active; 'I' for Inactive)
REMARK    1  A    between atoms: C5_5  and  C6_6 
REMARK    2  A    between atoms: C6_6  and  C8_8 
REMARK    3  A    between atoms: C8_8  and  O1_9 
REMARK    4  A    between atoms: C8_8  and  C9_11 
REMARK    5  A    between atoms: C9_11  and  O2_12 
REMARK    6  A    between atoms: C9_11  and  C10_14 
ROOT
HETATM    1  C1  UNL     1      -3.430  -0.316   2.364  1.00  0.00     0.015 C 
HETATM    2  C2  UNL     1      -2.893  -0.031   1.195  1.00  0.00    -0.076 C 
HETATM    3  C3  UNL     1      -2.171   1.279   0.871  1.00  0.00     0.023 C 
HETATM    4  C4  UNL     1      -0.708   0.972   1.010  1.00  0.00     0.018 C 
HETATM    5  C5  UNL     1       0.013   0.844  -0.346  1.00  0.00     0.038 C 
HETATM    6  C13 UNL     1      -0.770  -0.003  -1.251  1.00  0.00     0.167 A 
HETATM    7  O3  UNL     1      -0.541   0.262  -2.701  1.00  0.00    -0.296 OA
HETATM    8  C14 UNL     1      -0.255  -1.025  -2.154  1.00  0.00     0.296 A 
HETATM    9  O4  UNL     1       0.192  -2.112  -2.652  1.00  0.00    -0.262 OA
HETATM   10  C15 UNL     1      -2.278   0.089  -1.044  1.00  0.00     0.052 C 
HETATM   11  C16 UNL     1      -2.838  -0.856  -0.043  1.00  0.00    -0.017 C 
HETATM   12  C17 UNL     1      -4.150  -1.470  -0.409  1.00  0.00     0.020 C 
HETATM   13  C18 UNL     1      -1.966  -2.049   0.285  1.00  0.00     0.020 C 
HETATM   14  C19 UNL     1      -2.679   1.437  -0.521  1.00  0.00    -0.032 C 
HETATM   15  C20 UNL     1      -2.297   2.627  -1.297  1.00  0.00     0.016 C 
HETATM   16  C21 UNL     1      -4.209   1.563  -0.395  1.00  0.00     0.016 C 
ENDROOT
BRANCH   5  17
HETATM   17  C6  UNL     1       1.487   0.603  -0.140  1.00  0.00     0.020 C 
HETATM   18  C7  UNL     1       2.118   0.607  -1.565  1.00  0.00     0.013 C 
BRANCH  17  19
HETATM   19  C8  UNL     1       1.915  -0.634   0.474  1.00  0.00     0.151 C 
BRANCH  19  20
HETATM   20  O1  UNL     1       1.353  -0.891   1.772  1.00  0.00    -0.393 OA
ATOM     21  H1  UNL     1       1.634  -1.704   2.175  1.00  0.00     0.210 HD
ENDBRANCH  19  20
BRANCH  19  22
HETATM   22  C9  UNL     1       3.330  -1.018   0.651  1.00  0.00     0.150 C 
BRANCH  22  23
HETATM   23  O2  UNL     1       3.500  -2.423   0.814  1.00  0.00    -0.393 OA
ATOM     24  H2  UNL     1       4.410  -2.670   0.928  1.00  0.00     0.210 HD
ENDBRANCH  22  23
BRANCH  22  25
HETATM   25  C10 UNL     1       4.470  -0.373   0.007  1.00  0.00     0.009 C 
HETATM   26  C11 UNL     1       5.784  -1.156   0.406  1.00  0.00     0.012 C 
HETATM   27  C12 UNL     1       4.746   0.978   0.707  1.00  0.00     0.012 C 
ENDBRANCH  22  25
ENDBRANCH  19  22
ENDBRANCH  17  19
ENDBRANCH   5  17
TORSDOF 6
