REMARK  5 active torsions:
REMARK  status: ('A' for Active; 'I' for Inactive)
REMARK    1  A    between atoms: C2_2  and  C4_4 
REMARK    2  A    between atoms: C11_11  and  O1_12 
REMARK    3  A    between atoms: C14_16  and  C15_17 
REMARK    4  A    between atoms: C15_17  and  O2_18 
REMARK    5  A    between atoms: C16_21  and  C17_22 
ROOT
HETATM    1  C4  UNL     1      -1.449  -1.263  -0.194  1.00  0.00     0.019 C 
HETATM    2  C5  UNL     1      -2.812  -0.647  -0.587  1.00  0.00     0.010 C 
HETATM    3  C6  UNL     1      -3.248   0.285   0.477  1.00  0.00     0.006 C 
HETATM    4  C7  UNL     1      -2.343   1.497   0.417  1.00  0.00    -0.008 C 
HETATM    5  C8  UNL     1      -3.046   2.467  -0.520  1.00  0.00     0.011 C 
HETATM    6  C9  UNL     1      -0.927   1.203   0.056  1.00  0.00    -0.009 C 
HETATM    7  C10 UNL     1      -0.579   1.788  -1.264  1.00  0.00     0.018 C 
HETATM    8  C11 UNL     1      -0.079   2.003   1.074  1.00  0.00     0.127 C 
HETATM    9  C12 UNL     1       1.369   1.849   0.854  1.00  0.00     0.041 C 
HETATM   10  C13 UNL     1       1.870   0.466   0.563  1.00  0.00     0.032 C 
HETATM   11  C14 UNL     1       3.217   0.581  -0.051  1.00  0.00     0.157 C 
HETATM   12  O3  UNL     1       3.411  -0.055  -1.284  1.00  0.00    -0.341 OA
HETATM   13  C16 UNL     1       2.334  -0.317  -2.115  1.00  0.00     0.104 C 
HETATM   14  C18 UNL     1       1.131  -0.510  -1.609  1.00  0.00     0.023 C 
HETATM   15  C19 UNL     1       0.919  -0.450  -0.147  1.00  0.00    -0.012 C 
HETATM   16  C20 UNL     1       1.367  -1.870   0.285  1.00  0.00     0.020 C 
HETATM   17  C21 UNL     1      -0.505  -0.234   0.277  1.00  0.00     0.017 C 
ENDROOT
BRANCH   1  18
HETATM   18  C2  UNL     1      -1.844  -2.342   0.732  1.00  0.00    -0.088 C 
HETATM   19  C1  UNL     1      -1.497  -2.549   1.971  1.00  0.00     0.014 C 
HETATM   20  C3  UNL     1      -2.801  -3.389   0.168  1.00  0.00     0.043 C 
ENDBRANCH   1  18
BRANCH   8  21
HETATM   21  O1  UNL     1      -0.394   1.597   2.373  1.00  0.00    -0.395 OA
ATOM     22  H1  UNL     1       0.127   2.088   2.998  1.00  0.00     0.210 HD
ENDBRANCH   8  21
BRANCH  11  23
HETATM   23  C15 UNL     1       4.330   0.064   0.876  1.00  0.00     0.197 C 
BRANCH  23  24
HETATM   24  O2  UNL     1       5.581   0.379   0.350  1.00  0.00    -0.398 OA
ATOM     25  H2  UNL     1       6.268   0.060   0.923  1.00  0.00     0.209 HD
ENDBRANCH  23  24
ENDBRANCH  11  23
BRANCH  13  26
HETATM   26  C17 UNL     1       2.559  -0.374  -3.549  1.00  0.00     0.294 C 
HETATM   27  O4  UNL     1       3.700  -0.192  -4.035  1.00  0.00    -0.299 OA
ENDBRANCH  13  26
TORSDOF 5
