REMARK  8 active torsions:
REMARK  status: ('A' for Active; 'I' for Inactive)
REMARK    1  A    between atoms: C4_6  and  N2_7 
REMARK    2  A    between atoms: N2_7  and  C5_9 
REMARK    3  A    between atoms: C8_12  and  C9_13 
REMARK    4  A    between atoms: C9_13  and  N3_16 
REMARK    5  A    between atoms: C14_22  and  C15_23 
REMARK    6  A    between atoms: N5_27  and  C17_29 
REMARK    7  A    between atoms: C17_29  and  C18_30 
REMARK    8  A    between atoms: N6_33  and  S1_34 
ROOT
HETATM    1  C1  UNL     1       2.059  -2.461   2.111  1.00  0.00     0.052 C 
HETATM    2  C2  UNL     1       1.080  -1.633   1.318  1.00  0.00    -0.019 A 
HETATM    3  C3  UNL     1      -0.215  -1.523   1.785  1.00  0.00     0.098 A 
HETATM    4  N1  UNL     1      -1.161  -0.824   1.146  1.00  0.00    -0.351 N 
ATOM      5  H1  UNL     1      -2.100  -0.779   1.542  1.00  0.00     0.166 HD
HETATM    6  C4  UNL     1      -0.899  -0.169  -0.025  1.00  0.00     0.119 A 
HETATM    7  C14 UNL     1       0.376  -0.261  -0.513  1.00  0.00     0.100 A 
HETATM    8  C16 UNL     1       1.395  -0.995   0.151  1.00  0.00     0.058 A 
HETATM    9  N5  UNL     1       2.510  -0.997  -0.365  1.00  0.00    -0.368 N 
ATOM     10  H5  UNL     1       2.453  -0.445  -1.221  1.00  0.00     0.165 HD
ENDROOT
BRANCH   6  11
HETATM   11  N2  UNL     1      -1.962   0.596  -0.600  1.00  0.00    -0.371 N 
ATOM     12  H2  UNL     1      -1.767   1.168  -1.422  1.00  0.00     0.161 HD
BRANCH  11  13
HETATM   13  C5  UNL     1      -3.312   0.588  -0.054  1.00  0.00     0.083 C 
HETATM   14  C6  UNL     1      -4.014  -0.675  -0.421  1.00  0.00     0.025 C 
HETATM   15  C7  UNL     1      -5.468  -0.631   0.081  1.00  0.00     0.009 C 
HETATM   16  C8  UNL     1      -6.103   0.505  -0.716  1.00  0.00     0.020 C 
HETATM   17  C12 UNL     1      -5.498   1.788  -0.244  1.00  0.00     0.009 C 
HETATM   18  C13 UNL     1      -4.029   1.812  -0.611  1.00  0.00     0.025 C 
BRANCH  16  19
HETATM   19  C9  UNL     1      -7.610   0.488  -0.573  1.00  0.00     0.120 C 
HETATM   20  C10 UNL     1      -8.205  -0.803  -1.071  1.00  0.00     0.046 C 
HETATM   21  C11 UNL     1      -8.032   0.652   0.869  1.00  0.00     0.046 C 
BRANCH  19  22
HETATM   22  N3  UNL     1      -8.188   1.564  -1.324  1.00  0.00    -0.071 N 
ATOM     23  H33 UNL     1      -7.790   2.467  -1.065  1.00  0.00     0.275 HD
ATOM     24  H32 UNL     1      -7.897   1.547  -2.301  1.00  0.00     0.275 HD
ATOM     25  H31 UNL     1      -9.203   1.553  -1.228  1.00  0.00     0.275 HD
ENDBRANCH  19  22
ENDBRANCH  16  19
ENDBRANCH  11  13
ENDBRANCH   6  11
BRANCH   7  26
HETATM   26  C15 UNL     1       0.699   0.376  -1.784  1.00  0.00     0.271 C 
HETATM   27  N4  UNL     1       2.049   0.278  -2.310  1.00  0.00    -0.057 NA
HETATM   28  O1  UNL     1      -0.072   1.024  -2.517  1.00  0.00    -0.271 OA
ENDBRANCH   7  26
BRANCH   9  29
HETATM   29  C17 UNL     1       3.801  -1.445  -0.249  1.00  0.00     0.066 C 
BRANCH  29  30
HETATM   30  C18 UNL     1       4.813  -0.633   0.510  1.00  0.00     0.033 C 
HETATM   31  C19 UNL     1       5.024   0.739  -0.067  1.00  0.00     0.056 C 
HETATM   32  C20 UNL     1       6.150   1.471   0.556  1.00  0.00     0.079 C 
HETATM   33  N6  UNL     1       7.269   0.737   0.957  1.00  0.00    -0.291 N 
HETATM   34  C22 UNL     1       7.150  -0.644   1.164  1.00  0.00     0.079 C 
HETATM   35  C23 UNL     1       6.154  -1.363   0.316  1.00  0.00     0.056 C 
BRANCH  33  36
HETATM   36  S1  UNL     1       8.809   1.360   0.592  1.00  0.00     0.115 S 
HETATM   37  C21 UNL     1       9.967   0.187  -0.065  1.00  0.00     0.153 C 
HETATM   38  O2  UNL     1       8.714   2.632  -0.198  1.00  0.00    -0.235 OA
ENDBRANCH  33  36
ENDBRANCH  29  30
ENDBRANCH   9  29
TORSDOF 8
