REMARK  7 active torsions:
REMARK  status: ('A' for Active; 'I' for Inactive)
REMARK    1  A    between atoms: C2_2  and  N1_4 
REMARK       I    between atoms: N1_4  and  C4_6 
REMARK    2  A    between atoms: C4_6  and  C5_8 
REMARK    3  A    between atoms: C5_8  and  N2_9 
REMARK    4  A    between atoms: N2_9  and  C6_11 
REMARK    5  A    between atoms: C11_16  and  C12_17 
REMARK    6  A    between atoms: C15_22  and  O4_23 
REMARK    7  A    between atoms: O4_23  and  C16_24 
ROOT
HETATM    1  C6  UNL     1      -0.573   1.423  -0.260  1.00  0.00     0.022 C 
HETATM    2  C7  UNL     1      -1.398   2.681  -0.132  1.00  0.00     0.036 C 
HETATM    3  C8  UNL     1      -0.972   3.546   1.033  1.00  0.00     0.015 C 
HETATM    4  C9  UNL     1       0.472   3.865   0.852  1.00  0.00    -0.009 C 
HETATM    5  C10 UNL     1       0.761   4.651  -0.393  1.00  0.00     0.025 C 
HETATM    6  C11 UNL     1       0.327   3.763  -1.555  1.00  0.00     0.052 C 
HETATM    7  C13 UNL     1      -1.134   3.505  -1.398  1.00  0.00     0.031 C 
HETATM    8  C14 UNL     1       1.171   2.537  -1.503  1.00  0.00     0.065 C 
HETATM    9  C15 UNL     1       0.908   1.689  -0.235  1.00  0.00     0.103 C 
HETATM   10  C23 UNL     1       1.301   2.605   0.904  1.00  0.00     0.049 C 
ENDROOT
BRANCH   9  11
HETATM   11  O4  UNL     1       1.688   0.618  -0.390  1.00  0.00    -0.350 OA
BRANCH  11  12
HETATM   12  C16 UNL     1       1.817  -0.403   0.456  1.00  0.00     0.217 C 
HETATM   13  C17 UNL     1       3.247  -0.548   0.914  1.00  0.00     0.055 C 
HETATM   14  C18 UNL     1       4.058  -1.522   0.133  1.00  0.00     0.028 C 
HETATM   15  C19 UNL     1       3.637  -2.932   0.204  1.00  0.00     0.050 A 
HETATM   16  C20 UNL     1       2.765  -3.289  -0.945  1.00  0.00     0.043 C 
HETATM   17  C22 UNL     1       3.638  -3.712   1.480  1.00  0.00     0.132 A 
HETATM   18  S1  UNL     1       4.926  -4.153   0.493  1.00  0.00     0.026 S 
HETATM   19  C21 UNL     1       1.929  -2.081  -1.305  1.00  0.00     0.118 C 
HETATM   20  N3  UNL     1       1.297  -1.617  -0.132  1.00  0.00    -0.397 N 
ATOM     21  H3  UNL     1       0.509  -2.115   0.282  1.00  0.00     0.155 HD
HETATM   22  O5  UNL     1       4.952  -5.528  -0.439  1.00  0.00    -0.257 OA
ENDBRANCH  11  12
ENDBRANCH   9  11
BRANCH   1  23
HETATM   23  N2  UNL     1      -1.035   0.307   0.480  1.00  0.00    -0.385 N 
ATOM     24  H2  UNL     1      -0.497  -0.108   1.241  1.00  0.00     0.159 HD
BRANCH  23  25
HETATM   25  C5  UNL     1      -2.330  -0.199   0.073  1.00  0.00     0.222 C 
BRANCH  25  26
HETATM   26  C4  UNL     1      -2.704  -1.420   0.823  1.00  0.00     0.235 C 
HETATM   27  N1  UNL     1      -3.932  -2.066   0.574  1.00  0.00    -0.356 N 
ATOM     28  H1  UNL     1      -4.552  -1.668  -0.131  1.00  0.00     0.162 HD
HETATM   29  O1  UNL     1      -1.911  -1.867   1.678  1.00  0.00    -0.272 OA
BRANCH  27  30
HETATM   30  C2  UNL     1      -4.362  -3.265   1.265  1.00  0.00     0.076 C 
HETATM   31  C1  UNL     1      -4.616  -4.398   0.262  1.00  0.00     0.032 C 
HETATM   32  C3  UNL     1      -5.693  -2.979   1.920  1.00  0.00     0.032 C 
ENDBRANCH  27  30
ENDBRANCH  25  26
ENDBRANCH  23  25
ENDBRANCH   1  23
BRANCH   6  33
HETATM   33  C12 UNL     1       0.583   4.428  -2.851  1.00  0.00     0.182 C 
HETATM   34  O2  UNL     1      -0.367   4.646  -3.644  1.00  0.00    -0.647 OA
HETATM   35  O3  UNL     1       1.849   4.834  -3.249  1.00  0.00    -0.647 OA
ENDBRANCH   6  33
TORSDOF 7
