REMARK  8 active torsions:
REMARK  status: ('A' for Active; 'I' for Inactive)
REMARK    1  A    between atoms: C5_6  and  O2_7 
REMARK    2  A    between atoms: C5_6  and  O3_9 
REMARK    3  A    between atoms: O3_9  and  C6_10 
REMARK    4  A    between atoms: C6_10  and  C7_11 
REMARK    5  A    between atoms: C11_19  and  N2_20 
REMARK       I    between atoms: N2_20  and  C12_22 
REMARK    6  A    between atoms: C12_22  and  C13_24 
REMARK    7  A    between atoms: C13_24  and  C14_25 
REMARK    8  A    between atoms: C14_25  and  C15_26 
ROOT
HETATM    1  O1  UNL     1       4.805  -4.285   3.782  1.00  0.00    -0.273 OA
HETATM    2  C1  UNL     1       4.381  -3.644   2.784  1.00  0.00     0.221 C 
HETATM    3  C2  UNL     1       5.467  -3.219   1.912  1.00  0.00     0.103 C 
HETATM    4  C3  UNL     1       5.427  -1.859   1.346  1.00  0.00     0.014 C 
HETATM    5  C4  UNL     1       4.133  -1.133   1.357  1.00  0.00     0.071 C 
HETATM    6  C5  UNL     1       3.106  -1.665   0.373  1.00  0.00     0.187 C 
HETATM    7  C11 UNL     1       1.856  -2.107   1.018  1.00  0.00     0.185 C 
HETATM    8  C25 UNL     1       2.003  -2.536   2.468  1.00  0.00     0.094 C 
HETATM    9  N3  UNL     1       2.969  -3.505   2.770  1.00  0.00    -0.339 N 
ATOM     10  H3  UNL     1       2.523  -4.372   3.070  1.00  0.00     0.167 HD
ENDROOT
BRANCH   7  11
HETATM   11  N2  UNL     1       0.833  -1.096   1.050  1.00  0.00    -0.347 N 
HETATM   12  C12 UNL     1      -0.499  -1.349   0.625  1.00  0.00     0.218 C 
HETATM   13  O5  UNL     1      -0.841  -2.478   0.199  1.00  0.00    -0.274 OA
ATOM     14  H2  UNL     1       1.072  -0.165   1.390  1.00  0.00     0.163 HD
BRANCH  12  15
HETATM   15  C13 UNL     1      -1.520  -0.274   0.678  1.00  0.00     0.103 C 
BRANCH  15  16
HETATM   16  C14 UNL     1      -2.851  -0.793   0.173  1.00  0.00     0.018 C 
BRANCH  16  17
HETATM   17  C15 UNL     1      -3.915   0.255   0.206  1.00  0.00    -0.039 C 
HETATM   18  C16 UNL     1      -3.548   1.447  -0.658  1.00  0.00     0.014 C 
HETATM   19  C17 UNL     1      -4.696   2.416  -0.703  1.00  0.00    -0.013 C 
HETATM   20  C18 UNL     1      -4.989   2.942   0.699  1.00  0.00     0.009 C 
HETATM   21  C22 UNL     1      -5.965   1.817  -1.233  1.00  0.00     0.009 C 
HETATM   22  C19 UNL     1      -5.300   1.760   1.580  1.00  0.00    -0.013 C 
HETATM   23  C20 UNL     1      -6.574   1.129   1.039  1.00  0.00     0.009 C 
HETATM   24  C24 UNL     1      -4.155   0.772   1.611  1.00  0.00     0.014 C 
HETATM   25  C21 UNL     1      -6.313   0.627  -0.355  1.00  0.00    -0.013 C 
HETATM   26  C23 UNL     1      -5.182  -0.357  -0.366  1.00  0.00     0.014 C 
ENDBRANCH  16  17
ENDBRANCH  15  16
ENDBRANCH  12  15
ENDBRANCH   7  11
BRANCH   6  27
HETATM   27  O2  UNL     1       3.690  -2.921  -0.074  1.00  0.00    -0.363 OA
ATOM     28  H2  UNL     1       3.048  -3.254  -0.690  1.00  0.00     0.213 HD
ENDBRANCH   6  27
BRANCH   6  29
HETATM   29  O3  UNL     1       3.026  -0.992  -0.768  1.00  0.00    -0.350 OA
BRANCH  29  30
HETATM   30  C6  UNL     1       2.601   0.214  -1.016  1.00  0.00     0.205 C 
BRANCH  30  31
HETATM   31  C7  UNL     1       2.796   0.478  -2.535  1.00  0.00     0.170 C 
HETATM   32  C8  UNL     1       2.256   1.838  -2.885  1.00  0.00     0.266 C 
HETATM   33  N1  UNL     1       3.009   2.830  -2.124  1.00  0.00    -0.071 N 
HETATM   34  C9  UNL     1       4.434   2.687  -2.312  1.00  0.00     0.258 C 
ATOM     35  H12 UNL     1       2.700   3.777  -2.342  1.00  0.00     0.277 HD
ATOM     36  H11 UNL     1       2.761   2.804  -1.135  1.00  0.00     0.277 HD
HETATM   37  C10 UNL     1       4.701   1.544  -3.240  1.00  0.00     0.196 C 
HETATM   38  O4  UNL     1       4.150   0.358  -2.825  1.00  0.00    -0.380 OA
ENDBRANCH  30  31
ENDBRANCH  29  30
ENDBRANCH   6  29
TORSDOF 8
