REMARK  10 active torsions:
REMARK  status: ('A' for Active; 'I' for Inactive)
REMARK    1  A    between atoms: O1_1  and  C1_3 
REMARK    2  A    between atoms: C1_3  and  N1_4 
REMARK    3  A    between atoms: C1_3  and  O3_25 
REMARK    4  A    between atoms: N1_4  and  C2_6 
REMARK    5  A    between atoms: C2_6  and  C3_7 
REMARK    6  A    between atoms: C2_6  and  C10_14 
REMARK    7  A    between atoms: C10_14  and  O2_15 
REMARK    8  A    between atoms: C10_14  and  N2_17 
REMARK    9  A    between atoms: N2_17  and  C11_19 
REMARK   10  A    between atoms: O3_25  and  C17_26 
ROOT
HETATM    1  C2  UNL     1      -0.614   1.312   0.764  1.00  0.00     0.164 C 
ENDROOT
BRANCH   1   2
HETATM    2  N1  UNL     1      -0.133   0.243  -0.153  1.00  0.00    -0.338 N 
ATOM      3  H1  UNL     1      -0.643   0.044  -1.014  1.00  0.00     0.164 HD
BRANCH   2   4
HETATM    4  C1  UNL     1       1.027  -0.496   0.166  1.00  0.00     0.259 C 
BRANCH   4   5
HETATM    5  O1  UNL     1       1.612  -0.133   1.290  1.00  0.00    -0.327 OA
ATOM      6  H1  UNL     1       2.393  -0.630   1.505  1.00  0.00     0.221 HD
ENDBRANCH   4   5
BRANCH   4   7
HETATM    7  O3  UNL     1       1.653  -1.505  -0.476  1.00  0.00    -0.308 OA
BRANCH   7   8
HETATM    8  C17 UNL     1       2.845  -2.104  -0.005  1.00  0.00     0.172 C 
HETATM    9  C18 UNL     1       2.741  -3.545   0.371  1.00  0.00     0.204 C 
HETATM   10  O4  UNL     1       3.443  -4.280  -0.553  1.00  0.00    -0.358 OA
HETATM   11  C19 UNL     1       4.350  -3.484  -1.189  1.00  0.00     0.274 C 
HETATM   12  O5  UNL     1       5.621  -3.647  -0.699  1.00  0.00    -0.353 OA
HETATM   13  C22 UNL     1       3.951  -2.037  -0.998  1.00  0.00     0.144 C 
HETATM   14  C20 UNL     1       6.275  -2.410  -0.881  1.00  0.00     0.250 C 
HETATM   15  C21 UNL     1       5.208  -1.476  -0.447  1.00  0.00     0.162 C 
HETATM   16  O6  UNL     1       5.364  -0.478   0.214  1.00  0.00    -0.295 OA
ENDBRANCH   7   8
ENDBRANCH   4   7
ENDBRANCH   2   4
ENDBRANCH   1   2
BRANCH   1  17
HETATM   17  C3  UNL     1      -0.600   2.592  -0.077  1.00  0.00     0.016 C 
HETATM   18  C4  UNL     1      -1.046   3.777   0.643  1.00  0.00     0.007 C 
HETATM   19  C5  UNL     1      -1.746   4.804  -0.292  1.00  0.00     0.000 C 
HETATM   20  C6  UNL     1      -0.975   4.897  -1.551  1.00  0.00     0.000 C 
HETATM   21  C7  UNL     1       0.481   5.090  -1.227  1.00  0.00     0.000 C 
HETATM   22  C8  UNL     1       1.270   3.843  -1.291  1.00  0.00     0.000 C 
HETATM   23  C9  UNL     1       0.851   2.676  -0.534  1.00  0.00     0.007 C 
ENDBRANCH   1  17
BRANCH   1  24
HETATM   24  C10 UNL     1      -1.836   0.998   1.484  1.00  0.00     0.135 C 
BRANCH  24  25
HETATM   25  O2  UNL     1      -2.177   1.879   2.497  1.00  0.00    -0.348 OA
ATOM     26  H2  UNL     1      -2.976   1.674   2.968  1.00  0.00     0.219 HD
ENDBRANCH  24  25
BRANCH  24  27
HETATM   27  N2  UNL     1      -2.065  -0.329   1.889  1.00  0.00    -0.368 N 
ATOM     28  H2  UNL     1      -1.942  -0.590   2.867  1.00  0.00     0.161 HD
BRANCH  27  29
HETATM   29  C11 UNL     1      -2.465  -1.303   0.945  1.00  0.00     0.083 C 
HETATM   30  C12 UNL     1      -2.015  -2.694   1.308  1.00  0.00     0.025 C 
HETATM   31  C13 UNL     1      -2.409  -3.630   0.176  1.00  0.00     0.002 C 
HETATM   32  C14 UNL     1      -3.868  -3.599  -0.084  1.00  0.00     0.000 C 
HETATM   33  C15 UNL     1      -4.386  -2.181  -0.273  1.00  0.00     0.002 C 
HETATM   34  C16 UNL     1      -4.026  -1.396   0.964  1.00  0.00     0.025 C 
ENDBRANCH  27  29
ENDBRANCH  24  27
ENDBRANCH   1  24
TORSDOF 10
