REMARK  9 active torsions:
REMARK  status: ('A' for Active; 'I' for Inactive)
REMARK    1  A    between atoms: C2_2  and  C3_4 
REMARK    2  A    between atoms: C4_5  and  O1_6 
REMARK    3  A    between atoms: C6_9  and  O2_10 
REMARK    4  A    between atoms: O2_10  and  C7_11 
REMARK    5  A    between atoms: C15_20  and  C16_21 
REMARK    6  A    between atoms: C17_22  and  C18_23 
REMARK    7  A    between atoms: C18_23  and  O4_24 
REMARK    8  A    between atoms: O4_24  and  C19_25 
REMARK    9  A    between atoms: C19_25  and  C20_27 
ROOT
HETATM    1  C7  UNL     1      -0.170  -1.216  -1.217  1.00  0.00     0.280 C 
HETATM    2  O3  UNL     1      -0.345  -2.538  -1.609  1.00  0.00    -0.331 OA
HETATM    3  C8  UNL     1      -0.758  -3.547  -0.734  1.00  0.00     0.145 C 
HETATM    4  C9  UNL     1      -1.829  -3.186  -0.004  1.00  0.00    -0.029 C 
HETATM    5  C10 UNL     1      -2.455  -4.084   0.996  1.00  0.00     0.041 C 
HETATM    6  C11 UNL     1      -3.907  -3.704   1.207  1.00  0.00     0.008 C 
HETATM    7  C12 UNL     1      -4.470  -2.916   0.048  1.00  0.00     0.028 C 
HETATM    8  C13 UNL     1      -3.682  -1.692  -0.241  1.00  0.00    -0.018 C 
HETATM    9  C14 UNL     1      -2.343  -1.855  -0.262  1.00  0.00    -0.041 C 
HETATM   10  C15 UNL     1      -1.422  -0.750  -0.521  1.00  0.00     0.097 C 
ENDROOT
BRANCH   1  11
HETATM   11  O2  UNL     1       0.887  -0.862  -0.525  1.00  0.00    -0.330 OA
BRANCH  11  12
HETATM   12  C6  UNL     1       1.845  -0.019  -0.815  1.00  0.00     0.265 C 
HETATM   13  C5  UNL     1       2.161   1.130   0.081  1.00  0.00     0.093 C 
HETATM   14  C4  UNL     1       3.161   0.758   1.160  1.00  0.00     0.136 C 
HETATM   15  C3  UNL     1       4.485   0.505   0.472  1.00  0.00     0.104 C 
HETATM   16  C21 UNL     1       4.150   0.133  -0.971  1.00  0.00     0.133 C 
HETATM   17  O8  UNL     1       3.045  -0.714  -1.010  1.00  0.00    -0.355 OA
HETATM   18  C22 UNL     1       5.343  -0.711  -1.445  1.00  0.00     0.040 C 
BRANCH  14  19
HETATM   19  O1  UNL     1       2.818  -0.443   1.786  1.00  0.00    -0.395 OA
ATOM     20  H1  UNL     1       1.987  -0.284   2.218  1.00  0.00     0.210 HD
ENDBRANCH  14  19
BRANCH  15  21
HETATM   21  C2  UNL     1       5.340   1.710   0.555  1.00  0.00     0.093 C 
HETATM   22  C1  UNL     1       6.530   1.674   1.114  1.00  0.00     0.052 C 
HETATM   23  F1  UNL     1       4.898   2.884   0.045  1.00  0.00    -0.211 F 
ENDBRANCH  15  21
ENDBRANCH  11  12
ENDBRANCH   1  11
BRANCH  10  24
HETATM   24  C16 UNL     1      -2.079   0.366  -1.265  1.00  0.00    -0.014 C 
HETATM   25  C17 UNL     1      -2.116   1.563  -0.684  1.00  0.00    -0.004 C 
BRANCH  25  26
HETATM   26  C18 UNL     1      -2.756   2.721  -1.371  1.00  0.00     0.206 C 
BRANCH  26  27
HETATM   27  O4  UNL     1      -3.815   3.258  -0.657  1.00  0.00    -0.309 OA
BRANCH  27  28
HETATM   28  C19 UNL     1      -3.690   3.807   0.598  1.00  0.00     0.360 C 
HETATM   29  O5  UNL     1      -2.560   3.833   1.137  1.00  0.00    -0.252 OA
BRANCH  28  30
HETATM   30  C20 UNL     1      -4.846   4.360   1.312  1.00  0.00     0.277 C 
HETATM   31  O6  UNL     1      -5.989   4.344   0.787  1.00  0.00    -0.640 OA
HETATM   32  O7  UNL     1      -4.714   4.910   2.570  1.00  0.00    -0.640 OA
ENDBRANCH  28  30
ENDBRANCH  27  28
ENDBRANCH  26  27
ENDBRANCH  25  26
ENDBRANCH  10  24
TORSDOF 9
