REMARK  10 active torsions:
REMARK  status: ('A' for Active; 'I' for Inactive)
REMARK    1  A    between atoms: C4_4  and  O1_5 
REMARK    2  A    between atoms: C5_7  and  O2_8 
REMARK    3  A    between atoms: O2_8  and  C6_9 
REMARK    4  A    between atoms: C6_9  and  C7_11 
REMARK    5  A    between atoms: C7_11  and  C8_12 
REMARK    6  A    between atoms: C8_12  and  C9_13 
REMARK    7  A    between atoms: C9_13  and  C10_14 
REMARK    8  A    between atoms: C10_14  and  C11_16 
REMARK    9  A    between atoms: C11_16  and  O5_17 
REMARK   10  A    between atoms: C19_27  and  O7_28 
ROOT
HETATM    1  C1  UNL     1      -1.414  -0.259  -3.944  1.00  0.00     0.010 C 
HETATM    2  C2  UNL     1      -1.900  -1.276  -2.980  1.00  0.00    -0.011 C 
HETATM    3  C3  UNL     1      -0.989  -2.455  -2.761  1.00  0.00     0.039 C 
HETATM    4  C4  UNL     1      -0.366  -2.396  -1.376  1.00  0.00     0.148 C 
HETATM    5  C5  UNL     1      -0.060  -0.948  -1.027  1.00  0.00     0.165 C 
HETATM    6  C12 UNL     1      -1.250  -0.078  -0.857  1.00  0.00     0.031 C 
HETATM    7  C13 UNL     1      -2.387  -0.738  -1.651  1.00  0.00     0.004 C 
HETATM    8  C14 UNL     1      -3.509   0.213  -1.960  1.00  0.00     0.083 C 
HETATM    9  C15 UNL     1      -4.449   0.166  -0.818  1.00  0.00     0.127 C 
HETATM   10  O6  UNL     1      -5.643   0.145  -1.116  1.00  0.00    -0.298 OA
HETATM   11  C16 UNL     1      -4.231   0.138   0.635  1.00  0.00     0.083 C 
HETATM   12  C17 UNL     1      -2.861  -0.259   1.087  1.00  0.00     0.003 C 
HETATM   13  C18 UNL     1      -2.876  -0.314   2.588  1.00  0.00     0.037 C 
HETATM   14  C19 UNL     1      -2.362   0.883   3.286  1.00  0.00     0.118 C 
HETATM   15  C20 UNL     1      -1.001   1.165   2.787  1.00  0.00     0.032 C 
HETATM   16  C21 UNL     1      -0.599   0.468   1.515  1.00  0.00     0.012 C 
HETATM   17  C22 UNL     1      -1.704   0.438   0.454  1.00  0.00    -0.033 C 
HETATM   18  C23 UNL     1      -2.075   1.930   0.306  1.00  0.00     0.016 C 
ENDROOT
BRANCH   5  19
HETATM   19  O2  UNL     1       1.033  -0.777  -0.226  1.00  0.00    -0.313 OA
BRANCH  19  20
HETATM   20  C6  UNL     1       2.272  -0.405  -0.614  1.00  0.00     0.259 C 
HETATM   21  O3  UNL     1       2.403  -0.205  -1.829  1.00  0.00    -0.265 OA
BRANCH  20  22
HETATM   22  C7  UNL     1       3.461  -0.220   0.264  1.00  0.00     0.111 C 
BRANCH  22  23
HETATM   23  C8  UNL     1       4.617   0.194  -0.604  1.00  0.00     0.017 C 
BRANCH  23  24
HETATM   24  C9  UNL     1       5.891   0.416   0.153  1.00  0.00     0.081 C 
BRANCH  24  25
HETATM   25  C10 UNL     1       5.766   1.535   1.094  1.00  0.00     0.150 C 
HETATM   26  O4  UNL     1       4.780   2.241   1.086  1.00  0.00    -0.296 OA
BRANCH  25  27
HETATM   27  C11 UNL     1       6.874   1.794   2.065  1.00  0.00     0.242 C 
BRANCH  27  28
HETATM   28  O5  UNL     1       7.861   0.840   1.853  1.00  0.00    -0.394 OA
ATOM     29  H5  UNL     1       8.565   1.004   2.470  1.00  0.00     0.209 HD
ENDBRANCH  27  28
ENDBRANCH  25  27
ENDBRANCH  24  25
ENDBRANCH  23  24
ENDBRANCH  22  23
ENDBRANCH  20  22
ENDBRANCH  19  20
ENDBRANCH   5  19
BRANCH   4  30
HETATM   30  O1  UNL     1      -1.028  -3.170  -0.540  1.00  0.00    -0.393 OA
ATOM     31  H1  UNL     1      -0.639  -3.133   0.326  1.00  0.00     0.210 HD
ENDBRANCH   4  30
BRANCH  14  32
HETATM   32  O7  UNL     1      -3.236   1.990   3.245  1.00  0.00    -0.396 OA
ATOM     33  H7  UNL     1      -2.906   2.759   3.694  1.00  0.00     0.210 HD
ENDBRANCH  14  32
TORSDOF 10
