REMARK  13 active torsions:
REMARK  status: ('A' for Active; 'I' for Inactive)
REMARK    1  A    between atoms: C2_2  and  C3_3 
REMARK    2  A    between atoms: C6_6  and  O1_7 
REMARK    3  A    between atoms: C7_9  and  C8_10 
REMARK    4  A    between atoms: C8_10  and  C9_11 
REMARK    5  A    between atoms: C9_11  and  C10_12 
REMARK    6  A    between atoms: C11_13  and  C13_15 
REMARK    7  A    between atoms: C13_15  and  C14_16 
REMARK    8  A    between atoms: C14_16  and  C15_18 
REMARK    9  A    between atoms: C22_26  and  O4_27 
REMARK   10  A    between atoms: C23_29  and  O5_30 
REMARK   11  A    between atoms: O5_30  and  C24_31 
REMARK   12  A    between atoms: C26_34  and  O7_35 
REMARK   13  A    between atoms: C27_37  and  O8_38 
ROOT
HETATM    1  C3  UNL     1      -0.985  -0.667  -1.817  1.00  0.00    -0.013 C 
HETATM    2  C4  UNL     1       0.180  -1.479  -1.551  1.00  0.00    -0.027 C 
HETATM    3  C5  UNL     1       0.527  -2.688  -1.842  1.00  0.00     0.022 C 
HETATM    4  C6  UNL     1       1.256  -0.704  -0.745  1.00  0.00     0.180 C 
HETATM    5  C7  UNL     1       0.536  -0.187   0.456  1.00  0.00     0.156 C 
HETATM    6  O3  UNL     1      -0.502   0.627   0.062  1.00  0.00    -0.364 OA
HETATM    7  C18 UNL     1      -1.567  -0.088  -0.542  1.00  0.00     0.121 C 
HETATM    8  C19 UNL     1      -2.460   1.103  -0.942  1.00  0.00     0.026 C 
HETATM    9  C20 UNL     1      -1.626   2.139  -1.669  1.00  0.00     0.014 C 
HETATM   10  C21 UNL     1      -2.838   1.736   0.381  1.00  0.00     0.042 C 
HETATM   11  C22 UNL     1      -4.220   1.306   0.721  1.00  0.00     0.150 C 
HETATM   12  C23 UNL     1      -4.578  -0.082   0.344  1.00  0.00     0.192 C 
HETATM   13  C26 UNL     1      -3.624  -1.152   0.569  1.00  0.00     0.182 C 
HETATM   14  C27 UNL     1      -2.179  -0.989   0.413  1.00  0.00     0.189 C 
ENDROOT
BRANCH   1  15
HETATM   15  C2  UNL     1      -1.976  -1.012  -2.807  1.00  0.00     0.001 C 
HETATM   16  C1  UNL     1      -2.344  -2.096  -3.379  1.00  0.00     0.012 C 
ENDBRANCH   1  15
BRANCH  14  17
HETATM   17  O8  UNL     1      -1.665  -2.300   0.235  1.00  0.00    -0.389 OA
ATOM     18  H8  UNL     1      -2.066  -2.891   0.861  1.00  0.00     0.210 HD
ENDBRANCH  14  17
BRANCH   5  19
HETATM   19  C8  UNL     1       1.465   0.703   1.245  1.00  0.00     0.039 C 
BRANCH  19  20
HETATM   20  C9  UNL     1       2.665  -0.097   1.688  1.00  0.00     0.030 C 
BRANCH  20  21
HETATM   21  C10 UNL     1       3.608   0.728   2.484  1.00  0.00    -0.024 C 
HETATM   22  C11 UNL     1       4.840   0.980   2.174  1.00  0.00    -0.080 C 
HETATM   23  C12 UNL     1       5.673   1.842   3.095  1.00  0.00     0.043 C 
BRANCH  22  24
HETATM   24  C13 UNL     1       5.529   0.486   0.967  1.00  0.00     0.116 C 
BRANCH  24  25
HETATM   25  C14 UNL     1       5.994   1.632   0.125  1.00  0.00     0.152 C 
HETATM   26  O2  UNL     1       5.789   2.822   0.535  1.00  0.00    -0.293 OA
BRANCH  25  27
HETATM   27  C15 UNL     1       6.659   1.430  -1.122  1.00  0.00     0.046 C 
HETATM   28  C16 UNL     1       6.982   0.353  -1.763  1.00  0.00    -0.027 C 
HETATM   29  C17 UNL     1       6.765  -1.052  -1.406  1.00  0.00     0.036 C 
ENDBRANCH  25  27
ENDBRANCH  24  25
ENDBRANCH  22  24
ENDBRANCH  20  21
ENDBRANCH  19  20
ENDBRANCH   5  19
BRANCH  13  30
HETATM   30  O7  UNL     1      -4.060  -2.273  -0.193  1.00  0.00    -0.390 OA
ATOM     31  H7  UNL     1      -3.435  -2.974  -0.046  1.00  0.00     0.210 HD
ENDBRANCH  13  30
BRANCH   4  32
HETATM   32  O1  UNL     1       1.556   0.382  -1.584  1.00  0.00    -0.388 OA
ATOM     33  H1  UNL     1       2.215   0.856  -1.091  1.00  0.00     0.210 HD
ENDBRANCH   4  32
BRANCH  11  34
HETATM   34  O4  UNL     1      -5.098   2.163   0.010  1.00  0.00    -0.393 OA
ATOM     35  H4  UNL     1      -5.981   1.888   0.227  1.00  0.00     0.210 HD
ENDBRANCH  11  34
BRANCH  12  36
HETATM   36  O5  UNL     1      -5.802  -0.424   1.021  1.00  0.00    -0.311 OA
BRANCH  36  37
HETATM   37  C24 UNL     1      -6.988  -0.671   0.410  1.00  0.00     0.255 C 
HETATM   38  C25 UNL     1      -8.190  -1.015   1.202  1.00  0.00     0.126 C 
HETATM   39  O6  UNL     1      -7.065  -0.608  -0.818  1.00  0.00    -0.266 OA
ENDBRANCH  36  37
ENDBRANCH  12  36
TORSDOF 13
