REMARK  13 active torsions:
REMARK  status: ('A' for Active; 'I' for Inactive)
REMARK    1  A    between atoms: C10_10  and  C11_11 
REMARK    2  A    between atoms: C11_11  and  C13_13 
REMARK    3  A    between atoms: C13_13  and  C15_15 
REMARK    4  A    between atoms: C15_15  and  C16_16 
REMARK    5  A    between atoms: C16_16  and  C17_17 
REMARK    6  A    between atoms: C17_17  and  O1_18 
REMARK    7  A    between atoms: C17_17  and  C18_20 
REMARK    8  A    between atoms: C18_20  and  C20_22 
REMARK    9  A    between atoms: C20_22  and  O3_24 
REMARK   10  A    between atoms: C23_29  and  C24_30 
REMARK   11  A    between atoms: C24_30  and  O6_31 
REMARK   12  A    between atoms: C26_34  and  O7_35 
REMARK   13  A    between atoms: C27_37  and  O8_38 
ROOT
HETATM    1  C1  UNL     1      -6.780  -1.922  -0.394  1.00  0.00     0.017 C 
HETATM    2  C2  UNL     1      -6.154  -0.859  -0.793  1.00  0.00    -0.058 C 
HETATM    3  C3  UNL     1      -4.666  -0.929  -1.067  1.00  0.00     0.042 C 
HETATM    4  C4  UNL     1      -3.957  -0.759   0.225  1.00  0.00     0.015 C 
HETATM    5  C5  UNL     1      -4.161   0.551   0.904  1.00  0.00    -0.006 C 
HETATM    6  C6  UNL     1      -3.146   1.587   0.621  1.00  0.00     0.006 C 
HETATM    7  C7  UNL     1      -1.696   1.107   0.692  1.00  0.00     0.013 C 
HETATM    8  C8  UNL     1      -1.505  -0.106  -0.094  1.00  0.00     0.003 C 
HETATM    9  C9  UNL     1      -1.902   0.215  -1.552  1.00  0.00     0.019 C 
HETATM   10  C10 UNL     1      -0.268  -0.853  -0.167  1.00  0.00     0.145 C 
HETATM   11  O4  UNL     1      -0.704  -2.240  -0.039  1.00  0.00    -0.314 OA
HETATM   12  C22 UNL     1      -2.051  -2.289  -0.364  1.00  0.00     0.271 C 
HETATM   13  O5  UNL     1      -2.554  -3.144  -1.108  1.00  0.00    -0.264 OA
HETATM   14  C23 UNL     1      -2.560  -1.156   0.375  1.00  0.00     0.083 C 
HETATM   15  C25 UNL     1      -5.550   1.110   0.860  1.00  0.00     0.039 C 
HETATM   16  C26 UNL     1      -6.084   1.554  -0.439  1.00  0.00     0.151 C 
HETATM   17  C27 UNL     1      -6.980   0.397  -0.958  1.00  0.00     0.175 C 
ENDROOT
BRANCH  10  18
HETATM   18  C11 UNL     1       1.051  -0.605   0.350  1.00  0.00     0.015 C 
HETATM   19  C12 UNL     1       1.885  -1.931   0.030  1.00  0.00     0.013 C 
BRANCH  18  20
HETATM   20  C13 UNL     1       1.968   0.386  -0.384  1.00  0.00    -0.012 C 
HETATM   21  C14 UNL     1       1.553   1.774  -0.512  1.00  0.00     0.010 C 
BRANCH  20  22
HETATM   22  C15 UNL     1       3.365   0.295   0.217  1.00  0.00     0.007 C 
BRANCH  22  23
HETATM   23  C16 UNL     1       4.293   1.238  -0.449  1.00  0.00     0.033 C 
BRANCH  23  24
HETATM   24  C17 UNL     1       5.715   1.234  -0.015  1.00  0.00     0.131 C 
BRANCH  24  25
HETATM   25  O1  UNL     1       5.857   1.514   1.357  1.00  0.00    -0.395 OA
ATOM     26  H1  UNL     1       6.766   1.511   1.634  1.00  0.00     0.210 HD
ENDBRANCH  24  25
BRANCH  24  27
HETATM   27  C18 UNL     1       6.621   0.164  -0.448  1.00  0.00     0.110 C 
HETATM   28  C19 UNL     1       6.295  -1.246  -0.045  1.00  0.00     0.023 C 
BRANCH  27  29
HETATM   29  C20 UNL     1       7.996   0.435   0.125  1.00  0.00     0.264 C 
HETATM   30  O2  UNL     1       8.177   1.452   0.835  1.00  0.00    -0.265 OA
BRANCH  29  31
HETATM   31  O3  UNL     1       9.050  -0.407  -0.116  1.00  0.00    -0.326 OA
HETATM   32  C21 UNL     1      10.351  -0.209   0.388  1.00  0.00     0.213 C 
ENDBRANCH  29  31
ENDBRANCH  27  29
ENDBRANCH  24  27
ENDBRANCH  23  24
ENDBRANCH  22  23
ENDBRANCH  20  22
ENDBRANCH  18  20
ENDBRANCH  10  18
BRANCH  14  33
HETATM   33  C24 UNL     1      -2.355  -1.513   1.847  1.00  0.00     0.185 C 
BRANCH  33  34
HETATM   34  O6  UNL     1      -1.063  -1.931   2.148  1.00  0.00    -0.400 OA
ATOM     35  H6  UNL     1      -0.936  -2.153   3.063  1.00  0.00     0.209 HD
ENDBRANCH  33  34
ENDBRANCH  14  33
BRANCH  16  36
HETATM   36  O7  UNL     1      -6.965   2.627  -0.243  1.00  0.00    -0.393 OA
ATOM     37  H7  UNL     1      -7.309   2.913  -1.081  1.00  0.00     0.210 HD
ENDBRANCH  16  36
BRANCH  17  38
HETATM   38  O8  UNL     1      -7.131   0.635  -2.321  1.00  0.00    -0.389 OA
ATOM     39  H8  UNL     1      -7.650   1.424  -2.425  1.00  0.00     0.210 HD
ENDBRANCH  17  38
TORSDOF 13
