REMARK  14 active torsions:
REMARK  status: ('A' for Active; 'I' for Inactive)
REMARK    1  A    between atoms: C4_5  and  O2_6 
REMARK    2  A    between atoms: C10_13  and  C11_14 
REMARK    3  A    between atoms: C11_14  and  O3_15 
REMARK    4  A    between atoms: C14_19  and  C15_20 
REMARK    5  A    between atoms: C15_20  and  O4_21 
REMARK    6  A    between atoms: C15_20  and  C16_23 
REMARK    7  A    between atoms: C16_23  and  C17_24 
REMARK    8  A    between atoms: C17_24  and  C19_26 
REMARK    9  A    between atoms: C19_26  and  C20_27 
REMARK   10  A    between atoms: C20_27  and  O5_28 
REMARK   11  A    between atoms: C20_27  and  C21_30 
REMARK   12  A    between atoms: C21_30  and  C22_31 
REMARK   13  A    between atoms: C22_31  and  O7_33 
REMARK   14  A    between atoms: C27_38  and  O8_39 
ROOT
HETATM    1  C1  UNL     1      -4.394  -1.896   1.905  1.00  0.00     0.018 C 
HETATM    2  C2  UNL     1      -3.598  -1.939   0.871  1.00  0.00    -0.041 A 
HETATM    3  C3  UNL     1      -4.009  -1.777  -0.651  1.00  0.00     0.174 A 
HETATM    4  O1  UNL     1      -4.458  -0.637  -1.112  1.00  0.00    -0.350 OA
HETATM    5  C4  UNL     1      -4.988   0.520  -1.327  1.00  0.00     0.265 C 
HETATM    6  C5  UNL     1      -5.317   1.653  -0.410  1.00  0.00     0.002 C 
HETATM    7  C6  UNL     1      -6.156   2.716  -1.174  1.00  0.00     0.020 C 
HETATM    8  C7  UNL     1      -6.317   1.219   0.652  1.00  0.00     0.020 C 
HETATM    9  C8  UNL     1      -4.171   2.399   0.138  1.00  0.00     0.018 C 
HETATM   10  C9  UNL     1      -2.862   1.700   0.327  1.00  0.00     0.037 C 
HETATM   11  C10 UNL     1      -2.207   1.297  -0.942  1.00  0.00    -0.056 C 
HETATM   12  C12 UNL     1      -1.681   0.130  -1.259  1.00  0.00     0.009 C 
HETATM   13  C13 UNL     1      -1.542  -1.132  -0.544  1.00  0.00    -0.054 C 
HETATM   14  C14 UNL     1      -0.482  -1.069   0.593  1.00  0.00     0.048 C 
HETATM   15  C24 UNL     1      -0.340  -2.336   1.312  1.00  0.00    -0.005 C 
HETATM   16  C25 UNL     1      -0.378  -1.992   2.818  1.00  0.00     0.011 C 
HETATM   17  C26 UNL     1      -1.221  -3.489   0.996  1.00  0.00     0.038 C 
HETATM   18  C27 UNL     1      -2.054  -3.441  -0.222  1.00  0.00     0.138 C 
HETATM   19  C28 UNL     1      -2.664  -1.997  -0.245  1.00  0.00     0.065 A 
ENDROOT
BRANCH  14  20
HETATM   20  C15 UNL     1       0.862  -0.664  -0.058  1.00  0.00     0.127 C 
BRANCH  20  21
HETATM   21  O4  UNL     1       0.741   0.577  -0.706  1.00  0.00    -0.395 OA
ATOM     22  H4  UNL     1       1.566   0.826  -1.106  1.00  0.00     0.210 HD
ENDBRANCH  20  21
BRANCH  20  23
HETATM   23  C16 UNL     1       2.007  -0.679   0.876  1.00  0.00     0.037 C 
BRANCH  23  24
HETATM   24  C17 UNL     1       3.265  -0.231   0.102  1.00  0.00    -0.014 C 
HETATM   25  C18 UNL     1       3.608  -1.132  -1.032  1.00  0.00     0.010 C 
BRANCH  24  26
HETATM   26  C19 UNL     1       4.415  -0.059   1.033  1.00  0.00     0.036 C 
BRANCH  26  27
HETATM   27  C20 UNL     1       5.665   0.401   0.348  1.00  0.00     0.127 C 
BRANCH  27  28
HETATM   28  O5  UNL     1       6.151  -0.444  -0.626  1.00  0.00    -0.395 OA
ATOM     29  H5  UNL     1       6.944  -0.152  -1.060  1.00  0.00     0.210 HD
ENDBRANCH  27  28
BRANCH  27  30
HETATM   30  C21 UNL     1       6.711   0.646   1.431  1.00  0.00     0.142 C 
BRANCH  30  31
HETATM   31  C22 UNL     1       7.960   1.098   0.775  1.00  0.00     0.260 C 
HETATM   32  O6  UNL     1       8.723   0.241   0.243  1.00  0.00    -0.265 OA
BRANCH  31  33
HETATM   33  O7  UNL     1       8.278   2.445   0.748  1.00  0.00    -0.326 OA
HETATM   34  C23 UNL     1       9.459   2.901   0.129  1.00  0.00     0.213 C 
ENDBRANCH  31  33
ENDBRANCH  30  31
ENDBRANCH  27  30
ENDBRANCH  26  27
ENDBRANCH  24  26
ENDBRANCH  23  24
ENDBRANCH  20  23
ENDBRANCH  14  20
BRANCH  11  35
HETATM   35  C11 UNL     1      -2.134   2.431  -1.955  1.00  0.00     0.198 C 
BRANCH  35  36
HETATM   36  O3  UNL     1      -1.497   2.063  -3.115  1.00  0.00    -0.397 OA
ATOM     37  H3  UNL     1      -1.451   2.771  -3.747  1.00  0.00     0.209 HD
ENDBRANCH  35  36
ENDBRANCH  11  35
BRANCH  18  38
HETATM   38  O8  UNL     1      -1.425  -3.674  -1.410  1.00  0.00    -0.394 OA
ATOM     39  H8  UNL     1      -1.961  -3.643  -2.194  1.00  0.00     0.210 HD
ENDBRANCH  18  38
BRANCH   5  40
HETATM   40  O2  UNL     1      -5.306   0.776  -2.566  1.00  0.00    -0.370 OA
ATOM     41  H2  UNL     1      -5.696   1.628  -2.724  1.00  0.00     0.212 HD
ENDBRANCH   5  40
TORSDOF 14
