REMARK  3 active torsions:
REMARK  status: ('A' for Active; 'I' for Inactive)
REMARK    1  A    between atoms: C2_2  and  C3_3 
REMARK    2  A    between atoms: C6_6  and  C7_7 
REMARK    3  A    between atoms: C12_16  and  S1_17 
ROOT
HETATM    1  C7  UNL     1       1.815  -0.358  -0.265  1.00  0.00     0.037 A 
HETATM    2  C8  UNL     1       2.490  -1.297  -1.084  1.00  0.00     0.071 A 
HETATM    3 CL1  UNL     1       1.613  -1.944  -2.451  1.00  0.00    -0.081 Cl
HETATM    4  C9  UNL     1       3.760  -1.728  -0.899  1.00  0.00     0.080 A 
HETATM    5 CL2  UNL     1       4.551  -2.895  -1.943  1.00  0.00    -0.081 Cl
HETATM    6  C10 UNL     1       4.466  -1.235   0.153  1.00  0.00     0.080 A 
HETATM    7 CL3  UNL     1       6.112  -1.763   0.444  1.00  0.00    -0.081 Cl
HETATM    8  C11 UNL     1       3.895  -0.332   0.978  1.00  0.00     0.082 A 
HETATM    9 CL4  UNL     1       4.794   0.310   2.342  1.00  0.00    -0.081 Cl
HETATM   10  C12 UNL     1       2.556   0.120   0.772  1.00  0.00     0.118 A 
ENDROOT
BRANCH   1  11
HETATM   11  C6  UNL     1       0.403  -0.096  -0.528  1.00  0.00     0.041 C 
HETATM   12  C5  UNL     1      -0.662   0.639   0.136  1.00  0.00     0.091 C 
HETATM   13  C3  UNL     1      -1.931  -0.204  -0.244  1.00  0.00     0.049 C 
HETATM   14  C4  UNL     1      -1.951  -1.383   0.645  1.00  0.00     0.040 C 
HETATM   15  N2  UNL     1      -1.534  -0.470  -1.616  1.00  0.00    -0.322 N 
HETATM   16  N1  UNL     1      -0.191  -0.713  -1.541  1.00  0.00    -0.306 N 
HETATM   17  C13 UNL     1      -2.446  -0.453  -2.744  1.00  0.00     0.172 C 
ATOM     18  H1  UNL     1       0.307  -1.311  -2.201  1.00  0.00     0.186 HD
BRANCH  13  19
HETATM   19  C2  UNL     1      -3.153   0.645  -0.244  1.00  0.00     0.028 C 
HETATM   20  C1  UNL     1      -3.472   1.226   1.114  1.00  0.00     0.007 C 
ENDBRANCH  13  19
ENDBRANCH   1  11
BRANCH  10  21
HETATM   21  S1  UNL     1       2.067   1.442   1.762  1.00  0.00     0.140 S 
HETATM   22  O1  UNL     1       1.335   2.486   0.961  1.00  0.00    -0.591 OA
HETATM   23  O2  UNL     1       1.508   1.099   3.058  1.00  0.00    -0.591 OA
HETATM   24  O3  UNL     1       3.538   2.350   2.093  1.00  0.00    -0.591 OA
ENDBRANCH  10  21
TORSDOF 3
