REMARK  4 active torsions:
REMARK  status: ('A' for Active; 'I' for Inactive)
REMARK    1  A    between atoms: C5_8  and  C6_9 
REMARK    2  A    between atoms: C6_9  and  N1_10 
REMARK    3  A    between atoms: N1_10  and  N2_12 
REMARK    4  A    between atoms: N2_12  and  C7_14 
ROOT
HETATM    1  N2  UNL     1      -0.093   1.297   0.106  1.00  0.00    -0.285 N 
ATOM      2  H2  UNL     1      -0.419   2.234  -0.130  1.00  0.00     0.188 HD
ENDROOT
BRANCH   1   3
HETATM    3  N1  UNL     1       1.274   1.084   0.263  1.00  0.00    -0.309 N 
ATOM      4  H1  UNL     1       1.787   1.622   0.961  1.00  0.00     0.186 HD
BRANCH   3   5
HETATM    5  C6  UNL     1       1.898   0.229  -0.449  1.00  0.00     0.122 C 
BRANCH   5   6
HETATM    6  C5  UNL     1       3.345  -0.013  -0.301  1.00  0.00     0.028 A 
HETATM    7  C4  UNL     1       4.098   0.677   0.621  1.00  0.00     0.069 A 
HETATM    8  C3  UNL     1       5.447   0.419   0.725  1.00  0.00     0.058 A 
HETATM    9 CL3  UNL     1       3.337   1.875   1.649  1.00  0.00    -0.082 Cl
HETATM   10  C2  UNL     1       6.057  -0.529  -0.087  1.00  0.00     0.051 A 
HETATM   11 CL2  UNL     1       6.451   1.278   1.890  1.00  0.00    -0.082 Cl
HETATM   12  C1  UNL     1       5.314  -1.233  -1.020  1.00  0.00     0.058 A 
HETATM   13 CL1  UNL     1       6.068  -2.435  -2.055  1.00  0.00    -0.082 Cl
HETATM   14  C14 UNL     1       3.968  -0.938  -1.086  1.00  0.00     0.069 A 
HETATM   15 CL4  UNL     1       3.036  -1.848  -2.284  1.00  0.00    -0.082 Cl
ENDBRANCH   5   6
ENDBRANCH   3   5
ENDBRANCH   1   3
BRANCH   1  16
HETATM   16  C7  UNL     1      -0.964   0.354   0.248  1.00  0.00     0.129 A 
HETATM   17  N3  UNL     1      -0.504  -0.859   0.557  1.00  0.00    -0.337 N 
HETATM   18  C8  UNL     1      -1.391  -1.841   0.706  1.00  0.00     0.182 A 
ATOM     19  H3  UNL     1       0.495  -1.029   0.675  1.00  0.00     0.168 HD
HETATM   20  N4  UNL     1      -2.688  -1.616   0.552  1.00  0.00    -0.355 N 
HETATM   21  C9  UNL     1      -3.213  -0.394   0.236  1.00  0.00     0.021 A 
ATOM     22  H4  UNL     1      -3.330  -2.398   0.676  1.00  0.00     0.166 HD
HETATM   23  C10 UNL     1      -2.329   0.621   0.079  1.00  0.00     0.019 A 
HETATM   24  C13 UNL     1      -4.670  -0.364   0.114  1.00  0.00     0.068 C 
HETATM   25  C11 UNL     1      -2.650   2.030  -0.262  1.00  0.00     0.118 C 
HETATM   26  S1  UNL     1      -4.326   2.153  -0.935  1.00  0.00    -0.164 SA
HETATM   27  C12 UNL     1      -5.316   0.964   0.041  1.00  0.00     0.080 C 
ENDBRANCH   1  16
TORSDOF 4
