REMARK  4 active torsions:
REMARK  status: ('A' for Active; 'I' for Inactive)
REMARK    1  A    between atoms: C2_2  and  O1_5 
REMARK    2  A    between atoms: O1_5  and  C5_6 
REMARK       I    between atoms: C5_6  and  N1_8 
REMARK    3  A    between atoms: C6_11  and  C7_12 
REMARK    4  A    between atoms: C9_16  and  C10_17 
ROOT
HETATM    1  C5  UNL     1      -0.816  -0.204   0.350  1.00  0.00     0.383 C 
HETATM    2  O2  UNL     1      -0.564  -1.353  -0.044  1.00  0.00    -0.236 OA
HETATM    3  N1  UNL     1       0.183   0.750   0.603  1.00  0.00    -0.226 N 
HETATM    4  N2  UNL     1      -0.131   2.095   1.040  1.00  0.00    -0.291 N 
ATOM      5  H2  UNL     1      -0.934   2.353   1.614  1.00  0.00     0.187 HD
HETATM    6  C6  UNL     1       0.750   2.912   0.597  1.00  0.00     0.104 C 
HETATM    7  C8  UNL     1       1.748   2.141  -0.194  1.00  0.00     0.098 C 
HETATM    8  C9  UNL     1       1.609   0.790   0.540  1.00  0.00     0.152 C 
ENDROOT
BRANCH   8   9
HETATM    9  C10 UNL     1       2.343  -0.286  -0.054  1.00  0.00    -0.030 A 
HETATM   10  C11 UNL     1       2.381  -1.544   0.468  1.00  0.00     0.035 A 
HETATM   11  C12 UNL     1       3.097  -2.584  -0.138  1.00  0.00     0.058 A 
HETATM   12 CL1  UNL     1       3.114  -4.183   0.574  1.00  0.00    -0.082 Cl
HETATM   13  C13 UNL     1       3.794  -2.361  -1.295  1.00  0.00     0.077 A 
HETATM   14 CL2  UNL     1       4.707  -3.624  -2.097  1.00  0.00    -0.081 Cl
HETATM   15  C14 UNL     1       3.771  -1.088  -1.848  1.00  0.00     0.058 A 
HETATM   16 CL3  UNL     1       4.649  -0.769  -3.325  1.00  0.00    -0.082 Cl
HETATM   17  C15 UNL     1       3.057  -0.072  -1.235  1.00  0.00     0.035 A 
ENDBRANCH   8   9
BRANCH   1  18
HETATM   18  O1  UNL     1      -2.175   0.085   0.528  1.00  0.00    -0.293 OA
BRANCH  18  19
HETATM   19  C2  UNL     1      -3.187  -0.846   0.283  1.00  0.00     0.061 C 
HETATM   20  C1  UNL     1      -3.173  -1.313  -1.169  1.00  0.00     0.046 C 
HETATM   21  C3  UNL     1      -3.125  -2.047   1.205  1.00  0.00     0.046 C 
HETATM   22  C4  UNL     1      -4.521  -0.162   0.500  1.00  0.00     0.046 C 
ENDBRANCH  18  19
ENDBRANCH   1  18
BRANCH   6  23
HETATM   23  C7  UNL     1       0.812   4.354   0.802  1.00  0.00     0.224 C 
HETATM   24  O3  UNL     1      -0.057   4.968   1.481  1.00  0.00    -0.643 OA
HETATM   25  O4  UNL     1       1.829   5.130   0.262  1.00  0.00    -0.643 OA
ENDBRANCH   6  23
TORSDOF 4
