REMARK  4 active torsions:
REMARK  status: ('A' for Active; 'I' for Inactive)
REMARK       I    between atoms: N1_7  and  C7_8 
REMARK    1  A    between atoms: C7_8  and  O2_10 
REMARK    2  A    between atoms: O2_10  and  C8_11 
REMARK    3  A    between atoms: C15_21  and  N3_22 
REMARK    4  A    between atoms: N3_22  and  S1_24 
ROOT
HETATM    1  C1  UNL     1       0.365   3.721   0.619  1.00  0.00     0.011 C 
HETATM    2  C2  UNL     1       0.221   2.205   0.697  1.00  0.00     0.000 C 
HETATM    3  C3  UNL     1       1.521   1.494   0.702  1.00  0.00     0.014 C 
HETATM    4  C4  UNL     1       1.591   0.170   0.052  1.00  0.00     0.034 C 
HETATM    5  C5  UNL     1       0.738  -0.913   0.623  1.00  0.00     0.108 C 
HETATM    6  C6  UNL     1      -0.643  -0.520   1.007  1.00  0.00     0.153 C 
HETATM    7  N1  UNL     1      -1.261   0.449   0.175  1.00  0.00    -0.326 N 
HETATM    8  C7  UNL     1      -2.593   0.179  -0.179  1.00  0.00     0.363 C 
HETATM    9  O1  UNL     1      -3.238   0.985  -0.922  1.00  0.00    -0.238 OA
HETATM   10  C12 UNL     1      -0.715   1.669  -0.355  1.00  0.00     0.132 C 
HETATM   11  N2  UNL     1       0.723  -1.985  -0.353  1.00  0.00    -0.354 N 
ATOM     12  H2  UNL     1      -0.110  -2.550  -0.518  1.00  0.00     0.162 HD
HETATM   13  C13 UNL     1       1.932  -2.205  -1.067  1.00  0.00     0.220 C 
HETATM   14  O3  UNL     1       1.962  -2.770  -2.189  1.00  0.00    -0.274 OA
HETATM   15  C14 UNL     1       3.168  -1.722  -0.398  1.00  0.00     0.129 C 
HETATM   16  C15 UNL     1       3.032  -0.299   0.106  1.00  0.00     0.107 C 
ENDROOT
BRANCH   8  17
HETATM   17  O2  UNL     1      -3.299  -0.942   0.229  1.00  0.00    -0.294 OA
BRANCH  17  18
HETATM   18  C8  UNL     1      -4.642  -1.153  -0.167  1.00  0.00     0.061 C 
HETATM   19  C9  UNL     1      -4.708  -1.226  -1.678  1.00  0.00     0.046 C 
HETATM   20  C10 UNL     1      -5.552  -0.046   0.313  1.00  0.00     0.046 C 
HETATM   21  C11 UNL     1      -5.134  -2.450   0.420  1.00  0.00     0.046 C 
ENDBRANCH  17  18
ENDBRANCH   8  17
BRANCH  16  22
HETATM   22  N3  UNL     1       3.934   0.504  -0.668  1.00  0.00    -0.314 N 
ATOM     23  H3  UNL     1       3.803   0.710  -1.658  1.00  0.00     0.172 HD
BRANCH  22  24
HETATM   24  S1  UNL     1       5.261   1.081   0.263  1.00  0.00     0.223 S 
HETATM   25  C16 UNL     1       6.232  -0.268   0.898  1.00  0.00     0.185 C 
HETATM   26  O4  UNL     1       6.188   1.896  -0.615  1.00  0.00    -0.206 OA
HETATM   27  O5  UNL     1       4.786   1.914   1.404  1.00  0.00    -0.206 OA
ENDBRANCH  22  24
ENDBRANCH  16  22
TORSDOF 4
