REMARK  3 active torsions:
REMARK  status: ('A' for Active; 'I' for Inactive)
REMARK       I    between atoms: C2_2  and  N1_4 
REMARK    1  A    between atoms: C5_7  and  N2_8 
REMARK       I    between atoms: N2_8  and  C6_10 
REMARK    2  A    between atoms: C6_10  and  C7_12 
REMARK    3  A    between atoms: C9_15  and  N3_16 
REMARK       I    between atoms: N3_16  and  C10_18 
REMARK       I    between atoms: C10_18  and  N4_20 
ROOT
HETATM    1  C7  UNL     1      -0.183   2.848  -0.583  1.00  0.00     0.109 A 
HETATM    2  C8  UNL     1      -0.459   4.200  -0.608  1.00  0.00     0.088 A 
HETATM    3  S1  UNL     1      -2.068   4.235  -1.168  1.00  0.00    -0.063 SA
HETATM    4  C9  UNL     1      -2.312   2.566  -1.340  1.00  0.00     0.153 A 
HETATM    5  N5  UNL     1      -1.147   2.043  -0.962  1.00  0.00    -0.332 N 
ATOM      6  H5  UNL     1      -1.007   1.033  -0.967  1.00  0.00     0.168 HD
ENDROOT
BRANCH   1   7
HETATM    7  C6  UNL     1       1.166   2.407  -0.136  1.00  0.00     0.269 C 
HETATM    8  N2  UNL     1       1.478   1.034  -0.106  1.00  0.00    -0.351 N 
ATOM      9  H2  UNL     1       0.775   0.352  -0.392  1.00  0.00     0.163 HD
HETATM   10  O2  UNL     1       2.040   3.220   0.218  1.00  0.00    -0.266 OA
BRANCH   8  11
HETATM   11  C5  UNL     1       2.805   0.569   0.332  1.00  0.00     0.087 C 
HETATM   12  C4  UNL     1       3.434  -0.137  -0.829  1.00  0.00     0.045 C 
HETATM   13  C3  UNL     1       4.235  -1.314  -0.344  1.00  0.00     0.127 C 
HETATM   14  N1  UNL     1       4.796  -1.004   0.935  1.00  0.00    -0.352 N 
HETATM   15  C2  UNL     1       6.165  -0.816   1.134  1.00  0.00     0.215 C 
HETATM   16  C17 UNL     1       3.873  -0.885   2.052  1.00  0.00     0.127 C 
HETATM   17  C1  UNL     1       7.095  -0.938  -0.031  1.00  0.00     0.117 C 
HETATM   18  O1  UNL     1       6.695  -0.545   2.246  1.00  0.00    -0.274 OA
HETATM   19  C16 UNL     1       2.559  -0.297   1.546  1.00  0.00     0.045 C 
ENDBRANCH   8  11
ENDBRANCH   1   7
BRANCH   4  20
HETATM   20  N3  UNL     1      -3.380   1.901  -1.748  1.00  0.00    -0.289 N 
HETATM   21  C10 UNL     1      -3.382   0.499  -1.822  1.00  0.00     0.324 C 
HETATM   22  O3  UNL     1      -2.582  -0.071  -2.620  1.00  0.00    -0.247 OA
HETATM   23  N4  UNL     1      -4.264  -0.246  -1.018  1.00  0.00    -0.334 N 
HETATM   24  C11 UNL     1      -5.164   0.427  -0.121  1.00  0.00     0.127 C 
HETATM   25  C15 UNL     1      -4.268  -1.681  -1.091  1.00  0.00     0.127 C 
HETATM   26  C12 UNL     1      -6.355  -0.443   0.223  1.00  0.00     0.020 C 
HETATM   27  C13 UNL     1      -5.847  -1.697   0.864  1.00  0.00     0.003 C 
HETATM   28  C14 UNL     1      -4.575  -2.228   0.292  1.00  0.00     0.020 C 
ATOM     29  H3  UNL     1      -4.219   2.417  -2.014  1.00  0.00     0.172 HD
ENDBRANCH   4  20
TORSDOF 3
