REMARK  14 active torsions:
REMARK  status: ('A' for Active; 'I' for Inactive)
REMARK    1  A    between atoms: C2_2  and  C3_3 
REMARK    2  A    between atoms: C3_3  and  S1_4 
REMARK    3  A    between atoms: S1_4  and  N1_7 
REMARK    4  A    between atoms: N1_7  and  C4_9 
REMARK    5  A    between atoms: C4_9  and  C5_10 
REMARK    6  A    between atoms: C5_10  and  N2_11 
REMARK    7  A    between atoms: C6_12  and  O3_13 
REMARK    8  A    between atoms: N3_16  and  C8_17 
REMARK    9  A    between atoms: C11_20  and  C12_21 
REMARK       I    between atoms: C12_21  and  N4_23 
REMARK   10  A    between atoms: N4_23  and  C13_25 
REMARK   11  A    between atoms: C18_38  and  N8_39 
REMARK   12  A    between atoms: C19_46  and  C20_47 
REMARK   13  A    between atoms: C20_47  and  O6_48 
REMARK   14  A    between atoms: O6_48  and  C21_49 
ROOT
HETATM    1  N1  UNL     1      -0.689  -0.112  -1.551  1.00  0.00    -0.318 N 
ATOM      2  H1  UNL     1      -0.295   0.178  -2.446  1.00  0.00     0.172 HD
ENDROOT
BRANCH   1   3
HETATM    3  S1  UNL     1      -1.886   0.785  -0.617  1.00  0.00     0.230 S 
HETATM    4  O1  UNL     1      -1.332   0.987   0.762  1.00  0.00    -0.206 OA
HETATM    5  O2  UNL     1      -2.137   2.048  -1.354  1.00  0.00    -0.206 OA
BRANCH   3   6
HETATM    6  C3  UNL     1      -3.335  -0.229  -0.477  1.00  0.00     0.223 C 
BRANCH   6   7
HETATM    7  C2  UNL     1      -4.447   0.460   0.306  1.00  0.00     0.210 C 
HETATM    8  C1  UNL     1      -3.917   0.753   1.680  1.00  0.00     0.072 C 
HETATM    9  N7  UNL     1      -4.792   1.616  -0.463  1.00  0.00    -0.342 N 
HETATM   10  C18 UNL     1      -6.073   2.177  -0.290  1.00  0.00     0.483 C 
ATOM     11  H7  UNL     1      -4.127   2.024  -1.120  1.00  0.00     0.159 HD
HETATM   12  N9  UNL     1      -7.069   1.291   0.301  1.00  0.00     0.002 N 
HETATM   13  C19 UNL     1      -6.748  -0.023  -0.145  1.00  0.00     0.414 C 
ATOM     14  H92 UNL     1      -7.131   1.371   1.316  1.00  0.00     0.284 HD
ATOM     15  H91 UNL     1      -8.029   1.566   0.095  1.00  0.00     0.284 HD
HETATM   16  N12 UNL     1      -5.504  -0.518   0.400  1.00  0.00    -0.017 N 
ATOM     17 2H12 UNL     1      -5.233  -1.399  -0.036  1.00  0.00     0.282 HD
ATOM     18 1H12 UNL     1      -5.623  -0.844   1.359  1.00  0.00     0.282 HD
BRANCH  10  19
HETATM   19  N8  UNL     1      -6.570   2.700  -1.528  1.00  0.00    -0.033 N 
ATOM     20  H83 UNL     1      -5.919   3.366  -1.945  1.00  0.00     0.278 HD
ATOM     21  H82 UNL     1      -6.563   1.996  -2.266  1.00  0.00     0.278 HD
ATOM     22  H81 UNL     1      -7.497   3.106  -1.403  1.00  0.00     0.278 HD
ENDBRANCH  10  19
BRANCH  13  23
HETATM   23  C20 UNL     1      -7.868  -1.003  -0.048  1.00  0.00     0.241 C 
BRANCH  23  24
HETATM   24  O6  UNL     1      -8.406  -1.222   1.213  1.00  0.00    -0.321 OA
BRANCH  24  25
HETATM   25  C21 UNL     1      -9.023  -0.274   1.991  1.00  0.00     0.225 C 
HETATM   26  N10 UNL     1      -9.895   0.470   1.400  1.00  0.00    -0.368 N 
ATOM     27 2H10 UNL     1     -10.079   0.322   0.408  1.00  0.00     0.159 HD
ATOM     28 1H10 UNL     1     -10.353   1.174   1.978  1.00  0.00     0.159 HD
HETATM   29  N11 UNL     1      -8.768  -0.069   3.364  1.00  0.00    -0.057 NA
ENDBRANCH  24  25
ENDBRANCH  23  24
ENDBRANCH  13  23
ENDBRANCH   6   7
ENDBRANCH   3   6
ENDBRANCH   1   3
BRANCH   1  30
HETATM   30  C4  UNL     1      -0.361  -1.313  -0.848  1.00  0.00     0.152 C 
BRANCH  30  31
HETATM   31  C5  UNL     1       0.636  -2.136  -1.584  1.00  0.00     0.156 C 
BRANCH  31  32
HETATM   32  N2  UNL     1       1.861  -1.402  -1.790  1.00  0.00    -0.277 N 
HETATM   33  C6  UNL     1       2.185  -0.664  -2.863  1.00  0.00     0.162 A 
HETATM   34  C7  UNL     1       3.443  -0.137  -2.652  1.00  0.00     0.158 A 
HETATM   35  N3  UNL     1       3.886  -0.551  -1.459  1.00  0.00    -0.271 N 
HETATM   36  C17 UNL     1       2.916  -1.318  -0.946  1.00  0.00     0.335 A 
HETATM   37  O5  UNL     1       2.937  -1.902   0.166  1.00  0.00    -0.246 OA
BRANCH  33  38
HETATM   38  O3  UNL     1       1.410  -0.450  -4.001  1.00  0.00    -0.345 OA
ATOM     39  H3  UNL     1       1.639   0.072  -4.761  1.00  0.00     0.219 HD
ENDBRANCH  33  38
BRANCH  35  40
HETATM   40  C8  UNL     1       5.148  -0.225  -0.886  1.00  0.00     0.043 A 
HETATM   41  C9  UNL     1       5.674   1.029  -1.052  1.00  0.00     0.031 A 
HETATM   42  C10 UNL     1       6.915   1.271  -0.468  1.00  0.00     0.019 A 
HETATM   43  C11 UNL     1       7.606   0.323   0.246  1.00  0.00     0.032 A 
HETATM   44  C15 UNL     1       7.036  -0.912   0.382  1.00  0.00     0.019 A 
HETATM   45  C16 UNL     1       5.803  -1.204  -0.179  1.00  0.00     0.031 A 
BRANCH  43  46
HETATM   46  C12 UNL     1       8.910   0.637   0.832  1.00  0.00     0.257 C 
HETATM   47  O4  UNL     1       9.422   1.771   0.695  1.00  0.00    -0.267 OA
HETATM   48  N4  UNL     1       9.581  -0.360   1.553  1.00  0.00    -0.302 N 
ATOM     49  H4  UNL     1       9.045  -1.115   1.981  1.00  0.00     0.171 HD
BRANCH  48  50
HETATM   50  C13 UNL     1      10.889  -0.339   1.688  1.00  0.00     0.167 A 
HETATM   51  N5  UNL     1      11.650  -1.220   2.343  1.00  0.00    -0.279 N 
HETATM   52  N6  UNL     1      12.903  -1.043   2.370  1.00  0.00    -0.303 N 
ATOM     53  H5  UNL     1      11.229  -2.021   2.813  1.00  0.00     0.189 HD
HETATM   54  C14 UNL     1      13.448   0.000   1.757  1.00  0.00     0.160 A 
ATOM     55  H6  UNL     1      13.498  -1.707   2.866  1.00  0.00     0.186 HD
HETATM   56  S2  UNL     1      12.060   0.763   1.106  1.00  0.00    -0.046 SA
ENDBRANCH  48  50
ENDBRANCH  43  46
ENDBRANCH  35  40
ENDBRANCH  31  32
ENDBRANCH  30  31
ENDBRANCH   1  30
TORSDOF 14
