REMARK  16 active torsions:
REMARK  status: ('A' for Active; 'I' for Inactive)
REMARK    1  A    between atoms: C2_2  and  O1_3 
REMARK    2  A    between atoms: C2_2  and  C3_5 
REMARK    3  A    between atoms: C6_9  and  O3_10 
REMARK    4  A    between atoms: O3_10  and  C7_11 
REMARK    5  A    between atoms: C7_11  and  C8_13 
REMARK    6  A    between atoms: C8_13  and  N1_14 
REMARK    7  A    between atoms: N1_14  and  C9_15 
REMARK    8  A    between atoms: N1_14  and  C16_34 
REMARK    9  A    between atoms: C9_15  and  C10_16 
REMARK   10  A    between atoms: C13_23  and  N4_24 
REMARK   11  A    between atoms: C16_34  and  C17_35 
REMARK   12  A    between atoms: C18_36  and  N7_37 
REMARK   13  A    between atoms: C21_43  and  N10_44 
REMARK   14  A    between atoms: C24_52  and  O7_53 
REMARK   15  A    between atoms: C24_52  and  C25_55 
REMARK   16  A    between atoms: C25_55  and  O8_56 
ROOT
HETATM    1  N7  UNL     1      -2.327  -4.384  -0.811  1.00  0.00    -0.274 N 
HETATM    2  C19 UNL     1      -1.840  -4.790   0.484  1.00  0.00     0.170 C 
HETATM    3  C20 UNL     1      -1.613  -4.745  -1.953  1.00  0.00     0.185 C 
HETATM    4  N8  UNL     1      -1.012  -5.062  -2.895  1.00  0.00    -0.172 NA
ENDROOT
BRANCH   1   5
HETATM    5  C18 UNL     1      -3.520  -3.629  -0.885  1.00  0.00     0.144 A 
HETATM    6  C17 UNL     1      -3.462  -2.217  -0.858  1.00  0.00     0.069 A 
HETATM    7  C22 UNL     1      -4.670  -1.577  -0.936  1.00  0.00     0.270 A 
HETATM    8  N11 UNL     1      -5.853  -2.265  -1.030  1.00  0.00    -0.156 N 
HETATM    9  O6  UNL     1      -4.816  -0.329  -0.934  1.00  0.00    -0.267 OA
HETATM   10  C21 UNL     1      -5.862  -3.608  -1.051  1.00  0.00     0.680 A 
ATOM     11  H11 UNL     1      -6.733  -1.752  -1.084  1.00  0.00     0.187 HD
HETATM   12  N9  UNL     1      -4.687  -4.266  -0.978  1.00  0.00    -0.175 N 
ATOM     13  H9  UNL     1      -4.692  -5.286  -0.995  1.00  0.00     0.186 HD
BRANCH   6  14
HETATM   14  C16 UNL     1      -2.145  -1.570  -0.818  1.00  0.00     0.143 C 
BRANCH  14  15
HETATM   15  N1  UNL     1      -2.238  -0.145  -0.673  1.00  0.00    -0.277 NA
BRANCH  15  16
HETATM   16  C8  UNL     1      -1.095   0.543  -1.221  1.00  0.00     0.143 C 
BRANCH  16  17
HETATM   17  C7  UNL     1       0.231   0.106  -0.847  1.00  0.00     0.298 C 
HETATM   18  O4  UNL     1       0.456  -0.923  -0.190  1.00  0.00    -0.259 OA
BRANCH  17  19
HETATM   19  O3  UNL     1       1.397   0.823  -1.200  1.00  0.00    -0.279 OA
BRANCH  19  20
HETATM   20  C6  UNL     1       2.654   0.366  -0.822  1.00  0.00     0.063 C 
HETATM   21  C5  UNL     1       3.239  -0.447  -1.719  1.00  0.00     0.083 C 
HETATM   22  C4  UNL     1       4.557  -0.975  -1.409  1.00  0.00     0.161 C 
HETATM   23  C3  UNL     1       4.981  -0.927   0.010  1.00  0.00     0.125 C 
HETATM   24  O2  UNL     1       5.298  -1.447  -2.291  1.00  0.00    -0.293 OA
HETATM   25  C24 UNL     1       4.743   0.445   0.522  1.00  0.00     0.098 C 
HETATM   26  C23 UNL     1       3.264   0.753   0.451  1.00  0.00     0.106 C 
BRANCH  23  27
HETATM   27  C2  UNL     1       6.386  -1.420   0.104  1.00  0.00     0.128 C 
HETATM   28  C1  UNL     1       6.971  -1.436   1.474  1.00  0.00     0.040 C 
BRANCH  27  29
HETATM   29  O1  UNL     1       7.252  -0.788  -0.770  1.00  0.00    -0.395 OA
ATOM     30  H1  UNL     1       6.879  -0.778  -1.644  1.00  0.00     0.210 HD
ENDBRANCH  27  29
ENDBRANCH  23  27
BRANCH  25  31
HETATM   31  O7  UNL     1       5.084   0.579   1.885  1.00  0.00    -0.386 OA
ATOM     32  H7  UNL     1       4.932   1.458   2.213  1.00  0.00     0.210 HD
ENDBRANCH  25  31
BRANCH  25  33
HETATM   33  C25 UNL     1       5.505   1.519  -0.212  1.00  0.00     0.203 C 
BRANCH  33  34
HETATM   34  O8  UNL     1       5.112   2.777   0.295  1.00  0.00    -0.398 OA
ATOM     35  H8  UNL     1       5.592   3.454  -0.168  1.00  0.00     0.209 HD
ENDBRANCH  33  34
ENDBRANCH  25  33
ENDBRANCH  19  20
ENDBRANCH  17  19
ENDBRANCH  16  17
ENDBRANCH  15  16
BRANCH  15  36
HETATM   36  C9  UNL     1      -2.314   0.179   0.775  1.00  0.00     0.153 C 
BRANCH  36  37
HETATM   37  C10 UNL     1      -2.429   1.586   1.063  1.00  0.00     0.039 A 
HETATM   38  C11 UNL     1      -1.689   2.136   2.112  1.00  0.00     0.116 A 
HETATM   39  N2  UNL     1      -1.778   3.451   2.405  1.00  0.00    -0.348 N 
HETATM   40  C12 UNL     1      -2.586   4.264   1.686  1.00  0.00     0.153 A 
ATOM     41  H2  UNL     1      -1.231   3.835   3.176  1.00  0.00     0.167 HD
HETATM   42  N3  UNL     1      -2.672   5.583   1.983  1.00  0.00    -0.174 N 
HETATM   43  C15 UNL     1      -3.317   3.731   0.652  1.00  0.00     0.147 A 
HETATM   44  C13 UNL     1      -3.488   6.361   1.246  1.00  0.00     0.680 A 
ATOM     45  H3  UNL     1      -2.129   5.979   2.750  1.00  0.00     0.186 HD
HETATM   46  N5  UNL     1      -4.210   5.847   0.229  1.00  0.00    -0.154 N 
HETATM   47  C14 UNL     1      -4.163   4.551  -0.107  1.00  0.00     0.290 A 
ATOM     48  H5  UNL     1      -4.816   6.470  -0.305  1.00  0.00     0.187 HD
HETATM   49  O5  UNL     1      -4.819   4.036  -1.047  1.00  0.00    -0.265 OA
HETATM   50  N6  UNL     1      -3.207   2.423   0.389  1.00  0.00    -0.350 N 
ATOM     51  H6  UNL     1      -3.758   2.045  -0.381  1.00  0.00     0.166 HD
BRANCH  44  52
HETATM   52  N4  UNL     1      -3.606   7.625   1.488  1.00  0.00    -0.234 N 
ATOM     53  H42 UNL     1      -3.060   8.014   2.257  1.00  0.00     0.174 HD
ATOM     54  H41 UNL     1      -4.224   8.214   0.930  1.00  0.00     0.174 HD
ENDBRANCH  44  52
ENDBRANCH  36  37
ENDBRANCH  15  36
ENDBRANCH  14  15
ENDBRANCH   6  14
BRANCH  10  55
HETATM   55  N10 UNL     1      -6.978  -4.261  -1.141  1.00  0.00    -0.234 N 
ATOM     56 2H10 UNL     1      -6.985  -5.281  -1.157  1.00  0.00     0.174 HD
ATOM     57 1H10 UNL     1      -7.867  -3.763  -1.196  1.00  0.00     0.174 HD
ENDBRANCH  10  55
ENDBRANCH   1   5
TORSDOF 16
