REMARK  16 active torsions:
REMARK  status: ('A' for Active; 'I' for Inactive)
REMARK    1  A    between atoms: N2_4  and  C1_6 
REMARK    2  A    between atoms: C1_6  and  C2_7 
REMARK    3  A    between atoms: C2_7  and  O1_8 
REMARK    4  A    between atoms: O1_8  and  C3_9 
REMARK    5  A    between atoms: C5_11  and  N3_12 
REMARK    6  A    between atoms: C9_18  and  O2_19 
REMARK    7  A    between atoms: C10_21  and  O3_22 
REMARK    8  A    between atoms: C10_21  and  S1_24 
REMARK    9  A    between atoms: S1_24  and  S2_25 
REMARK   10  A    between atoms: S2_25  and  C11_26 
REMARK   11  A    between atoms: C11_26  and  C12_27 
REMARK   12  A    between atoms: C12_27  and  N5_28 
REMARK   13  A    between atoms: C14_33  and  O4_34 
REMARK   14  A    between atoms: C15_36  and  O5_37 
REMARK   15  A    between atoms: C16_39  and  N8_40 
REMARK   16  A    between atoms: C18_46  and  N11_47 
ROOT
HETATM    1  C1  UNL     1      -2.104   0.550   0.371  1.00  0.00     0.119 C 
HETATM    2  C14 UNL     1      -1.725   0.631   1.844  1.00  0.00     0.182 C 
HETATM    3  C15 UNL     1      -2.580   1.882   1.988  1.00  0.00     0.177 C 
HETATM    4  C16 UNL     1      -2.609   1.954   0.496  1.00  0.00     0.177 C 
ENDROOT
BRANCH   1   5
HETATM    5  N2  UNL     1      -3.058  -0.466   0.077  1.00  0.00    -0.326 N 
HETATM    6  N1  UNL     1      -3.321  -0.654  -1.135  1.00  0.00    -0.348 N 
ATOM      7  H12 UNL     1      -2.866  -0.099  -1.860  1.00  0.00     0.176 HD
ATOM      8  H11 UNL     1      -4.004  -1.382  -1.346  1.00  0.00     0.176 HD
ATOM      9  H2  UNL     1      -3.504  -1.012   0.814  1.00  0.00     0.180 HD
ENDBRANCH   1   5
BRANCH   1  10
HETATM   10  C2  UNL     1      -0.863   0.409  -0.499  1.00  0.00     0.206 C 
BRANCH  10  11
HETATM   11  O1  UNL     1      -0.244  -0.821  -0.296  1.00  0.00    -0.379 OA
BRANCH  11  12
HETATM   12  C3  UNL     1       0.878  -0.987  -1.074  1.00  0.00     0.172 C 
HETATM   13  C4  UNL     1       0.653  -2.226  -1.949  1.00  0.00     0.066 C 
HETATM   14  C5  UNL     1       1.341  -3.371  -1.282  1.00  0.00     0.142 C 
HETATM   15  C9  UNL     1       1.721  -2.822   0.091  1.00  0.00     0.191 C 
HETATM   16  C10 UNL     1       2.107  -1.414  -0.308  1.00  0.00     0.169 C 
BRANCH  14  17
HETATM   17  N3  UNL     1       0.552  -4.562  -1.202  1.00  0.00    -0.296 N 
HETATM   18  C6  UNL     1      -0.782  -4.714  -1.150  1.00  0.00     0.112 A 
HETATM   19  C7  UNL     1      -1.048  -6.061  -1.080  1.00  0.00     0.037 A 
HETATM   20  C8  UNL     1       0.163  -6.720  -1.091  1.00  0.00     0.108 A 
HETATM   21  N4  UNL     1       1.105  -5.785  -1.165  1.00  0.00    -0.310 N 
ATOM     22  H4  UNL     1       2.108  -5.971  -1.190  1.00  0.00     0.186 HD
ENDBRANCH  14  17
BRANCH  15  23
HETATM   23  O2  UNL     1       0.552  -2.806   0.842  1.00  0.00    -0.389 OA
ATOM     24  H2  UNL     1       0.788  -2.464   1.696  1.00  0.00     0.210 HD
ENDBRANCH  15  23
BRANCH  16  25
HETATM   25  O3  UNL     1       3.143  -1.529  -1.242  1.00  0.00    -0.373 OA
ATOM     26  H3  UNL     1       3.916  -1.798  -0.760  1.00  0.00     0.212 HD
ENDBRANCH  16  25
BRANCH  16  27
HETATM   27  S1  UNL     1       2.542  -0.358   1.047  1.00  0.00    -0.054 SA
BRANCH  27  28
HETATM   28  S2  UNL     1       3.119   1.543   0.229  1.00  0.00    -0.093 SA
BRANCH  28  29
HETATM   29  C11 UNL     1       4.892   1.584  -0.119  1.00  0.00     0.106 C 
BRANCH  29  30
HETATM   30  C12 UNL     1       5.733   1.513   1.136  1.00  0.00     0.133 C 
BRANCH  30  31
HETATM   31  N5  UNL     1       7.120   1.554   0.727  1.00  0.00    -0.366 N 
HETATM   32  C13 UNL     1       7.698   2.678   0.480  1.00  0.00     0.196 C 
HETATM   33  N6  UNL     1       6.971   3.868   0.610  1.00  0.00    -0.067 NA
HETATM   34  N7  UNL     1       9.059   2.716   0.079  1.00  0.00    -0.067 NA
ATOM     35  H5  UNL     1       7.645   0.685   0.633  1.00  0.00     0.161 HD
ENDBRANCH  30  31
ENDBRANCH  29  30
ENDBRANCH  28  29
ENDBRANCH  27  28
ENDBRANCH  16  27
ENDBRANCH  11  12
ENDBRANCH  10  11
ENDBRANCH   1  10
BRANCH   2  36
HETATM   36  O4  UNL     1      -2.097  -0.437   2.616  1.00  0.00    -0.390 OA
ATOM     37  H4  UNL     1      -1.861  -0.386   3.535  1.00  0.00     0.210 HD
ENDBRANCH   2  36
BRANCH   4  38
HETATM   38  N8  UNL     1      -3.844   2.271  -0.149  1.00  0.00    -0.250 N 
HETATM   39  N9  UNL     1      -3.970   3.037  -1.246  1.00  0.00    -0.238 N 
HETATM   40  N10 UNL     1      -5.230   3.148  -1.603  1.00  0.00    -0.279 N 
ATOM     41  H9  UNL     1      -3.190   3.475  -1.737  1.00  0.00     0.208 HD
HETATM   42  C17 UNL     1      -6.006   2.451  -0.745  1.00  0.00     0.139 A 
ATOM     43  H10 UNL     1      -5.570   3.679  -2.405  1.00  0.00     0.189 HD
HETATM   44  C18 UNL     1      -7.358   2.223  -0.637  1.00  0.00     0.132 A 
HETATM   45  C20 UNL     1      -5.093   1.905   0.168  1.00  0.00     0.157 A 
HETATM   46  N12 UNL     1      -7.786   1.458   0.372  1.00  0.00    -0.337 N 
HETATM   47  C19 UNL     1      -6.912   0.930   1.254  1.00  0.00     0.183 A 
ATOM     48  H12 UNL     1      -8.783   1.271   0.476  1.00  0.00     0.168 HD
HETATM   49  N13 UNL     1      -5.595   1.158   1.141  1.00  0.00    -0.335 N 
ATOM     50  H13 UNL     1      -4.961   0.744   1.824  1.00  0.00     0.168 HD
BRANCH  44  51
HETATM   51  N11 UNL     1      -8.198   2.719  -1.469  1.00  0.00    -0.383 N 
ATOM     52 2H11 UNL     1      -7.871   3.303  -2.239  1.00  0.00     0.157 HD
ATOM     53 1H11 UNL     1      -9.201   2.550  -1.389  1.00  0.00     0.157 HD
ENDBRANCH  44  51
ENDBRANCH   4  38
BRANCH   3  54
HETATM   54  O5  UNL     1      -1.864   2.934   2.610  1.00  0.00    -0.391 OA
ATOM     55  H5  UNL     1      -2.398   3.715   2.700  1.00  0.00     0.210 HD
ENDBRANCH   3  54
TORSDOF 16
