REMARK  4 active torsions:
REMARK  status: ('A' for Active; 'I' for Inactive)
REMARK    1  A    between atoms: N2_6  and  C3_7 
REMARK    2  A    between atoms: C8_12  and  O2_13 
REMARK    3  A    between atoms: O2_13  and  S1_14 
REMARK    4  A    between atoms: S1_14  and  C9_17 
ROOT
HETATM    1  C3  UNL     1      -1.068   1.141  -0.591  1.00  0.00     0.075 A 
HETATM    2  C4  UNL     1      -1.222   1.580  -1.917  1.00  0.00     0.033 A 
HETATM    3  C5  UNL     1      -0.710   2.779  -2.341  1.00  0.00     0.002 A 
HETATM    4  C6  UNL     1      -0.024   3.600  -1.483  1.00  0.00     0.003 A 
HETATM    5  C7  UNL     1       0.141   3.196  -0.188  1.00  0.00     0.040 A 
HETATM    6  C8  UNL     1      -0.379   1.971   0.256  1.00  0.00     0.116 A 
ENDROOT
BRANCH   1   7
HETATM    7  N2  UNL     1      -1.638  -0.088  -0.221  1.00  0.00    -0.280 N 
HETATM    8  C2  UNL     1      -2.476  -0.147   0.945  1.00  0.00     0.261 C 
HETATM    9  N1  UNL     1      -3.328  -1.320   0.951  1.00  0.00    -0.326 N 
HETATM   10  C1  UNL     1      -3.112  -2.482   0.187  1.00  0.00     0.325 C 
ATOM     11  H1  UNL     1      -4.149  -1.302   1.557  1.00  0.00     0.165 HD
HETATM   12  O1  UNL     1      -3.809  -3.525   0.422  1.00  0.00    -0.247 OA
HETATM   13  N3  UNL     1      -2.120  -2.456  -0.828  1.00  0.00    -0.260 N 
HETATM   14  C15 UNL     1      -1.388  -1.232  -1.013  1.00  0.00     0.332 C 
ATOM     15  H3  UNL     1      -1.933  -3.276  -1.405  1.00  0.00     0.175 HD
HETATM   16  O5  UNL     1      -0.514  -1.240  -1.921  1.00  0.00    -0.246 OA
ENDBRANCH   1   7
BRANCH   6  17
HETATM   17  O2  UNL     1      -0.184   1.622   1.561  1.00  0.00    -0.227 OA
BRANCH  17  18
HETATM   18  S1  UNL     1       1.107   0.823   2.248  1.00  0.00     0.303 S 
HETATM   19  O3  UNL     1       0.588   0.045   3.455  1.00  0.00    -0.193 OA
HETATM   20  O4  UNL     1       2.165   1.801   2.747  1.00  0.00    -0.193 OA
BRANCH  18  21
HETATM   21  C9  UNL     1       1.934  -0.308   1.234  1.00  0.00     0.086 A 
HETATM   22  C10 UNL     1       2.905   0.160   0.376  1.00  0.00     0.026 A 
HETATM   23  C11 UNL     1       3.640  -0.665  -0.465  1.00  0.00     0.002 A 
HETATM   24  C12 UNL     1       3.394  -2.021  -0.450  1.00  0.00     0.000 A 
HETATM   25  C13 UNL     1       2.423  -2.521   0.401  1.00  0.00     0.002 A 
HETATM   26  C14 UNL     1       1.696  -1.668   1.239  1.00  0.00     0.026 A 
ENDBRANCH  18  21
ENDBRANCH  17  18
ENDBRANCH   6  17
TORSDOF 4
