REMARK  9 active torsions:
REMARK  status: ('A' for Active; 'I' for Inactive)
REMARK    1  A    between atoms: N1_2  and  O3_4 
REMARK    2  A    between atoms: O3_4  and  C1_5 
REMARK    3  A    between atoms: C1_5  and  C2_6 
REMARK    4  A    between atoms: C2_6  and  S1_7 
REMARK    5  A    between atoms: S1_7  and  C3_8 
REMARK    6  A    between atoms: C3_8  and  C4_9 
REMARK    7  A    between atoms: N2_10  and  N3_12 
REMARK    8  A    between atoms: N3_12  and  C5_14 
REMARK    9  A    between atoms: C6_15  and  N4_16 
ROOT
HETATM    1  C5  UNL     1      -1.143  -1.650   0.044  1.00  0.00     0.089 A 
HETATM    2  C6  UNL     1      -2.364  -1.077  -0.323  1.00  0.00     0.075 A 
HETATM    3  C12 UNL     1      -3.378  -1.809  -0.904  1.00  0.00     0.120 A 
HETATM    4  N5  UNL     1      -3.178  -3.113  -1.120  1.00  0.00    -0.357 N 
ATOM      5  H5  UNL     1      -3.917  -3.670  -1.549  1.00  0.00     0.166 HD
HETATM    6  C13 UNL     1      -1.995  -3.712  -0.774  1.00  0.00     0.086 A 
HETATM    7  S2  UNL     1      -1.398  -5.308  -0.894  1.00  0.00    -0.083 SA
HETATM    8  C14 UNL     1       0.141  -5.086  -0.214  1.00  0.00     0.053 A 
HETATM    9  C15 UNL     1       0.152  -3.750   0.095  1.00  0.00     0.024 A 
HETATM   10  C16 UNL     1      -0.958  -3.033  -0.195  1.00  0.00     0.029 A 
ENDROOT
BRANCH   1  11
HETATM   11  N3  UNL     1      -0.297  -0.894   0.544  1.00  0.00    -0.298 N 
ATOM     12  H3  UNL     1      -0.666   0.055   0.598  1.00  0.00     0.187 HD
BRANCH  11  13
HETATM   13  N2  UNL     1       0.938  -0.929   1.032  1.00  0.00    -0.315 N 
HETATM   14  C4  UNL     1       1.672   0.042   1.437  1.00  0.00     0.090 C 
ATOM     15  H2  UNL     1       1.361  -1.855   1.093  1.00  0.00     0.185 HD
BRANCH  14  16
HETATM   16  C3  UNL     1       3.020  -0.233   1.941  1.00  0.00     0.120 C 
BRANCH  16  17
HETATM   17  S1  UNL     1       4.034  -1.153   0.757  1.00  0.00    -0.162 SA
BRANCH  17  18
HETATM   18  C2  UNL     1       4.386  -0.181  -0.723  1.00  0.00     0.103 C 
BRANCH  18  19
HETATM   19  C1  UNL     1       5.275   1.011  -0.381  1.00  0.00     0.218 C 
BRANCH  19  20
HETATM   20  O3  UNL     1       5.528   1.752  -1.563  1.00  0.00    -0.221 OA
BRANCH  20  21
HETATM   21  N1  UNL     1       6.310   2.880  -1.520  1.00  0.00     0.004 N 
HETATM   22  O1  UNL     1       7.543   2.713  -1.289  1.00  0.00    -0.511 OA
HETATM   23  O2  UNL     1       5.786   4.132  -1.717  1.00  0.00    -0.511 OA
ENDBRANCH  20  21
ENDBRANCH  19  20
ENDBRANCH  18  19
ENDBRANCH  17  18
ENDBRANCH  16  17
ENDBRANCH  14  16
ENDBRANCH  11  13
ENDBRANCH   1  11
BRANCH   2  24
HETATM   24  N4  UNL     1      -2.654   0.315  -0.081  1.00  0.00    -0.378 N 
HETATM   25  C7  UNL     1      -3.740   0.888  -0.898  1.00  0.00     0.129 C 
HETATM   26  C8  UNL     1      -3.573   2.386  -1.023  1.00  0.00     0.099 C 
HETATM   27  C9  UNL     1      -3.716   2.949   0.349  1.00  0.00     0.246 C 
HETATM   28  F1  UNL     1      -5.034   2.780   0.755  1.00  0.00    -0.206 F 
HETATM   29  F2  UNL     1      -3.523   4.316   0.276  1.00  0.00    -0.206 F 
HETATM   30  C10 UNL     1      -2.797   2.343   1.340  1.00  0.00     0.099 C 
HETATM   31  C11 UNL     1      -2.009   1.146   0.876  1.00  0.00     0.129 C 
ENDBRANCH   2  24
TORSDOF 9
