REMARK  8 active torsions:
REMARK  status: ('A' for Active; 'I' for Inactive)
REMARK    1  A    between atoms: C3_3  and  C4_4 
REMARK       I    between atoms: N1_5  and  C5_7 
REMARK    2  A    between atoms: C5_7  and  C6_9 
REMARK    3  A    between atoms: C6_9  and  S1_10 
REMARK    4  A    between atoms: S1_10  and  C7_11 
REMARK    5  A    between atoms: C8_16  and  C9_17 
REMARK    6  A    between atoms: N5_24  and  C14_25 
REMARK    7  A    between atoms: C17_28  and  O2_29 
REMARK    8  A    between atoms: O2_29  and  C18_30 
ROOT
HETATM    1  C7  UNL     1       0.727   0.024  -0.212  1.00  0.00     0.168 A 
HETATM    2  N2  UNL     1       1.396  -1.101  -0.411  1.00  0.00    -0.278 N 
ATOM      3  H2  UNL     1       2.409  -1.210  -0.361  1.00  0.00     0.189 HD
HETATM    4  N3  UNL     1       0.545  -2.040  -0.680  1.00  0.00    -0.286 N 
ATOM      5  H3  UNL     1       0.791  -3.010  -0.875  1.00  0.00     0.188 HD
HETATM    6  C8  UNL     1      -0.736  -1.543  -0.665  1.00  0.00     0.109 A 
HETATM    7  N5  UNL     1      -0.609  -0.255  -0.372  1.00  0.00    -0.279 N 
ENDROOT
BRANCH   1   8
HETATM    8  S1  UNL     1       1.341   1.657   0.192  1.00  0.00    -0.083 SA
BRANCH   8   9
HETATM    9  C6  UNL     1       3.135   1.590   0.305  1.00  0.00     0.185 C 
BRANCH   9  10
HETATM   10  C5  UNL     1       3.604   0.768   1.431  1.00  0.00     0.231 C 
HETATM   11  N1  UNL     1       5.002   0.637   1.629  1.00  0.00    -0.337 N 
HETATM   12  C4  UNL     1       5.850   1.376   1.007  1.00  0.00     0.090 C 
ATOM     13  H1  UNL     1       5.345  -0.065   2.285  1.00  0.00     0.168 HD
HETATM   14  O1  UNL     1       2.818   0.177   2.225  1.00  0.00    -0.272 OA
BRANCH  12  15
HETATM   15  C3  UNL     1       7.279   1.227   1.224  1.00  0.00     0.013 C 
HETATM   16  C2  UNL     1       7.742   0.328   2.065  1.00  0.00    -0.030 C 
HETATM   17  C1  UNL     1       9.188   0.192   2.270  1.00  0.00     0.036 C 
ENDBRANCH  12  15
ENDBRANCH   9  10
ENDBRANCH   8   9
ENDBRANCH   1   8
BRANCH   7  18
HETATM   18  C14 UNL     1      -1.652   0.686  -0.248  1.00  0.00     0.043 A 
HETATM   19  C15 UNL     1      -2.048   1.453  -1.311  1.00  0.00     0.033 A 
HETATM   20  C16 UNL     1      -3.078   2.397  -1.180  1.00  0.00     0.039 A 
HETATM   21  C17 UNL     1      -3.693   2.542   0.054  1.00  0.00     0.075 A 
HETATM   22  C19 UNL     1      -3.292   1.765   1.132  1.00  0.00     0.039 A 
HETATM   23  C20 UNL     1      -2.277   0.854   0.951  1.00  0.00     0.033 A 
BRANCH  21  24
HETATM   24  O2  UNL     1      -4.711   3.440   0.282  1.00  0.00    -0.290 OA
BRANCH  24  25
HETATM   25  C18 UNL     1      -5.286   4.323  -0.625  1.00  0.00     0.505 C 
HETATM   26  F1  UNL     1      -6.656   4.114  -0.765  1.00  0.00    -0.184 F 
HETATM   27  F2  UNL     1      -5.119   5.608  -0.085  1.00  0.00    -0.184 F 
ENDBRANCH  24  25
ENDBRANCH  21  24
ENDBRANCH   7  18
BRANCH   6  28
HETATM   28  C9  UNL     1      -1.901  -2.368  -0.938  1.00  0.00     0.058 C 
HETATM   29  C10 UNL     1      -2.897  -1.851  -1.913  1.00  0.00     0.031 C 
HETATM   30  C11 UNL     1      -3.718  -3.073  -2.364  1.00  0.00     0.114 C 
HETATM   31  N4  UNL     1      -3.526  -4.197  -1.518  1.00  0.00    -0.421 N 
HETATM   32  C12 UNL     1      -3.538  -3.969  -0.115  1.00  0.00     0.114 C 
ATOM     33  H4  UNL     1      -3.385  -5.131  -1.902  1.00  0.00     0.153 HD
HETATM   34  C13 UNL     1      -2.708  -2.748   0.312  1.00  0.00     0.031 C 
ENDBRANCH   6  28
TORSDOF 8
