REMARK  8 active torsions:
REMARK  status: ('A' for Active; 'I' for Inactive)
REMARK    1  A    between atoms: C1_2  and  C2_3 
REMARK       I    between atoms: C1_2  and  N6_27 
REMARK    2  A    between atoms: C2_3  and  S1_4 
REMARK    3  A    between atoms: S1_4  and  C3_5 
REMARK    4  A    between atoms: C4_10  and  N3_11 
REMARK    5  A    between atoms: N3_11  and  C5_12 
REMARK    6  A    between atoms: N3_11  and  C9_20 
REMARK    7  A    between atoms: N6_27  and  C13_29 
REMARK    8  A    between atoms: C13_29  and  C14_30 
ROOT
HETATM    1  C3  UNL     1      -0.156   0.796   0.626  1.00  0.00     0.130 A 
HETATM    2  N1  UNL     1      -1.003   0.996   1.636  1.00  0.00    -0.286 N 
ATOM      3  H1  UNL     1      -0.671   1.424   2.500  1.00  0.00     0.188 HD
HETATM    4  N2  UNL     1      -2.215   0.657   1.527  1.00  0.00    -0.278 N 
ATOM      5  H2  UNL     1      -2.856   0.812   2.305  1.00  0.00     0.189 HD
HETATM    6  C4  UNL     1      -2.656   0.105   0.416  1.00  0.00     0.170 A 
HETATM    7  S2  UNL     1      -1.221   0.072  -0.516  1.00  0.00    -0.026 SA
ENDROOT
BRANCH   6   8
HETATM    8  N3  UNL     1      -3.998  -0.288   0.007  1.00  0.00    -0.307 N 
BRANCH   8   9
HETATM    9  C5  UNL     1      -4.708  -1.246   0.728  1.00  0.00     0.111 A 
HETATM   10  C6  UNL     1      -4.103  -1.892   1.823  1.00  0.00     0.066 A 
HETATM   11  C7  UNL     1      -4.787  -2.823   2.571  1.00  0.00     0.092 A 
HETATM   12  N4  UNL     1      -6.067  -3.123   2.244  1.00  0.00    -0.362 N 
HETATM   13  C8  UNL     1      -6.669  -2.527   1.209  1.00  0.00     0.181 A 
ATOM     14  H4  UNL     1      -6.579  -3.813   2.795  1.00  0.00     0.165 HD
HETATM   15  N5  UNL     1      -5.969  -1.635   0.517  1.00  0.00    -0.338 N 
ATOM     16  H5  UNL     1      -6.450  -1.195  -0.267  1.00  0.00     0.168 HD
ENDBRANCH   8   9
BRANCH   8  17
HETATM   17  C9  UNL     1      -4.434   0.418  -1.164  1.00  0.00     0.105 C 
HETATM   18  C10 UNL     1      -4.480   1.930  -0.991  1.00  0.00     0.105 C 
HETATM   19  C11 UNL     1      -5.729   1.920  -1.834  1.00  0.00     0.247 C 
HETATM   20  F1  UNL     1      -5.415   2.309  -3.133  1.00  0.00    -0.206 F 
HETATM   21  F2  UNL     1      -6.822   2.538  -1.284  1.00  0.00    -0.206 F 
HETATM   22  C12 UNL     1      -5.774   0.373  -1.710  1.00  0.00     0.105 C 
ENDBRANCH   8  17
ENDBRANCH   6   8
BRANCH   1  23
HETATM   23  S1  UNL     1       1.564   1.294   0.472  1.00  0.00    -0.094 SA
BRANCH  23  24
HETATM   24  C2  UNL     1       2.185   0.727  -1.114  1.00  0.00     0.184 C 
BRANCH  24  25
HETATM   25  C1  UNL     1       3.311  -0.235  -0.916  1.00  0.00     0.227 C 
HETATM   26  O1  UNL     1       3.905  -0.649  -1.959  1.00  0.00    -0.273 OA
HETATM   27  N6  UNL     1       3.667  -0.629   0.378  1.00  0.00    -0.356 N 
ATOM     28  H6  UNL     1       3.153  -0.304   1.197  1.00  0.00     0.162 HD
BRANCH  27  29
HETATM   29  C13 UNL     1       4.827  -1.541   0.502  1.00  0.00     0.161 C 
BRANCH  29  30
HETATM   30  C14 UNL     1       6.007  -0.619   0.320  1.00  0.00    -0.041 A 
HETATM   31  C15 UNL     1       6.837  -0.641  -0.758  1.00  0.00     0.009 A 
HETATM   32  C16 UNL     1       7.892   0.259  -0.903  1.00  0.00     0.001 A 
HETATM   33  C17 UNL     1       8.125   1.204   0.051  1.00  0.00     0.000 A 
HETATM   34  C18 UNL     1       7.272   1.226   1.160  1.00  0.00     0.001 A 
HETATM   35  C19 UNL     1       6.232   0.339   1.303  1.00  0.00     0.009 A 
ENDBRANCH  29  30
ENDBRANCH  27  29
ENDBRANCH  24  25
ENDBRANCH  23  24
ENDBRANCH   1  23
TORSDOF 8
