REMARK  9 active torsions:
REMARK  status: ('A' for Active; 'I' for Inactive)
REMARK    1  A    between atoms: C1_2  and  C2_3 
REMARK       I    between atoms: C1_2  and  N1_19 
REMARK    2  A    between atoms: C2_3  and  C3_4 
REMARK    3  A    between atoms: C3_4  and  C4_6 
REMARK    4  A    between atoms: C4_6  and  O4_8 
REMARK    5  A    between atoms: O4_8  and  C5_9 
REMARK    6  A    between atoms: C5_9  and  C6_10 
REMARK    7  A    between atoms: C6_10  and  C7_12 
REMARK    8  A    between atoms: N1_19  and  C11_21 
REMARK    9  A    between atoms: C15_25  and  N2_26 
ROOT
HETATM    1  C3  UNL     1       0.360  -0.616  -0.552  1.00  0.00     0.232 C 
HETATM    2  O2  UNL     1       0.010  -0.664  -1.744  1.00  0.00    -0.286 OA
ENDROOT
BRANCH   1   3
HETATM    3  C2  UNL     1      -0.592  -0.385   0.520  1.00  0.00     0.192 C 
BRANCH   3   4
HETATM    4  C1  UNL     1      -1.987  -0.225  -0.036  1.00  0.00     0.229 C 
HETATM    5  O1  UNL     1      -2.145  -0.305  -1.273  1.00  0.00    -0.273 OA
HETATM    6  N1  UNL     1      -3.056   0.009   0.858  1.00  0.00    -0.327 N 
ATOM      7  H1  UNL     1      -2.846   0.067   1.854  1.00  0.00     0.169 HD
BRANCH   6   8
HETATM    8  C11 UNL     1      -4.392   0.166   0.453  1.00  0.00     0.037 A 
HETATM    9  C12 UNL     1      -4.945  -0.182  -0.740  1.00  0.00     0.029 A 
HETATM   10  C13 UNL     1      -6.276   0.048  -1.020  1.00  0.00     0.005 A 
HETATM   11  C14 UNL     1      -7.108   0.644  -0.095  1.00  0.00     0.036 A 
HETATM   12  C15 UNL     1      -6.590   1.018   1.143  1.00  0.00     0.105 A 
HETATM   13  C16 UNL     1      -5.268   0.772   1.376  1.00  0.00     0.065 A 
BRANCH  12  14
HETATM   14  N2  UNL     1      -7.428   1.633   2.110  1.00  0.00    -0.116 N 
HETATM   15  O6  UNL     1      -8.614   1.848   1.886  1.00  0.00    -0.532 OA
HETATM   16  O7  UNL     1      -6.895   1.991   3.317  1.00  0.00    -0.532 OA
ENDBRANCH  12  14
ENDBRANCH   6   8
ENDBRANCH   3   4
ENDBRANCH   1   3
BRANCH   1  17
HETATM   17  C4  UNL     1       1.804  -0.803  -0.220  1.00  0.00     0.330 C 
HETATM   18  O3  UNL     1       2.183  -0.760   0.957  1.00  0.00    -0.256 OA
BRANCH  17  19
HETATM   19  O4  UNL     1       2.699  -1.020  -1.228  1.00  0.00    -0.307 OA
BRANCH  19  20
HETATM   20  C5  UNL     1       4.073  -1.209  -1.073  1.00  0.00     0.263 C 
BRANCH  20  21
HETATM   21  C6  UNL     1       4.759  -0.065  -0.457  1.00  0.00     0.190 C 
HETATM   22  O5  UNL     1       4.191   0.990  -0.110  1.00  0.00    -0.289 OA
BRANCH  21  23
HETATM   23  C7  UNL     1       6.219  -0.202  -0.246  1.00  0.00     0.056 A 
HETATM   24  C8  UNL     1       7.065   0.719   0.305  1.00  0.00     0.048 A 
HETATM   25  C9  UNL     1       8.369   0.380   0.400  1.00  0.00     0.064 A 
HETATM   26 CL1  UNL     1       9.631   1.451   1.091  1.00  0.00    -0.082 Cl
HETATM   27  C10 UNL     1       8.724  -0.855  -0.063  1.00  0.00     0.097 A 
HETATM   28 CL2  UNL     1      10.327  -1.615  -0.093  1.00  0.00    -0.074 Cl
HETATM   29  S1  UNL     1       7.253  -1.505  -0.613  1.00  0.00    -0.073 SA
ENDBRANCH  21  23
ENDBRANCH  20  21
ENDBRANCH  19  20
ENDBRANCH  17  19
ENDBRANCH   1  17
TORSDOF 9
