REMARK  9 active torsions:
REMARK  status: ('A' for Active; 'I' for Inactive)
REMARK    1  A    between atoms: C2_2  and  C3_3 
REMARK    2  A    between atoms: C3_3  and  C4_4 
REMARK    3  A    between atoms: C3_3  and  C20_31 
REMARK    4  A    between atoms: C4_4  and  N1_5 
REMARK    5  A    between atoms: N2_8  and  C7_9 
REMARK    6  A    between atoms: C7_9  and  C8_10 
REMARK    7  A    between atoms: C7_9  and  C14_23 
REMARK    8  A    between atoms: N6_17  and  C9_18 
REMARK    9  A    between atoms: C18_27  and  C19_28 
ROOT
HETATM    1  C7  UNL     1      -1.375  -0.218  -0.817  1.00  0.00     0.162 C 
ENDROOT
BRANCH   1   2
HETATM    2  N2  UNL     1      -0.127  -0.651  -0.289  1.00  0.00    -0.358 N 
HETATM    3  C6  UNL     1       0.628  -1.620  -0.926  1.00  0.00     0.094 C 
HETATM    4  C5  UNL     1       2.097  -1.478  -0.899  1.00  0.00     0.318 C 
HETATM    5  N1  UNL     1       2.711  -0.790   0.196  1.00  0.00     0.109 N 
HETATM    6  C18 UNL     1       1.792  -0.310   1.191  1.00  0.00     0.326 C 
HETATM    7  C17 UNL     1       0.458   0.156   0.686  1.00  0.00     0.105 C 
BRANCH   5   8
HETATM    8  C4  UNL     1       3.522   0.311  -0.353  1.00  0.00     0.289 C 
BRANCH   8   9
HETATM    9  C3  UNL     1       4.464   0.836   0.660  1.00  0.00     0.115 C 
BRANCH   9  10
HETATM   10  C2  UNL     1       5.290   2.008   0.093  1.00  0.00     0.012 C 
HETATM   11  C1  UNL     1       6.104   1.599  -1.097  1.00  0.00     0.006 C 
ENDBRANCH   9  10
BRANCH   9  12
HETATM   12  C20 UNL     1       5.515  -0.199   0.996  1.00  0.00     0.178 C 
HETATM   13  O1  UNL     1       6.752   0.047   0.888  1.00  0.00    -0.648 OA
HETATM   14  O2  UNL     1       5.144  -1.444   1.430  1.00  0.00    -0.648 OA
ENDBRANCH   9  12
ENDBRANCH   8   9
ENDBRANCH   5   8
BRANCH   6  15
HETATM   15  C19 UNL     1       1.692  -1.199   2.415  1.00  0.00     0.391 C 
HETATM   16  F1  UNL     1       1.281  -2.465   2.176  1.00  0.00    -0.212 F 
HETATM   17  F2  UNL     1       0.733  -0.600   3.246  1.00  0.00    -0.212 F 
ENDBRANCH   6  15
ENDBRANCH   1   2
BRANCH   1  18
HETATM   18  C8  UNL     1      -2.375  -1.300  -0.845  1.00  0.00     0.139 A 
HETATM   19  N3  UNL     1      -2.162  -2.526  -1.358  1.00  0.00    -0.270 N 
HETATM   20  N4  UNL     1      -3.276  -3.262  -1.211  1.00  0.00    -0.227 N 
ATOM     21  H3  UNL     1      -1.294  -2.845  -1.789  1.00  0.00     0.190 HD
HETATM   22  N5  UNL     1      -4.153  -2.486  -0.613  1.00  0.00    -0.224 N 
ATOM     23  H4  UNL     1      -3.414  -4.229  -1.504  1.00  0.00     0.210 HD
HETATM   24  N6  UNL     1      -3.618  -1.275  -0.379  1.00  0.00    -0.257 N 
ATOM     25  H5  UNL     1      -5.102  -2.763  -0.363  1.00  0.00     0.210 HD
BRANCH  24  26
HETATM   26  C9  UNL     1      -4.294  -0.196   0.260  1.00  0.00     0.111 C 
HETATM   27  C10 UNL     1      -5.795  -0.523   0.373  1.00  0.00     0.027 C 
HETATM   28  C11 UNL     1      -6.327   0.376   1.452  1.00  0.00     0.002 C 
HETATM   29  C12 UNL     1      -5.142   0.682   2.333  1.00  0.00     0.002 C 
HETATM   30  C13 UNL     1      -3.967  -0.081   1.746  1.00  0.00     0.027 C 
ENDBRANCH  24  26
ENDBRANCH   1  18
BRANCH   1  31
HETATM   31  C14 UNL     1      -1.189   0.417  -2.180  1.00  0.00     0.008 C 
HETATM   32  C15 UNL     1      -0.277   1.622  -2.149  1.00  0.00     0.012 C 
HETATM   33  C16 UNL     1      -2.487   0.875  -2.805  1.00  0.00     0.012 C 
ENDBRANCH   1  31
TORSDOF 9
