REMARK  5 active torsions:
REMARK  status: ('A' for Active; 'I' for Inactive)
REMARK    1  A    between atoms: C2_2  and  O1_3 
REMARK    2  A    between atoms: C2_2  and  C3_5 
REMARK    3  A    between atoms: C5_11  and  C6_12 
REMARK    4  A    between atoms: C7_13  and  C8_14 
REMARK    5  A    between atoms: C17_23  and  O4_24 
ROOT
HETATM    1  C6  UNL     1       1.929  -0.681  -0.289  1.00  0.00     0.021 C 
HETATM    2  C7  UNL     1       0.891  -1.440  -0.510  1.00  0.00     0.014 C 
ENDROOT
BRANCH   2   3
HETATM    3  C8  UNL     1      -0.520  -0.960  -0.462  1.00  0.00    -0.011 C 
HETATM    4  C9  UNL     1      -0.692   0.440  -0.723  1.00  0.00    -0.013 C 
HETATM    5  C10 UNL     1      -1.052   1.414   0.308  1.00  0.00     0.028 C 
HETATM    6  C11 UNL     1      -2.160   2.373  -0.133  1.00  0.00     0.004 C 
HETATM    7  C12 UNL     1      -3.464   2.119   0.614  1.00  0.00     0.000 C 
HETATM    8  C13 UNL     1      -4.317   1.076  -0.028  1.00  0.00     0.000 C 
HETATM    9  C14 UNL     1      -4.096  -0.230   0.696  1.00  0.00     0.000 C 
HETATM   10  C15 UNL     1      -3.592  -1.243  -0.307  1.00  0.00     0.006 C 
HETATM   11  C16 UNL     1      -2.611  -2.192   0.202  1.00  0.00     0.065 C 
HETATM   12  C17 UNL     1      -1.244  -1.715   0.577  1.00  0.00     0.053 C 
BRANCH  12  13
HETATM   13  O4  UNL     1      -1.118  -1.261   1.878  1.00  0.00    -0.364 OA
ATOM     14  H4  UNL     1      -1.585  -1.747   2.547  1.00  0.00     0.217 HD
ENDBRANCH  12  13
ENDBRANCH   2   3
BRANCH   1  15
HETATM   15  C5  UNL     1       3.269  -1.228  -0.365  1.00  0.00     0.068 A 
HETATM   16  C3  UNL     1       4.369  -0.358  -0.309  1.00  0.00     0.077 A 
HETATM   17  N1  UNL     1       5.448  -1.130  -0.494  1.00  0.00    -0.258 N 
HETATM   18  O2  UNL     1       5.074  -2.378  -0.651  1.00  0.00    -0.195 OA
ATOM     19  H1  UNL     1       6.413  -0.799  -0.510  1.00  0.00     0.194 HD
HETATM   20  C4  UNL     1       3.759  -2.485  -0.578  1.00  0.00     0.317 A 
HETATM   21  O3  UNL     1       3.068  -3.523  -0.670  1.00  0.00    -0.257 OA
BRANCH  16  22
HETATM   22  C2  UNL     1       4.329   1.035   0.053  1.00  0.00     0.166 C 
HETATM   23  C1  UNL     1       4.261   1.993  -1.115  1.00  0.00     0.046 C 
BRANCH  22  24
HETATM   24  O1  UNL     1       5.684   1.323   0.584  1.00  0.00    -0.390 OA
ATOM     25  H1  UNL     1       5.727   0.721   1.318  1.00  0.00     0.210 HD
ENDBRANCH  22  24
ENDBRANCH  16  22
ENDBRANCH   1  15
TORSDOF 5
