REMARK  5 active torsions:
REMARK  status: ('A' for Active; 'I' for Inactive)
REMARK    1  A    between atoms: S1_2  and  C2_3 
REMARK    2  A    between atoms: C5_6  and  O1_7 
REMARK    3  A    between atoms: O1_7  and  C6_8 
REMARK    4  A    between atoms: C6_8  and  N2_12 
REMARK    5  A    between atoms: N2_12  and  C7_14 
ROOT
HETATM    1  C6  UNL     1      -0.233  -1.268  -0.341  1.00  0.00     0.218 C 
HETATM    2  N1  UNL     1       0.150  -2.493  -0.253  1.00  0.00    -0.365 N 
ATOM      3  H11 UNL     1      -0.387  -3.165  -0.801  1.00  0.00     0.159 HD
ATOM      4  H12 UNL     1       0.933  -2.816   0.315  1.00  0.00     0.159 HD
ENDROOT
BRANCH   1   5
HETATM    5  O1  UNL     1       0.491  -0.361   0.399  1.00  0.00    -0.280 OA
BRANCH   5   6
HETATM    6  C5  UNL     1       1.865  -0.244   0.395  1.00  0.00     0.081 A 
HETATM    7  C4  UNL     1       2.747  -0.987  -0.340  1.00  0.00     0.039 A 
HETATM    8  C3  UNL     1       4.121  -0.777  -0.259  1.00  0.00     0.023 A 
HETATM    9  C2  UNL     1       4.653   0.190   0.566  1.00  0.00     0.022 A 
HETATM   10  C14 UNL     1       3.766   0.942   1.308  1.00  0.00     0.053 A 
HETATM   11  C13 UNL     1       2.400   0.725   1.221  1.00  0.00     0.062 A 
HETATM   12 CL1  UNL     1       4.418   2.185   2.371  1.00  0.00    -0.083 Cl
BRANCH   9  13
HETATM   13  S1  UNL     1       6.423   0.464   0.674  1.00  0.00    -0.133 SA
HETATM   14  C1  UNL     1       6.989   1.677  -0.526  1.00  0.00     0.095 C 
ENDBRANCH   9  13
ENDBRANCH   5   6
ENDBRANCH   1   5
BRANCH   1  15
HETATM   15  N2  UNL     1      -1.319  -0.820  -1.128  1.00  0.00    -0.352 N 
ATOM     16  H2  UNL     1      -1.305  -0.897  -2.145  1.00  0.00     0.163 HD
BRANCH  15  17
HETATM   17  C7  UNL     1      -2.455  -0.245  -0.429  1.00  0.00     0.085 C 
HETATM   18  C8  UNL     1      -2.995  -1.310   0.496  1.00  0.00     0.031 C 
HETATM   19  C9  UNL     1      -4.268  -0.837   1.191  1.00  0.00     0.054 C 
HETATM   20  C10 UNL     1      -4.424   0.612   0.885  1.00  0.00    -0.020 C 
HETATM   21  N3  UNL     1      -4.462   1.469   1.841  1.00  0.00    -0.406 N 
HETATM   22  C11 UNL     1      -4.532   1.016  -0.544  1.00  0.00     0.054 C 
ATOM     23  H32 UNL     1      -4.388   1.192   2.820  1.00  0.00     0.155 HD
ATOM     24  H31 UNL     1      -4.569   2.461   1.631  1.00  0.00     0.155 HD
HETATM   25  C12 UNL     1      -3.549   0.184  -1.379  1.00  0.00     0.031 C 
ENDBRANCH  15  17
ENDBRANCH   1  15
TORSDOF 5
