REMARK  8 active torsions:
REMARK  status: ('A' for Active; 'I' for Inactive)
REMARK    1  A    between atoms: O1_2  and  C2_3 
REMARK    2  A    between atoms: C5_6  and  N1_7 
REMARK    3  A    between atoms: N1_7  and  C6_9 
REMARK    4  A    between atoms: C6_9  and  O2_10 
REMARK    5  A    between atoms: C6_9  and  C11_15 
REMARK    6  A    between atoms: O2_10  and  C7_11 
REMARK       I    between atoms: C11_15  and  N2_17 
REMARK    7  A    between atoms: N2_17  and  N3_19 
REMARK    8  A    between atoms: N3_19  and  C12_21 
ROOT
HETATM    1  C6  UNL     1      -0.916  -0.750  -0.957  1.00  0.00     0.317 C 
ENDROOT
BRANCH   1   2
HETATM    2  N1  UNL     1      -1.976   0.160  -1.426  1.00  0.00    -0.356 N 
ATOM      3  H1  UNL     1      -1.995   0.409  -2.415  1.00  0.00     0.162 HD
BRANCH   2   4
HETATM    4  C5  UNL     1      -2.964   0.705  -0.585  1.00  0.00     0.030 A 
HETATM    5  C4  UNL     1      -3.041   0.432   0.754  1.00  0.00     0.032 A 
HETATM    6  C3  UNL     1      -4.049   1.000   1.545  1.00  0.00     0.039 A 
HETATM    7  C2  UNL     1      -4.992   1.847   1.017  1.00  0.00     0.068 A 
HETATM    8  C21 UNL     1      -4.909   2.118  -0.328  1.00  0.00     0.039 A 
HETATM    9  C20 UNL     1      -3.924   1.564  -1.109  1.00  0.00     0.032 A 
BRANCH   7  10
HETATM   10  O1  UNL     1      -5.980   2.397   1.823  1.00  0.00    -0.356 OA
HETATM   11  C1  UNL     1      -6.954   3.262   1.319  1.00  0.00     0.210 C 
ENDBRANCH   7  10
ENDBRANCH   2   4
ENDBRANCH   1   2
BRANCH   1  12
HETATM   12  O2  UNL     1      -1.437  -1.855  -0.367  1.00  0.00    -0.348 OA
BRANCH  12  13
HETATM   13  C7  UNL     1      -1.401  -3.040  -1.022  1.00  0.00     0.053 C 
HETATM   14  C8  UNL     1      -0.085  -3.598  -1.419  1.00  0.00     0.045 C 
HETATM   15  C9  UNL     1      -2.047  -4.081  -0.087  1.00  0.00     0.045 C 
HETATM   16  C10 UNL     1      -2.342  -3.003  -2.237  1.00  0.00     0.045 C 
ENDBRANCH  12  13
ENDBRANCH   1  12
BRANCH   1  17
HETATM   17  C11 UNL     1       0.033  -0.036  -0.103  1.00  0.00     0.285 C 
HETATM   18  O3  UNL     1      -0.107   1.237   0.101  1.00  0.00    -0.267 OA
HETATM   19  N2  UNL     1       1.146  -0.593   0.566  1.00  0.00    -0.266 N 
ATOM     20  H2  UNL     1       1.324  -1.591   0.457  1.00  0.00     0.190 HD
BRANCH  19  21
HETATM   21  N3  UNL     1       2.012   0.147   1.365  1.00  0.00    -0.302 N 
ATOM     22  H3  UNL     1       1.695   0.493   2.271  1.00  0.00     0.186 HD
BRANCH  21  23
HETATM   23  C12 UNL     1       3.204   0.396   0.971  1.00  0.00     0.026 C 
HETATM   24  C13 UNL     1       3.558  -0.123  -0.297  1.00  0.00     0.001 C 
HETATM   25  C14 UNL     1       3.986   0.638  -1.511  1.00  0.00     0.040 C 
HETATM   26  C15 UNL     1       4.982   1.808  -1.204  1.00  0.00     0.083 C 
HETATM   27  C16 UNL     1       4.874   2.010   0.176  1.00  0.00    -0.182 C 
HETATM   28  C17 UNL     1       4.814   2.274   1.552  1.00  0.00     0.090 C 
HETATM   29  C18 UNL     1       3.807   1.209   2.119  1.00  0.00     0.043 C 
HETATM   30  C19 UNL     1       4.630   0.202   2.902  1.00  0.00     0.017 C 
ENDBRANCH  21  23
ENDBRANCH  19  21
ENDBRANCH   1  17
TORSDOF 8
