REMARK  6 active torsions:
REMARK  status: ('A' for Active; 'I' for Inactive)
REMARK    1  A    between atoms: C2_2  and  N1_3 
REMARK    2  A    between atoms: N1_3  and  N2_5 
REMARK    3  A    between atoms: C3_6  and  S1_7 
REMARK    4  A    between atoms: S1_7  and  C4_8 
REMARK    5  A    between atoms: C4_8  and  C5_9 
REMARK       I    between atoms: C5_9  and  N3_11 
REMARK    6  A    between atoms: N3_11  and  C6_13 
ROOT
HETATM    1  C4  UNL     1       0.570  -0.794  -0.759  1.00  0.00     0.184 C 
ENDROOT
BRANCH   1   2
HETATM    2  S1  UNL     1       1.937   0.153  -0.140  1.00  0.00    -0.099 SA
BRANCH   2   3
HETATM    3  C3  UNL     1       3.509  -0.237  -0.834  1.00  0.00     0.118 A 
HETATM    4  N2  UNL     1       4.657   0.401  -0.460  1.00  0.00    -0.222 N 
HETATM    5  C17 UNL     1       5.673  -0.112  -1.159  1.00  0.00     0.198 A 
HETATM    6  N4  UNL     1       5.234  -1.069  -1.983  1.00  0.00    -0.333 N 
HETATM    7  S2  UNL     1       7.263   0.310  -1.082  1.00  0.00    -0.039 SA
HETATM    8  C15 UNL     1       3.882  -1.154  -1.786  1.00  0.00     0.043 A 
ATOM      9  H4  UNL     1       5.794  -1.625  -2.629  1.00  0.00     0.168 HD
HETATM   10  C16 UNL     1       2.967  -2.077  -2.482  1.00  0.00     0.071 C 
BRANCH   4  11
HETATM   11  N1  UNL     1       4.757   1.411   0.485  1.00  0.00    -0.306 N 
ATOM     12  H1  UNL     1       4.146   2.224   0.405  1.00  0.00     0.186 HD
BRANCH  11  13
HETATM   13  C2  UNL     1       5.606   1.356   1.472  1.00  0.00     0.076 C 
HETATM   14  C1  UNL     1       5.665   2.470   2.453  1.00  0.00     0.056 C 
ENDBRANCH  11  13
ENDBRANCH   4  11
ENDBRANCH   2   3
ENDBRANCH   1   2
BRANCH   1  15
HETATM   15  C5  UNL     1      -0.684  -0.345  -0.088  1.00  0.00     0.231 C 
HETATM   16  O1  UNL     1      -0.617   0.571   0.758  1.00  0.00    -0.272 OA
HETATM   17  N3  UNL     1      -1.937  -0.956  -0.412  1.00  0.00    -0.326 N 
ATOM     18  H3  UNL     1      -1.987  -1.704  -1.104  1.00  0.00     0.169 HD
BRANCH  17  19
HETATM   19  C6  UNL     1      -3.109  -0.501   0.248  1.00  0.00     0.047 A 
HETATM   20  C7  UNL     1      -3.537  -1.073   1.445  1.00  0.00    -0.033 A 
HETATM   21  C8  UNL     1      -2.707  -2.178   1.989  1.00  0.00     0.050 C 
HETATM   22  C9  UNL     1      -4.676  -0.615   2.067  1.00  0.00     0.033 A 
HETATM   23  C10 UNL     1      -5.409   0.399   1.537  1.00  0.00     0.041 A 
HETATM   24 CL1  UNL     1      -6.875   1.009   2.311  1.00  0.00    -0.084 Cl
HETATM   25  C11 UNL     1      -4.994   0.972   0.353  1.00  0.00    -0.032 A 
HETATM   26  C12 UNL     1      -5.793   2.076  -0.223  1.00  0.00     0.050 C 
HETATM   27  C13 UNL     1      -3.852   0.522  -0.282  1.00  0.00    -0.027 A 
HETATM   28  C14 UNL     1      -3.461   1.181  -1.551  1.00  0.00     0.051 C 
ENDBRANCH  17  19
ENDBRANCH   1  15
TORSDOF 6
