REMARK  11 active torsions:
REMARK  status: ('A' for Active; 'I' for Inactive)
REMARK    1  A    between atoms: N2_5  and  C4_6 
REMARK    2  A    between atoms: C4_6  and  O1_7 
REMARK    3  A    between atoms: C4_6  and  C5_9 
REMARK    4  A    between atoms: C5_9  and  C6_10 
REMARK    5  A    between atoms: C6_10  and  N3_11 
REMARK       I    between atoms: N3_11  and  C7_13 
REMARK    6  A    between atoms: C7_13  and  C8_15 
REMARK    7  A    between atoms: C8_15  and  C9_16 
REMARK    8  A    between atoms: C8_15  and  N4_23 
REMARK    9  A    between atoms: C9_16  and  C10_17 
REMARK       I    between atoms: N4_23  and  C16_25 
REMARK   10  A    between atoms: C16_25  and  C17_27 
REMARK   11  A    between atoms: N6_33  and  O4_34 
ROOT
HETATM    1  C8  UNL     1      -1.258  -0.463   0.121  1.00  0.00     0.181 C 
ENDROOT
BRANCH   1   2
HETATM    2  C7  UNL     1      -0.341  -0.873   1.216  1.00  0.00     0.240 C 
HETATM    3  N3  UNL     1       1.053  -0.931   0.993  1.00  0.00    -0.359 N 
ATOM      4  H3  UNL     1       1.424  -0.690   0.074  1.00  0.00     0.162 HD
HETATM    5  O2  UNL     1      -0.782  -1.176   2.362  1.00  0.00    -0.271 OA
BRANCH   3   6
HETATM    6  C6  UNL     1       1.964  -1.327   2.046  1.00  0.00     0.127 C 
BRANCH   6   7
HETATM    7  C5  UNL     1       3.401  -1.315   1.585  1.00  0.00     0.073 C 
BRANCH   7   8
HETATM    8  C4  UNL     1       3.778   0.068   1.145  1.00  0.00     0.226 C 
BRANCH   8   9
HETATM    9  N2  UNL     1       5.165   0.125   0.690  1.00  0.00    -0.325 N 
HETATM   10  C3  UNL     1       6.033  -0.859   0.500  1.00  0.00     0.111 A 
HETATM   11  C2  UNL     1       7.213  -0.293   0.065  1.00  0.00     0.108 A 
HETATM   12  N1  UNL     1       7.045   1.054  -0.006  1.00  0.00    -0.356 N 
HETATM   13  C1  UNL     1       8.052   2.013  -0.422  1.00  0.00     0.156 C 
HETATM   14  C21 UNL     1       5.776   1.265   0.385  1.00  0.00     0.186 A 
ENDBRANCH   8   9
BRANCH   8  15
HETATM   15  O1  UNL     1       3.541   0.950   2.191  1.00  0.00    -0.376 OA
ATOM     16  H1  UNL     1       2.639   0.913   2.487  1.00  0.00     0.212 HD
ENDBRANCH   8  15
ENDBRANCH   7   8
ENDBRANCH   6   7
ENDBRANCH   3   6
ENDBRANCH   1   2
BRANCH   1  17
HETATM   17  C9  UNL     1      -0.819   0.912  -0.340  1.00  0.00     0.073 C 
BRANCH  17  18
HETATM   18  C10 UNL     1      -1.647   1.438  -1.426  1.00  0.00    -0.056 A 
HETATM   19  C11 UNL     1      -1.362   1.221  -2.757  1.00  0.00     0.007 A 
HETATM   20  C12 UNL     1      -2.164   1.732  -3.762  1.00  0.00     0.001 A 
HETATM   21  C13 UNL     1      -3.264   2.468  -3.457  1.00  0.00     0.000 A 
HETATM   22  C14 UNL     1      -3.579   2.704  -2.133  1.00  0.00     0.001 A 
HETATM   23  C15 UNL     1      -2.764   2.185  -1.124  1.00  0.00     0.007 A 
ENDBRANCH  17  18
ENDBRANCH   1  17
BRANCH   1  24
HETATM   24  N4  UNL     1      -2.612  -0.483   0.588  1.00  0.00    -0.342 N 
HETATM   25  C16 UNL     1      -3.616  -1.309   0.032  1.00  0.00     0.271 C 
HETATM   26  O3  UNL     1      -3.332  -2.070  -0.918  1.00  0.00    -0.266 OA
ATOM     27  H4  UNL     1      -2.865   0.131   1.362  1.00  0.00     0.163 HD
BRANCH  25  28
HETATM   28  C17 UNL     1      -4.977  -1.300   0.533  1.00  0.00     0.135 A 
HETATM   29  C18 UNL     1      -6.122  -1.898   0.283  1.00  0.00     0.140 A 
HETATM   30  C19 UNL     1      -6.796  -1.228   1.271  1.00  0.00     0.139 A 
HETATM   31  N6  UNL     1      -6.975  -2.736  -0.342  1.00  0.00    -0.214 N 
HETATM   32  N5  UNL     1      -8.070  -1.662   1.249  1.00  0.00    -0.335 N 
HETATM   33  N7  UNL     1      -5.702  -0.613   1.561  1.00  0.00    -0.334 N 
HETATM   34  C20 UNL     1      -8.165  -2.573   0.269  1.00  0.00     0.215 A 
ATOM     35  H5  UNL     1      -8.824  -1.355   1.864  1.00  0.00     0.168 HD
ATOM     36  H7  UNL     1      -5.449   0.091   2.254  1.00  0.00     0.168 HD
BRANCH  31  37
HETATM   37  O4  UNL     1      -6.671  -3.580  -1.391  1.00  0.00    -0.281 OA
ATOM     38  H4  UNL     1      -7.272  -4.170  -1.831  1.00  0.00     0.245 HD
ENDBRANCH  31  37
ENDBRANCH  25  28
ENDBRANCH   1  24
TORSDOF 11
