REMARK  14 active torsions:
REMARK  status: ('A' for Active; 'I' for Inactive)
REMARK    1  A    between atoms: N1_5  and  C5_6 
REMARK    2  A    between atoms: C5_6  and  C6_7 
REMARK    3  A    between atoms: C6_7  and  N2_8 
REMARK       I    between atoms: N2_8  and  C7_10 
REMARK    4  A    between atoms: C7_10  and  C8_12 
REMARK    5  A    between atoms: C8_12  and  N3_13 
REMARK    6  A    between atoms: C8_12  and  C9_17 
REMARK    7  A    between atoms: C9_17  and  C10_18 
REMARK    8  A    between atoms: C10_18  and  N4_19 
REMARK    9  A    between atoms: C10_18  and  C11_23 
REMARK   10  A    between atoms: C11_23  and  C12_24 
REMARK   11  A    between atoms: N6_29  and  C15_30 
REMARK   12  A    between atoms: C15_30  and  C16_31 
REMARK   13  A    between atoms: C16_31  and  O2_32 
REMARK   14  A    between atoms: C16_31  and  N7_34 
REMARK       I    between atoms: N7_34  and  C17_35 
ROOT
HETATM    1  C10 UNL     1      -1.713  -4.404   0.796  1.00  0.00     0.190 C 
ENDROOT
BRANCH   1   2
HETATM    2  C9  UNL     1      -0.594  -3.432   0.831  1.00  0.00     0.075 C 
BRANCH   2   3
HETATM    3  C8  UNL     1      -0.150  -2.861  -0.454  1.00  0.00     0.276 C 
BRANCH   3   4
HETATM    4  C7  UNL     1       0.967  -1.886  -0.199  1.00  0.00     0.248 C 
HETATM    5  N2  UNL     1       1.883  -1.538  -1.202  1.00  0.00    -0.358 N 
ATOM      6  H2  UNL     1       1.764  -1.980  -2.114  1.00  0.00     0.162 HD
HETATM    7  O1  UNL     1       1.025  -1.408   0.958  1.00  0.00    -0.271 OA
BRANCH   5   8
HETATM    8  C6  UNL     1       2.974  -0.614  -1.059  1.00  0.00     0.143 C 
BRANCH   8   9
HETATM    9  C5  UNL     1       2.469   0.730  -0.635  1.00  0.00     0.148 C 
BRANCH   9  10
HETATM   10  N1  UNL     1       3.569   1.674  -0.490  1.00  0.00    -0.359 N 
HETATM   11  C4  UNL     1       4.215   1.774   0.677  1.00  0.00     0.091 A 
HETATM   12  C3  UNL     1       5.274   2.633   0.855  1.00  0.00     0.024 A 
HETATM   13  C2  UNL     1       5.709   3.429  -0.181  1.00  0.00    -0.059 A 
HETATM   14  C1  UNL     1       6.853   4.367  -0.050  1.00  0.00     0.048 C 
HETATM   15  C21 UNL     1       5.017   3.306  -1.386  1.00  0.00     0.031 A 
HETATM   16  C19 UNL     1       3.943   2.418  -1.525  1.00  0.00     0.007 A 
HETATM   17  C20 UNL     1       3.282   2.343  -2.827  1.00  0.00     0.068 C 
ENDBRANCH   9  10
ENDBRANCH   8   9
ENDBRANCH   5   8
ENDBRANCH   3   4
BRANCH   3  18
HETATM   18  N3  UNL     1       0.240  -3.769  -1.484  1.00  0.00    -0.066 N 
ATOM     19  H33 UNL     1       0.533  -3.286  -2.334  1.00  0.00     0.275 HD
ATOM     20  H32 UNL     1       1.121  -4.238  -1.272  1.00  0.00     0.275 HD
ATOM     21  H31 UNL     1      -0.517  -4.430  -1.657  1.00  0.00     0.275 HD
ENDBRANCH   3  18
ENDBRANCH   2   3
ENDBRANCH   1   2
BRANCH   1  22
HETATM   22  N4  UNL     1      -1.431  -5.578  -0.005  1.00  0.00    -0.075 N 
ATOM     23  H43 UNL     1      -1.153  -5.313  -0.950  1.00  0.00     0.274 HD
ATOM     24  H42 UNL     1      -0.570  -6.029   0.305  1.00  0.00     0.274 HD
ATOM     25  H41 UNL     1      -2.201  -6.247  -0.029  1.00  0.00     0.274 HD
ENDBRANCH   1  22
BRANCH   1  26
HETATM   26  C11 UNL     1      -3.047  -3.810   0.433  1.00  0.00     0.074 C 
BRANCH  26  27
HETATM   27  C12 UNL     1      -3.459  -2.770   1.398  1.00  0.00    -0.025 A 
HETATM   28  C13 UNL     1      -4.182  -3.110   2.531  1.00  0.00     0.097 A 
HETATM   29  N5  UNL     1      -4.573  -2.145   3.397  1.00  0.00    -0.361 N 
HETATM   30  C14 UNL     1      -4.283  -0.853   3.201  1.00  0.00     0.182 A 
ATOM     31  H5  UNL     1      -5.106  -2.411   4.225  1.00  0.00     0.166 HD
HETATM   32  N6  UNL     1      -3.591  -0.473   2.128  1.00  0.00    -0.344 N 
HETATM   33  C18 UNL     1      -3.191  -1.431   1.248  1.00  0.00     0.100 A 
BRANCH  32  34
HETATM   34  C15 UNL     1      -3.234   0.868   1.810  1.00  0.00     0.229 C 
BRANCH  34  35
HETATM   35  C16 UNL     1      -4.329   1.456   0.925  1.00  0.00     0.211 C 
BRANCH  35  36
HETATM   36  O2  UNL     1      -5.397   0.700   0.788  1.00  0.00    -0.338 OA
ATOM     37  H2  UNL     1      -6.079   1.066   0.237  1.00  0.00     0.220 HD
ENDBRANCH  35  36
BRANCH  35  38
HETATM   38  N7  UNL     1      -4.279   2.602   0.321  1.00  0.00    -0.353 NA
HETATM   39  C17 UNL     1      -4.225   3.566  -0.351  1.00  0.00     0.277 C 
HETATM   40  N8  UNL     1      -4.114   3.464  -1.804  1.00  0.00    -0.052 NA
HETATM   41  N9  UNL     1      -4.259   4.931   0.137  1.00  0.00    -0.052 NA
ENDBRANCH  35  38
ENDBRANCH  34  35
ENDBRANCH  32  34
ENDBRANCH  26  27
ENDBRANCH   1  26
TORSDOF 14
