REMARK  13 active torsions:
REMARK  status: ('A' for Active; 'I' for Inactive)
REMARK    1  A    between atoms: C9_10  and  S1_11 
REMARK    2  A    between atoms: S1_11  and  C10_12 
REMARK    3  A    between atoms: C10_12  and  C11_13 
REMARK    4  A    between atoms: C10_12  and  N3_19 
REMARK    5  A    between atoms: C11_13  and  C12_14 
REMARK    6  A    between atoms: C12_14  and  N2_15 
REMARK    7  A    between atoms: N3_19  and  C13_21 
REMARK    8  A    between atoms: C13_21  and  C14_22 
REMARK    9  A    between atoms: C16_24  and  C17_25 
REMARK   10  A    between atoms: C20_32  and  N5_33 
REMARK   11  A    between atoms: N5_33  and  C21_35 
REMARK   12  A    between atoms: C21_35  and  C22_36 
REMARK   13  A    between atoms: C22_36  and  N6_37 
ROOT
HETATM    1  C1  UNL     1      -2.684   1.234   5.052  1.00  0.00     0.019 C 
HETATM    2  C2  UNL     1      -2.232   1.099   3.936  1.00  0.00    -0.059 C 
HETATM    3  C3  UNL     1      -1.682   0.916   2.623  1.00  0.00     0.088 A 
HETATM    4  C4  UNL     1      -2.420   0.137   1.745  1.00  0.00     0.055 A 
HETATM    5  C5  UNL     1      -1.954  -0.077   0.478  1.00  0.00     0.023 A 
HETATM    6  C6  UNL     1      -0.732   0.503   0.113  1.00  0.00     0.008 A 
HETATM    7  C7  UNL     1      -0.030   1.272   1.017  1.00  0.00     0.104 A 
HETATM    8  N1  UNL     1      -0.513   1.466   2.252  1.00  0.00    -0.353 N 
HETATM    9  C8  UNL     1       0.230   2.284   3.216  1.00  0.00     0.156 C 
HETATM   10  C9  UNL     1      -0.049   0.394  -1.012  1.00  0.00     0.017 C 
HETATM   11  C16 UNL     1      -0.277  -0.357  -2.260  1.00  0.00     0.188 C 
HETATM   12  C19 UNL     1      -1.706  -0.713  -2.509  1.00  0.00     0.239 C 
HETATM   13  O2  UNL     1      -2.179  -0.559  -3.676  1.00  0.00    -0.272 OA
HETATM   14  N4  UNL     1      -2.667  -1.229  -1.580  1.00  0.00    -0.312 N 
ATOM     15  H4  UNL     1      -3.298  -1.956  -1.916  1.00  0.00     0.170 HD
HETATM   16  C20 UNL     1      -2.814  -0.809  -0.222  1.00  0.00     0.115 C 
ENDROOT
BRANCH  16  17
HETATM   17  N5  UNL     1      -4.022  -1.226   0.435  1.00  0.00    -0.374 N 
ATOM     18  H5  UNL     1      -4.011  -2.031   1.062  1.00  0.00     0.161 HD
BRANCH  17  19
HETATM   19  C21 UNL     1      -5.250  -0.504   0.206  1.00  0.00     0.148 C 
BRANCH  19  20
HETATM   20  C22 UNL     1      -5.805  -0.634  -1.175  1.00  0.00     0.249 C 
BRANCH  20  21
HETATM   21  N6  UNL     1      -7.039   0.157  -1.240  1.00  0.00    -0.078 N 
ATOM     22  H63 UNL     1      -7.712  -0.100  -0.518  1.00  0.00     0.274 HD
ATOM     23  H62 UNL     1      -6.902   1.128  -0.959  1.00  0.00     0.274 HD
ATOM     24  H61 UNL     1      -7.418   0.068  -2.183  1.00  0.00     0.274 HD
ENDBRANCH  20  21
ENDBRANCH  19  20
ENDBRANCH  17  19
ENDBRANCH  16  17
BRANCH  10  25
HETATM   25  S1  UNL     1       1.505   1.336  -1.055  1.00  0.00    -0.079 SA
BRANCH  25  26
HETATM   26  C10 UNL     1       2.929   0.844  -0.518  1.00  0.00     0.049 C 
BRANCH  26  27
HETATM   27  C11 UNL     1       4.087   1.787  -0.657  1.00  0.00     0.091 C 
BRANCH  27  28
HETATM   28  C12 UNL     1       4.889   1.561  -1.898  1.00  0.00     0.236 C 
BRANCH  28  29
HETATM   29  N2  UNL     1       4.007   1.754  -3.059  1.00  0.00    -0.079 N 
ATOM     30  H23 UNL     1       3.172   1.170  -3.019  1.00  0.00     0.274 HD
ATOM     31  H22 UNL     1       3.541   2.662  -3.052  1.00  0.00     0.274 HD
ATOM     32  H21 UNL     1       4.554   1.600  -3.906  1.00  0.00     0.274 HD
ENDBRANCH  28  29
ENDBRANCH  27  28
ENDBRANCH  26  27
BRANCH  26  33
HETATM   33  N3  UNL     1       3.186  -0.412   0.084  1.00  0.00    -0.384 N 
ATOM     34  H3  UNL     1       2.402  -1.058   0.180  1.00  0.00     0.160 HD
BRANCH  33  35
HETATM   35  C13 UNL     1       4.467  -0.845   0.569  1.00  0.00     0.146 C 
BRANCH  35  36
HETATM   36  C14 UNL     1       4.385  -2.199   1.186  1.00  0.00    -0.018 C 
HETATM   37  C15 UNL     1       4.700  -2.430   2.447  1.00  0.00     0.008 C 
ENDBRANCH  35  36
ENDBRANCH  33  35
ENDBRANCH  26  33
ENDBRANCH  25  26
ENDBRANCH  10  25
BRANCH  11  38
HETATM   38  C17 UNL     1       0.545  -1.631  -2.324  1.00  0.00     0.141 C 
HETATM   39  C18 UNL     1       0.256  -2.687  -1.327  1.00  0.00     0.092 C 
HETATM   40  O1  UNL     1       1.417  -1.811  -3.150  1.00  0.00    -0.297 OA
ENDBRANCH  11  38
TORSDOF 13
