REMARK  6 active torsions:
REMARK  status: ('A' for Active; 'I' for Inactive)
REMARK    1  A    between atoms: O1_2  and  C2_3 
REMARK    2  A    between atoms: C2_3  and  C3_4 
REMARK    3  A    between atoms: C8_12  and  N3_13 
REMARK       I    between atoms: N3_13  and  C9_15 
REMARK    4  A    between atoms: C9_15  and  C10_17 
REMARK    5  A    between atoms: C11_20  and  N5_21 
REMARK    6  A    between atoms: C12_26  and  N7_27 
ROOT
HETATM    1  C3  UNL     1      -3.384  -1.258  -0.034  1.00  0.00     0.054 A 
HETATM    2  C4  UNL     1      -4.541  -1.884  -0.372  1.00  0.00     0.073 A 
HETATM    3  C5  UNL     1      -5.818  -1.261  -0.191  1.00  0.00     0.101 C 
HETATM    4  N1  UNL     1      -6.877  -0.802  -0.038  1.00  0.00    -0.191 NA
HETATM    5  C6  UNL     1      -4.581  -3.213  -0.844  1.00  0.00     0.111 A 
HETATM    6  N2  UNL     1      -3.447  -3.898  -0.966  1.00  0.00    -0.372 N 
ATOM      7  H2  UNL     1      -3.475  -4.860  -1.305  1.00  0.00     0.164 HD
HETATM    8  C7  UNL     1      -2.265  -3.341  -0.649  1.00  0.00     0.117 A 
HETATM    9  C8  UNL     1      -2.208  -2.024  -0.184  1.00  0.00     0.063 A 
ENDROOT
BRANCH   1  10
HETATM   10  C2  UNL     1      -3.343   0.140   0.409  1.00  0.00     0.202 C 
HETATM   11  C19 UNL     1      -4.236   0.250   1.713  1.00  0.00     0.155 C 
HETATM   12  C20 UNL     1      -3.388   0.961   2.730  1.00  0.00     0.270 C 
HETATM   13  F3  UNL     1      -4.002   2.057   3.288  1.00  0.00    -0.204 F 
HETATM   14  F4  UNL     1      -2.841   0.114   3.658  1.00  0.00    -0.204 F 
HETATM   15  C21 UNL     1      -2.304   1.528   1.800  1.00  0.00     0.251 C 
HETATM   16  O3  UNL     1      -2.141   0.377   1.036  1.00  0.00    -0.345 OA
BRANCH  10  17
HETATM   17  O1  UNL     1      -3.628   1.126  -0.390  1.00  0.00    -0.356 OA
HETATM   18  C1  UNL     1      -4.484   1.556  -1.220  1.00  0.00     0.206 C 
ENDBRANCH  10  17
ENDBRANCH   1  10
BRANCH   9  19
HETATM   19  N3  UNL     1      -0.958  -1.370  -0.036  1.00  0.00    -0.320 N 
HETATM   20  C9  UNL     1       0.177  -2.046   0.398  1.00  0.00     0.274 C 
HETATM   21  O2  UNL     1       0.151  -3.283   0.724  1.00  0.00    -0.266 OA
ATOM     22  H3  UNL     1      -0.890  -0.376  -0.254  1.00  0.00     0.169 HD
BRANCH  20  23
HETATM   23  C10 UNL     1       1.487  -1.445   0.538  1.00  0.00     0.126 A 
HETATM   24  N4  UNL     1       2.262  -1.831   1.614  1.00  0.00    -0.186 N 
HETATM   25  C11 UNL     1       3.491  -1.380   1.826  1.00  0.00     0.678 A 
ATOM     26  H4  UNL     1       1.869  -2.497   2.279  1.00  0.00     0.184 HD
HETATM   27  N6  UNL     1       4.015  -0.505   0.955  1.00  0.00    -0.176 N 
HETATM   28  C12 UNL     1       3.353  -0.069  -0.116  1.00  0.00     0.127 A 
ATOM     29  H6  UNL     1       4.960  -0.159   1.119  1.00  0.00     0.186 HD
HETATM   30  C17 UNL     1       2.054  -0.559  -0.323  1.00  0.00     0.015 A 
HETATM   31  C18 UNL     1       1.363  -0.097  -1.581  1.00  0.00     0.055 C 
BRANCH  25  32
HETATM   32  N5  UNL     1       4.188  -1.755   2.835  1.00  0.00    -0.234 N 
ATOM     33  H52 UNL     1       3.789  -2.420   3.497  1.00  0.00     0.174 HD
ATOM     34  H51 UNL     1       5.133  -1.408   2.998  1.00  0.00     0.174 HD
ENDBRANCH  25  32
BRANCH  28  35
HETATM   35  N7  UNL     1       3.926   0.852  -1.011  1.00  0.00    -0.360 N 
HETATM   36  C13 UNL     1       4.777   0.588  -2.162  1.00  0.00     0.130 C 
HETATM   37  C14 UNL     1       5.902   1.592  -1.910  1.00  0.00     0.100 C 
HETATM   38  C15 UNL     1       5.193   2.765  -1.303  1.00  0.00     0.261 C 
HETATM   39  F1  UNL     1       5.807   3.192  -0.136  1.00  0.00    -0.204 F 
HETATM   40  F2  UNL     1       5.137   3.823  -2.197  1.00  0.00    -0.204 F 
HETATM   41  C16 UNL     1       3.785   2.294  -0.973  1.00  0.00     0.203 C 
ENDBRANCH  28  35
ENDBRANCH  20  23
ENDBRANCH   9  19
TORSDOF 6
