REMARK  8 active torsions:
REMARK  status: ('A' for Active; 'I' for Inactive)
REMARK    1  A    between atoms: C4_7  and  C5_8 
REMARK    2  A    between atoms: C5_8  and  O3_10 
REMARK    3  A    between atoms: O3_10  and  C6_11 
REMARK    4  A    between atoms: C6_11  and  N2_12 
REMARK    5  A    between atoms: C7_13  and  O4_14 
REMARK    6  A    between atoms: C8_16  and  N3_17 
REMARK    7  A    between atoms: C10_19  and  C11_20 
REMARK    8  A    between atoms: C14_32  and  C15_33 
ROOT
HETATM    1  N2  UNL     1       1.615  -1.399   1.157  1.00  0.00    -0.231 N 
HETATM    2  C7  UNL     1       2.548  -0.981   0.309  1.00  0.00     0.186 A 
HETATM    3  C8  UNL     1       3.841  -0.650   0.725  1.00  0.00     0.171 A 
HETATM    4  C12 UNL     1       4.156  -0.762   2.066  1.00  0.00     0.282 A 
HETATM    5  O5  UNL     1       5.317  -0.454   2.419  1.00  0.00    -0.265 OA
HETATM    6  N5  UNL     1       3.223  -1.177   2.909  1.00  0.00    -0.273 N 
ATOM      7  H5  UNL     1       3.456  -1.258   3.899  1.00  0.00     0.173 HD
HETATM    8  C13 UNL     1       1.968  -1.499   2.505  1.00  0.00     0.337 A 
HETATM    9  O6  UNL     1       1.133  -1.876   3.328  1.00  0.00    -0.246 OA
ENDROOT
BRANCH   1  10
HETATM   10  C6  UNL     1       0.280  -1.804   0.912  1.00  0.00     0.251 C 
BRANCH  10  11
HETATM   11  O3  UNL     1      -0.667  -0.747   0.835  1.00  0.00    -0.269 OA
BRANCH  11  12
HETATM   12  C5  UNL     1      -2.058  -0.977   1.001  1.00  0.00     0.305 C 
HETATM   13  O2  UNL     1      -2.374  -2.114   1.266  1.00  0.00    -0.259 OA
BRANCH  12  14
HETATM   14  C4  UNL     1      -2.930   0.146   0.842  1.00  0.00     0.119 A 
HETATM   15  C3  UNL     1      -3.071   0.989   1.934  1.00  0.00     0.263 A 
HETATM   16  N1  UNL     1      -3.797   2.097   1.845  1.00  0.00    -0.325 N 
HETATM   17  O1  UNL     1      -2.484   0.697   3.020  1.00  0.00    -0.267 OA
HETATM   18  C2  UNL     1      -4.400   2.402   0.685  1.00  0.00     0.031 A 
ATOM     19  H1  UNL     1      -3.896   2.712   2.652  1.00  0.00     0.169 HD
HETATM   20  C1  UNL     1      -5.253   3.610   0.619  1.00  0.00     0.070 C 
HETATM   21  C18 UNL     1      -4.280   1.587  -0.415  1.00  0.00     0.068 A 
HETATM   22  C14 UNL     1      -3.537   0.401  -0.402  1.00  0.00     0.011 A 
HETATM   23 CL1  UNL     1      -5.132   2.079  -1.859  1.00  0.00    -0.081 Cl
BRANCH  22  24
HETATM   24  C15 UNL     1      -3.690  -0.548  -1.484  1.00  0.00    -0.074 C 
HETATM   25  C16 UNL     1      -3.123  -0.338  -2.839  1.00  0.00     0.044 C 
HETATM   26  C17 UNL     1      -4.056  -1.976  -1.182  1.00  0.00     0.044 C 
ENDBRANCH  22  24
ENDBRANCH  12  14
ENDBRANCH  11  12
ENDBRANCH  10  11
ENDBRANCH   1  10
BRANCH   2  27
HETATM   27  O4  UNL     1       2.233  -0.863  -1.057  1.00  0.00    -0.344 OA
ATOM     28  H4  UNL     1       2.900  -0.564  -1.664  1.00  0.00     0.219 HD
ENDBRANCH   2  27
BRANCH   3  29
HETATM   29  N3  UNL     1       4.869  -0.216  -0.197  1.00  0.00    -0.277 N 
HETATM   30  C9  UNL     1       6.259   0.155   0.001  1.00  0.00     0.213 A 
HETATM   31  C10 UNL     1       6.201   0.331  -1.442  1.00  0.00     0.129 A 
HETATM   32  N4  UNL     1       4.997   0.007  -1.527  1.00  0.00    -0.296 N 
ATOM     33  H4  UNL     1       4.348  -0.064  -2.311  1.00  0.00     0.187 HD
BRANCH  31  34
HETATM   34  C11 UNL     1       7.222   0.746  -2.483  1.00  0.00     0.431 C 
HETATM   35  F1  UNL     1       6.675   0.711  -3.751  1.00  0.00    -0.165 F 
HETATM   36  F2  UNL     1       7.611   2.040  -2.174  1.00  0.00    -0.165 F 
HETATM   37  F3  UNL     1       8.333  -0.070  -2.425  1.00  0.00    -0.165 F 
ENDBRANCH  31  34
ENDBRANCH   3  29
TORSDOF 8
