REMARK  9 active torsions:
REMARK  status: ('A' for Active; 'I' for Inactive)
REMARK    1  A    between atoms: C3_6  and  N3_7 
REMARK       I    between atoms: N3_7  and  C4_9 
REMARK    2  A    between atoms: C4_9  and  C5_11 
REMARK    3  A    between atoms: C7_15  and  C8_16 
REMARK    4  A    between atoms: C12_22  and  N6_23 
REMARK    5  A    between atoms: C15_26  and  N7_28 
REMARK    6  A    between atoms: C17_32  and  N8_34 
REMARK    7  A    between atoms: N9_39  and  C20_41 
REMARK    8  A    between atoms: C20_41  and  C21_42 
REMARK    9  A    between atoms: C21_42  and  C22_45 
ROOT
HETATM    1  N6  UNL     1      -1.182   1.047  -1.338  1.00  0.00    -0.318 N 
HETATM    2  C13 UNL     1      -0.573   0.354  -2.444  1.00  0.00     0.135 C 
HETATM    3  C14 UNL     1      -1.199  -0.879  -2.933  1.00  0.00     0.061 C 
HETATM    4  C15 UNL     1      -2.236  -1.508  -2.057  1.00  0.00     0.161 C 
HETATM    5  C16 UNL     1      -1.609  -2.299  -0.931  1.00  0.00     0.049 C 
HETATM    6  C17 UNL     1      -3.177  -0.448  -1.531  1.00  0.00     0.209 C 
HETATM    7  C18 UNL     1      -3.699   0.276  -2.744  1.00  0.00     0.057 C 
HETATM    8  C19 UNL     1      -2.283   0.439  -0.675  1.00  0.00     0.120 C 
HETATM    9  N9  UNL     1      -2.591   0.579   0.531  1.00  0.00    -0.371 N 
ATOM     10  H9  UNL     1      -3.425   0.032   0.746  1.00  0.00     0.161 HD
ENDROOT
BRANCH   1  11
HETATM   11  C12 UNL     1      -0.738   2.314  -0.895  1.00  0.00     0.154 A 
HETATM   12  N1  UNL     1      -1.349   3.502  -1.018  1.00  0.00    -0.279 N 
HETATM   13  C1  UNL     1      -2.670   3.802  -1.587  1.00  0.00     0.179 C 
HETATM   14  N2  UNL     1      -0.584   4.465  -0.526  1.00  0.00    -0.306 N 
HETATM   15  C2  UNL     1       0.564   3.940  -0.057  1.00  0.00     0.141 A 
ATOM     16  H2  UNL     1      -0.828   5.455  -0.505  1.00  0.00     0.186 HD
HETATM   17  C3  UNL     1       0.502   2.585  -0.273  1.00  0.00     0.098 A 
BRANCH  17  18
HETATM   18  N3  UNL     1       1.450   1.619   0.073  1.00  0.00    -0.317 N 
HETATM   19  C4  UNL     1       2.744   1.831   0.611  1.00  0.00     0.274 C 
HETATM   20  O1  UNL     1       3.102   3.044   0.804  1.00  0.00    -0.266 OA
ATOM     21  H3  UNL     1       1.179   0.647  -0.079  1.00  0.00     0.169 HD
BRANCH  19  22
HETATM   22  C5  UNL     1       3.663   0.776   0.948  1.00  0.00     0.116 A 
HETATM   23  C6  UNL     1       4.910   1.086   1.439  1.00  0.00     0.123 A 
HETATM   24  N4  UNL     1       5.815   0.162   1.775  1.00  0.00    -0.365 N 
HETATM   25  C7  UNL     1       5.528  -1.141   1.640  1.00  0.00     0.028 A 
ATOM     26  H4  UNL     1       6.726   0.448   2.135  1.00  0.00     0.165 HD
HETATM   27  C11 UNL     1       4.291  -1.486   1.152  1.00  0.00     0.114 A 
HETATM   28  N5  UNL     1       3.372  -0.531   0.811  1.00  0.00    -0.358 N 
ATOM     29  H5  UNL     1       2.460  -0.812   0.450  1.00  0.00     0.165 HD
BRANCH  25  30
HETATM   30  C8  UNL     1       6.533  -2.182   2.011  1.00  0.00     0.037 A 
HETATM   31  C9  UNL     1       6.495  -3.527   1.349  1.00  0.00     0.011 A 
HETATM   32  C10 UNL     1       6.036  -3.396   2.756  1.00  0.00     0.011 A 
ENDBRANCH  25  30
ENDBRANCH  19  22
ENDBRANCH  17  18
ENDBRANCH   1  11
BRANCH   6  33
HETATM   33  N8  UNL     1      -4.267  -0.975  -0.789  1.00  0.00    -0.061 N 
ATOM     34  H83 UNL     1      -4.775  -1.669  -1.338  1.00  0.00     0.275 HD
ATOM     35  H82 UNL     1      -3.933  -1.570  -0.031  1.00  0.00     0.275 HD
ATOM     36  H81 UNL     1      -4.902  -0.260  -0.434  1.00  0.00     0.275 HD
ENDBRANCH   6  33
BRANCH   9  37
HETATM   37  C20 UNL     1      -2.155   1.241   1.656  1.00  0.00     0.210 C 
BRANCH  37  38
HETATM   38  C21 UNL     1      -2.880   0.785   2.927  1.00  0.00     0.354 C 
HETATM   39  F1  UNL     1      -2.403   1.542   4.017  1.00  0.00    -0.194 F 
HETATM   40  F2  UNL     1      -4.225   0.883   2.799  1.00  0.00    -0.194 F 
BRANCH  38  41
HETATM   41  C22 UNL     1      -2.519  -0.642   3.297  1.00  0.00     0.456 C 
HETATM   42  F3  UNL     1      -3.236  -0.917   4.472  1.00  0.00    -0.165 F 
HETATM   43  F4  UNL     1      -1.174  -0.760   3.589  1.00  0.00    -0.165 F 
HETATM   44  F5  UNL     1      -2.914  -1.579   2.399  1.00  0.00    -0.165 F 
ENDBRANCH  38  41
ENDBRANCH  37  38
ENDBRANCH   9  37
BRANCH   4  45
HETATM   45  N7  UNL     1      -3.038  -2.449  -2.824  1.00  0.00    -0.068 N 
ATOM     46  H73 UNL     1      -3.450  -2.014  -3.650  1.00  0.00     0.275 HD
ATOM     47  H72 UNL     1      -2.461  -3.147  -3.293  1.00  0.00     0.275 HD
ATOM     48  H71 UNL     1      -3.745  -2.878  -2.227  1.00  0.00     0.275 HD
ENDBRANCH   4  45
TORSDOF 9
