REMARK  10 active torsions:
REMARK  status: ('A' for Active; 'I' for Inactive)
REMARK    1  A    between atoms: C4_4  and  C5_5 
REMARK    2  A    between atoms: C5_5  and  N1_6 
REMARK    3  A    between atoms: N1_6  and  C6_7 
REMARK    4  A    between atoms: C6_7  and  O1_8 
REMARK    5  A    between atoms: C6_7  and  N2_10 
REMARK       I    between atoms: N2_10  and  C7_12 
REMARK       I    between atoms: C7_12  and  N3_13 
REMARK    6  A    between atoms: C8_17  and  N5_18 
REMARK    7  A    between atoms: N5_18  and  C9_20 
REMARK    8  A    between atoms: C11_22  and  C13_24 
REMARK    9  A    between atoms: N6_27  and  C14_28 
REMARK   10  A    between atoms: C15_31  and  C16_32 
ROOT
HETATM    1  C9  UNL     1      -0.911  -1.023   0.479  1.00  0.00     0.178 C 
HETATM    2  C10 UNL     1      -1.376  -1.507  -0.902  1.00  0.00     0.072 C 
HETATM    3  C11 UNL     1      -2.859  -1.367  -0.855  1.00  0.00     0.115 C 
HETATM    4  C12 UNL     1      -3.433  -2.738  -0.542  1.00  0.00     0.045 C 
HETATM    5  N6  UNL     1      -3.143  -0.353   0.088  1.00  0.00    -0.132 N 
HETATM    6  C18 UNL     1      -1.947  -0.056   0.794  1.00  0.00     0.262 C 
HETATM    7  O2  UNL     1      -1.758   0.927   1.613  1.00  0.00    -0.270 OA
ENDROOT
BRANCH   1   8
HETATM    8  N5  UNL     1       0.377  -0.437   0.399  1.00  0.00    -0.370 N 
ATOM      9  H5  UNL     1       0.425   0.550   0.145  1.00  0.00     0.161 HD
BRANCH   8  10
HETATM   10  C8  UNL     1       1.593  -1.099   0.639  1.00  0.00     0.083 A 
HETATM   11  C4  UNL     1       2.883  -0.559   0.407  1.00  0.00     0.027 A 
HETATM   12  C3  UNL     1       3.898  -1.338   0.805  1.00  0.00     0.031 A 
HETATM   13  C2  UNL     1       3.662  -2.529   1.366  1.00  0.00    -0.018 A 
HETATM   14  C1  UNL     1       4.639  -3.568   1.877  1.00  0.00     0.056 C 
HETATM   15  S1  UNL     1       1.943  -2.594   1.362  1.00  0.00    -0.077 SA
BRANCH  11  16
HETATM   16  C5  UNL     1       3.028   0.714  -0.339  1.00  0.00     0.201 C 
BRANCH  16  17
HETATM   17  N1  UNL     1       3.935   1.411  -0.623  1.00  0.00    -0.377 NA
BRANCH  17  18
HETATM   18  C6  UNL     1       5.066   2.086  -0.860  1.00  0.00     0.300 C 
BRANCH  18  19
HETATM   19  O1  UNL     1       5.052   2.895  -1.930  1.00  0.00    -0.321 OA
ATOM     20  H1  UNL     1       5.855   3.374  -2.098  1.00  0.00     0.222 HD
ENDBRANCH  18  19
BRANCH  18  21
HETATM   21  N2  UNL     1       6.257   2.064  -0.137  1.00  0.00    -0.285 N 
HETATM   22  C7  UNL     1       7.377   2.827  -0.551  1.00  0.00     0.189 C 
HETATM   23  N3  UNL     1       8.473   2.830   0.083  1.00  0.00    -0.373 N 
HETATM   24  N4  UNL     1       7.304   3.619  -1.742  1.00  0.00    -0.064 NA
ATOM     25  H32 UNL     1       8.525   2.266   0.931  1.00  0.00     0.158 HD
ATOM     26  H31 UNL     1       9.279   3.379  -0.215  1.00  0.00     0.158 HD
ATOM     27  H2  UNL     1       6.324   1.490   0.703  1.00  0.00     0.173 HD
ENDBRANCH  18  21
ENDBRANCH  17  18
ENDBRANCH  16  17
ENDBRANCH  11  16
ENDBRANCH   8  10
ENDBRANCH   1   8
BRANCH   3  28
HETATM   28  C13 UNL     1      -3.355  -0.982  -2.256  1.00  0.00     0.381 C 
HETATM   29  F1  UNL     1      -4.727  -0.850  -2.262  1.00  0.00    -0.212 F 
HETATM   30  F2  UNL     1      -2.748   0.158  -2.719  1.00  0.00    -0.212 F 
ENDBRANCH   3  28
BRANCH   5  31
HETATM   31  C14 UNL     1      -4.316   0.416   0.427  1.00  0.00     0.706 A 
HETATM   32  N7  UNL     1      -4.408   1.766   0.203  1.00  0.00    -0.168 N 
HETATM   33  C15 UNL     1      -5.577   2.240   0.642  1.00  0.00     0.220 A 
ATOM     34  H7  UNL     1      -3.683   2.331  -0.239  1.00  0.00     0.186 HD
HETATM   35  N8  UNL     1      -6.226   1.176   1.145  1.00  0.00    -0.265 N 
HETATM   36  N9  UNL     1      -5.455   0.075   1.010  1.00  0.00    -0.126 N 
ATOM     37  H8  UNL     1      -7.156   1.197   1.564  1.00  0.00     0.189 HD
HETATM   38  C17 UNL     1      -5.888  -1.225   1.476  1.00  0.00     0.197 C 
BRANCH  33  39
HETATM   39  C16 UNL     1      -6.029   3.664   0.602  1.00  0.00     0.451 C 
HETATM   40  F3  UNL     1      -7.019   3.868  -0.306  1.00  0.00    -0.163 F 
HETATM   41  F4  UNL     1      -6.450   4.030   1.871  1.00  0.00    -0.163 F 
HETATM   42  F5  UNL     1      -4.983   4.481   0.267  1.00  0.00    -0.163 F 
ENDBRANCH  33  39
ENDBRANCH   5  31
TORSDOF 10
