REMARK  9 active torsions:
REMARK  status: ('A' for Active; 'I' for Inactive)
REMARK    1  A    between atoms: O1_2  and  C2_3 
REMARK    2  A    between atoms: C2_3  and  C3_5 
REMARK    3  A    between atoms: C4_6  and  N1_7 
REMARK       I    between atoms: N1_7  and  C5_9 
REMARK    4  A    between atoms: C5_9  and  C6_11 
REMARK    5  A    between atoms: C6_11  and  N2_12 
REMARK    6  A    between atoms: C6_11  and  N4_26 
REMARK    7  A    between atoms: N2_12  and  C7_14 
REMARK    8  A    between atoms: C12_21  and  N3_22 
REMARK    9  A    between atoms: C15_29  and  C16_30 
ROOT
HETATM    1  C6  UNL     1      -1.352  -1.045  -0.237  1.00  0.00     0.294 C 
ENDROOT
BRANCH   1   2
HETATM    2  C5  UNL     1      -0.179  -0.313   0.345  1.00  0.00     0.266 C 
HETATM    3  N1  UNL     1       1.034  -0.259  -0.364  1.00  0.00    -0.317 N 
ATOM      4  H1  UNL     1       1.092  -0.688  -1.287  1.00  0.00     0.169 HD
HETATM    5  O3  UNL     1      -0.338   0.235   1.493  1.00  0.00    -0.269 OA
BRANCH   3   6
HETATM    6  C4  UNL     1       2.198   0.391   0.187  1.00  0.00     0.094 A 
HETATM    7  C3  UNL     1       3.476   0.445  -0.282  1.00  0.00     0.080 A 
HETATM    8  C18 UNL     1       4.367   1.156   0.474  1.00  0.00    -0.026 A 
HETATM    9  C17 UNL     1       3.924   1.743   1.602  1.00  0.00    -0.008 A 
HETATM   10  C19 UNL     1       5.860   1.444   0.406  1.00  0.00     0.041 C 
HETATM   11  S1  UNL     1       2.273   1.322   1.640  1.00  0.00    -0.075 SA
HETATM   12  C21 UNL     1       5.025   2.492   2.313  1.00  0.00     0.047 C 
HETATM   13  C20 UNL     1       6.007   2.708   1.204  1.00  0.00     0.010 C 
BRANCH   7  14
HETATM   14  C2  UNL     1       3.845  -0.263  -1.543  1.00  0.00     0.296 C 
HETATM   15  O2  UNL     1       3.068  -0.923  -2.212  1.00  0.00    -0.259 OA
BRANCH  14  16
HETATM   16  O1  UNL     1       5.165  -0.205  -2.058  1.00  0.00    -0.322 OA
HETATM   17  C1  UNL     1       5.485  -0.891  -3.259  1.00  0.00     0.213 C 
ENDBRANCH  14  16
ENDBRANCH   7  14
ENDBRANCH   3   6
ENDBRANCH   1   2
BRANCH   1  18
HETATM   18  N2  UNL     1      -2.605  -0.458   0.103  1.00  0.00    -0.386 N 
ATOM     19  H2  UNL     1      -2.966  -0.515   1.055  1.00  0.00     0.156 HD
BRANCH  18  20
HETATM   20  C7  UNL     1      -3.341   0.208  -0.913  1.00  0.00     0.115 C 
HETATM   21  C8  UNL     1      -2.757   1.404  -1.504  1.00  0.00     0.105 C 
HETATM   22  C9  UNL     1      -3.032   2.651  -0.731  1.00  0.00     0.245 C 
HETATM   23  F1  UNL     1      -2.796   3.737  -1.597  1.00  0.00    -0.206 F 
HETATM   24  F2  UNL     1      -2.138   2.795   0.304  1.00  0.00    -0.206 F 
HETATM   25  C10 UNL     1      -4.446   2.808  -0.279  1.00  0.00     0.081 C 
HETATM   26  C11 UNL     1      -5.067   1.570   0.312  1.00  0.00     0.040 C 
HETATM   27  C12 UNL     1      -4.812   0.347  -0.516  1.00  0.00     0.206 C 
BRANCH  27  28
HETATM   28  N3  UNL     1      -5.689   0.191  -1.614  1.00  0.00    -0.073 N 
ATOM     29  H33 UNL     1      -5.451   0.836  -2.368  1.00  0.00     0.274 HD
ATOM     30  H32 UNL     1      -5.521  -0.693  -2.094  1.00  0.00     0.274 HD
ATOM     31  H31 UNL     1      -6.670   0.284  -1.349  1.00  0.00     0.274 HD
ENDBRANCH  27  28
ENDBRANCH  18  20
ENDBRANCH   1  18
BRANCH   1  32
HETATM   32  N4  UNL     1      -1.424  -2.366   0.416  1.00  0.00    -0.270 N 
HETATM   33  C13 UNL     1      -1.511  -3.539  -0.155  1.00  0.00     0.115 A 
HETATM   34  C14 UNL     1      -1.621  -4.517   0.848  1.00  0.00     0.054 A 
HETATM   35  C15 UNL     1      -1.586  -3.800   2.041  1.00  0.00     0.133 A 
HETATM   36  N5  UNL     1      -1.465  -2.502   1.717  1.00  0.00    -0.292 N 
ATOM     37  H5  UNL     1      -1.413  -1.735   2.387  1.00  0.00     0.187 HD
BRANCH  35  38
HETATM   38  C16 UNL     1      -1.690  -4.335   3.407  1.00  0.00     0.433 C 
HETATM   39  F3  UNL     1      -0.865  -5.414   3.580  1.00  0.00    -0.165 F 
HETATM   40  F4  UNL     1      -3.006  -4.696   3.654  1.00  0.00    -0.165 F 
HETATM   41  F5  UNL     1      -1.360  -3.354   4.349  1.00  0.00    -0.165 F 
ENDBRANCH  35  38
ENDBRANCH   1  32
TORSDOF 9
