REMARK  10 active torsions:
REMARK  status: ('A' for Active; 'I' for Inactive)
REMARK    1  A    between atoms: C2_2  and  C3_3 
REMARK    2  A    between atoms: C3_3  and  N1_4 
REMARK    3  A    between atoms: N1_4  and  C4_5 
REMARK    4  A    between atoms: C4_5  and  C5_6 
REMARK    5  A    between atoms: C5_6  and  C6_7 
REMARK    6  A    between atoms: C6_7  and  C7_8 
REMARK    7  A    between atoms: C7_8  and  C8_9 
REMARK    8  A    between atoms: C9_10  and  C10_11 
REMARK    9  A    between atoms: C10_11  and  C11_12 
REMARK   10  A    between atoms: C11_12  and  N2_13 
ROOT
HETATM    1  C6  UNL     1       1.194   1.884  -0.214  1.00  0.00     0.005 C 
ENDROOT
BRANCH   1   2
HETATM    2  C5  UNL     1       0.005   0.965  -0.389  1.00  0.00     0.028 C 
BRANCH   2   3
HETATM    3  C4  UNL     1      -1.081   1.263   0.623  1.00  0.00     0.238 C 
BRANCH   3   4
HETATM    4  N1  UNL     1      -2.167   0.317   0.352  1.00  0.00    -0.064 N 
HETATM    5  C12 UNL     1      -2.690   0.653  -0.957  1.00  0.00     0.238 C 
HETATM    6  C13 UNL     1      -4.191   0.754  -0.811  1.00  0.00     0.029 C 
HETATM    7  C14 UNL     1      -4.315   1.282   0.611  1.00  0.00     0.029 C 
HETATM    8  C15 UNL     1      -3.216   0.509   1.306  1.00  0.00     0.238 C 
BRANCH   4   9
HETATM    9  C3  UNL     1      -1.591  -1.009   0.360  1.00  0.00     0.264 C 
BRANCH   9  10
HETATM   10  C2  UNL     1      -2.571  -2.074   0.674  1.00  0.00    -0.009 C 
HETATM   11  C1  UNL     1      -2.448  -2.881   1.715  1.00  0.00     0.008 C 
ENDBRANCH   9  10
ENDBRANCH   4   9
ENDBRANCH   3   4
ENDBRANCH   2   3
ENDBRANCH   1   2
BRANCH   1  12
HETATM   12  C7  UNL     1       2.201   1.512  -1.266  1.00  0.00     0.027 C 
BRANCH  12  13
HETATM   13  C8  UNL     1       2.684   0.117  -1.183  1.00  0.00    -0.031 C 
HETATM   14  C9  UNL     1       3.982  -0.082  -0.995  1.00  0.00    -0.029 C 
BRANCH  14  15
HETATM   15  C10 UNL     1       4.555  -1.463  -0.899  1.00  0.00     0.048 C 
BRANCH  15  16
HETATM   16  C11 UNL     1       5.204  -1.549   0.481  1.00  0.00     0.142 C 
BRANCH  16  17
HETATM   17  N2  UNL     1       6.219  -0.563   0.594  1.00  0.00    -0.343 N 
HETATM   18  N3  UNL     1       7.294  -0.846   1.119  1.00  0.00    -0.349 N 
ATOM     19  H32 UNL     1       7.440  -1.793   1.468  1.00  0.00     0.176 HD
ATOM     20  H31 UNL     1       8.023  -0.138   1.200  1.00  0.00     0.176 HD
ATOM     21  H2  UNL     1       6.056   0.380   0.240  1.00  0.00     0.179 HD
ENDBRANCH  16  17
ENDBRANCH  15  16
ENDBRANCH  14  15
ENDBRANCH  12  13
ENDBRANCH   1  12
TORSDOF 10
