REMARK  12 active torsions:
REMARK  status: ('A' for Active; 'I' for Inactive)
REMARK    1  A    between atoms: N1_1  and  N2_4 
REMARK    2  A    between atoms: N2_4  and  C1_5 
REMARK    3  A    between atoms: C1_5  and  C2_6 
REMARK    4  A    between atoms: C2_6  and  C3_7 
REMARK    5  A    between atoms: C3_7  and  C4_8 
REMARK    6  A    between atoms: C4_8  and  C5_9 
REMARK    7  A    between atoms: C6_10  and  C7_11 
REMARK    8  A    between atoms: C7_11  and  C8_12 
REMARK    9  A    between atoms: C8_12  and  C9_13 
REMARK   10  A    between atoms: C9_13  and  C10_14 
REMARK   11  A    between atoms: C10_14  and  C11_15 
REMARK   12  A    between atoms: C11_15  and  N3_16 
ROOT
HETATM    1  C7  UNL     1       0.204  -1.078   1.110  1.00  0.00     0.027 C 
ENDROOT
BRANCH   1   2
HETATM    2  C6  UNL     1       1.309  -0.883   0.141  1.00  0.00    -0.031 C 
HETATM    3  C5  UNL     1       2.568  -0.872   0.564  1.00  0.00    -0.031 C 
BRANCH   3   4
HETATM    4  C4  UNL     1       3.703  -0.677  -0.387  1.00  0.00     0.027 C 
BRANCH   4   5
HETATM    5  C3  UNL     1       4.442   0.569   0.050  1.00  0.00     0.010 C 
BRANCH   5   6
HETATM    6  C2  UNL     1       5.621   0.861  -0.853  1.00  0.00     0.062 C 
BRANCH   6   7
HETATM    7  C1  UNL     1       6.299   2.091  -0.372  1.00  0.00     0.181 C 
BRANCH   7   8
HETATM    8  N2  UNL     1       6.901   2.881  -1.116  1.00  0.00    -0.350 NA
BRANCH   8   9
HETATM    9  N1  UNL     1       7.803   3.472  -1.724  1.00  0.00    -0.281 N 
ATOM     10  H12 UNL     1       8.562   2.914  -1.333  1.00  0.00     0.191 HD
ATOM     11  H11 UNL     1       8.298   4.121  -2.336  1.00  0.00     0.191 HD
ENDBRANCH   8   9
ENDBRANCH   7   8
ENDBRANCH   6   7
ENDBRANCH   5   6
ENDBRANCH   4   5
ENDBRANCH   3   4
ENDBRANCH   1   2
BRANCH   1  12
HETATM   12  C8  UNL     1      -0.620  -2.296   0.807  1.00  0.00     0.004 C 
BRANCH  12  13
HETATM   13  C9  UNL     1      -1.263  -2.240  -0.552  1.00  0.00     0.002 C 
BRANCH  13  14
HETATM   14  C10 UNL     1      -2.175  -1.072  -0.701  1.00  0.00     0.020 C 
BRANCH  14  15
HETATM   15  C11 UNL     1      -3.307  -1.048   0.272  1.00  0.00     0.128 C 
BRANCH  15  16
HETATM   16  N3  UNL     1      -4.129   0.120   0.042  1.00  0.00    -0.366 N 
HETATM   17  C12 UNL     1      -3.844   1.272   0.692  1.00  0.00     0.090 A 
HETATM   18  C13 UNL     1      -4.603   2.413   0.504  1.00  0.00     0.017 A 
HETATM   19  C14 UNL     1      -5.658   2.354  -0.362  1.00  0.00     0.003 A 
HETATM   20  C15 UNL     1      -5.950   1.180  -1.025  1.00  0.00     0.017 A 
HETATM   21  C16 UNL     1      -5.173   0.058  -0.815  1.00  0.00     0.090 A 
ENDBRANCH  15  16
ENDBRANCH  14  15
ENDBRANCH  13  14
ENDBRANCH  12  13
ENDBRANCH   1  12
TORSDOF 12
