REMARK  12 active torsions:
REMARK  status: ('A' for Active; 'I' for Inactive)
REMARK    1  A    between atoms: C2_2  and  C3_3 
REMARK    2  A    between atoms: C3_3  and  C4_4 
REMARK    3  A    between atoms: C4_4  and  N1_5 
REMARK    4  A    between atoms: C6_7  and  C7_8 
REMARK    5  A    between atoms: C7_8  and  C8_9 
REMARK    6  A    between atoms: C9_10  and  C10_11 
REMARK    7  A    between atoms: C11_12  and  C12_13 
REMARK    8  A    between atoms: C12_13  and  C13_14 
REMARK    9  A    between atoms: C13_14  and  C14_15 
REMARK   10  A    between atoms: C14_15  and  C15_16 
REMARK   11  A    between atoms: C15_16  and  N2_17 
REMARK   12  A    between atoms: N2_17  and  N3_18 
ROOT
HETATM    1  C8  UNL     1      -0.901  -1.674   0.158  1.00  0.00    -0.022 C 
HETATM    2  C9  UNL     1      -1.989  -0.958   0.009  1.00  0.00    -0.004 C 
ENDROOT
BRANCH   2   3
HETATM    3  C10 UNL     1      -2.346  -0.258  -1.185  1.00  0.00    -0.004 C 
HETATM    4  C11 UNL     1      -3.317   0.478  -1.555  1.00  0.00    -0.027 C 
BRANCH   4   5
HETATM    5  C12 UNL     1      -4.520   0.945  -0.925  1.00  0.00     0.027 C 
BRANCH   5   6
HETATM    6  C13 UNL     1      -4.730   0.514   0.472  1.00  0.00     0.010 C 
BRANCH   6   7
HETATM    7  C14 UNL     1      -6.053   1.072   1.025  1.00  0.00     0.062 C 
BRANCH   7   8
HETATM    8  C15 UNL     1      -7.181   0.578   0.198  1.00  0.00     0.181 C 
BRANCH   8   9
HETATM    9  N2  UNL     1      -7.862   1.319  -0.516  1.00  0.00    -0.350 NA
BRANCH   9  10
HETATM   10  N3  UNL     1      -8.557   2.007  -1.261  1.00  0.00    -0.281 N 
ATOM     11  H32 UNL     1      -8.601   1.031  -1.553  1.00  0.00     0.191 HD
ATOM     12  H31 UNL     1      -9.120   2.620  -1.851  1.00  0.00     0.191 HD
ENDBRANCH   9  10
ENDBRANCH   8   9
ENDBRANCH   7   8
ENDBRANCH   6   7
ENDBRANCH   5   6
ENDBRANCH   4   5
ENDBRANCH   2   3
BRANCH   1  13
HETATM   13  C7  UNL     1       0.119  -1.884  -0.837  1.00  0.00     0.068 C 
BRANCH  13  14
HETATM   14  C6  UNL     1       1.416  -1.346  -0.270  1.00  0.00    -0.024 A 
HETATM   15  C5  UNL     1       1.881  -0.054   0.195  1.00  0.00     0.099 A 
HETATM   16  N1  UNL     1       3.049  -0.517   0.477  1.00  0.00    -0.365 N 
HETATM   17  C16 UNL     1       2.620  -1.791   0.029  1.00  0.00     0.099 A 
BRANCH  16  18
HETATM   18  C4  UNL     1       4.283   0.056   1.030  1.00  0.00     0.128 C 
BRANCH  18  19
HETATM   19  C3  UNL     1       5.310   0.035  -0.095  1.00  0.00     0.020 C 
BRANCH  19  20
HETATM   20  C2  UNL     1       6.582   0.632   0.501  1.00  0.00    -0.003 C 
HETATM   21  C1  UNL     1       7.691   0.667  -0.522  1.00  0.00     0.005 C 
ENDBRANCH  19  20
ENDBRANCH  18  19
ENDBRANCH  16  18
ENDBRANCH  13  14
ENDBRANCH   1  13
TORSDOF 12
