REMARK  9 active torsions:
REMARK  status: ('A' for Active; 'I' for Inactive)
REMARK    1  A    between atoms: C2_2  and  C3_3 
REMARK    2  A    between atoms: C3_3  and  C4_4 
REMARK    3  A    between atoms: C4_4  and  C5_5 
REMARK    4  A    between atoms: C5_5  and  C6_6 
REMARK    5  A    between atoms: C7_7  and  C8_8 
REMARK    6  A    between atoms: C7_7  and  C10_10 
REMARK    7  A    between atoms: C11_11  and  N1_12 
REMARK    8  A    between atoms: N1_12  and  C12_13 
REMARK    9  A    between atoms: C12_13  and  C13_14 
ROOT
HETATM    1  C10 UNL     1      -0.557  -0.942   0.663  1.00  0.00     0.036 C 
HETATM    2  C11 UNL     1      -1.279  -0.554  -0.518  1.00  0.00     0.204 C 
ENDROOT
BRANCH   1   3
HETATM    3  C7  UNL     1       0.750  -0.610   0.851  1.00  0.00    -0.036 C 
HETATM    4  C6  UNL     1       1.351   0.158  -0.208  1.00  0.00     0.007 C 
BRANCH   4   5
HETATM    5  C5  UNL     1       2.383  -0.359  -1.102  1.00  0.00    -0.026 C 
BRANCH   5   6
HETATM    6  C4  UNL     1       3.745  -0.719  -0.703  1.00  0.00     0.031 C 
BRANCH   6   7
HETATM    7  C3  UNL     1       4.501   0.530  -0.223  1.00  0.00     0.030 C 
BRANCH   7   8
HETATM    8  C2  UNL     1       5.870   0.207   0.175  1.00  0.00    -0.037 C 
HETATM    9  C1  UNL     1       6.340  -1.011   0.091  1.00  0.00     0.007 C 
ENDBRANCH   7   8
ENDBRANCH   6   7
ENDBRANCH   5   6
ENDBRANCH   4   5
BRANCH   3  10
HETATM   10  C8  UNL     1       1.299  -1.025   2.095  1.00  0.00     0.001 C 
HETATM   11  C9  UNL     1       2.442  -0.909   2.683  1.00  0.00     0.012 C 
ENDBRANCH   3  10
ENDBRANCH   1   3
BRANCH   2  12
HETATM   12  N1  UNL     1      -2.409   0.322  -0.284  1.00  0.00    -0.044 N 
HETATM   13  C15 UNL     1      -3.551  -0.394   0.256  1.00  0.00     0.243 C 
HETATM   14  C16 UNL     1      -4.446   0.712   0.725  1.00  0.00     0.030 C 
HETATM   15  C17 UNL     1      -3.475   1.744   1.240  1.00  0.00     0.030 C 
HETATM   16  C18 UNL     1      -2.131   1.409   0.590  1.00  0.00     0.243 C 
BRANCH  12  17
HETATM   17  C12 UNL     1      -2.812   0.862  -1.570  1.00  0.00     0.269 C 
BRANCH  17  18
HETATM   18  C13 UNL     1      -3.339  -0.195  -2.480  1.00  0.00    -0.009 C 
HETATM   19  C14 UNL     1      -4.572  -0.155  -2.962  1.00  0.00     0.008 C 
ENDBRANCH  17  18
ENDBRANCH  12  17
ENDBRANCH   2  12
TORSDOF 9
