REMARK  6 active torsions:
REMARK  status: ('A' for Active; 'I' for Inactive)
REMARK    1  A    between atoms: C4_4  and  C5_5 
REMARK    2  A    between atoms: C5_5  and  C6_6 
REMARK    3  A    between atoms: C6_6  and  C7_7 
REMARK    4  A    between atoms: C21_23  and  C22_24 
REMARK    5  A    between atoms: C22_24  and  C23_25 
REMARK    6  A    between atoms: C23_25  and  O3_26 
ROOT
HETATM    1  C7  UNL     1       0.938   0.301  -0.560  1.00  0.00    -0.024 C 
HETATM    2  C8  UNL     1       1.622   1.183  -1.630  1.00  0.00     0.017 C 
HETATM    3  C9  UNL     1       0.217  -0.694  -1.448  1.00  0.00    -0.009 C 
HETATM    4  C10 UNL     1      -0.355  -0.201  -2.717  1.00  0.00     0.011 C 
HETATM    5  C11 UNL     1      -0.575  -1.757  -0.744  1.00  0.00     0.006 C 
HETATM    6  C12 UNL     1      -2.036  -1.724  -1.005  1.00  0.00     0.016 C 
HETATM    7  C13 UNL     1      -2.951  -1.152  -0.015  1.00  0.00     0.000 C 
HETATM    8  C14 UNL     1      -4.221  -2.028   0.103  1.00  0.00     0.022 C 
HETATM    9  C15 UNL     1      -2.426  -0.825   1.330  1.00  0.00    -0.019 C 
HETATM   10  C16 UNL     1      -1.407  -0.251   1.943  1.00  0.00    -0.028 C 
HETATM   11  C17 UNL     1      -0.123   0.443   1.723  1.00  0.00     0.047 C 
HETATM   12  C18 UNL     1       0.080   1.086   0.368  1.00  0.00     0.055 C 
HETATM   13  C19 UNL     1       0.738   2.448   0.716  1.00  0.00     0.027 C 
HETATM   14  C20 UNL     1      -1.220   1.501  -0.229  1.00  0.00     0.268 C 
HETATM   15  O1  UNL     1      -1.089   2.608  -0.886  1.00  0.00    -0.264 OA
HETATM   16  O2  UNL     1      -2.544   1.135  -0.344  1.00  0.00    -0.314 OA
HETATM   17  C21 UNL     1      -3.517   0.178  -0.555  1.00  0.00     0.145 C 
ENDROOT
BRANCH   1  18
HETATM   18  C6  UNL     1       2.068  -0.464   0.054  1.00  0.00     0.014 C 
BRANCH  18  19
HETATM   19  C5  UNL     1       3.185   0.220   0.700  1.00  0.00     0.028 C 
BRANCH  19  20
HETATM   20  C4  UNL     1       4.214  -0.750   1.248  1.00  0.00    -0.025 C 
HETATM   21  C2  UNL     1       5.479  -0.746   0.837  1.00  0.00    -0.091 C 
HETATM   22  C1  UNL     1       6.470  -1.686   1.370  1.00  0.00     0.042 C 
HETATM   23  C3  UNL     1       5.941   0.241  -0.207  1.00  0.00     0.042 C 
ENDBRANCH  19  20
ENDBRANCH  18  19
ENDBRANCH   1  18
BRANCH  17  24
HETATM   24  C22 UNL     1      -4.748   0.569   0.241  1.00  0.00     0.059 C 
BRANCH  24  25
HETATM   25  C23 UNL     1      -5.251   1.893  -0.346  1.00  0.00     0.166 C 
BRANCH  25  26
HETATM   26  O3  UNL     1      -6.397   2.300   0.362  1.00  0.00    -0.401 OA
ATOM     27  H3  UNL     1      -6.709   3.120  -0.002  1.00  0.00     0.209 HD
ENDBRANCH  25  26
ENDBRANCH  24  25
ENDBRANCH  17  24
TORSDOF 6
