REMARK  5 active torsions:
REMARK  status: ('A' for Active; 'I' for Inactive)
REMARK    1  A    between atoms: N1_2  and  C2_5 
REMARK    2  A    between atoms: C2_5  and  C3_6 
REMARK    3  A    between atoms: C3_6  and  C4_7 
REMARK    4  A    between atoms: C5_8  and  O1_9 
REMARK    5  A    between atoms: C13_18  and  C14_19 
ROOT
HETATM    1  C4  UNL     1      -1.650   0.025   0.216  1.00  0.00     0.010 A 
HETATM    2  C5  UNL     1      -2.479   1.094   0.468  1.00  0.00     0.085 A 
HETATM    3  C7  UNL     1      -2.046   2.402   0.637  1.00  0.00    -0.019 A 
HETATM    4  C8  UNL     1      -2.995   3.480   0.896  1.00  0.00     0.052 C 
HETATM    5  C9  UNL     1      -0.723   2.643   0.545  1.00  0.00    -0.018 A 
HETATM    6  C10 UNL     1      -0.171   4.027   0.720  1.00  0.00     0.052 C 
HETATM    7  C11 UNL     1       0.159   1.610   0.281  1.00  0.00     0.094 A 
HETATM    8  O2  UNL     1       1.461   1.647   0.162  1.00  0.00    -0.308 OA
HETATM    9  C12 UNL     1       1.909   0.453  -0.102  1.00  0.00     0.095 A 
HETATM   10  C13 UNL     1       3.231   0.024  -0.316  1.00  0.00    -0.014 A 
HETATM   11  C17 UNL     1       3.452  -1.287  -0.604  1.00  0.00    -0.052 A 
HETATM   12  C18 UNL     1       4.805  -1.868  -0.789  1.00  0.00     0.049 C 
HETATM   13  C19 UNL     1       2.372  -2.142  -0.685  1.00  0.00     0.015 A 
HETATM   14  C20 UNL     1       1.046  -1.737  -0.476  1.00  0.00    -0.048 A 
HETATM   15  C21 UNL     1       0.037  -2.699  -0.961  1.00  0.00     0.049 C 
HETATM   16  C22 UNL     1       0.839  -0.423  -0.162  1.00  0.00     0.018 A 
HETATM   17  C23 UNL     1      -0.290   0.302   0.104  1.00  0.00     0.025 A 
ENDROOT
BRANCH   1  18
HETATM   18  C3  UNL     1      -2.141  -1.277   0.572  1.00  0.00     0.015 C 
BRANCH  18  19
HETATM   19  C2  UNL     1      -3.254  -1.985  -0.086  1.00  0.00     0.260 C 
BRANCH  19  20
HETATM   20  N1  UNL     1      -3.399  -3.354   0.507  1.00  0.00    -0.076 N 
HETATM   21  C1  UNL     1      -4.522  -3.975  -0.215  1.00  0.00     0.267 C 
ATOM     22  H12 UNL     1      -3.513  -3.353   1.521  1.00  0.00     0.276 HD
ATOM     23  H11 UNL     1      -2.541  -3.905   0.484  1.00  0.00     0.276 HD
ENDBRANCH  19  20
ENDBRANCH  18  19
ENDBRANCH   1  18
BRANCH   2  24
HETATM   24  O1  UNL     1      -3.850   0.919   0.554  1.00  0.00    -0.355 OA
HETATM   25  C6  UNL     1      -4.576   1.302  -0.646  1.00  0.00     0.210 C 
ENDBRANCH   2  24
BRANCH  10  26
HETATM   26  C14 UNL     1       4.249   1.077  -0.161  1.00  0.00     0.014 C 
HETATM   27  C15 UNL     1       5.571   0.910  -0.769  1.00  0.00     0.015 C 
HETATM   28  C16 UNL     1       4.354   1.486   1.332  1.00  0.00     0.015 C 
ENDBRANCH  10  26
TORSDOF 5
