REMARK  6 active torsions:
REMARK  status: ('A' for Active; 'I' for Inactive)
REMARK    1  A    between atoms: C4_4  and  C5_5 
REMARK    2  A    between atoms: C5_5  and  C6_6 
REMARK    3  A    between atoms: C8_8  and  C9_9 
REMARK    4  A    between atoms: C12_12  and  O1_13 
REMARK    5  A    between atoms: O1_13  and  C13_14 
REMARK    6  A    between atoms: C13_14  and  C15_16 
ROOT
HETATM    1  C9  UNL     1       0.708  -1.166   0.333  1.00  0.00    -0.000 C 
HETATM    2  C10 UNL     1       1.212  -1.527   1.713  1.00  0.00     0.021 C 
HETATM    3  C11 UNL     1      -0.528  -0.312   0.461  1.00  0.00     0.050 C 
HETATM    4  C12 UNL     1      -1.732  -1.215   0.288  1.00  0.00     0.160 C 
HETATM    5  C19 UNL     1      -1.237  -2.520  -0.237  1.00  0.00     0.116 C 
HETATM    6  C20 UNL     1      -1.770  -2.828  -1.637  1.00  0.00     0.052 C 
HETATM    7  O2  UNL     1      -1.545  -3.628   0.589  1.00  0.00    -0.288 OA
HETATM    8  C21 UNL     1      -0.441  -4.455   0.680  1.00  0.00     0.361 C 
HETATM    9  O3  UNL     1      -0.497  -5.665   1.007  1.00  0.00    -0.238 OA
HETATM   10  N1  UNL     1       0.691  -3.641   0.333  1.00  0.00    -0.328 N 
ATOM     11  H1  UNL     1       1.664  -3.876   0.530  1.00  0.00     0.165 HD
HETATM   12  C22 UNL     1       0.250  -2.447  -0.333  1.00  0.00     0.136 C 
ENDROOT
BRANCH   1  13
HETATM   13  C8  UNL     1       1.745  -0.565  -0.536  1.00  0.00    -0.013 C 
HETATM   14  C6  UNL     1       2.553   0.427  -0.229  1.00  0.00    -0.083 C 
HETATM   15  C7  UNL     1       2.501   1.082   1.101  1.00  0.00     0.043 C 
BRANCH  14  16
HETATM   16  C5  UNL     1       3.560   0.942  -1.201  1.00  0.00     0.060 C 
BRANCH  16  17
HETATM   17  C4  UNL     1       4.946   0.814  -0.672  1.00  0.00    -0.020 C 
HETATM   18  C2  UNL     1       5.741   1.864  -0.500  1.00  0.00    -0.091 C 
HETATM   19  C1  UNL     1       5.284   3.241  -0.832  1.00  0.00     0.042 C 
HETATM   20  C3  UNL     1       7.122   1.705   0.032  1.00  0.00     0.042 C 
ENDBRANCH  16  17
ENDBRANCH  14  16
ENDBRANCH   1  13
BRANCH   4  21
HETATM   21  O1  UNL     1      -2.539  -0.630  -0.674  1.00  0.00    -0.374 OA
BRANCH  21  22
HETATM   22  C13 UNL     1      -3.784  -0.253  -0.203  1.00  0.00     0.141 C 
HETATM   23  C14 UNL     1      -4.924  -0.790  -0.991  1.00  0.00     0.044 C 
BRANCH  22  24
HETATM   24  C15 UNL     1      -3.836   1.253  -0.321  1.00  0.00     0.006 C 
HETATM   25  C16 UNL     1      -4.734   1.975   0.299  1.00  0.00    -0.089 C 
HETATM   26  C17 UNL     1      -4.741   3.449   0.147  1.00  0.00     0.042 C 
HETATM   27  C18 UNL     1      -5.752   1.323   1.156  1.00  0.00     0.042 C 
ENDBRANCH  22  24
ENDBRANCH  21  22
ENDBRANCH   4  21
TORSDOF 6
