REMARK  9 active torsions:
REMARK  status: ('A' for Active; 'I' for Inactive)
REMARK    1  A    between atoms: N1_1  and  C1_5 
REMARK    2  A    between atoms: C1_5  and  O1_6 
REMARK    3  A    between atoms: C1_5  and  C2_8 
REMARK       I    between atoms: C2_8  and  N2_10 
REMARK    4  A    between atoms: N2_10  and  C3_12 
REMARK    5  A    between atoms: C3_12  and  N3_13 
REMARK    6  A    between atoms: C3_12  and  C4_17 
REMARK    7  A    between atoms: C4_17  and  O3_18 
REMARK    8  A    between atoms: C4_17  and  N4_20 
REMARK    9  A    between atoms: N7_30  and  O5_32 
ROOT
HETATM    1  N4  UNL     1      -0.401  -0.455  -0.122  1.00  0.00    -0.305 N 
HETATM    2  C5  UNL     1      -0.035  -0.857   1.138  1.00  0.00     0.186 A 
HETATM    3  N5  UNL     1      -1.075  -0.793   1.985  1.00  0.00    -0.346 N 
ATOM      4  H5  UNL     1      -1.053  -1.040   2.974  1.00  0.00     0.167 HD
HETATM    5  C6  UNL     1      -2.133  -0.356   1.323  1.00  0.00     0.135 A 
HETATM    6  C7  UNL     1      -3.413  -0.148   1.835  1.00  0.00     0.289 C 
HETATM    7  O4  UNL     1      -3.485  -0.081   3.086  1.00  0.00    -0.265 OA
HETATM    8  N6  UNL     1      -4.564  -0.014   1.129  1.00  0.00    -0.152 N 
ATOM      9  H6  UNL     1      -5.413   0.139   1.673  1.00  0.00     0.187 HD
HETATM   10  C8  UNL     1      -4.712  -0.061  -0.215  1.00  0.00     0.707 C 
HETATM   11  N7  UNL     1      -5.894  -0.361  -0.620  1.00  0.00    -0.098 N 
ATOM     12  H7  UNL     1      -6.095  -0.420  -1.618  1.00  0.00     0.213 HD
HETATM   13  N8  UNL     1      -3.805   0.158  -1.182  1.00  0.00    -0.152 N 
ATOM     14  H8  UNL     1      -4.170   0.238  -2.131  1.00  0.00     0.187 HD
HETATM   15  C9  UNL     1      -2.469   0.285  -1.047  1.00  0.00     0.289 C 
HETATM   16  O6  UNL     1      -1.821   0.839  -1.946  1.00  0.00    -0.265 OA
HETATM   17  C10 UNL     1      -1.712  -0.148   0.017  1.00  0.00     0.139 A 
ENDROOT
BRANCH   1  18
HETATM   18  C4  UNL     1       0.483  -0.422  -1.237  1.00  0.00     0.276 C 
BRANCH  18  19
HETATM   19  C3  UNL     1       1.664   0.506  -1.134  1.00  0.00     0.333 C 
BRANCH  19  20
HETATM   20  N2  UNL     1       2.407   0.406   0.093  1.00  0.00    -0.326 N 
HETATM   21  C2  UNL     1       3.683  -0.193   0.113  1.00  0.00     0.275 C 
HETATM   22  O2  UNL     1       4.159  -0.636  -0.959  1.00  0.00    -0.269 OA
ATOM     23  H2  UNL     1       2.007   0.772   0.957  1.00  0.00     0.164 HD
BRANCH  21  24
HETATM   24  C1  UNL     1       4.487  -0.321   1.353  1.00  0.00     0.409 C 
BRANCH  24  25
HETATM   25  N1  UNL     1       4.784   0.999   1.897  1.00  0.00    -0.044 N 
ATOM     26  H13 UNL     1       5.381   0.968   2.723  1.00  0.00     0.278 HD
ATOM     27  H12 UNL     1       5.410   1.546   1.306  1.00  0.00     0.278 HD
ATOM     28  H11 UNL     1       3.888   1.457   2.066  1.00  0.00     0.278 HD
ENDBRANCH  24  25
BRANCH  24  29
HETATM   29  O1  UNL     1       5.704  -0.943   1.124  1.00  0.00    -0.363 OA
ATOM     30  H1  UNL     1       5.511  -1.803   0.770  1.00  0.00     0.212 HD
ENDBRANCH  24  29
ENDBRANCH  21  24
ENDBRANCH  19  20
BRANCH  19  31
HETATM   31  N3  UNL     1       1.397   1.885  -1.496  1.00  0.00    -0.054 N 
ATOM     32  H33 UNL     1       0.929   2.383  -0.738  1.00  0.00     0.277 HD
ATOM     33  H32 UNL     1       2.258   2.430  -1.539  1.00  0.00     0.277 HD
ATOM     34  H31 UNL     1       0.870   1.956  -2.366  1.00  0.00     0.277 HD
ENDBRANCH  19  31
ENDBRANCH  18  19
BRANCH  18  35
HETATM   35  O3  UNL     1       1.107  -1.728  -1.145  1.00  0.00    -0.372 OA
ATOM     36  H3  UNL     1       0.362  -2.314  -1.210  1.00  0.00     0.212 HD
ENDBRANCH  18  35
ENDBRANCH   1  18
BRANCH  11  37
HETATM   37  O5  UNL     1      -6.881  -0.601   0.296  1.00  0.00    -0.276 OA
ATOM     38  H5  UNL     1      -7.755  -0.823  -0.003  1.00  0.00     0.245 HD
ENDBRANCH  11  37
TORSDOF 9
