REMARK  9 active torsions:
REMARK  status: ('A' for Active; 'I' for Inactive)
REMARK    1  A    between atoms: N1_1  and  C1_4 
REMARK    2  A    between atoms: C2_7  and  N3_8 
REMARK    3  A    between atoms: C6_16  and  O2_17 
REMARK    4  A    between atoms: C7_19  and  C8_20 
REMARK    5  A    between atoms: C8_20  and  O3_21 
REMARK    6  A    between atoms: C8_20  and  O4_23 
REMARK    7  A    between atoms: C9_25  and  C10_26 
REMARK    8  A    between atoms: C10_26  and  N6_27 
REMARK    9  A    between atoms: C10_26  and  O5_31 
ROOT
HETATM    1  C1  UNL     1       2.467  -2.523  -0.051  1.00  0.00     0.680 A 
HETATM    2  N2  UNL     1       1.222  -2.056  -0.206  1.00  0.00    -0.174 N 
ATOM      3  H2  UNL     1       0.462  -2.717  -0.368  1.00  0.00     0.186 HD
HETATM    4  C2  UNL     1       0.939  -0.717  -0.154  1.00  0.00     0.155 A 
HETATM    5  C9  UNL     1       2.004   0.124   0.066  1.00  0.00     0.112 A 
HETATM    6  C11 UNL     1       3.305  -0.353   0.229  1.00  0.00     0.274 A 
HETATM    7  O6  UNL     1       4.293   0.384   0.430  1.00  0.00    -0.267 OA
HETATM    8  N7  UNL     1       3.498  -1.671   0.165  1.00  0.00    -0.156 N 
ATOM      9  H7  UNL     1       4.440  -2.045   0.281  1.00  0.00     0.187 HD
ENDROOT
BRANCH   4  10
HETATM   10  N3  UNL     1      -0.364  -0.305  -0.346  1.00  0.00    -0.250 N 
HETATM   11  N4  UNL     1      -0.773   0.445  -1.409  1.00  0.00    -0.314 N 
HETATM   12  C3  UNL     1      -1.961   1.208  -1.413  1.00  0.00     0.222 C 
ATOM     13  H4  UNL     1      -0.190   0.455  -2.246  1.00  0.00     0.181 HD
HETATM   14  C4  UNL     1      -2.546   1.265   0.051  1.00  0.00     0.248 C 
HETATM   15  C6  UNL     1      -3.097   0.322  -1.993  1.00  0.00     0.169 C 
HETATM   16  O1  UNL     1      -2.835   2.330   0.616  1.00  0.00    -0.271 OA
HETATM   17  N5  UNL     1      -2.490  -0.139   0.124  1.00  0.00    -0.320 N 
HETATM   18  C5  UNL     1      -3.536  -0.582  -0.758  1.00  0.00     0.162 C 
HETATM   19  C7  UNL     1      -1.369  -0.794   0.706  1.00  0.00     0.267 C 
BRANCH  19  20
HETATM   20  C8  UNL     1      -0.946  -0.442   2.068  1.00  0.00     0.298 C 
BRANCH  20  21
HETATM   21  O3  UNL     1       0.279  -0.955   2.424  1.00  0.00    -0.368 OA
ATOM     22  H3  UNL     1       0.553  -0.727   3.305  1.00  0.00     0.212 HD
ENDBRANCH  20  21
BRANCH  20  23
HETATM   23  O4  UNL     1      -0.991   0.929   2.342  1.00  0.00    -0.368 OA
ATOM     24  H4  UNL     1      -0.717   1.157   3.223  1.00  0.00     0.212 HD
ENDBRANCH  20  23
ENDBRANCH  19  20
BRANCH  15  25
HETATM   25  O2  UNL     1      -4.130   1.174  -2.329  1.00  0.00    -0.391 OA
ATOM     26  H2  UNL     1      -4.825   0.632  -2.684  1.00  0.00     0.210 HD
ENDBRANCH  15  25
ENDBRANCH   4  10
BRANCH   5  27
HETATM   27  C10 UNL     1       1.836   1.585   0.145  1.00  0.00     0.359 C 
BRANCH  27  28
HETATM   28  N6  UNL     1       2.910   2.151  -0.691  1.00  0.00    -0.048 N 
ATOM     29  H63 UNL     1       3.843   1.831  -0.432  1.00  0.00     0.277 HD
ATOM     30  H62 UNL     1       2.920   1.790  -1.645  1.00  0.00     0.277 HD
ATOM     31  H61 UNL     1       2.794   3.163  -0.636  1.00  0.00     0.277 HD
ENDBRANCH  27  28
BRANCH  27  32
HETATM   32  O5  UNL     1       2.112   1.931   1.493  1.00  0.00    -0.366 OA
ATOM     33  H5  UNL     1       2.004   2.873   1.544  1.00  0.00     0.212 HD
ENDBRANCH  27  32
ENDBRANCH   5  27
BRANCH   1  34
HETATM   34  N1  UNL     1       2.670  -3.818  -0.111  1.00  0.00    -0.234 N 
ATOM     35  H12 UNL     1       1.894  -4.459  -0.274  1.00  0.00     0.174 HD
ATOM     36  H11 UNL     1       3.619  -4.174   0.007  1.00  0.00     0.174 HD
ENDBRANCH   1  34
TORSDOF 9
