REMARK  7 active torsions:
REMARK  status: ('A' for Active; 'I' for Inactive)
REMARK       I    between atoms: N1_2  and  C2_4 
REMARK    1  A    between atoms: C2_4  and  C3_6 
REMARK    2  A    between atoms: C3_6  and  O2_7 
REMARK    3  A    between atoms: C3_6  and  N2_9 
REMARK    4  A    between atoms: C7_17  and  N4_18 
REMARK    5  A    between atoms: N6_24  and  C9_25 
REMARK    6  A    between atoms: C10_29  and  C11_30 
REMARK    7  A    between atoms: C11_30  and  O5_31 
ROOT
HETATM    1  N2  UNL     1       0.804   0.066  -0.209  1.00  0.00    -0.210 N 
HETATM    2  C4  UNL     1       1.730  -0.890  -0.165  1.00  0.00     0.284 A 
HETATM    3  O3  UNL     1       2.973  -0.682   0.047  1.00  0.00    -0.265 OA
HETATM    4  C5  UNL     1       1.116  -2.100  -0.382  1.00  0.00     0.148 A 
HETATM    5  C6  UNL     1       1.586  -3.389  -0.442  1.00  0.00     0.279 A 
HETATM    6  O4  UNL     1       2.815  -3.639  -0.279  1.00  0.00    -0.266 OA
HETATM    7  N3  UNL     1       0.688  -4.359  -0.679  1.00  0.00    -0.155 N 
ATOM      8  H3  UNL     1       1.016  -5.324  -0.727  1.00  0.00     0.187 HD
HETATM    9  C7  UNL     1      -0.620  -4.120  -0.855  1.00  0.00     0.680 A 
HETATM   10  N5  UNL     1      -1.057  -2.856  -0.792  1.00  0.00    -0.174 N 
ATOM     11  H5  UNL     1      -2.052  -2.673  -0.925  1.00  0.00     0.186 HD
HETATM   12  C8  UNL     1      -0.235  -1.820  -0.560  1.00  0.00     0.163 A 
HETATM   13  N6  UNL     1      -0.380  -0.473  -0.445  1.00  0.00    -0.212 N 
ENDROOT
BRANCH  13  14
HETATM   14  C9  UNL     1      -1.639   0.185  -0.568  1.00  0.00     0.457 C 
HETATM   15  N7  UNL     1      -2.762  -0.407   0.141  1.00  0.00    -0.000 N 
HETATM   16  C10 UNL     1      -3.211   0.975   0.167  1.00  0.00     0.353 C 
ATOM     17  H72 UNL     1      -3.321  -1.176  -0.229  1.00  0.00     0.285 HD
ATOM     18  H71 UNL     1      -2.662  -0.984   0.976  1.00  0.00     0.285 HD
HETATM   19  O6  UNL     1      -1.849   1.313   0.227  1.00  0.00    -0.307 OA
BRANCH  16  20
HETATM   20  C11 UNL     1      -3.982   1.368   1.399  1.00  0.00     0.225 C 
BRANCH  20  21
HETATM   21  O5  UNL     1      -4.330   2.712   1.256  1.00  0.00    -0.397 OA
ATOM     22  H5  UNL     1      -4.816   2.960   2.033  1.00  0.00     0.209 HD
ENDBRANCH  20  21
ENDBRANCH  16  20
ENDBRANCH  13  14
BRANCH   1  23
HETATM   23  C3  UNL     1       1.014   1.473  -0.037  1.00  0.00     0.338 C 
BRANCH  23  24
HETATM   24  C2  UNL     1       2.376   1.932  -0.365  1.00  0.00     0.268 C 
HETATM   25  N1  UNL     1       3.216   2.613   0.558  1.00  0.00    -0.362 N 
HETATM   26  C1  UNL     1       4.542   3.066   0.256  1.00  0.00     0.149 C 
ATOM     27  H1  UNL     1       2.852   2.790   1.494  1.00  0.00     0.162 HD
HETATM   28  O1  UNL     1       2.871   1.739  -1.507  1.00  0.00    -0.269 OA
ENDBRANCH  23  24
BRANCH  23  29
HETATM   29  O2  UNL     1       0.774   1.865   1.302  1.00  0.00    -0.367 OA
ATOM     30  H2  UNL     1      -0.104   1.569   1.513  1.00  0.00     0.212 HD
ENDBRANCH  23  29
ENDBRANCH   1  23
BRANCH   9  31
HETATM   31  N4  UNL     1      -1.443  -5.116  -1.083  1.00  0.00    -0.234 N 
ATOM     32  H42 UNL     1      -1.110  -6.079  -1.131  1.00  0.00     0.174 HD
ATOM     33  H41 UNL     1      -2.438  -4.934  -1.217  1.00  0.00     0.174 HD
ENDBRANCH   9  31
TORSDOF 7
