REMARK  10 active torsions:
REMARK  status: ('A' for Active; 'I' for Inactive)
REMARK    1  A    between atoms: C2_5  and  N3_6 
REMARK    2  A    between atoms: N3_6  and  C3_8 
REMARK    3  A    between atoms: C4_10  and  O2_11 
REMARK    4  A    between atoms: C4_10  and  C5_13 
REMARK    5  A    between atoms: C5_13  and  O3_14 
REMARK    6  A    between atoms: C6_16  and  O4_17 
REMARK    7  A    between atoms: C6_16  and  C7_19 
REMARK    8  A    between atoms: C7_19  and  O5_20 
REMARK    9  A    between atoms: C8_22  and  O6_23 
REMARK   10  A    between atoms: C11_30  and  N5_31 
ROOT
HETATM    1  N3  UNL     1       0.319  -0.758  -0.121  1.00  0.00    -0.346 N 
ATOM      2  H3  UNL     1       0.203  -1.746   0.104  1.00  0.00     0.163 HD
ENDROOT
BRANCH   1   3
HETATM    3  C2  UNL     1       1.527  -0.639  -0.084  1.00  0.00     0.138 A 
HETATM    4  N2  UNL     1       2.398  -1.678   0.204  1.00  0.00    -0.281 N 
HETATM    5  N1  UNL     1       3.594  -1.171   0.151  1.00  0.00    -0.278 N 
ATOM      6  H2  UNL     1       2.151  -2.645   0.415  1.00  0.00     0.189 HD
HETATM    7  C1  UNL     1       4.818  -1.946   0.397  1.00  0.00     0.179 C 
HETATM    8  C12 UNL     1       3.625   0.121  -0.148  1.00  0.00     0.157 A 
HETATM    9  C9  UNL     1       2.308   0.495  -0.306  1.00  0.00     0.123 A 
HETATM   10  N6  UNL     1       4.607   1.046  -0.310  1.00  0.00    -0.174 N 
HETATM   11  C10 UNL     1       2.079   1.812  -0.624  1.00  0.00     0.277 A 
HETATM   12  O7  UNL     1       0.904   2.194  -0.776  1.00  0.00    -0.266 OA
HETATM   13  N4  UNL     1       3.090   2.715  -0.780  1.00  0.00    -0.155 N 
HETATM   14  C11 UNL     1       4.363   2.324  -0.621  1.00  0.00     0.680 A 
ATOM     15  H4  UNL     1       2.878   3.684  -1.017  1.00  0.00     0.187 HD
ATOM     16  H6  UNL     1       5.576   0.752  -0.189  1.00  0.00     0.186 HD
BRANCH  14  17
HETATM   17  N5  UNL     1       5.318   3.192  -0.771  1.00  0.00    -0.234 N 
ATOM     18  H52 UNL     1       5.132   4.166  -1.008  1.00  0.00     0.174 HD
ATOM     19  H51 UNL     1       6.286   2.895  -0.650  1.00  0.00     0.174 HD
ENDBRANCH  14  17
ENDBRANCH   1   3
BRANCH   1  20
HETATM   20  C3  UNL     1      -0.961  -0.363  -0.282  1.00  0.00     0.258 C 
HETATM   21  O1  UNL     1      -1.424   0.393   0.805  1.00  0.00    -0.323 OA
HETATM   22  C4  UNL     1      -2.809   0.448   0.661  1.00  0.00     0.222 C 
HETATM   23  C6  UNL     1      -3.264  -0.887   0.205  1.00  0.00     0.167 C 
HETATM   24  C8  UNL     1      -1.989  -1.511  -0.335  1.00  0.00     0.209 C 
BRANCH  22  25
HETATM   25  O2  UNL     1      -3.344   0.727   1.918  1.00  0.00    -0.361 OA
ATOM     26  H2  UNL     1      -4.288   0.764   1.820  1.00  0.00     0.213 HD
ENDBRANCH  22  25
BRANCH  22  27
HETATM   27  C5  UNL     1      -3.163   1.593  -0.253  1.00  0.00     0.236 C 
BRANCH  27  28
HETATM   28  O3  UNL     1      -2.663   2.762   0.367  1.00  0.00    -0.395 OA
ATOM     29  H3  UNL     1      -2.886   3.484  -0.209  1.00  0.00     0.209 HD
ENDBRANCH  27  28
ENDBRANCH  22  27
BRANCH  23  30
HETATM   30  O4  UNL     1      -3.742  -1.659   1.291  1.00  0.00    -0.379 OA
ATOM     31  H4  UNL     1      -4.034  -2.515   0.999  1.00  0.00     0.211 HD
ENDBRANCH  23  30
BRANCH  23  32
HETATM   32  C7  UNL     1      -4.343  -0.899  -0.827  1.00  0.00     0.210 C 
BRANCH  32  33
HETATM   33  O5  UNL     1      -5.502  -0.360  -0.322  1.00  0.00    -0.398 OA
ATOM     34  H5  UNL     1      -6.189  -0.368  -0.979  1.00  0.00     0.209 HD
ENDBRANCH  32  33
ENDBRANCH  23  32
BRANCH  24  35
HETATM   35  O6  UNL     1      -1.599  -2.523   0.508  1.00  0.00    -0.388 OA
ATOM     36  H6  UNL     1      -2.232  -3.230   0.475  1.00  0.00     0.210 HD
ENDBRANCH  24  35
ENDBRANCH   1  20
TORSDOF 10
