REMARK  10 active torsions:
REMARK  status: ('A' for Active; 'I' for Inactive)
REMARK    1  A    between atoms: C2_2  and  N1_3 
REMARK    2  A    between atoms: C2_2  and  C3_7 
REMARK    3  A    between atoms: C3_7  and  C4_9 
REMARK    4  A    between atoms: C4_9  and  O2_10 
REMARK    5  A    between atoms: C4_9  and  C5_12 
REMARK    6  A    between atoms: C6_14  and  O4_15 
REMARK    7  A    between atoms: C6_14  and  C7_17 
REMARK    8  A    between atoms: C7_17  and  O5_18 
REMARK    9  A    between atoms: C9_23  and  N4_24 
REMARK   10  A    between atoms: C11_32  and  O7_33 
ROOT
HETATM    1  C5  UNL     1       0.778  -1.383  -0.060  1.00  0.00     0.193 C 
HETATM    2  O3  UNL     1      -0.009  -1.857  -1.113  1.00  0.00    -0.340 OA
HETATM    3  C6  UNL     1      -1.316  -1.913  -0.598  1.00  0.00     0.220 C 
HETATM    4  C8  UNL     1      -1.429  -0.635   0.150  1.00  0.00     0.213 C 
HETATM    5  N2  UNL     1      -1.721   0.482  -0.729  1.00  0.00    -0.116 NA
HETATM    6  N3  UNL     1      -1.598   1.706  -0.027  1.00  0.00    -0.093 NA
HETATM    7  C9  UNL     1      -2.656   1.874   0.945  1.00  0.00     0.395 C 
HETATM    8  N5  UNL     1      -3.049   0.617   1.549  1.00  0.00    -0.318 N 
ATOM      9  H5  UNL     1      -3.781   0.624   2.259  1.00  0.00     0.165 HD
HETATM   10  C10 UNL     1      -2.458  -0.625   1.194  1.00  0.00     0.254 C 
HETATM   11  O6  UNL     1      -2.830  -1.659   1.777  1.00  0.00    -0.271 OA
HETATM   12  C11 UNL     1      -0.078  -0.547   0.817  1.00  0.00     0.191 C 
ENDROOT
BRANCH   1  13
HETATM   13  C4  UNL     1       1.975  -0.698  -0.650  1.00  0.00     0.221 C 
BRANCH  13  14
HETATM   14  C3  UNL     1       3.007  -0.397   0.375  1.00  0.00     0.187 C 
HETATM   15  O1  UNL     1       3.304  -1.303   1.138  1.00  0.00    -0.293 OA
BRANCH  14  16
HETATM   16  C2  UNL     1       3.695   0.889   0.546  1.00  0.00     0.251 C 
HETATM   17  C1  UNL     1       5.219   0.727   0.459  1.00  0.00     0.048 C 
BRANCH  16  18
HETATM   18  N1  UNL     1       3.337   1.910  -0.386  1.00  0.00    -0.069 N 
ATOM     19  H13 UNL     1       3.844   2.783  -0.241  1.00  0.00     0.275 HD
ATOM     20  H12 UNL     1       3.669   1.725  -1.333  1.00  0.00     0.275 HD
ATOM     21  H11 UNL     1       2.324   2.018  -0.328  1.00  0.00     0.275 HD
ENDBRANCH  16  18
ENDBRANCH  14  16
ENDBRANCH  13  14
BRANCH  13  22
HETATM   22  O2  UNL     1       1.654   0.361  -1.457  1.00  0.00    -0.385 OA
ATOM     23  H2  UNL     1       0.994   0.168  -2.113  1.00  0.00     0.210 HD
ENDBRANCH  13  22
ENDBRANCH   1  13
BRANCH  12  24
HETATM   24  O7  UNL     1       0.361   0.707   1.101  1.00  0.00    -0.390 OA
ATOM     25  H7  UNL     1      -0.187   1.242   1.663  1.00  0.00     0.210 HD
ENDBRANCH  12  24
BRANCH   3  26
HETATM   26  O4  UNL     1      -1.332  -3.004   0.274  1.00  0.00    -0.361 OA
ATOM     27  H4  UNL     1      -2.215  -3.042   0.622  1.00  0.00     0.213 HD
ENDBRANCH   3  26
BRANCH   3  28
HETATM   28  C7  UNL     1      -2.310  -2.152  -1.669  1.00  0.00     0.235 C 
BRANCH  28  29
HETATM   29  O5  UNL     1      -2.367  -1.219  -2.670  1.00  0.00    -0.395 OA
ATOM     30  H5  UNL     1      -3.005  -1.372  -3.357  1.00  0.00     0.209 HD
ENDBRANCH  28  29
ENDBRANCH   3  28
BRANCH   7  31
HETATM   31  N4  UNL     1      -3.806   2.436   0.271  1.00  0.00    -0.043 N 
ATOM     32  H43 UNL     1      -3.587   3.300  -0.225  1.00  0.00     0.278 HD
ATOM     33  H42 UNL     1      -4.097   1.884  -0.535  1.00  0.00     0.278 HD
ATOM     34  H41 UNL     1      -4.552   2.554   0.956  1.00  0.00     0.278 HD
ENDBRANCH   7  31
TORSDOF 10
