REMARK  9 active torsions:
REMARK  status: ('A' for Active; 'I' for Inactive)
REMARK    1  A    between atoms: C3_3  and  N1_4 
REMARK    2  A    between atoms: N1_4  and  C4_6 
REMARK    3  A    between atoms: N3_9  and  O1_10 
REMARK    4  A    between atoms: C5_12  and  N4_13 
REMARK       I    between atoms: N4_13  and  C6_15 
REMARK       I    between atoms: C6_15  and  N5_17 
REMARK    5  A    between atoms: N5_17  and  N6_19 
REMARK    6  A    between atoms: N6_19  and  N7_20 
REMARK    7  A    between atoms: N7_20  and  N8_21 
REMARK    8  A    between atoms: C8_30  and  O4_31 
REMARK    9  A    between atoms: C9_33  and  O5_34 
ROOT
HETATM    1  C4  UNL     1      -0.602  -0.228  -0.883  1.00  0.00     0.712 A 
HETATM    2  N2  UNL     1      -0.314   0.944  -0.332  1.00  0.00    -0.089 N 
ATOM      3  H2  UNL     1      -1.057   1.627  -0.183  1.00  0.00     0.209 HD
HETATM    4  N3  UNL     1       0.916   1.234   0.023  1.00  0.00     0.032 N 
HETATM    5  C5  UNL     1       1.961   0.369  -0.146  1.00  0.00     0.743 A 
HETATM    6  N9  UNL     1       1.645  -0.797  -0.702  1.00  0.00    -0.114 N 
ATOM      7  H9  UNL     1       2.388  -1.479  -0.854  1.00  0.00     0.206 HD
HETATM    8  N10 UNL     1       0.424  -1.112  -1.065  1.00  0.00    -0.116 N 
ATOM      9  H10 UNL     1       0.240  -2.023  -1.486  1.00  0.00     0.206 HD
ENDROOT
BRANCH   1  10
HETATM   10  N1  UNL     1      -1.789  -0.536  -1.222  1.00  0.00    -0.197 N 
ATOM     11  H1  UNL     1      -1.949  -1.451  -1.643  1.00  0.00     0.180 HD
BRANCH  10  12
HETATM   12  C3  UNL     1      -2.909   0.330  -1.045  1.00  0.00     0.244 C 
HETATM   13  C2  UNL     1      -3.449   0.323   0.337  1.00  0.00     0.062 C 
HETATM   14  C1  UNL     1      -3.144   1.628   1.046  1.00  0.00     0.017 C 
HETATM   15  C9  UNL     1      -4.983   0.166   0.243  1.00  0.00     0.156 C 
HETATM   16  C8  UNL     1      -5.236  -1.235  -0.260  1.00  0.00     0.171 C 
HETATM   17  C7  UNL     1      -4.249  -1.444  -1.403  1.00  0.00     0.204 C 
HETATM   18  O3  UNL     1      -3.923  -0.171  -1.919  1.00  0.00    -0.363 OA
BRANCH  15  19
HETATM   19  O5  UNL     1      -5.563   0.319   1.509  1.00  0.00    -0.392 OA
ATOM     20  H5  UNL     1      -6.506   0.222   1.451  1.00  0.00     0.210 HD
ENDBRANCH  15  19
BRANCH  16  21
HETATM   21  O4  UNL     1      -4.922  -2.105   0.767  1.00  0.00    -0.391 OA
ATOM     22  H4  UNL     1      -5.537  -1.975   1.479  1.00  0.00     0.210 HD
ENDBRANCH  16  21
ENDBRANCH  10  12
ENDBRANCH   1  10
BRANCH   4  23
HETATM   23  O1  UNL     1       1.170   2.465   0.599  1.00  0.00    -0.254 OA
ATOM     24  H1  UNL     1       2.060   2.675   0.856  1.00  0.00     0.247 HD
ENDBRANCH   4  23
BRANCH   5  25
HETATM   25  N4  UNL     1       3.259   0.736   0.281  1.00  0.00    -0.135 N 
HETATM   26  C6  UNL     1       4.353  -0.142   0.089  1.00  0.00     0.351 C 
HETATM   27  O2  UNL     1       4.173  -1.254  -0.484  1.00  0.00    -0.245 OA
HETATM   28  N5  UNL     1       5.651   0.210   0.532  1.00  0.00    -0.237 N 
ATOM     29  H5  UNL     1       5.800   1.106   0.997  1.00  0.00     0.188 HD
ATOM     30  H4  UNL     1       3.408   1.640   0.730  1.00  0.00     0.189 HD
BRANCH  28  31
HETATM   31  N6  UNL     1       6.718  -0.647   0.341  1.00  0.00    -0.005 NA
BRANCH  31  32
HETATM   32  N7  UNL     1       7.885   0.054  -0.012  1.00  0.00    -0.016 NA
BRANCH  32  33
HETATM   33  N8  UNL     1       8.523   0.468   1.164  1.00  0.00    -0.330 N 
ATOM     34  H82 UNL     1       8.186   0.284   2.109  1.00  0.00     0.173 HD
ATOM     35  H81 UNL     1       9.369   0.976   0.908  1.00  0.00     0.173 HD
ENDBRANCH  32  33
ENDBRANCH  31  32
ENDBRANCH  28  31
ENDBRANCH   5  25
TORSDOF 9
