REMARK  9 active torsions:
REMARK  status: ('A' for Active; 'I' for Inactive)
REMARK    1  A    between atoms: N1_1  and  C1_4 
REMARK    2  A    between atoms: N4_13  and  C4_14 
REMARK    3  A    between atoms: C4_14  and  C5_15 
REMARK    4  A    between atoms: C5_15  and  C6_16 
REMARK    5  A    between atoms: C6_16  and  O3_17 
REMARK    6  A    between atoms: C7_22  and  C8_23 
REMARK    7  A    between atoms: C8_23  and  O4_24 
REMARK    8  A    between atoms: C9_26  and  O5_27 
REMARK    9  A    between atoms: C11_33  and  O6_34 
ROOT
HETATM    1  C6  UNL     1      -0.804  -0.579   0.228  1.00  0.00     0.287 C 
HETATM    2  N5  UNL     1      -1.758  -0.584   1.318  1.00  0.00    -0.019 N 
ATOM      3  H51 UNL     1      -1.463  -0.312   2.256  1.00  0.00     0.282 HD
ATOM      4  H52 UNL     1      -2.109  -1.468   1.686  1.00  0.00     0.282 HD
HETATM    5  C7  UNL     1      -2.630   0.279   0.555  1.00  0.00     0.239 C 
HETATM    6  C9  UNL     1      -3.593  -0.377  -0.364  1.00  0.00     0.187 C 
HETATM    7  C10 UNL     1      -3.044  -0.197  -1.750  1.00  0.00     0.270 C 
HETATM    8  N6  UNL     1      -1.860   0.588  -1.672  1.00  0.00    -0.033 N 
ATOM      9  H61 UNL     1      -1.973   1.509  -2.095  1.00  0.00     0.281 HD
ATOM     10  H62 UNL     1      -1.120   0.243  -2.284  1.00  0.00     0.281 HD
HETATM   11  C11 UNL     1      -1.448   0.660  -0.292  1.00  0.00     0.320 C 
ENDROOT
BRANCH   1  12
HETATM   12  C5  UNL     1       0.644  -0.449   0.644  1.00  0.00     0.095 C 
BRANCH  12  13
HETATM   13  C4  UNL     1       1.466  -0.211  -0.582  1.00  0.00     0.157 C 
BRANCH  13  14
HETATM   14  N4  UNL     1       2.877  -0.070  -0.304  1.00  0.00    -0.132 N 
HETATM   15  C1  UNL     1       3.749  -1.094  -0.282  1.00  0.00     0.686 A 
HETATM   16  N2  UNL     1       5.055  -0.928  -0.020  1.00  0.00    -0.141 N 
HETATM   17  C2  UNL     1       5.556   0.289   0.237  1.00  0.00     0.342 A 
ATOM     18  H2  UNL     1       5.675  -1.738  -0.016  1.00  0.00     0.189 HD
HETATM   19  O1  UNL     1       6.779   0.472   0.487  1.00  0.00    -0.246 OA
HETATM   20  N3  UNL     1       4.706   1.329   0.222  1.00  0.00    -0.259 N 
HETATM   21  C3  UNL     1       3.391   1.144  -0.045  1.00  0.00     0.344 A 
ATOM     22  H3  UNL     1       5.055   2.268   0.414  1.00  0.00     0.175 HD
HETATM   23  O2  UNL     1       2.668   2.176  -0.038  1.00  0.00    -0.246 OA
BRANCH  15  24
HETATM   24  N1  UNL     1       3.256  -2.267  -0.532  1.00  0.00    -0.234 N 
ATOM     25  H12 UNL     1       3.917  -3.043  -0.515  1.00  0.00     0.174 HD
ATOM     26  H11 UNL     1       2.264  -2.393  -0.731  1.00  0.00     0.174 HD
ENDBRANCH  15  24
ENDBRANCH  13  14
ENDBRANCH  12  13
ENDBRANCH   1  12
BRANCH   1  27
HETATM   27  O3  UNL     1      -0.976  -1.641  -0.655  1.00  0.00    -0.361 OA
ATOM     28  H3  UNL     1      -1.886  -1.723  -0.916  1.00  0.00     0.212 HD
ENDBRANCH   1  27
BRANCH  11  29
HETATM   29  O6  UNL     1      -0.914   1.864   0.111  1.00  0.00    -0.359 OA
ATOM     30  H6  UNL     1      -1.325   2.654  -0.221  1.00  0.00     0.212 HD
ENDBRANCH  11  29
BRANCH   5  31
HETATM   31  C8  UNL     1      -3.246   1.413   1.313  1.00  0.00     0.211 C 
BRANCH  31  32
HETATM   32  O4  UNL     1      -4.013   0.865   2.359  1.00  0.00    -0.398 OA
ATOM     33  H4  UNL     1      -4.404   1.585   2.840  1.00  0.00     0.209 HD
ENDBRANCH  31  32
ENDBRANCH   5  31
BRANCH   6  34
HETATM   34  O5  UNL     1      -3.833  -1.721  -0.061  1.00  0.00    -0.391 OA
ATOM     35  H5  UNL     1      -4.449  -2.141  -0.649  1.00  0.00     0.210 HD
ENDBRANCH   6  34
TORSDOF 9
