REMARK  6 active torsions:
REMARK  status: ('A' for Active; 'I' for Inactive)
REMARK    1  A    between atoms: C3_3  and  C4_4 
REMARK    2  A    between atoms: C6_6  and  N1_7 
REMARK    3  A    between atoms: N1_7  and  C7_9 
REMARK    4  A    between atoms: C7_9  and  C8_10 
REMARK    5  A    between atoms: C8_10  and  C9_11 
REMARK       I    between atoms: N2_14  and  C12_15 
REMARK    6  A    between atoms: C12_15  and  C13_17 
ROOT
HETATM    1  C1  UNL     1       9.311  -1.456  -0.321  1.00  0.00     0.112 C 
HETATM    2  C2  UNL     1       7.901  -1.056  -0.287  1.00  0.00    -0.106 C 
HETATM    3  C3  UNL     1       6.745  -0.708  -0.248  1.00  0.00    -0.071 C 
ENDROOT
BRANCH   3   4
HETATM    4  C4  UNL     1       5.369  -0.302  -0.176  1.00  0.00     0.006 C 
HETATM    5  C5  UNL     1       4.965   0.566   0.950  1.00  0.00     0.059 C 
HETATM    6  C6  UNL     1       4.550  -0.725  -1.114  1.00  0.00     0.098 C 
BRANCH   6   7
HETATM    7  N1  UNL     1       3.171  -0.356  -1.097  1.00  0.00    -0.398 N 
ATOM      8  H1  UNL     1       2.458  -1.017  -0.788  1.00  0.00     0.158 HD
BRANCH   7   9
HETATM    9  C7  UNL     1       2.816   0.944  -1.517  1.00  0.00     0.119 C 
BRANCH   9  10
HETATM   10  C8  UNL     1       1.412   1.394  -1.440  1.00  0.00     0.024 C 
BRANCH  10  11
HETATM   11  C9  UNL     1       0.765   1.514  -0.122  1.00  0.00    -0.010 C 
HETATM   12  C10 UNL     1      -0.668   2.035  -0.284  1.00  0.00     0.024 C 
HETATM   13  C11 UNL     1      -1.564   0.979  -0.868  1.00  0.00     0.126 C 
HETATM   14  N2  UNL     1      -1.558  -0.163   0.036  1.00  0.00    -0.352 N 
HETATM   15  C12 UNL     1      -2.736  -0.724   0.597  1.00  0.00     0.224 C 
HETATM   16  C19 UNL     1      -0.282  -0.728   0.349  1.00  0.00     0.126 C 
HETATM   17  O1  UNL     1      -2.597  -1.708   1.388  1.00  0.00    -0.273 OA
HETATM   18  C20 UNL     1       0.707   0.347   0.785  1.00  0.00     0.024 C 
BRANCH  15  19
HETATM   19  C13 UNL     1      -4.103  -0.248   0.326  1.00  0.00     0.078 C 
HETATM   20  C14 UNL     1      -5.066  -0.939   1.276  1.00  0.00     0.014 C 
HETATM   21  C15 UNL     1      -6.492  -0.495   1.022  1.00  0.00     0.001 C 
HETATM   22  C16 UNL     1      -6.887  -0.709  -0.406  1.00  0.00     0.000 C 
HETATM   23  C17 UNL     1      -5.882   0.017  -1.304  1.00  0.00     0.001 C 
HETATM   24  C18 UNL     1      -4.547  -0.660  -1.082  1.00  0.00     0.014 C 
ENDBRANCH  15  19
ENDBRANCH  10  11
ENDBRANCH   9  10
ENDBRANCH   7   9
ENDBRANCH   6   7
ENDBRANCH   3   4
TORSDOF 6
