REMARK  7 active torsions:
REMARK  status: ('A' for Active; 'I' for Inactive)
REMARK    1  A    between atoms: C2_2  and  C4_4 
REMARK    2  A    between atoms: C4_4  and  C5_6 
REMARK    3  A    between atoms: C5_6  and  N1_7 
REMARK    4  A    between atoms: N1_7  and  C6_8 
REMARK    5  A    between atoms: N1_7  and  C13_18 
REMARK    6  A    between atoms: C6_8  and  N2_10 
REMARK    7  A    between atoms: N2_10  and  C7_12 
ROOT
HETATM    1  N1  UNL     1      -0.708  -0.322  -0.180  1.00  0.00    -0.347 N 
ENDROOT
BRANCH   1   2
HETATM    2  C5  UNL     1      -2.042   0.008  -0.680  1.00  0.00     0.204 C 
BRANCH   2   3
HETATM    3  C4  UNL     1      -2.721   1.006   0.148  1.00  0.00     0.148 C 
HETATM    4  O1  UNL     1      -2.207   1.419   1.165  1.00  0.00    -0.296 OA
BRANCH   3   5
HETATM    5  C2  UNL     1      -4.053   1.541  -0.230  1.00  0.00     0.049 C 
HETATM    6  C1  UNL     1      -3.967   2.212  -1.574  1.00  0.00     0.017 C 
HETATM    7  C3  UNL     1      -4.618   2.426   0.851  1.00  0.00     0.017 C 
ENDBRANCH   3   5
ENDBRANCH   2   3
ENDBRANCH   1   2
BRANCH   1   8
HETATM    8  C6  UNL     1       0.357   0.605  -0.237  1.00  0.00     0.170 C 
HETATM    9  S1  UNL     1       0.017   2.077  -0.894  1.00  0.00    -0.041 SA
BRANCH   8  10
HETATM   10  N2  UNL     1       1.661   0.387   0.218  1.00  0.00    -0.362 N 
ATOM     11  H2  UNL     1       1.864  -0.520   0.638  1.00  0.00     0.162 HD
BRANCH  10  12
HETATM   12  C7  UNL     1       2.740   1.336   0.143  1.00  0.00     0.083 C 
HETATM   13  C8  UNL     1       3.262   1.630  -1.211  1.00  0.00     0.025 C 
HETATM   14  C9  UNL     1       4.329   0.709  -1.706  1.00  0.00     0.002 C 
HETATM   15  C10 UNL     1       4.912  -0.270  -0.793  1.00  0.00     0.000 C 
HETATM   16  C11 UNL     1       4.774  -0.045   0.669  1.00  0.00     0.002 C 
HETATM   17  C12 UNL     1       3.871   1.061   1.069  1.00  0.00     0.025 C 
ENDBRANCH  10  12
ENDBRANCH   8  10
ENDBRANCH   1   8
BRANCH   1  18
HETATM   18  C13 UNL     1      -0.532  -1.631   0.372  1.00  0.00     0.087 C 
HETATM   19  C14 UNL     1      -1.507  -1.815   1.519  1.00  0.00     0.025 C 
HETATM   20  C15 UNL     1      -1.616  -3.328   1.593  1.00  0.00     0.002 C 
HETATM   21  C16 UNL     1      -1.775  -3.678   0.126  1.00  0.00     0.002 C 
HETATM   22  C17 UNL     1      -0.860  -2.730  -0.615  1.00  0.00     0.025 C 
ENDBRANCH   1  18
TORSDOF 7
