REMARK  5 active torsions:
REMARK  status: ('A' for Active; 'I' for Inactive)
REMARK    1  A    between atoms: N1_6  and  C6_7 
REMARK    2  A    between atoms: C6_7  and  C7_8 
REMARK    3  A    between atoms: C6_7  and  C10_14 
REMARK    4  A    between atoms: C7_8  and  C8_9 
REMARK    5  A    between atoms: C8_9  and  N2_10 
ROOT
HETATM    1  C1  UNL     1       6.541  -0.750  -0.519  1.00  0.00     0.012 C 
HETATM    2  C2  UNL     1       5.364  -0.993  -0.359  1.00  0.00    -0.112 C 
HETATM    3  C3  UNL     1       3.965  -1.269  -0.165  1.00  0.00     0.070 C 
HETATM    4  C4  UNL     1       3.163  -0.537  -1.211  1.00  0.00     0.061 C 
HETATM    5  C5  UNL     1       1.676  -0.691  -1.058  1.00  0.00     0.065 C 
HETATM    6  N1  UNL     1       1.163  -0.803   0.223  1.00  0.00    -0.363 N 
HETATM    7  C20 UNL     1       2.026  -1.394   1.216  1.00  0.00     0.129 C 
HETATM    8  C21 UNL     1       3.434  -0.799   1.173  1.00  0.00     0.038 C 
ENDROOT
BRANCH   6   9
HETATM    9  C6  UNL     1       0.172   0.052   0.736  1.00  0.00     0.017 C 
BRANCH   9  10
HETATM   10  C7  UNL     1       0.452   1.486   0.865  1.00  0.00     0.026 C 
BRANCH  10  11
HETATM   11  C8  UNL     1       0.783   2.344  -0.277  1.00  0.00     0.261 C 
BRANCH  11  12
HETATM   12  N2  UNL     1       0.972   3.697   0.315  1.00  0.00    -0.076 N 
HETATM   13  C9  UNL     1       1.304   4.600  -0.769  1.00  0.00     0.267 C 
ATOM     14  H22 UNL     1       0.169   4.009   0.862  1.00  0.00     0.276 HD
ATOM     15  H21 UNL     1       1.659   3.710   1.069  1.00  0.00     0.276 HD
ENDBRANCH  11  12
ENDBRANCH  10  11
ENDBRANCH   9  10
BRANCH   9  16
HETATM   16  C10 UNL     1      -1.266  -0.312   0.360  1.00  0.00     0.003 C 
HETATM   17  C11 UNL     1      -1.502  -0.308  -1.104  1.00  0.00     0.020 C 
HETATM   18  C12 UNL     1      -2.910  -0.781  -1.414  1.00  0.00    -0.013 C 
HETATM   19  C13 UNL     1      -3.175  -2.172  -0.932  1.00  0.00     0.009 C 
HETATM   20  C17 UNL     1      -3.853   0.187  -0.746  1.00  0.00     0.009 C 
HETATM   21  C14 UNL     1      -2.919  -2.198   0.567  1.00  0.00    -0.013 C 
HETATM   22  C15 UNL     1      -3.937  -1.317   1.211  1.00  0.00     0.009 C 
HETATM   23  C19 UNL     1      -1.502  -1.787   0.782  1.00  0.00     0.020 C 
HETATM   24  C16 UNL     1      -3.679   0.095   0.743  1.00  0.00    -0.013 C 
HETATM   25  C18 UNL     1      -2.268   0.428   1.178  1.00  0.00     0.020 C 
ENDBRANCH   9  16
ENDBRANCH   6   9
TORSDOF 5
