REMARK  5 active torsions:
REMARK  status: ('A' for Active; 'I' for Inactive)
REMARK    1  A    between atoms: C10_10  and  N1_11 
REMARK       I    between atoms: N1_11  and  C11_13 
REMARK    2  A    between atoms: C11_13  and  C12_15 
REMARK    3  A    between atoms: C12_15  and  C13_16 
REMARK    4  A    between atoms: C13_16  and  C14_17 
REMARK    5  A    between atoms: C14_17  and  N2_18 
ROOT
HETATM    1  N1  UNL     1      -1.378  -0.207   0.864  1.00  0.00    -0.351 N 
ATOM      2  H1  UNL     1      -1.371  -0.498   1.842  1.00  0.00     0.163 HD
HETATM    3  C11 UNL     1      -0.123  -0.040   0.256  1.00  0.00     0.218 C 
HETATM    4  O1  UNL     1      -0.023   0.314  -0.933  1.00  0.00    -0.274 OA
ENDROOT
BRANCH   1   5
HETATM    5  C10 UNL     1      -2.670  -0.015   0.266  1.00  0.00     0.037 C 
HETATM    6  C2  UNL     1      -3.776  -0.275   1.287  1.00  0.00     0.014 C 
HETATM    7  C1  UNL     1      -3.679  -1.643   1.892  1.00  0.00     0.012 C 
HETATM    8  C3  UNL     1      -5.101  -0.053   0.640  1.00  0.00    -0.008 C 
HETATM    9  C4  UNL     1      -5.252  -0.987  -0.540  1.00  0.00     0.010 C 
HETATM   10  C8  UNL     1      -5.254   1.359   0.172  1.00  0.00     0.010 C 
HETATM   11  C5  UNL     1      -4.212  -0.681  -1.570  1.00  0.00    -0.012 C 
HETATM   12  C6  UNL     1      -4.275   0.758  -2.028  1.00  0.00     0.009 C 
HETATM   13  C20 UNL     1      -2.843  -0.901  -0.941  1.00  0.00     0.036 C 
HETATM   14  C7  UNL     1      -4.157   1.659  -0.837  1.00  0.00    -0.012 C 
HETATM   15  C9  UNL     1      -2.826   1.429  -0.152  1.00  0.00     0.036 C 
ENDBRANCH   1   5
BRANCH   3  16
HETATM   16  C12 UNL     1       1.160  -0.275   0.989  1.00  0.00     0.104 C 
BRANCH  16  17
HETATM   17  C13 UNL     1       2.358  -0.027   0.103  1.00  0.00     0.039 C 
BRANCH  17  18
HETATM   18  C14 UNL     1       3.599  -0.285   0.919  1.00  0.00     0.273 C 
BRANCH  18  19
HETATM   19  N2  UNL     1       4.809  -0.089   0.198  1.00  0.00     0.088 N 
HETATM   20  C15 UNL     1       5.019  -1.072  -0.846  1.00  0.00     0.272 C 
HETATM   21  C16 UNL     1       6.382  -0.916  -1.485  1.00  0.00     0.030 C 
HETATM   22  C17 UNL     1       7.216   0.122  -0.765  1.00  0.00     0.003 C 
HETATM   23  C18 UNL     1       6.511   1.415  -0.533  1.00  0.00     0.030 C 
HETATM   24  C19 UNL     1       5.027   1.225  -0.313  1.00  0.00     0.272 C 
ENDBRANCH  18  19
ENDBRANCH  17  18
ENDBRANCH  16  17
ENDBRANCH   3  16
TORSDOF 5
