REMARK  9 active torsions:
REMARK  status: ('A' for Active; 'I' for Inactive)
REMARK    1  A    between atoms: C4_4  and  C5_5 
REMARK    2  A    between atoms: C5_5  and  N1_6 
REMARK    3  A    between atoms: N2_9  and  C8_10 
REMARK    4  A    between atoms: C8_10  and  C9_11 
REMARK    5  A    between atoms: C9_11  and  C10_12 
REMARK    6  A    between atoms: C10_12  and  C11_13 
REMARK    7  A    between atoms: C11_13  and  N4_23 
REMARK    8  A    between atoms: N3_14  and  C12_16 
REMARK    9  A    between atoms: N4_23  and  C19_25 
ROOT
HETATM    1  C11 UNL     1      -1.088   1.492   0.358  1.00  0.00     0.074 C 
HETATM    2  N3  UNL     1      -2.167   2.065   0.020  1.00  0.00    -0.365 N 
ATOM      3  H3  UNL     1      -3.006   1.486  -0.001  1.00  0.00     0.162 HD
ENDROOT
BRANCH   1   4
HETATM    4  C10 UNL     1       0.187   2.245   0.422  1.00  0.00     0.077 C 
BRANCH   4   5
HETATM    5  C9  UNL     1       1.147   1.970  -0.677  1.00  0.00     0.038 C 
BRANCH   5   6
HETATM    6  C8  UNL     1       1.670   0.601  -0.821  1.00  0.00     0.273 C 
BRANCH   6   7
HETATM    7  N2  UNL     1       2.429   0.083   0.292  1.00  0.00     0.091 N 
HETATM    8  C7  UNL     1       3.680   0.725   0.490  1.00  0.00     0.302 C 
HETATM    9  C6  UNL     1       4.409  -0.045   1.572  1.00  0.00     0.303 C 
HETATM   10  N1  UNL     1       4.931  -1.221   0.904  1.00  0.00     0.095 N 
HETATM   11  C32 UNL     1       3.990  -1.827   0.019  1.00  0.00     0.303 C 
HETATM   12  C31 UNL     1       2.592  -1.318   0.143  1.00  0.00     0.302 C 
BRANCH  10  13
HETATM   13  C5  UNL     1       6.199  -0.902   0.343  1.00  0.00     0.300 C 
BRANCH  13  14
HETATM   14  C4  UNL     1       6.857  -1.982  -0.391  1.00  0.00     0.005 C 
HETATM   15  C2  UNL     1       8.031  -2.445  -0.032  1.00  0.00    -0.090 C 
HETATM   16  C1  UNL     1       8.694  -3.553  -0.794  1.00  0.00     0.042 C 
HETATM   17  C3  UNL     1       8.701  -1.848   1.156  1.00  0.00     0.042 C 
ENDBRANCH  13  14
ENDBRANCH  10  13
ENDBRANCH   6   7
ENDBRANCH   5   6
ENDBRANCH   4   5
ENDBRANCH   1   4
BRANCH   1  18
HETATM   18  N4  UNL     1      -1.111   0.115   0.666  1.00  0.00    -0.371 N 
ATOM     19  H4  UNL     1      -0.381  -0.219   1.296  1.00  0.00     0.161 HD
BRANCH  18  20
HETATM   20  C19 UNL     1      -2.042  -0.870   0.196  1.00  0.00     0.033 C 
HETATM   21  C20 UNL     1      -3.409  -0.615   0.730  1.00  0.00     0.035 C 
HETATM   22  C21 UNL     1      -4.324  -1.788   0.423  1.00  0.00    -0.011 C 
HETATM   23  C22 UNL     1      -3.793  -3.074   0.965  1.00  0.00     0.014 C 
HETATM   24  C28 UNL     1      -4.463  -1.872  -1.080  1.00  0.00     0.014 C 
HETATM   25  C23 UNL     1      -2.457  -3.330   0.303  1.00  0.00    -0.041 C 
HETATM   26  C24 UNL     1      -1.922  -4.620   0.888  1.00  0.00     0.015 C 
HETATM   27  C25 UNL     1      -2.588  -3.401  -1.187  1.00  0.00     0.018 C 
HETATM   28  C30 UNL     1      -1.508  -2.237   0.647  1.00  0.00     0.040 C 
HETATM   29  C26 UNL     1      -3.093  -2.053  -1.661  1.00  0.00    -0.041 C 
HETATM   30  C27 UNL     1      -3.244  -2.169  -3.178  1.00  0.00     0.015 C 
HETATM   31  C29 UNL     1      -2.126  -0.956  -1.318  1.00  0.00     0.040 C 
ENDBRANCH  18  20
ENDBRANCH   1  18
BRANCH   2  32
HETATM   32  C12 UNL     1      -2.330   3.465  -0.341  1.00  0.00     0.153 C 
HETATM   33  C13 UNL     1      -3.576   3.506  -1.300  1.00  0.00     0.064 C 
HETATM   34  C14 UNL     1      -4.770   4.168  -0.630  1.00  0.00    -0.028 C 
HETATM   35  C15 UNL     1      -4.749   5.513  -0.132  1.00  0.00    -0.030 C 
HETATM   36  C16 UNL     1      -4.364   5.855   1.307  1.00  0.00     0.038 C 
HETATM   37  C17 UNL     1      -2.914   5.368   1.646  1.00  0.00     0.086 C 
HETATM   38  C18 UNL     1      -2.579   4.419   0.659  1.00  0.00    -0.158 C 
ENDBRANCH   2  32
TORSDOF 9
