REMARK  7 active torsions:
REMARK  status: ('A' for Active; 'I' for Inactive)
REMARK    1  A    between atoms: C2_2  and  C3_3 
REMARK       I    between atoms: C3_3  and  N1_5 
REMARK    2  A    between atoms: N1_5  and  C4_6 
REMARK    3  A    between atoms: N1_5  and  C9_11 
REMARK    4  A    between atoms: C12_14  and  C13_15 
REMARK    5  A    between atoms: C13_15  and  C14_16 
REMARK       I    between atoms: N2_19  and  C17_20 
REMARK    6  A    between atoms: C17_20  and  C18_22 
REMARK    7  A    between atoms: C24_28  and  C25_29 
ROOT
HETATM    1  C14 UNL     1       0.924   0.353   1.122  1.00  0.00    -0.011 C 
HETATM    2  C15 UNL     1       2.266   0.974   1.525  1.00  0.00     0.024 C 
HETATM    3  C16 UNL     1       3.339  -0.061   1.294  1.00  0.00     0.126 C 
HETATM    4  N2  UNL     1       3.417  -0.221  -0.165  1.00  0.00    -0.352 N 
HETATM    5  C17 UNL     1       4.607  -0.187  -0.895  1.00  0.00     0.225 C 
HETATM    6  O2  UNL     1       4.557  -0.311  -2.161  1.00  0.00    -0.273 OA
HETATM    7  C26 UNL     1       2.155  -0.439  -0.904  1.00  0.00     0.126 C 
HETATM    8  C27 UNL     1       1.076  -0.739   0.126  1.00  0.00     0.024 C 
ENDROOT
BRANCH   1   9
HETATM    9  C13 UNL     1      -0.020   1.394   0.645  1.00  0.00     0.009 C 
BRANCH   9  10
HETATM   10  C12 UNL     1      -1.342   0.813   0.237  1.00  0.00    -0.014 C 
HETATM   11  C11 UNL     1      -1.969   0.113   1.398  1.00  0.00     0.007 C 
HETATM   12  C10 UNL     1      -3.342  -0.440   1.087  1.00  0.00     0.026 C 
HETATM   13  C9  UNL     1      -3.936   0.201  -0.163  1.00  0.00     0.087 C 
HETATM   14  C29 UNL     1      -3.670   1.628  -0.313  1.00  0.00     0.026 C 
HETATM   15  C28 UNL     1      -2.242   2.034  -0.023  1.00  0.00     0.007 C 
BRANCH  13  16
HETATM   16  N1  UNL     1      -5.284  -0.284  -0.275  1.00  0.00    -0.343 N 
HETATM   17  C3  UNL     1      -5.462  -1.396  -1.216  1.00  0.00     0.220 C 
HETATM   18  O1  UNL     1      -4.469  -1.834  -1.835  1.00  0.00    -0.273 OA
BRANCH  17  19
HETATM   19  C2  UNL     1      -6.776  -2.012  -1.453  1.00  0.00     0.098 C 
HETATM   20  C1  UNL     1      -6.640  -3.114  -2.497  1.00  0.00     0.014 C 
ENDBRANCH  17  19
BRANCH  16  21
HETATM   21  C4  UNL     1      -6.451   0.150   0.370  1.00  0.00     0.087 C 
HETATM   22  C5  UNL     1      -6.557   0.345   1.814  1.00  0.00     0.025 C 
HETATM   23  C6  UNL     1      -7.813   1.249   1.996  1.00  0.00     0.002 C 
HETATM   24  C7  UNL     1      -7.731   2.180   0.802  1.00  0.00     0.002 C 
HETATM   25  C8  UNL     1      -7.002   1.459  -0.276  1.00  0.00     0.025 C 
ENDBRANCH  16  21
ENDBRANCH  13  16
ENDBRANCH   9  10
ENDBRANCH   1   9
BRANCH   5  26
HETATM   26  C18 UNL     1       5.939  -0.015  -0.267  1.00  0.00     0.096 C 
HETATM   27  C19 UNL     1       6.307  -1.248   0.480  1.00  0.00    -0.005 C 
HETATM   28  C20 UNL     1       7.211  -0.961   1.683  1.00  0.00     0.011 C 
HETATM   29  C21 UNL     1       6.922  -2.312  -0.404  1.00  0.00     0.005 C 
HETATM   30  C22 UNL     1       8.064  -1.823  -1.228  1.00  0.00     0.001 C 
HETATM   31  C23 UNL     1       8.231  -0.338  -1.222  1.00  0.00     0.016 C 
HETATM   32  C24 UNL     1       6.932   0.424  -1.282  1.00  0.00     0.100 C 
BRANCH  32  33
HETATM   33  C25 UNL     1       7.270   1.872  -1.132  1.00  0.00     0.177 C 
HETATM   34  O3  UNL     1       6.736   2.558  -0.230  1.00  0.00    -0.648 OA
HETATM   35  O4  UNL     1       8.176   2.496  -1.977  1.00  0.00    -0.648 OA
ENDBRANCH  32  33
ENDBRANCH   5  26
TORSDOF 7
