REMARK  8 active torsions:
REMARK  status: ('A' for Active; 'I' for Inactive)
REMARK    1  A    between atoms: O1_2  and  C2_3 
REMARK    2  A    between atoms: C2_3  and  C3_5 
REMARK    3  A    between atoms: C8_10  and  C9_11 
REMARK    4  A    between atoms: C9_11  and  C10_13 
REMARK    5  A    between atoms: C10_13  and  C12_15 
REMARK    6  A    between atoms: N1_26  and  C23_27 
REMARK    7  A    between atoms: C23_27  and  C24_28 
REMARK    8  A    between atoms: C24_28  and  C25_29 
ROOT
HETATM    1  C3  UNL     1      -1.286   2.516   0.261  1.00  0.00     0.056 C 
HETATM    2  C4  UNL     1      -2.730   2.874   0.483  1.00  0.00     0.027 C 
HETATM    3  C5  UNL     1      -0.908   3.358  -0.961  1.00  0.00     0.021 C 
HETATM    4  C6  UNL     1       0.409   3.075  -1.554  1.00  0.00     0.006 C 
HETATM    5  C7  UNL     1       0.808   1.645  -1.627  1.00  0.00     0.039 C 
HETATM    6  C8  UNL     1       0.418   1.010  -0.294  1.00  0.00    -0.024 C 
HETATM    7  C20 UNL     1      -1.031   1.028  -0.026  1.00  0.00     0.007 C 
HETATM    8  C21 UNL     1      -1.472   0.242   1.134  1.00  0.00     0.043 C 
HETATM    9  C22 UNL     1      -2.338  -0.929   1.021  1.00  0.00     0.239 C 
HETATM   10  N1  UNL     1      -3.201  -1.090  -0.084  1.00  0.00    -0.062 N 
HETATM   11  C26 UNL     1      -3.258  -2.512  -0.529  1.00  0.00     0.238 C 
HETATM   12  C27 UNL     1      -3.871  -2.326  -1.913  1.00  0.00     0.030 C 
HETATM   13  C28 UNL     1      -3.320  -0.992  -2.410  1.00  0.00     0.035 C 
HETATM   14  C29 UNL     1      -2.464  -0.637  -1.242  1.00  0.00     0.191 C 
HETATM   15  C30 UNL     1      -1.922   0.727  -1.199  1.00  0.00     0.049 C 
ENDROOT
BRANCH   1  16
HETATM   16  C2  UNL     1      -0.582   3.017   1.462  1.00  0.00     0.268 C 
HETATM   17  O2  UNL     1      -0.110   2.361   2.409  1.00  0.00    -0.264 OA
BRANCH  16  18
HETATM   18  O1  UNL     1      -0.409   4.413   1.585  1.00  0.00    -0.326 OA
HETATM   19  C1  UNL     1       0.232   5.008   2.666  1.00  0.00     0.213 C 
ENDBRANCH  16  18
ENDBRANCH   1  16
BRANCH   6  20
HETATM   20  C9  UNL     1       1.255  -0.156  -0.079  1.00  0.00     0.157 C 
HETATM   21  O3  UNL     1       0.776  -1.240  -0.013  1.00  0.00    -0.293 OA
BRANCH  20  22
HETATM   22  C10 UNL     1       2.737  -0.109   0.073  1.00  0.00     0.068 C 
HETATM   23  C11 UNL     1       3.140   0.736   1.265  1.00  0.00     0.019 C 
BRANCH  22  24
HETATM   24  C12 UNL     1       3.342  -1.495   0.156  1.00  0.00    -0.016 C 
HETATM   25  C13 UNL     1       2.780  -2.267   1.361  1.00  0.00     0.020 C 
HETATM   26  C14 UNL     1       4.782  -1.307   0.455  1.00  0.00    -0.014 C 
HETATM   27  C15 UNL     1       5.775  -1.362  -0.404  1.00  0.00    -0.087 C 
HETATM   28  C16 UNL     1       7.197  -1.150   0.042  1.00  0.00     0.043 C 
HETATM   29  C17 UNL     1       5.472  -1.640  -1.821  1.00  0.00     0.033 C 
HETATM   30  C18 UNL     1       4.382  -2.678  -1.836  1.00  0.00     0.005 C 
HETATM   31  C19 UNL     1       3.168  -2.300  -1.064  1.00  0.00     0.014 C 
ENDBRANCH  22  24
ENDBRANCH  20  22
ENDBRANCH   6  20
BRANCH  10  32
HETATM   32  C23 UNL     1      -4.545  -0.685   0.017  1.00  0.00     0.248 C 
BRANCH  32  33
HETATM   33  C24 UNL     1      -5.537  -1.488   0.732  1.00  0.00     0.141 C 
BRANCH  33  34
HETATM   34  C25 UNL     1      -5.359  -1.730   2.163  1.00  0.00     0.174 C 
HETATM   35  O4  UNL     1      -5.544  -0.763   2.983  1.00  0.00    -0.648 OA
HETATM   36  O5  UNL     1      -5.005  -2.924   2.738  1.00  0.00    -0.648 OA
ENDBRANCH  33  34
ENDBRANCH  32  33
ENDBRANCH  10  32
TORSDOF 8
