REMARK  8 active torsions:
REMARK  status: ('A' for Active; 'I' for Inactive)
REMARK    1  A    between atoms: C3_3  and  C4_4 
REMARK    2  A    between atoms: C4_4  and  C6_6 
REMARK    3  A    between atoms: C10_10  and  C11_11 
REMARK    4  A    between atoms: C11_11  and  O1_12 
REMARK    5  A    between atoms: C20_22  and  C22_24 
REMARK       I    between atoms: C22_24  and  N1_26 
REMARK    6  A    between atoms: N1_26  and  C24_28 
REMARK    7  A    between atoms: C24_28  and  C25_29 
REMARK    8  A    between atoms: C25_29  and  N2_30 
ROOT
HETATM    1  C6  UNL     1      -3.834   1.291   0.096  1.00  0.00    -0.013 C 
HETATM    2  C7  UNL     1      -5.075   1.732  -0.527  1.00  0.00     0.021 C 
HETATM    3  C8  UNL     1      -2.700   2.351  -0.200  1.00  0.00     0.015 C 
HETATM    4  C9  UNL     1      -2.349   1.923  -1.606  1.00  0.00     0.018 C 
HETATM    5  C10 UNL     1      -2.401   0.431  -1.688  1.00  0.00     0.013 C 
HETATM    6  C12 UNL     1      -3.076   0.120  -0.378  1.00  0.00    -0.063 C 
HETATM    7  C13 UNL     1      -2.950  -1.077   0.214  1.00  0.00    -0.022 C 
HETATM    8  C14 UNL     1      -2.076  -2.056  -0.549  1.00  0.00     0.033 C 
HETATM    9  C15 UNL     1      -0.836  -1.223  -0.832  1.00  0.00     0.007 C 
HETATM   10  C16 UNL     1       0.451  -1.948  -0.795  1.00  0.00    -0.035 C 
HETATM   11  C17 UNL     1       0.257  -3.354  -1.318  1.00  0.00     0.016 C 
HETATM   12  C18 UNL     1       0.943  -1.967   0.661  1.00  0.00     0.011 C 
HETATM   13  C19 UNL     1       2.161  -1.067   0.683  1.00  0.00     0.020 C 
HETATM   14  C20 UNL     1       2.826  -1.451  -0.573  1.00  0.00     0.042 C 
HETATM   15  C21 UNL     1       3.206  -2.922  -0.451  1.00  0.00     0.026 C 
HETATM   16  C28 UNL     1       1.594  -1.322  -1.511  1.00  0.00     0.011 C 
HETATM   17  C29 UNL     1       1.427   0.074  -1.922  1.00  0.00     0.007 C 
HETATM   18  C30 UNL     1       0.081   0.712  -1.867  1.00  0.00     0.011 C 
HETATM   19  C31 UNL     1      -1.092  -0.257  -1.931  1.00  0.00    -0.026 C 
HETATM   20  C32 UNL     1      -1.001  -0.892  -3.309  1.00  0.00     0.016 C 
ENDROOT
BRANCH  14  21
HETATM   21  C22 UNL     1       3.972  -0.756  -1.077  1.00  0.00     0.228 C 
HETATM   22  O2  UNL     1       3.930  -0.404  -2.319  1.00  0.00    -0.273 OA
HETATM   23  N1  UNL     1       5.136  -0.406  -0.433  1.00  0.00    -0.354 N 
HETATM   24  C23 UNL     1       6.239   0.263  -1.179  1.00  0.00     0.152 C 
BRANCH  23  25
HETATM   25  C24 UNL     1       5.419  -0.577   0.954  1.00  0.00     0.155 C 
BRANCH  25  26
HETATM   26  C25 UNL     1       5.118   0.669   1.710  1.00  0.00     0.291 C 
BRANCH  26  27
HETATM   27  N2  UNL     1       5.369   0.546   3.135  1.00  0.00     0.081 N 
HETATM   28  C26 UNL     1       6.783   0.410   3.433  1.00  0.00     0.309 C 
HETATM   29  C27 UNL     1       4.944   1.814   3.736  1.00  0.00     0.309 C 
ENDBRANCH  26  27
ENDBRANCH  25  26
ENDBRANCH  23  25
ENDBRANCH  14  21
BRANCH   5  30
HETATM   30  C11 UNL     1      -3.402   0.107  -2.786  1.00  0.00     0.178 C 
BRANCH  30  31
HETATM   31  O1  UNL     1      -2.944   0.681  -4.017  1.00  0.00    -0.400 OA
ATOM     32  H1  UNL     1      -3.569   0.479  -4.703  1.00  0.00     0.209 HD
ENDBRANCH  30  31
ENDBRANCH   5  30
BRANCH   1  33
HETATM   33  C4  UNL     1      -4.054   1.338   1.607  1.00  0.00     0.016 C 
HETATM   34  C5  UNL     1      -4.157   2.758   2.076  1.00  0.00     0.015 C 
BRANCH  33  35
HETATM   35  C3  UNL     1      -5.237   0.529   1.988  1.00  0.00    -0.026 C 
HETATM   36  C2  UNL     1      -6.285   1.089   2.620  1.00  0.00    -0.035 C 
HETATM   37  C1  UNL     1      -7.454   0.301   3.000  1.00  0.00     0.036 C 
ENDBRANCH  33  35
ENDBRANCH   1  33
TORSDOF 8
