REMARK  9 active torsions:
REMARK  status: ('A' for Active; 'I' for Inactive)
REMARK    1  A    between atoms: O1_2  and  C2_3 
REMARK    2  A    between atoms: C4_5  and  C5_6 
REMARK    3  A    between atoms: C12_13  and  O2_14 
REMARK    4  A    between atoms: C14_16  and  N1_17 
REMARK    5  A    between atoms: C16_22  and  N3_23 
REMARK    6  A    between atoms: N3_23  and  C17_25 
REMARK    7  A    between atoms: C17_25  and  C18_26 
REMARK    8  A    between atoms: C18_26  and  C19_27 
REMARK    9  A    between atoms: C19_27  and  N4_28 
ROOT
HETATM    1  N1  UNL     1       1.334  -0.309   0.351  1.00  0.00    -0.336 N 
ATOM      2  H1  UNL     1       1.004  -0.922   1.097  1.00  0.00     0.168 HD
HETATM    3  C15 UNL     1       0.427   0.368  -0.203  1.00  0.00     0.144 A 
HETATM    4  N2  UNL     1      -0.838   0.176   0.279  1.00  0.00    -0.175 N 
ATOM      5  H2  UNL     1      -0.974  -0.490   1.040  1.00  0.00     0.186 HD
HETATM    6  C16 UNL     1      -1.904   0.822  -0.203  1.00  0.00     0.679 A 
HETATM    7  N5  UNL     1      -1.763   1.720  -1.221  1.00  0.00    -0.200 N 
ATOM      8  H5  UNL     1      -2.573   2.216  -1.594  1.00  0.00     0.183 HD
HETATM    9  C26 UNL     1      -0.548   1.935  -1.717  1.00  0.00     0.133 A 
HETATM   10  C27 UNL     1       0.566   1.269  -1.223  1.00  0.00     0.094 A 
HETATM   11 CL1  UNL     1       2.143   1.588  -1.913  1.00  0.00    -0.079 Cl
ENDROOT
BRANCH   1  12
HETATM   12  C14 UNL     1       2.711  -0.370   0.126  1.00  0.00     0.101 A 
HETATM   13  C2  UNL     1       3.250  -1.292  -0.779  1.00  0.00     0.098 A 
HETATM   14  C3  UNL     1       4.586  -1.410  -1.032  1.00  0.00     0.046 A 
HETATM   15  C4  UNL     1       5.486  -0.590  -0.378  1.00  0.00    -0.049 A 
HETATM   16  C11 UNL     1       4.977   0.325   0.518  1.00  0.00     0.046 A 
HETATM   17  C12 UNL     1       3.630   0.445   0.775  1.00  0.00     0.098 A 
BRANCH  13  18
HETATM   18  O1  UNL     1       2.347  -2.108  -1.430  1.00  0.00    -0.354 OA
HETATM   19  C1  UNL     1       2.746  -3.087  -2.372  1.00  0.00     0.210 C 
ENDBRANCH  13  18
BRANCH  15  20
HETATM   20  C5  UNL     1       6.953  -0.661  -0.601  1.00  0.00     0.019 C 
HETATM   21  C6  UNL     1       7.433   0.680  -1.041  1.00  0.00     0.009 C 
HETATM   22  C7  UNL     1       8.871   0.961  -0.773  1.00  0.00     0.001 C 
HETATM   23  C8  UNL     1       9.333   0.531   0.602  1.00  0.00     0.000 C 
HETATM   24  C9  UNL     1       9.062  -0.977   0.688  1.00  0.00     0.001 C 
HETATM   25  C10 UNL     1       7.562  -1.127   0.702  1.00  0.00     0.009 C 
ENDBRANCH  15  20
BRANCH  17  26
HETATM   26  O2  UNL     1       3.144   1.375   1.681  1.00  0.00    -0.354 OA
HETATM   27  C13 UNL     1       3.983   2.256   2.399  1.00  0.00     0.210 C 
ENDBRANCH  17  26
ENDBRANCH   1  12
BRANCH   6  28
HETATM   28  N3  UNL     1      -3.085   0.661   0.229  1.00  0.00    -0.226 N 
ATOM     29  H3  UNL     1      -3.788   1.229  -0.244  1.00  0.00     0.177 HD
BRANCH  28  30
HETATM   30  C17 UNL     1      -3.595  -0.170   1.253  1.00  0.00     0.139 C 
BRANCH  30  31
HETATM   31  C18 UNL     1      -4.332  -1.390   0.710  1.00  0.00     0.040 C 
BRANCH  31  32
HETATM   32  C19 UNL     1      -5.477  -0.846  -0.128  1.00  0.00     0.129 C 
BRANCH  32  33
HETATM   33  N4  UNL     1      -6.336  -0.052   0.675  1.00  0.00    -0.369 N 
HETATM   34  C20 UNL     1      -7.068  -0.785   1.619  1.00  0.00     0.094 C 
HETATM   35  C21 UNL     1      -8.545  -0.730   1.331  1.00  0.00     0.156 C 
HETATM   36  C22 UNL     1      -8.964  -1.688   0.235  1.00  0.00     0.045 C 
HETATM   37  O3  UNL     1      -8.974   0.531   1.001  1.00  0.00    -0.371 OA
HETATM   38  C23 UNL     1      -8.335   1.036  -0.129  1.00  0.00     0.156 C 
HETATM   39  C24 UNL     1      -8.884   2.453  -0.341  1.00  0.00     0.045 C 
HETATM   40  C25 UNL     1      -6.847   1.118   0.110  1.00  0.00     0.094 C 
ENDBRANCH  32  33
ENDBRANCH  31  32
ENDBRANCH  30  31
ENDBRANCH  28  30
ENDBRANCH   6  28
TORSDOF 9
