REMARK  10 active torsions:
REMARK  status: ('A' for Active; 'I' for Inactive)
REMARK    1  A    between atoms: C2_2  and  N1_3 
REMARK    2  A    between atoms: N1_3  and  C3_5 
REMARK    3  A    between atoms: C5_12  and  N4_13 
REMARK    4  A    between atoms: N4_13  and  C6_15 
REMARK    5  A    between atoms: C9_18  and  O1_19 
REMARK    6  A    between atoms: O1_19  and  C10_20 
REMARK    7  A    between atoms: C10_20  and  C11_21 
REMARK    8  A    between atoms: C11_21  and  C14_24 
REMARK    9  A    between atoms: C17_27  and  N5_28 
REMARK   10  A    between atoms: C25_36  and  O2_37 
ROOT
HETATM    1  C6  UNL     1       4.367   0.598  -0.633  1.00  0.00     0.052 A 
HETATM    2  C7  UNL     1       3.600   0.304  -1.734  1.00  0.00     0.033 A 
HETATM    3  C8  UNL     1       2.257  -0.005  -1.562  1.00  0.00     0.042 A 
HETATM    4  C9  UNL     1       1.644  -0.033  -0.329  1.00  0.00     0.102 A 
HETATM    5  C25 UNL     1       2.477   0.277   0.773  1.00  0.00     0.103 A 
HETATM    6  C27 UNL     1       3.795   0.581   0.617  1.00  0.00     0.069 A 
ENDROOT
BRANCH   4   7
HETATM    7  O1  UNL     1       0.405  -0.312  -0.113  1.00  0.00    -0.348 OA
BRANCH   7   8
HETATM    8  C10 UNL     1      -0.853  -0.621  -0.190  1.00  0.00     0.185 C 
BRANCH   8   9
HETATM    9  C11 UNL     1      -1.723   0.339  -0.976  1.00  0.00    -0.022 C 
HETATM   10  C12 UNL     1      -1.301   0.445  -2.414  1.00  0.00     0.017 C 
HETATM   11  C13 UNL     1      -1.516   1.730  -0.357  1.00  0.00     0.017 C 
BRANCH   9  12
HETATM   12  C14 UNL     1      -3.185   0.029  -0.861  1.00  0.00    -0.005 C 
HETATM   13  C15 UNL     1      -3.607  -1.302  -1.367  1.00  0.00     0.007 C 
HETATM   14  C16 UNL     1      -4.943  -1.706  -0.761  1.00  0.00     0.036 C 
HETATM   15  C17 UNL     1      -5.897  -0.526  -0.742  1.00  0.00     0.223 C 
HETATM   16  C23 UNL     1      -5.420   0.481  -1.752  1.00  0.00     0.036 C 
HETATM   17  C24 UNL     1      -4.083   1.100  -1.412  1.00  0.00     0.007 C 
BRANCH  15  18
HETATM   18  N5  UNL     1      -6.008  -0.030   0.583  1.00  0.00     0.093 N 
HETATM   19  C18 UNL     1      -6.883   1.073   0.768  1.00  0.00     0.273 C 
HETATM   20  C19 UNL     1      -8.342   0.673   0.600  1.00  0.00     0.030 C 
HETATM   21  C20 UNL     1      -8.681  -0.173   1.835  1.00  0.00     0.003 C 
HETATM   22  C21 UNL     1      -7.430  -0.728   2.467  1.00  0.00     0.030 C 
HETATM   23  C22 UNL     1      -6.379  -1.102   1.462  1.00  0.00     0.273 C 
ENDBRANCH  15  18
ENDBRANCH   9  12
ENDBRANCH   8   9
ENDBRANCH   7   8
ENDBRANCH   4   7
BRANCH   5  24
HETATM   24  O2  UNL     1       1.909   0.263   2.027  1.00  0.00    -0.353 OA
HETATM   25  C26 UNL     1       2.714   0.569   3.146  1.00  0.00     0.210 C 
ENDBRANCH   5  24
BRANCH   1  26
HETATM   26  N4  UNL     1       5.733   0.903  -0.839  1.00  0.00    -0.191 N 
ATOM     27  H4  UNL     1       5.970   1.785  -1.293  1.00  0.00     0.184 HD
BRANCH  26  28
HETATM   28  C5  UNL     1       6.694   0.119  -0.480  1.00  0.00     0.699 A 
HETATM   29  N3  UNL     1       6.523  -1.069   0.124  1.00  0.00    -0.164 N 
HETATM   30  C4  UNL     1       7.546  -1.863   0.485  1.00  0.00     0.208 A 
ATOM     31  H3  UNL     1       5.572  -1.383   0.318  1.00  0.00     0.186 HD
HETATM   32  N2  UNL     1       8.792  -1.449   0.229  1.00  0.00    -0.165 N 
HETATM   33 CL1  UNL     1       7.320  -3.406   1.271  1.00  0.00    -0.044 Cl
HETATM   34  C3  UNL     1       9.015  -0.249  -0.383  1.00  0.00     0.695 A 
ATOM     35  H2  UNL     1       9.583  -2.036   0.494  1.00  0.00     0.186 HD
HETATM   36  N6  UNL     1       7.956   0.507  -0.724  1.00  0.00    -0.022 N 
ATOM     37  H6  UNL     1       8.117   1.404  -1.183  1.00  0.00     0.203 HD
BRANCH  34  38
HETATM   38  N1  UNL     1      10.230   0.127  -0.619  1.00  0.00    -0.226 N 
ATOM     39  H1  UNL     1      10.396   1.023  -1.078  1.00  0.00     0.177 HD
BRANCH  38  40
HETATM   40  C2  UNL     1      11.345  -0.688  -0.249  1.00  0.00     0.133 C 
HETATM   41  C1  UNL     1      12.205   0.059   0.752  1.00  0.00     0.027 C 
ENDBRANCH  38  40
ENDBRANCH  34  38
ENDBRANCH  26  28
ENDBRANCH   1  26
TORSDOF 10
