REMARK  8 active torsions:
REMARK  status: ('A' for Active; 'I' for Inactive)
REMARK    1  A    between atoms: C3_5  and  S1_6 
REMARK    2  A    between atoms: S1_6  and  C4_7 
REMARK    3  A    between atoms: C4_7  and  C5_8 
REMARK    4  A    between atoms: C6_9  and  O1_10 
REMARK    5  A    between atoms: O1_10  and  C7_11 
REMARK    6  A    between atoms: C7_11  and  C8_12 
REMARK    7  A    between atoms: C22_33  and  C23_34 
REMARK    8  A    between atoms: C23_34  and  C24_35 
ROOT
HETATM    1  C5  UNL     1      -1.819  -1.271   0.131  1.00  0.00     0.036 C 
HETATM    2  C6  UNL     1      -3.209  -0.682  -0.220  1.00  0.00     0.153 C 
HETATM    3  C14 UNL     1      -4.347  -1.378   0.409  1.00  0.00     0.264 C 
HETATM    4  N2  UNL     1      -4.290  -2.823   0.283  1.00  0.00    -0.072 N 
ATOM      5  H21 UNL     1      -5.161  -3.210  -0.081  1.00  0.00     0.277 HD
ATOM      6  H22 UNL     1      -4.290  -3.286   1.192  1.00  0.00     0.277 HD
HETATM    7  C15 UNL     1      -3.146  -3.206  -0.523  1.00  0.00     0.242 C 
HETATM    8  C16 UNL     1      -1.940  -2.755   0.317  1.00  0.00    -0.007 C 
HETATM    9  C17 UNL     1      -2.168  -3.212   1.727  1.00  0.00     0.014 C 
HETATM   10  C18 UNL     1      -2.176  -4.739   1.501  1.00  0.00     0.038 C 
HETATM   11  C19 UNL     1      -1.215  -4.979   0.385  1.00  0.00     0.171 C 
HETATM   12  F1  UNL     1      -0.113  -5.646   0.936  1.00  0.00    -0.249 F 
HETATM   13  C20 UNL     1      -0.793  -3.586  -0.120  1.00  0.00     0.049 C 
ENDROOT
BRANCH   1  14
HETATM   14  C4  UNL     1      -1.372  -0.522   1.332  1.00  0.00     0.090 C 
BRANCH  14  15
HETATM   15  S1  UNL     1       0.232  -0.843   1.995  1.00  0.00    -0.093 SA
BRANCH  15  16
HETATM   16  C3  UNL     1       1.596  -0.208   1.055  1.00  0.00     0.147 A 
HETATM   17  N1  UNL     1       2.080   1.033   1.219  1.00  0.00    -0.340 N 
HETATM   18  C2  UNL     1       3.131   1.499   0.473  1.00  0.00     0.019 A 
ATOM     19  H1  UNL     1       1.655   1.644   1.916  1.00  0.00     0.167 HD
HETATM   20  C1  UNL     1       3.603   2.903   0.687  1.00  0.00     0.069 C 
HETATM   21  C22 UNL     1       3.742   0.728  -0.472  1.00  0.00     0.036 A 
HETATM   22  C21 UNL     1       3.215  -0.567  -0.623  1.00  0.00     0.255 A 
HETATM   23  N3  UNL     1       2.186  -0.964   0.135  1.00  0.00    -0.303 N 
HETATM   24  O2  UNL     1       3.725  -1.340  -1.481  1.00  0.00    -0.268 OA
ATOM     25  H3  UNL     1       1.831  -1.910  -0.003  1.00  0.00     0.171 HD
BRANCH  21  26
HETATM   26  C23 UNL     1       4.876   1.142  -1.303  1.00  0.00     0.087 C 
BRANCH  26  27
HETATM   27  C24 UNL     1       6.198   1.133  -0.670  1.00  0.00    -0.023 A 
HETATM   28  C25 UNL     1       6.849   2.302  -0.369  1.00  0.00     0.097 A 
HETATM   29  N4  UNL     1       8.038   2.324   0.208  1.00  0.00    -0.362 N 
HETATM   30  C26 UNL     1       8.645   1.166   0.517  1.00  0.00     0.180 A 
ATOM     31  H4  UNL     1       8.491   3.214   0.417  1.00  0.00     0.166 HD
HETATM   32  N5  UNL     1       8.030   0.004   0.232  1.00  0.00    -0.362 N 
HETATM   33  C27 UNL     1       6.823  -0.052  -0.352  1.00  0.00     0.097 A 
ATOM     34  H5  UNL     1       8.500  -0.870   0.469  1.00  0.00     0.166 HD
ENDBRANCH  26  27
ENDBRANCH  21  26
ENDBRANCH  15  16
ENDBRANCH  14  15
ENDBRANCH   1  14
BRANCH   2  35
HETATM   35  O1  UNL     1      -3.227   0.667   0.101  1.00  0.00    -0.379 OA
BRANCH  35  36
HETATM   36  C7  UNL     1      -3.353   1.500  -0.994  1.00  0.00     0.206 C 
BRANCH  36  37
HETATM   37  C8  UNL     1      -3.361   2.904  -0.526  1.00  0.00    -0.035 A 
HETATM   38  C9  UNL     1      -3.491   3.928  -1.431  1.00  0.00     0.009 A 
HETATM   39  C10 UNL     1      -3.501   5.261  -1.009  1.00  0.00     0.001 A 
HETATM   40  C11 UNL     1      -3.380   5.557   0.326  1.00  0.00     0.000 A 
HETATM   41  C12 UNL     1      -3.248   4.538   1.245  1.00  0.00     0.001 A 
HETATM   42  C13 UNL     1      -3.241   3.225   0.805  1.00  0.00     0.009 A 
ENDBRANCH  36  37
ENDBRANCH  35  36
ENDBRANCH   2  35
TORSDOF 8
