REMARK  7 active torsions:
REMARK  status: ('A' for Active; 'I' for Inactive)
REMARK    1  A    between atoms: O1_2  and  C2_3 
REMARK    2  A    between atoms: C3_4  and  C4_5 
REMARK    3  A    between atoms: C4_5  and  O2_6 
REMARK    4  A    between atoms: C7_11  and  C8_12 
REMARK    5  A    between atoms: C11_15  and  S1_16 
REMARK    6  A    between atoms: S1_16  and  N1_17 
REMARK    7  A    between atoms: C14_24  and  O5_25 
ROOT
HETATM    1  C2  UNL     1      -3.556  -0.180  -1.172  1.00  0.00     0.099 A 
HETATM    2  C3  UNL     1      -3.651  -0.529   0.157  1.00  0.00     0.003 A 
HETATM    3  C5  UNL     1      -2.507  -0.660   0.907  1.00  0.00     0.050 A 
HETATM    4  C6  UNL     1      -1.248  -0.441   0.330  1.00  0.00     0.091 A 
HETATM    5  O3  UNL     1      -0.058  -0.503   0.826  1.00  0.00    -0.306 OA
HETATM    6  C7  UNL     1       0.883  -0.218  -0.073  1.00  0.00     0.122 A 
HETATM    7  C14 UNL     1       0.211   0.044  -1.236  1.00  0.00     0.115 A 
HETATM    8  C15 UNL     1      -1.170  -0.093  -1.000  1.00  0.00     0.058 A 
HETATM    9  C16 UNL     1      -2.306   0.043  -1.769  1.00  0.00     0.083 A 
HETATM   10 CL2  UNL     1      -2.218   0.483  -3.455  1.00  0.00    -0.080 Cl
ENDROOT
BRANCH   6  11
HETATM   11  C8  UNL     1       2.311  -0.229   0.247  1.00  0.00     0.022 A 
HETATM   12  C9  UNL     1       2.716  -1.000   1.362  1.00  0.00     0.017 A 
HETATM   13  C10 UNL     1       4.010  -1.044   1.786  1.00  0.00     0.024 A 
HETATM   14  C11 UNL     1       5.002  -0.339   1.153  1.00  0.00     0.053 A 
HETATM   15  C12 UNL     1       4.644   0.413   0.078  1.00  0.00     0.047 A 
HETATM   16  C13 UNL     1       3.307   0.458  -0.357  1.00  0.00     0.048 A 
HETATM   17 CL1  UNL     1       2.986   1.550  -1.699  1.00  0.00    -0.083 Cl
BRANCH  14  18
HETATM   18  S1  UNL     1       6.674  -0.416   1.723  1.00  0.00     0.144 S 
HETATM   19  O4  UNL     1       7.612  -0.161   0.553  1.00  0.00    -0.230 OA
BRANCH  18  20
HETATM   20  N1  UNL     1       6.878   0.871   2.901  1.00  0.00    -0.346 NA
ATOM     21  H12 UNL     1       6.249   0.700   3.686  1.00  0.00     0.166 HD
ATOM     22  H11 UNL     1       7.843   0.827   3.230  1.00  0.00     0.166 HD
ENDBRANCH  18  20
ENDBRANCH  14  18
ENDBRANCH   6  11
BRANCH   7  23
HETATM   23  O5  UNL     1       0.689   0.377  -2.459  1.00  0.00    -0.357 OA
ATOM     24  H5  UNL     1       0.223   0.559  -3.266  1.00  0.00     0.217 HD
ENDBRANCH   7  23
BRANCH   2  25
HETATM   25  C4  UNL     1      -5.009  -0.745   0.706  1.00  0.00     0.205 C 
BRANCH  25  26
HETATM   26  O2  UNL     1      -4.916  -1.093   2.072  1.00  0.00    -0.396 OA
ATOM     27  H2  UNL     1      -5.787  -1.232   2.424  1.00  0.00     0.209 HD
ENDBRANCH  25  26
ENDBRANCH   2  25
BRANCH   1  28
HETATM   28  O1  UNL     1      -4.703  -0.044  -1.942  1.00  0.00    -0.354 OA
HETATM   29  C1  UNL     1      -5.349   1.212  -2.025  1.00  0.00     0.210 C 
ENDBRANCH   1  28
TORSDOF 7
