REMARK  7 active torsions:
REMARK  status: ('A' for Active; 'I' for Inactive)
REMARK    1  A    between atoms: O1_1  and  C1_3 
REMARK    2  A    between atoms: C3_6  and  N1_7 
REMARK    3  A    between atoms: N1_7  and  C4_9 
REMARK    4  A    between atoms: C4_9  and  O2_10 
REMARK    5  A    between atoms: C4_9  and  C5_12 
REMARK    6  A    between atoms: N2_14  and  C7_15 
REMARK    7  A    between atoms: C7_15  and  C8_16 
ROOT
HETATM    1  C5  UNL     1       0.112   0.396  -0.125  1.00  0.00     0.026 A 
HETATM    2  C6  UNL     1      -0.895  -0.416  -0.608  1.00  0.00     0.105 A 
HETATM    3  N2  UNL     1      -1.966   0.354  -0.955  1.00  0.00    -0.340 N 
HETATM    4  C12 UNL     1      -1.688   1.639  -0.713  1.00  0.00     0.124 A 
HETATM    5 CL1  UNL     1      -2.705   3.049  -0.972  1.00  0.00    -0.063 Cl
HETATM    6  C13 UNL     1      -0.409   1.682  -0.200  1.00  0.00     0.061 A 
HETATM    7 BR1  UNL     1       0.534   3.245   0.335  1.00  0.00    -0.047 Br
ENDROOT
BRANCH   1   8
HETATM    8  C4  UNL     1       1.468   0.006   0.374  1.00  0.00     0.257 C 
BRANCH   8   9
HETATM    9  N1  UNL     1       2.412   0.908  -0.197  1.00  0.00    -0.340 N 
ATOM     10  H1  UNL     1       2.056   1.748  -0.654  1.00  0.00     0.164 HD
BRANCH   9  11
HETATM   11  C3  UNL     1       3.701   0.726  -0.171  1.00  0.00     0.148 A 
HETATM   12  S1  UNL     1       4.878   1.763  -0.833  1.00  0.00    -0.062 SA
HETATM   13  C2  UNL     1       6.273   0.870  -0.409  1.00  0.00     0.109 A 
HETATM   14  C1  UNL     1       5.726  -0.205   0.235  1.00  0.00     0.148 A 
HETATM   15  N3  UNL     1       4.431  -0.262   0.347  1.00  0.00    -0.317 N 
ATOM     16  H3  UNL     1       3.984  -1.046   0.821  1.00  0.00     0.170 HD
BRANCH  14  17
HETATM   17  O1  UNL     1       6.584  -1.213   0.757  1.00  0.00    -0.346 OA
ATOM     18  H1  UNL     1       6.204  -1.960   1.204  1.00  0.00     0.219 HD
ENDBRANCH  14  17
ENDBRANCH   9  11
ENDBRANCH   8   9
BRANCH   8  19
HETATM   19  O2  UNL     1       1.514   0.136   1.758  1.00  0.00    -0.372 OA
ATOM     20  H2  UNL     1       0.885  -0.465   2.139  1.00  0.00     0.212 HD
ENDBRANCH   8  19
ENDBRANCH   1   8
BRANCH   3  21
HETATM   21  C7  UNL     1      -3.232  -0.119  -1.507  1.00  0.00     0.194 C 
BRANCH  21  22
HETATM   22  C8  UNL     1      -4.212  -0.427  -0.431  1.00  0.00     0.070 A 
HETATM   23  C9  UNL     1      -4.411  -1.622   0.226  1.00  0.00     0.036 A 
HETATM   24  C10 UNL     1      -5.413  -1.437   1.132  1.00  0.00     0.027 A 
HETATM   25  C11 UNL     1      -5.802  -0.116   1.002  1.00  0.00     0.142 A 
HETATM   26  O3  UNL     1      -5.072   0.420   0.081  1.00  0.00    -0.325 OA
ENDBRANCH  21  22
ENDBRANCH   3  21
TORSDOF 7
