REMARK  6 active torsions:
REMARK  status: ('A' for Active; 'I' for Inactive)
REMARK    1  A    between atoms: C2_2  and  C4_4 
REMARK    2  A    between atoms: N1_10  and  O1_11 
REMARK    3  A    between atoms: C8_13  and  N2_14 
REMARK       I    between atoms: N2_14  and  C9_16 
REMARK    4  A    between atoms: C9_16  and  C10_18 
REMARK    5  A    between atoms: C10_18  and  C11_19 
REMARK    6  A    between atoms: C11_19  and  C12_20 
ROOT
HETATM    1  C4  UNL     1      -3.078   0.263   0.946  1.00  0.00     0.006 A 
HETATM    2  C5  UNL     1      -4.222   0.875   1.527  1.00  0.00     0.085 A 
HETATM    3 CL1  UNL     1      -5.909   0.338   1.291  1.00  0.00    -0.076 Cl
HETATM    4  S1  UNL     1      -3.663   2.167   2.414  1.00  0.00    -0.061 SA
HETATM    5  C6  UNL     1      -2.002   1.995   2.092  1.00  0.00     0.152 A 
HETATM    6  C7  UNL     1      -1.905   0.908   1.275  1.00  0.00     0.120 A 
HETATM    7  N1  UNL     1      -0.548   0.632   0.822  1.00  0.00    -0.049 N 
HETATM    8  C8  UNL     1       0.639   1.297   1.118  1.00  0.00     0.721 A 
HETATM    9  N3  UNL     1       0.726   2.363   1.914  1.00  0.00    -0.110 N 
ATOM     10  H3  UNL     1       1.634   2.796   2.080  1.00  0.00     0.197 HD
HETATM   11  S2  UNL     1      -0.642   2.999   2.645  1.00  0.00     0.285 S 
HETATM   12  O3  UNL     1      -0.922   4.432   2.262  1.00  0.00    -0.199 OA
HETATM   13  O4  UNL     1      -0.532   2.926   4.153  1.00  0.00    -0.199 OA
ENDROOT
BRANCH   8  14
HETATM   14  N2  UNL     1       1.927   0.947   0.630  1.00  0.00    -0.157 N 
HETATM   15  C9  UNL     1       2.443  -0.053  -0.158  1.00  0.00     0.235 C 
HETATM   16  O2  UNL     1       1.828  -0.996  -0.666  1.00  0.00    -0.273 OA
ATOM     17  H2  UNL     1       2.646   1.600   0.942  1.00  0.00     0.187 HD
BRANCH  15  18
HETATM   18  C10 UNL     1       3.940  -0.067  -0.486  1.00  0.00     0.105 C 
BRANCH  18  19
HETATM   19  C11 UNL     1       4.189  -1.281  -1.336  1.00  0.00     0.024 C 
BRANCH  19  20
HETATM   20  C12 UNL     1       5.644  -1.389  -1.733  1.00  0.00     0.115 C 
HETATM   21 CL2  UNL     1       6.070   0.048  -2.659  1.00  0.00    -0.130 Cl
ENDBRANCH  19  20
ENDBRANCH  18  19
ENDBRANCH  15  18
ENDBRANCH   8  14
BRANCH   7  22
HETATM   22  O1  UNL     1      -0.447  -0.274  -0.196  1.00  0.00    -0.269 OA
ATOM     23  H1  UNL     1       0.438  -0.454  -0.491  1.00  0.00     0.245 HD
ENDBRANCH   7  22
BRANCH   1  24
HETATM   24  C2  UNL     1      -3.400  -0.944   0.136  1.00  0.00     0.015 C 
HETATM   25  C1  UNL     1      -2.495  -2.077  -0.053  1.00  0.00     0.015 C 
HETATM   26  C3  UNL     1      -3.992  -0.476  -1.218  1.00  0.00     0.015 C 
ENDBRANCH   1  24
TORSDOF 6
