REMARK  4 active torsions:
REMARK  status: ('A' for Active; 'I' for Inactive)
REMARK    1  A    between atoms: C2_2  and  N1_4 
REMARK    2  A    between atoms: C5_6  and  C6_7 
REMARK    3  A    between atoms: C6_7  and  C7_8 
REMARK    4  A    between atoms: C13_19  and  C14_20 
ROOT
HETATM    1  C6  UNL     1      -0.807  -0.975   0.024  1.00  0.00     0.143 C 
HETATM    2  N2  UNL     1      -1.640  -1.037   1.177  1.00  0.00    -0.106 NA
HETATM    3  N3  UNL     1      -2.874  -1.386   0.663  1.00  0.00    -0.038 NA
HETATM    4  N4  UNL     1      -2.975  -0.906  -0.624  1.00  0.00    -0.117 NA
HETATM    5  C13 UNL     1      -1.696  -0.221  -0.900  1.00  0.00     0.166 C 
ENDROOT
BRANCH   1   6
HETATM    6  C5  UNL     1       0.538  -0.433   0.234  1.00  0.00     0.077 A 
HETATM    7  C4  UNL     1       0.947   0.708   0.877  1.00  0.00     0.141 A 
HETATM    8  N1  UNL     1       2.286   0.806   0.830  1.00  0.00    -0.283 N 
HETATM    9  N6  UNL     1       2.711  -0.245   0.175  1.00  0.00    -0.240 N 
HETATM   10  N5  UNL     1       1.702  -1.013  -0.201  1.00  0.00    -0.286 N 
ATOM     11  H6  UNL     1       3.692  -0.445  -0.020  1.00  0.00     0.208 HD
ATOM     12  H5  UNL     1       1.777  -1.886  -0.724  1.00  0.00     0.188 HD
BRANCH   8  13
HETATM   13  C2  UNL     1       3.053   1.881   1.404  1.00  0.00     0.101 C 
HETATM   14  C1  UNL     1       4.087   1.259   2.349  1.00  0.00     0.034 C 
HETATM   15  C3  UNL     1       3.838   2.617   0.308  1.00  0.00     0.034 C 
ENDBRANCH   8  13
ENDBRANCH   1   6
BRANCH   1  16
HETATM   16  C7  UNL     1      -0.667  -2.368  -0.521  1.00  0.00    -0.022 A 
HETATM   17  C8  UNL     1      -0.834  -3.438   0.310  1.00  0.00     0.011 A 
HETATM   18  C9  UNL     1      -0.698  -4.744  -0.179  1.00  0.00     0.026 A 
HETATM   19  C10 UNL     1      -0.394  -4.972  -1.504  1.00  0.00     0.055 A 
HETATM   20 CL1  UNL     1      -0.217  -6.609  -2.153  1.00  0.00    -0.083 Cl
HETATM   21  C11 UNL     1      -0.231  -3.871  -2.321  1.00  0.00     0.056 A 
HETATM   22 CL2  UNL     1       0.159  -4.201  -4.017  1.00  0.00    -0.083 Cl
HETATM   23  C12 UNL     1      -0.364  -2.572  -1.847  1.00  0.00     0.035 A 
ENDBRANCH   1  16
BRANCH   5  24
HETATM   24  C14 UNL     1      -1.828   1.217  -0.660  1.00  0.00    -0.035 A 
HETATM   25  C15 UNL     1      -1.167   2.138  -1.455  1.00  0.00     0.009 A 
HETATM   26  C16 UNL     1      -1.292   3.491  -1.251  1.00  0.00     0.001 A 
HETATM   27  C17 UNL     1      -2.094   3.967  -0.234  1.00  0.00     0.000 A 
HETATM   28  C18 UNL     1      -2.771   3.090   0.581  1.00  0.00     0.001 A 
HETATM   29  C19 UNL     1      -2.621   1.722   0.347  1.00  0.00     0.009 A 
ENDBRANCH   5  24
TORSDOF 4
