REMARK  8 active torsions:
REMARK  status: ('A' for Active; 'I' for Inactive)
REMARK    1  A    between atoms: N3_9  and  C7_10 
REMARK    2  A    between atoms: C7_10  and  O1_11 
REMARK    3  A    between atoms: C7_10  and  C8_13 
REMARK    4  A    between atoms: C8_13  and  O2_14 
REMARK    5  A    between atoms: C8_13  and  C9_16 
REMARK    6  A    between atoms: C9_16  and  N4_17 
REMARK    7  A    between atoms: N4_17  and  C11_19 
REMARK    8  A    between atoms: C14_22  and  O3_24 
ROOT
HETATM    1  C1  UNL     1       1.281  -3.084   0.435  1.00  0.00     0.222 C 
HETATM    2  N1  UNL     1       0.330  -2.430   0.472  1.00  0.00    -0.460 NA
HETATM    3  C2  UNL     1      -0.823  -1.695   0.529  1.00  0.00     0.218 C 
HETATM    4  C3  UNL     1      -1.308  -1.617   1.986  1.00  0.00     0.061 C 
HETATM    5  C4  UNL     1      -2.031  -2.841   2.350  1.00  0.00     0.019 C 
HETATM    6  C5  UNL     1      -2.318  -0.457   1.848  1.00  0.00     0.068 C 
HETATM    7  N2  UNL     1      -1.952   0.749   1.749  1.00  0.00    -0.371 N 
HETATM    8  C6  UNL     1      -0.660   1.305   1.765  1.00  0.00     0.256 C 
HETATM    9  N3  UNL     1      -0.136   0.713   0.450  1.00  0.00    -0.313 N 
HETATM   10  C13 UNL     1      -0.806  -0.375  -0.201  1.00  0.00     0.063 C 
HETATM   11  C14 UNL     1      -2.126  -0.001  -0.814  1.00  0.00     0.105 C 
HETATM   12  C15 UNL     1      -1.825   0.727  -2.152  1.00  0.00     0.053 C 
HETATM   13  C16 UNL     1      -3.205   0.751  -0.216  1.00  0.00     0.015 A 
HETATM   14  C17 UNL     1      -4.603   0.308  -0.624  1.00  0.00     0.021 C 
HETATM   15  C18 UNL     1      -3.152   2.245   0.055  1.00  0.00     0.040 A 
HETATM   16  C19 UNL     1      -3.140   1.300   1.165  1.00  0.00     0.097 A 
ENDROOT
BRANCH   9  17
HETATM   17  C7  UNL     1       0.982   1.406   0.002  1.00  0.00     0.150 C 
BRANCH  17  18
HETATM   18  O1  UNL     1       1.328   2.404   0.784  1.00  0.00    -0.347 OA
ATOM     19  H1  UNL     1       2.092   2.878   0.478  1.00  0.00     0.219 HD
ENDBRANCH  17  18
BRANCH  17  20
HETATM   20  C8  UNL     1       1.837   1.257  -1.148  1.00  0.00     0.221 C 
BRANCH  20  21
HETATM   21  O2  UNL     1       2.574   2.475  -1.355  1.00  0.00    -0.386 OA
ATOM     22  H2  UNL     1       3.138   2.377  -2.113  1.00  0.00     0.210 HD
ENDBRANCH  20  21
BRANCH  20  23
HETATM   23  C9  UNL     1       2.888   0.211  -1.178  1.00  0.00     0.311 C 
BRANCH  23  24
HETATM   24  N4  UNL     1       3.957   0.313  -0.239  1.00  0.00     0.086 N 
HETATM   25  C10 UNL     1       3.574   0.071   1.113  1.00  0.00     0.310 C 
BRANCH  24  26
HETATM   26  C11 UNL     1       4.996  -0.637  -0.585  1.00  0.00     0.267 C 
HETATM   27  C12 UNL     1       5.716  -0.319  -1.860  1.00  0.00     0.037 C 
ENDBRANCH  24  26
ENDBRANCH  23  24
ENDBRANCH  20  23
ENDBRANCH  17  20
ENDBRANCH   9  17
BRANCH  11  28
HETATM   28  O3  UNL     1      -2.659  -1.240  -1.268  1.00  0.00    -0.383 OA
ATOM     29  H3  UNL     1      -3.494  -1.004  -1.656  1.00  0.00     0.211 HD
ENDBRANCH  11  28
TORSDOF 8
