REMARK  6 active torsions:
REMARK  status: ('A' for Active; 'I' for Inactive)
REMARK       I    between atoms: C3_5  and  N3_7 
REMARK    1  A    between atoms: N4_10  and  C6_11 
REMARK    2  A    between atoms: C6_11  and  C7_13 
REMARK    3  A    between atoms: C7_13  and  C8_14 
REMARK    4  A    between atoms: C8_14  and  N5_15 
REMARK    5  A    between atoms: C8_14  and  C9_19 
REMARK    6  A    between atoms: C9_19  and  N6_20 
ROOT
HETATM    1  C1  UNL     1       6.462  -0.188   4.212  1.00  0.00     0.037 C 
HETATM    2  C2  UNL     1       5.696  -0.420   3.295  1.00  0.00     0.001 C 
HETATM    3  N1  UNL     1       4.806  -0.677   2.254  1.00  0.00    -0.290 N 
ATOM      4  H1  UNL     1       3.845  -0.954   2.455  1.00  0.00     0.178 HD
HETATM    5  C3  UNL     1       5.212  -0.560   1.023  1.00  0.00     0.198 C 
HETATM    6  N2  UNL     1       6.575  -0.166   0.786  1.00  0.00    -0.063 NA
HETATM    7  N3  UNL     1       4.318  -0.818  -0.033  1.00  0.00    -0.352 N 
HETATM    8  C4  UNL     1       4.030   0.166  -1.026  1.00  0.00     0.145 C 
HETATM    9  C5  UNL     1       2.538   0.420  -1.049  1.00  0.00     0.143 C 
HETATM   10  N4  UNL     1       1.802  -0.794  -1.064  1.00  0.00    -0.372 N 
HETATM   11  C17 UNL     1       2.198  -1.971  -0.360  1.00  0.00     0.143 C 
HETATM   12  C18 UNL     1       3.659  -2.090  -0.149  1.00  0.00     0.145 C 
ENDROOT
BRANCH  10  13
HETATM   13  C6  UNL     1       0.564  -0.838  -1.794  1.00  0.00     0.077 C 
HETATM   14  S1  UNL     1      -0.187  -2.303  -1.855  1.00  0.00    -0.066 SA
BRANCH  13  15
HETATM   15  C7  UNL     1      -0.008   0.310  -2.500  1.00  0.00     0.103 C 
BRANCH  15  16
HETATM   16  C8  UNL     1      -0.536   1.433  -1.656  1.00  0.00     0.217 C 
BRANCH  16  17
HETATM   17  N5  UNL     1      -1.013   2.501  -2.564  1.00  0.00    -0.073 N 
ATOM     18  H53 UNL     1      -0.298   2.806  -3.225  1.00  0.00     0.274 HD
ATOM     19  H52 UNL     1      -1.694   2.165  -3.245  1.00  0.00     0.274 HD
ATOM     20  H51 UNL     1      -1.372   3.264  -1.990  1.00  0.00     0.274 HD
ENDBRANCH  16  17
BRANCH  16  21
HETATM   21  C9  UNL     1      -1.444   1.158  -0.567  1.00  0.00     0.285 C 
BRANCH  21  22
HETATM   22  N6  UNL     1      -2.726   0.587  -0.622  1.00  0.00    -0.012 N 
HETATM   23  C10 UNL     1      -3.124   0.280  -1.982  1.00  0.00     0.289 C 
HETATM   24  C11 UNL     1      -2.887  -0.460   0.233  1.00  0.00     0.037 C 
HETATM   25  C12 UNL     1      -2.973  -1.549   1.100  1.00  0.00     0.116 C 
HETATM   26  C13 UNL     1      -4.168  -1.211   2.064  1.00  0.00     0.040 C 
HETATM   27  C14 UNL     1      -4.480   0.283   2.029  1.00  0.00    -0.028 C 
HETATM   28  C15 UNL     1      -4.758   1.000   0.820  1.00  0.00    -0.002 C 
HETATM   29  C16 UNL     1      -3.751   1.603  -0.101  1.00  0.00     0.279 C 
ENDBRANCH  21  22
ENDBRANCH  16  21
ENDBRANCH  15  16
ENDBRANCH  13  15
ENDBRANCH  10  13
TORSDOF 6
