REMARK  8 active torsions:
REMARK  status: ('A' for Active; 'I' for Inactive)
REMARK    1  A    between atoms: C2_2  and  C4_4 
REMARK    2  A    between atoms: C9_9  and  C10_10 
REMARK    3  A    between atoms: C13_13  and  O1_14 
REMARK    4  A    between atoms: C15_17  and  C16_18 
REMARK    5  A    between atoms: C16_18  and  C17_19 
REMARK    6  A    between atoms: C16_18  and  O3_23 
REMARK    7  A    between atoms: C17_19  and  C18_20 
REMARK    8  A    between atoms: C18_20  and  O2_21 
ROOT
HETATM    1  C10 UNL     1       0.132   0.015   0.097  1.00  0.00     0.004 C 
HETATM    2  C11 UNL     1       1.412   0.020   0.160  1.00  0.00    -0.069 C 
HETATM    3  C12 UNL     1       1.998   1.105   1.049  1.00  0.00     0.066 C 
HETATM    4  C13 UNL     1       3.195   0.596   1.804  1.00  0.00     0.122 C 
HETATM    5  C14 UNL     1       4.113  -0.199   0.934  1.00  0.00     0.040 C 
HETATM    6  C15 UNL     1       3.680  -0.067  -0.540  1.00  0.00     0.031 C 
HETATM    7  C19 UNL     1       2.348  -0.889  -0.506  1.00  0.00    -0.018 C 
HETATM    8  C20 UNL     1       1.960  -1.468  -1.806  1.00  0.00     0.020 C 
HETATM    9  C21 UNL     1       2.556  -2.144   0.399  1.00  0.00     0.020 C 
ENDROOT
BRANCH   1  10
HETATM   10  C9  UNL     1      -0.867  -0.772  -0.569  1.00  0.00     0.003 C 
HETATM   11  C8  UNL     1      -2.186  -0.536  -0.451  1.00  0.00    -0.075 C 
HETATM   12  C7  UNL     1      -2.825   0.505   0.333  1.00  0.00     0.019 C 
HETATM   13  C22 UNL     1      -3.244  -1.306  -1.129  1.00  0.00     0.035 C 
HETATM   14  C6  UNL     1      -3.417   1.615  -0.510  1.00  0.00     0.010 C 
HETATM   15  C24 UNL     1      -4.064  -0.236   0.875  1.00  0.00     0.002 C 
HETATM   16  C5  UNL     1      -4.908   1.606  -0.286  1.00  0.00     0.010 C 
HETATM   17  C4  UNL     1      -5.027   0.911   1.036  1.00  0.00     0.018 C 
HETATM   18  C23 UNL     1      -4.417  -1.203  -0.199  1.00  0.00     0.010 C 
BRANCH  17  19
HETATM   19  C2  UNL     1      -6.397   0.489   1.375  1.00  0.00    -0.089 C 
HETATM   20  C1  UNL     1      -7.427   0.771   0.607  1.00  0.00     0.014 C 
HETATM   21  C3  UNL     1      -6.590  -0.281   2.634  1.00  0.00     0.043 C 
ENDBRANCH  17  19
ENDBRANCH   1  10
BRANCH   4  22
HETATM   22  O1  UNL     1       3.846   1.711   2.337  1.00  0.00    -0.395 OA
ATOM     23  H1  UNL     1       4.602   1.389   2.814  1.00  0.00     0.210 HD
ENDBRANCH   4  22
BRANCH   6  24
HETATM   24  C16 UNL     1       4.734  -0.724  -1.391  1.00  0.00     0.152 C 
BRANCH  24  25
HETATM   25  C17 UNL     1       6.117  -0.280  -1.096  1.00  0.00     0.060 C 
BRANCH  25  26
HETATM   26  C18 UNL     1       6.485   1.138  -1.260  1.00  0.00     0.166 C 
BRANCH  26  27
HETATM   27  O2  UNL     1       6.393   1.647  -2.546  1.00  0.00    -0.401 OA
ATOM     28  H2  UNL     1       6.630   2.561  -2.652  1.00  0.00     0.209 HD
ENDBRANCH  26  27
ENDBRANCH  25  26
ENDBRANCH  24  25
BRANCH  24  29
HETATM   29  O3  UNL     1       4.561  -0.300  -2.751  1.00  0.00    -0.278 OA
HETATM   30 CL1  UNL     1       3.531   1.002  -2.947  1.00  0.00     0.062 Cl
ENDBRANCH  24  29
ENDBRANCH   6  24
TORSDOF 8
