REMARK  5 active torsions:
REMARK  status: ('A' for Active; 'I' for Inactive)
REMARK    1  A    between atoms: C2_2  and  N1_4 
REMARK       I    between atoms: C4_6  and  N2_7 
REMARK       I    between atoms: C4_6  and  N4_21 
REMARK    2  A    between atoms: N2_7  and  C5_9 
REMARK    3  A    between atoms: C10_15  and  N3_16 
REMARK    4  A    between atoms: N4_21  and  C15_23 
REMARK    5  A    between atoms: N5_26  and  C18_27 
ROOT
HETATM    1  N1  UNL     1      -1.093  -1.895  -1.701  1.00  0.00    -0.222 N 
ATOM      2  H1  UNL     1      -1.982  -1.713  -2.166  1.00  0.00     0.178 HD
HETATM    3  C4  UNL     1      -0.804  -1.182  -0.670  1.00  0.00     0.675 C 
HETATM    4  N2  UNL     1      -1.647  -0.162  -0.144  1.00  0.00    -0.190 N 
ATOM      5  H2  UNL     1      -1.554   0.808  -0.445  1.00  0.00     0.184 HD
HETATM    6  N4  UNL     1       0.427  -1.425  -0.014  1.00  0.00    -0.222 N 
ATOM      7  H4  UNL     1       0.642  -2.372   0.299  1.00  0.00     0.178 HD
ENDROOT
BRANCH   1   8
HETATM    8  C2  UNL     1      -0.263  -2.920  -2.242  1.00  0.00     0.091 C 
HETATM    9  C1  UNL     1      -0.474  -3.105  -3.741  1.00  0.00     0.032 C 
HETATM   10  C3  UNL     1      -0.343  -4.229  -1.508  1.00  0.00     0.032 C 
ENDBRANCH   1   8
BRANCH   4  11
HETATM   11  C5  UNL     1      -2.610  -0.540   0.804  1.00  0.00     0.077 A 
HETATM   12  C6  UNL     1      -2.729  -1.850   1.252  1.00  0.00     0.056 A 
HETATM   13  C7  UNL     1      -3.640  -2.268   2.185  1.00  0.00     0.036 A 
HETATM   14 CL1  UNL     1      -3.731  -3.953   2.705  1.00  0.00    -0.084 Cl
HETATM   15  C8  UNL     1      -4.499  -1.339   2.719  1.00  0.00     0.026 A 
HETATM   16  C9  UNL     1      -4.410  -0.030   2.298  1.00  0.00     0.033 A 
HETATM   17  C10 UNL     1      -3.464   0.378   1.336  1.00  0.00     0.058 A 
BRANCH  17  18
HETATM   18  N3  UNL     1      -3.474   1.737   0.968  1.00  0.00    -0.379 N 
HETATM   19  C11 UNL     1      -3.805   2.369  -0.293  1.00  0.00     0.123 C 
HETATM   20  C12 UNL     1      -4.492   3.669   0.056  1.00  0.00     0.021 C 
HETATM   21  C13 UNL     1      -4.401   3.721   1.562  1.00  0.00     0.021 C 
HETATM   22  C14 UNL     1      -3.150   2.903   1.813  1.00  0.00     0.123 C 
ENDBRANCH  17  18
ENDBRANCH   4  11
BRANCH   6  23
HETATM   23  C15 UNL     1       1.388  -0.374   0.226  1.00  0.00     0.102 C 
HETATM   24  C16 UNL     1       2.593  -0.903   0.931  1.00  0.00     0.056 C 
HETATM   25  C17 UNL     1       3.813  -0.993   0.048  1.00  0.00     0.275 C 
HETATM   26  N5  UNL     1       4.105   0.223  -0.647  1.00  0.00     0.092 N 
HETATM   27  C21 UNL     1       3.021   1.138  -0.750  1.00  0.00     0.275 C 
HETATM   28  C22 UNL     1       1.760   0.356  -1.047  1.00  0.00     0.056 C 
BRANCH  26  29
HETATM   29  C18 UNL     1       5.349   0.837  -0.242  1.00  0.00     0.215 C 
HETATM   30  C19 UNL     1       5.499   2.115  -1.079  1.00  0.00     0.042 C 
HETATM   31  C20 UNL     1       5.378   1.233   1.196  1.00  0.00     0.042 C 
ENDBRANCH  26  29
ENDBRANCH   6  23
TORSDOF 5
