REMARK  7 active torsions:
REMARK  status: ('A' for Active; 'I' for Inactive)
REMARK    1  A    between atoms: C2_2  and  C4_4 
REMARK    2  A    between atoms: C4_4  and  C5_5 
REMARK    3  A    between atoms: C5_5  and  C6_6 
REMARK    4  A    between atoms: C13_14  and  C14_15 
REMARK    5  A    between atoms: C15_16  and  C16_17 
REMARK    6  A    between atoms: C16_17  and  C19_20 
REMARK    7  A    between atoms: C21_25  and  O4_26 
ROOT
HETATM    1  C6  UNL     1      -1.881  -0.799   0.032  1.00  0.00     0.029 C 
HETATM    2  C7  UNL     1      -2.313  -1.704   1.141  1.00  0.00     0.025 C 
HETATM    3  C8  UNL     1      -1.495  -1.649  -1.126  1.00  0.00     0.158 C 
HETATM    4  O1  UNL     1      -2.338  -2.306  -1.820  1.00  0.00    -0.292 OA
HETATM    5  C9  UNL     1      -0.083  -1.759  -1.511  1.00  0.00     0.048 C 
HETATM    6  C10 UNL     1       0.921  -1.307  -0.807  1.00  0.00    -0.012 C 
HETATM    7  C11 UNL     1       0.616  -0.633   0.479  1.00  0.00    -0.008 C 
HETATM    8  C12 UNL     1       0.622  -1.763   1.484  1.00  0.00     0.021 C 
HETATM    9  C13 UNL     1       1.738   0.313   0.849  1.00  0.00     0.057 C 
HETATM   10  C20 UNL     1       1.311   1.706   1.200  1.00  0.00     0.207 C 
HETATM   11  F1  UNL     1       2.341   2.268   1.983  1.00  0.00    -0.246 F 
HETATM   12  C21 UNL     1       0.137   1.613   2.114  1.00  0.00     0.153 C 
HETATM   13  C22 UNL     1      -1.030   1.032   1.395  1.00  0.00     0.046 C 
HETATM   14  C23 UNL     1      -0.678   0.067   0.291  1.00  0.00    -0.016 C 
HETATM   15  C24 UNL     1      -0.528   0.919  -0.962  1.00  0.00     0.018 C 
ENDROOT
BRANCH   9  16
HETATM   16  C14 UNL     1       2.888   0.286  -0.094  1.00  0.00    -0.021 C 
HETATM   17  C15 UNL     1       4.052  -0.288   0.200  1.00  0.00    -0.011 C 
BRANCH  17  18
HETATM   18  C16 UNL     1       5.219  -0.336  -0.711  1.00  0.00     0.059 C 
HETATM   19  C17 UNL     1       4.856  -0.149  -2.154  1.00  0.00     0.031 C 
HETATM   20  C18 UNL     1       5.938  -1.683  -0.558  1.00  0.00     0.031 C 
BRANCH  18  21
HETATM   21  C19 UNL     1       6.208   0.694  -0.265  1.00  0.00     0.185 C 
HETATM   22  O2  UNL     1       6.566   1.635  -1.018  1.00  0.00    -0.647 OA
HETATM   23  O3  UNL     1       6.763   0.640   1.006  1.00  0.00    -0.647 OA
ENDBRANCH  18  21
ENDBRANCH  17  18
ENDBRANCH   9  16
BRANCH  12  24
HETATM   24  O4  UNL     1      -0.164   2.923   2.540  1.00  0.00    -0.393 OA
ATOM     25  H4  UNL     1      -0.912   2.864   3.122  1.00  0.00     0.210 HD
ENDBRANCH  12  24
BRANCH   1  26
HETATM   26  C5  UNL     1      -3.014   0.148  -0.236  1.00  0.00     0.018 C 
BRANCH  26  27
HETATM   27  C4  UNL     1      -4.315  -0.394  -0.648  1.00  0.00     0.005 C 
BRANCH  27  28
HETATM   28  C2  UNL     1      -5.253   0.825  -0.855  1.00  0.00    -0.023 C 
HETATM   29  C1  UNL     1      -5.339   1.563   0.481  1.00  0.00     0.009 C 
HETATM   30  C3  UNL     1      -6.630   0.372  -1.210  1.00  0.00     0.009 C 
ENDBRANCH  27  28
ENDBRANCH  26  27
ENDBRANCH   1  26
TORSDOF 7
