REMARK  7 active torsions:
REMARK  status: ('A' for Active; 'I' for Inactive)
REMARK    1  A    between atoms: N1_1  and  C1_5 
REMARK    2  A    between atoms: C1_5  and  C2_6 
REMARK    3  A    between atoms: C2_6  and  N2_7 
REMARK    4  A    between atoms: C15_21  and  C16_22 
REMARK    5  A    between atoms: C16_22  and  O1_23 
REMARK    6  A    between atoms: C16_22  and  C17_25 
REMARK    7  A    between atoms: C17_25  and  C18_27 
ROOT
HETATM    1  N2  UNL     1      -0.534   0.855  -0.909  1.00  0.00    -0.283 NA
HETATM    2  C3  UNL     1       0.464   0.638   0.088  1.00  0.00     0.095 C 
HETATM    3  C4  UNL     1       0.223   1.347   1.402  1.00  0.00     0.015 C 
HETATM    4  C5  UNL     1       0.945   0.612   2.545  1.00  0.00     0.001 C 
HETATM    5  C6  UNL     1       2.390   0.980   2.458  1.00  0.00     0.000 C 
HETATM    6  C7  UNL     1       3.311  -0.193   2.190  1.00  0.00     0.000 C 
HETATM    7  C8  UNL     1       4.246   0.066   1.034  1.00  0.00     0.000 C 
HETATM    8  C9  UNL     1       4.644  -1.151   0.271  1.00  0.00     0.000 C 
HETATM    9  C10 UNL     1       3.824  -1.385  -0.988  1.00  0.00     0.002 C 
HETATM   10  C11 UNL     1       2.998  -2.602  -0.793  1.00  0.00     0.024 C 
HETATM   11  C12 UNL     1       1.678  -2.623  -1.527  1.00  0.00     0.105 C 
HETATM   12 CL1  UNL     1       1.724  -4.109  -2.561  1.00  0.00    -0.121 Cl
HETATM   13  C13 UNL     1       1.469  -1.496  -2.430  1.00  0.00    -0.005 C 
HETATM   14  C14 UNL     1       0.553  -0.591  -2.538  1.00  0.00     0.020 C 
HETATM   15  C15 UNL     1      -0.674  -0.282  -1.822  1.00  0.00     0.024 C 
ENDROOT
BRANCH  15  16
HETATM   16  C16 UNL     1      -1.450  -1.414  -1.241  1.00  0.00     0.232 C 
BRANCH  16  17
HETATM   17  O1  UNL     1      -1.499  -2.439  -2.213  1.00  0.00    -0.382 OA
ATOM     18  H1  UNL     1      -1.994  -3.161  -1.843  1.00  0.00     0.211 HD
ENDBRANCH  16  17
BRANCH  16  19
HETATM   19  C17 UNL     1      -2.879  -1.052  -1.032  1.00  0.00     0.165 C 
HETATM   20  O2  UNL     1      -3.713  -1.486  -1.807  1.00  0.00    -0.294 OA
BRANCH  19  21
HETATM   21  C18 UNL     1      -3.357  -0.202   0.059  1.00  0.00     0.058 C 
HETATM   22  C19 UNL     1      -3.077  -0.780   1.431  1.00  0.00     0.012 C 
HETATM   23  C20 UNL     1      -3.847   0.189   2.305  1.00  0.00     0.001 C 
HETATM   24  C21 UNL     1      -5.151   0.298   1.543  1.00  0.00     0.001 C 
HETATM   25  C22 UNL     1      -4.860  -0.081   0.105  1.00  0.00     0.012 C 
ENDBRANCH  19  21
ENDBRANCH  16  19
ENDBRANCH  15  16
BRANCH   1  26
HETATM   26  C2  UNL     1      -0.370   2.037  -1.694  1.00  0.00     0.122 C 
BRANCH  26  27
HETATM   27  C1  UNL     1      -0.524   3.360  -1.101  1.00  0.00     0.244 C 
BRANCH  27  28
HETATM   28  N1  UNL     1      -1.845   3.563  -0.538  1.00  0.00    -0.078 N 
ATOM     29  H13 UNL     1      -2.572   3.384  -1.231  1.00  0.00     0.274 HD
ATOM     30  H12 UNL     1      -2.075   2.830   0.133  1.00  0.00     0.274 HD
ATOM     31  H11 UNL     1      -1.953   4.489  -0.123  1.00  0.00     0.274 HD
ENDBRANCH  27  28
ENDBRANCH  26  27
ENDBRANCH   1  26
TORSDOF 7
