REMARK  6 active torsions:
REMARK  status: ('A' for Active; 'I' for Inactive)
REMARK    1  A    between atoms: C3_3  and  C4_4 
REMARK    2  A    between atoms: C7_9  and  O2_10 
REMARK    3  A    between atoms: O2_10  and  C8_11 
REMARK    4  A    between atoms: C13_17  and  N2_18 
REMARK       I    between atoms: N2_18  and  C14_20 
REMARK       I    between atoms: C14_20  and  N3_22 
REMARK    5  A    between atoms: N3_22  and  C15_23 
REMARK    6  A    between atoms: N3_22  and  C22_30 
ROOT
HETATM    1  C1  UNL     1      -0.711   3.652  -0.226  1.00  0.00     0.052 C 
HETATM    2  C2  UNL     1      -1.778   2.663   0.070  1.00  0.00    -0.017 A 
HETATM    3  C3  UNL     1      -2.912   3.007   0.772  1.00  0.00     0.037 A 
HETATM    4  C5  UNL     1      -3.896   2.047   1.031  1.00  0.00     0.020 A 
HETATM    5  C6  UNL     1      -3.771   0.752   0.604  1.00  0.00     0.040 A 
HETATM    6  C7  UNL     1      -2.644   0.397  -0.096  1.00  0.00     0.096 A 
HETATM    7  C13 UNL     1      -1.667   1.355  -0.352  1.00  0.00     0.076 A 
ENDROOT
BRANCH   7   8
HETATM    8  N2  UNL     1      -0.489   1.004  -1.078  1.00  0.00    -0.306 N 
HETATM    9  C14 UNL     1       0.679   0.534  -0.452  1.00  0.00     0.323 C 
HETATM   10  O3  UNL     1       0.661   0.425   0.824  1.00  0.00    -0.247 OA
HETATM   11  N3  UNL     1       1.879   0.169  -1.103  1.00  0.00    -0.325 N 
ATOM     12  H2  UNL     1      -0.495   1.098  -2.094  1.00  0.00     0.171 HD
BRANCH  11  13
HETATM   13  C15 UNL     1       3.011  -0.303  -0.317  1.00  0.00     0.089 C 
HETATM   14  C16 UNL     1       3.485   0.731   0.676  1.00  0.00     0.025 C 
HETATM   15  C17 UNL     1       4.990   0.807   0.708  1.00  0.00     0.002 C 
HETATM   16  C18 UNL     1       5.660  -0.493   0.942  1.00  0.00     0.000 C 
HETATM   17  C19 UNL     1       4.827  -1.544   1.580  1.00  0.00     0.000 C 
HETATM   18  C20 UNL     1       3.973  -2.327   0.615  1.00  0.00     0.002 C 
HETATM   19  C21 UNL     1       2.661  -1.544   0.477  1.00  0.00     0.025 C 
ENDBRANCH  11  13
BRANCH  11  20
HETATM   20  C22 UNL     1       1.982   0.265  -2.544  1.00  0.00     0.089 A 
HETATM   21  C23 UNL     1       3.291   0.529  -3.189  1.00  0.00     0.027 A 
HETATM   22  C24 UNL     1       2.802  -0.853  -3.203  1.00  0.00     0.027 A 
ENDBRANCH  11  20
ENDBRANCH   7   8
BRANCH   6  23
HETATM   23  O2  UNL     1      -2.417  -0.847  -0.562  1.00  0.00    -0.344 OA
BRANCH  23  24
HETATM   24  C8  UNL     1      -3.092  -2.032  -0.509  1.00  0.00     0.131 C 
HETATM   25  C9  UNL     1      -4.378  -2.128  -1.274  1.00  0.00     0.035 C 
HETATM   26  C10 UNL     1      -4.911  -3.475  -0.782  1.00  0.00     0.040 C 
HETATM   27  C11 UNL     1      -4.698  -3.335   0.711  1.00  0.00     0.172 C 
HETATM   28  F1  UNL     1      -5.782  -2.597   1.193  1.00  0.00    -0.249 F 
HETATM   29  C12 UNL     1      -3.398  -2.576   0.869  1.00  0.00     0.069 C 
ENDBRANCH  23  24
ENDBRANCH   6  23
BRANCH   3  30
HETATM   30  C4  UNL     1      -3.105   4.369   1.254  1.00  0.00     0.265 C 
HETATM   31  N1  UNL     1      -4.283   4.738   1.984  1.00  0.00    -0.057 NA
HETATM   32  O1  UNL     1      -2.272   5.274   1.063  1.00  0.00    -0.271 OA
ENDBRANCH   3  30
TORSDOF 6
