REMARK  5 active torsions:
REMARK  status: ('A' for Active; 'I' for Inactive)
REMARK    1  A    between atoms: C2_2  and  O1_3 
REMARK    2  A    between atoms: O1_3  and  C3_4 
REMARK    3  A    between atoms: C5_6  and  N1_7 
REMARK    4  A    between atoms: C14_17  and  C15_18 
REMARK       I    between atoms: C15_18  and  N2_20 
REMARK    5  A    between atoms: N2_20  and  C16_22 
ROOT
HETATM    1  C3  UNL     1       0.711  -0.461  -0.049  1.00  0.00     0.086 A 
HETATM    2  C4  UNL     1       2.064  -0.266  -0.187  1.00  0.00     0.069 A 
HETATM    3  C5  UNL     1       2.865   0.333   0.811  1.00  0.00     0.054 A 
HETATM    4  C12 UNL     1       2.245   0.734   1.965  1.00  0.00     0.061 A 
HETATM    5 CL1  UNL     1       3.155   1.561   3.250  1.00  0.00    -0.082 Cl
HETATM    6  C13 UNL     1       0.898   0.536   2.101  1.00  0.00     0.046 A 
HETATM    7  C14 UNL     1       0.104  -0.053   1.120  1.00  0.00     0.067 A 
ENDROOT
BRANCH   7   8
HETATM    8  C15 UNL     1      -1.323  -0.123   1.279  1.00  0.00     0.254 C 
HETATM    9  O2  UNL     1      -1.757   0.128   2.474  1.00  0.00    -0.268 OA
HETATM   10  N2  UNL     1      -2.295  -0.432   0.358  1.00  0.00    -0.351 N 
ATOM     11  H2  UNL     1      -2.003  -0.601  -0.605  1.00  0.00     0.163 HD
BRANCH  10  12
HETATM   12  C16 UNL     1      -3.718  -0.535   0.666  1.00  0.00     0.093 C 
HETATM   13  C17 UNL     1      -4.477  -1.395  -0.295  1.00  0.00     0.013 C 
HETATM   14  C18 UNL     1      -5.786  -1.734   0.380  1.00  0.00     0.039 C 
HETATM   15  C24 UNL     1      -4.864  -0.670  -1.580  1.00  0.00     0.039 C 
HETATM   16  C19 UNL     1      -6.510  -0.415   0.661  1.00  0.00     0.187 C 
HETATM   17  C20 UNL     1      -5.689   0.482   1.567  1.00  0.00     0.039 C 
HETATM   18  N3  UNL     1      -6.853   0.257  -0.557  1.00  0.00    -0.067 N 
HETATM   19  C21 UNL     1      -4.390   0.822   0.809  1.00  0.00     0.013 C 
HETATM   20  C22 UNL     1      -4.776   1.474  -0.459  1.00  0.00     0.039 C 
HETATM   21  C23 UNL     1      -5.651   0.563  -1.292  1.00  0.00     0.187 C 
ATOM     22  H32 UNL     1      -7.522  -0.274  -1.115  1.00  0.00     0.278 HD
ATOM     23  H31 UNL     1      -7.426   1.085  -0.392  1.00  0.00     0.278 HD
ENDBRANCH  10  12
ENDBRANCH   7   8
BRANCH   1  24
HETATM   24  O1  UNL     1      -0.007  -1.063  -1.071  1.00  0.00    -0.350 OA
BRANCH  24  25
HETATM   25  C2  UNL     1       0.437  -1.522  -2.295  1.00  0.00     0.171 C 
HETATM   26  C1  UNL     1       1.019  -0.455  -3.191  1.00  0.00     0.034 C 
ENDBRANCH  24  25
ENDBRANCH   1  24
BRANCH   3  27
HETATM   27  N1  UNL     1       4.240   0.470   0.585  1.00  0.00    -0.379 N 
HETATM   28  C6  UNL     1       5.173  -0.031   1.555  1.00  0.00     0.123 C 
HETATM   29  C7  UNL     1       6.359   0.917   1.684  1.00  0.00     0.020 C 
HETATM   30  C8  UNL     1       7.275   0.900   0.506  1.00  0.00     0.002 C 
HETATM   31  C9  UNL     1       6.971  -0.078  -0.566  1.00  0.00     0.002 C 
HETATM   32  C10 UNL     1       5.656   0.017  -1.241  1.00  0.00     0.020 C 
HETATM   33  C11 UNL     1       4.709   1.066  -0.684  1.00  0.00     0.123 C 
ENDBRANCH   3  27
TORSDOF 5
