REMARK  5 active torsions:
REMARK  status: ('A' for Active; 'I' for Inactive)
REMARK    1  A    between atoms: N1_2  and  C2_5 
REMARK    2  A    between atoms: N2_9  and  C6_10 
REMARK    3  A    between atoms: C6_10  and  C7_11 
REMARK    4  A    between atoms: C10_14  and  N3_15 
REMARK       I    between atoms: N3_15  and  C11_17 
REMARK    5  A    between atoms: C11_17  and  C12_19 
ROOT
HETATM    1  C7  UNL     1       2.312  -1.333   0.325  1.00  0.00    -0.028 A 
HETATM    2  C8  UNL     1       1.579  -1.036   1.447  1.00  0.00     0.011 A 
HETATM    3  C9  UNL     1       0.202  -0.807   1.338  1.00  0.00     0.032 A 
HETATM    4  C10 UNL     1      -0.487  -0.860   0.151  1.00  0.00     0.056 A 
HETATM    5  C22 UNL     1       0.293  -1.167  -0.984  1.00  0.00     0.061 A 
HETATM    6 CL1  UNL     1      -0.533  -1.247  -2.516  1.00  0.00    -0.082 Cl
HETATM    7  C23 UNL     1       1.644  -1.392  -0.878  1.00  0.00     0.035 A 
ENDROOT
BRANCH   4   8
HETATM    8  N3  UNL     1      -1.868  -0.631   0.015  1.00  0.00    -0.325 N 
HETATM    9  C11 UNL     1      -2.765  -0.339   1.063  1.00  0.00     0.231 C 
HETATM   10  O1  UNL     1      -2.516  -0.233   2.278  1.00  0.00    -0.272 OA
ATOM     11  H3  UNL     1      -2.256  -0.681  -0.927  1.00  0.00     0.169 HD
BRANCH   9  12
HETATM   12  C12 UNL     1      -4.237  -0.117   0.730  1.00  0.00     0.042 C 
HETATM   13  C13 UNL     1      -4.233   1.088  -0.213  1.00  0.00     0.024 C 
HETATM   14  C14 UNL     1      -5.638   1.393  -0.618  1.00  0.00    -0.013 C 
HETATM   15  C15 UNL     1      -6.255   0.203  -1.315  1.00  0.00     0.009 C 
HETATM   16  C19 UNL     1      -6.440   1.715   0.607  1.00  0.00     0.009 C 
HETATM   17  C16 UNL     1      -6.202  -0.981  -0.406  1.00  0.00    -0.013 C 
HETATM   18  C17 UNL     1      -6.992  -0.699   0.847  1.00  0.00     0.009 C 
HETATM   19  C21 UNL     1      -4.786  -1.309   0.013  1.00  0.00     0.024 C 
HETATM   20  C18 UNL     1      -6.435   0.527   1.544  1.00  0.00    -0.013 C 
HETATM   21  C20 UNL     1      -5.020   0.263   1.942  1.00  0.00     0.024 C 
ENDBRANCH   9  12
ENDBRANCH   4   8
BRANCH   1  22
HETATM   22  C6  UNL     1       3.755  -1.577   0.426  1.00  0.00     0.311 C 
BRANCH  22  23
HETATM   23  N2  UNL     1       4.568  -0.406   0.174  1.00  0.00     0.094 N 
HETATM   24  C5  UNL     1       4.269   0.656   1.118  1.00  0.00     0.273 C 
HETATM   25  C4  UNL     1       5.272   1.783   1.018  1.00  0.00     0.032 C 
HETATM   26  C3  UNL     1       6.193   1.611  -0.169  1.00  0.00     0.036 C 
HETATM   27  C2  UNL     1       6.846   0.265  -0.153  1.00  0.00     0.213 C 
HETATM   28  C24 UNL     1       5.957  -0.791   0.467  1.00  0.00     0.305 C 
BRANCH  27  29
HETATM   29  N1  UNL     1       7.133  -0.164  -1.498  1.00  0.00    -0.073 N 
HETATM   30  C1  UNL     1       8.058   0.684  -2.198  1.00  0.00     0.267 C 
ATOM     31  H12 UNL     1       6.270  -0.270  -2.032  1.00  0.00     0.277 HD
ATOM     32  H11 UNL     1       7.459  -1.130  -1.503  1.00  0.00     0.277 HD
ENDBRANCH  27  29
ENDBRANCH  22  23
ENDBRANCH   1  22
TORSDOF 5
