REMARK  6 active torsions:
REMARK  status: ('A' for Active; 'I' for Inactive)
REMARK    1  A    between atoms: C2_2  and  C3_3 
REMARK    2  A    between atoms: C8_8  and  C9_9 
REMARK    3  A    between atoms: N1_14  and  C12_15 
REMARK    4  A    between atoms: C12_15  and  C13_16 
REMARK    5  A    between atoms: C13_16  and  C15_18 
REMARK    6  A    between atoms: C25_29  and  O3_30 
ROOT
HETATM    1  C3  UNL     1      -3.896  -0.316   0.397  1.00  0.00     0.025 C 
HETATM    2  C4  UNL     1      -4.611  -0.506  -0.927  1.00  0.00    -0.012 C 
HETATM    3  C5  UNL     1      -6.080  -0.763  -0.730  1.00  0.00     0.010 C 
HETATM    4  C6  UNL     1      -4.298   0.694  -1.771  1.00  0.00     0.006 C 
HETATM    5  C7  UNL     1      -3.774   1.879  -1.064  1.00  0.00     0.024 C 
HETATM    6  C8  UNL     1      -2.565   1.619  -0.149  1.00  0.00     0.081 C 
HETATM    7  C10 UNL     1      -1.337   2.257  -0.696  1.00  0.00     0.043 C 
HETATM    8  C11 UNL     1      -0.176   1.458  -1.090  1.00  0.00     0.123 C 
HETATM    9  N1  UNL     1       0.506   0.720  -0.092  1.00  0.00    -0.393 N 
HETATM   10  C23 UNL     1      -0.076  -0.359   0.528  1.00  0.00     0.061 C 
HETATM   11  C24 UNL     1      -1.471  -0.157   1.088  1.00  0.00     0.083 C 
HETATM   12  C25 UNL     1      -2.512   0.151   0.098  1.00  0.00     0.084 C 
ENDROOT
BRANCH   9  13
HETATM   13  C12 UNL     1       1.856   0.538  -0.506  1.00  0.00     0.131 C 
BRANCH  13  14
HETATM   14  C13 UNL     1       2.675  -0.125   0.547  1.00  0.00     0.033 C 
HETATM   15  C14 UNL     1       2.630   0.797   1.785  1.00  0.00     0.017 C 
BRANCH  14  16
HETATM   16  C15 UNL     1       4.120  -0.314   0.155  1.00  0.00    -0.044 A 
HETATM   17  C16 UNL     1       4.693   0.381  -0.890  1.00  0.00     0.051 A 
HETATM   18  C17 UNL     1       6.045   0.222  -1.226  1.00  0.00     0.122 A 
HETATM   19  F1  UNL     1       6.570   0.924  -2.260  1.00  0.00    -0.206 F 
HETATM   20  C18 UNL     1       6.862  -0.635  -0.526  1.00  0.00    -0.023 A 
HETATM   21  C19 UNL     1       8.304  -0.835  -0.859  1.00  0.00     0.051 C 
HETATM   22  C20 UNL     1       6.286  -1.323   0.513  1.00  0.00     0.017 A 
HETATM   23  C21 UNL     1       4.937  -1.172   0.854  1.00  0.00    -0.055 A 
HETATM   24  C22 UNL     1       4.382  -1.989   1.971  1.00  0.00     0.049 C 
ENDBRANCH  14  16
ENDBRANCH  13  14
ENDBRANCH   9  13
BRANCH   6  25
HETATM   25  C9  UNL     1      -2.904   2.428   1.070  1.00  0.00     0.185 C 
HETATM   26  O1  UNL     1      -3.190   2.057   2.197  1.00  0.00    -0.647 OA
HETATM   27  O2  UNL     1      -2.897   3.836   0.900  1.00  0.00    -0.647 OA
ENDBRANCH   6  25
BRANCH  12  28
HETATM   28  O3  UNL     1      -2.132  -0.525  -1.067  1.00  0.00    -0.388 OA
ATOM     29  H3  UNL     1      -1.250  -0.227  -1.258  1.00  0.00     0.210 HD
ENDBRANCH  12  28
BRANCH   1  30
HETATM   30  C2  UNL     1      -4.092  -1.421   1.352  1.00  0.00     0.003 C 
HETATM   31  C1  UNL     1      -3.685  -2.787   0.953  1.00  0.00     0.005 C 
ENDBRANCH   1  30
TORSDOF 6
