REMARK  6 active torsions:
REMARK  status: ('A' for Active; 'I' for Inactive)
REMARK    1  A    between atoms: C2_2  and  C3_3 
REMARK    2  A    between atoms: C3_3  and  N1_6 
REMARK       I    between atoms: N1_6  and  C6_8 
REMARK    3  A    between atoms: C6_8  and  O2_10 
REMARK    4  A    between atoms: O2_10  and  C7_11 
REMARK    5  A    between atoms: C13_17  and  O3_18 
REMARK    6  A    between atoms: C20_26  and  C21_27 
ROOT
HETATM    1  C7  UNL     1       0.644  -0.793  -0.414  1.00  0.00     0.134 C 
HETATM    2  C8  UNL     1      -0.184  -1.547  -1.386  1.00  0.00     0.033 C 
HETATM    3  C9  UNL     1      -1.532  -0.929  -1.420  1.00  0.00     0.013 C 
HETATM    4  C10 UNL     1      -1.561   0.201  -0.408  1.00  0.00    -0.025 C 
HETATM    5  C11 UNL     1      -0.083   0.471  -0.109  1.00  0.00     0.043 C 
HETATM    6  C12 UNL     1      -2.095  -0.348   0.858  1.00  0.00     0.029 C 
HETATM    7  C13 UNL     1      -3.417  -0.798   1.148  1.00  0.00     0.131 C 
HETATM    8  C14 UNL     1      -3.257  -0.168   2.548  1.00  0.00    -0.017 C 
HETATM    9  C15 UNL     1      -2.625  -1.152   3.480  1.00  0.00     0.018 C 
HETATM   10  C16 UNL     1      -4.490   0.509   3.055  1.00  0.00     0.018 C 
HETATM   11  C17 UNL     1      -2.235   0.764   1.905  1.00  0.00     0.003 C 
HETATM   12  C18 UNL     1      -2.766   2.034   1.356  1.00  0.00     0.006 C 
HETATM   13  C19 UNL     1      -2.021   2.521   0.103  1.00  0.00     0.009 C 
HETATM   14  C20 UNL     1      -2.255   1.415  -0.918  1.00  0.00     0.031 C 
ENDROOT
BRANCH  14  15
HETATM   15  C21 UNL     1      -2.045   1.782  -2.323  1.00  0.00     0.088 A 
HETATM   16  C22 UNL     1      -0.703   2.115  -2.920  1.00  0.00     0.049 C 
HETATM   17  O4  UNL     1      -2.933   2.954  -2.623  1.00  0.00    -0.370 OA
HETATM   18  C23 UNL     1      -3.175   1.781  -3.321  1.00  0.00     0.153 A 
HETATM   19  C24 UNL     1      -4.496   1.141  -2.976  1.00  0.00     0.042 C 
ENDBRANCH  14  15
BRANCH   1  20
HETATM   20  O2  UNL     1       1.971  -0.583  -0.841  1.00  0.00    -0.299 OA
BRANCH  20  21
HETATM   21  C6  UNL     1       3.094  -1.093  -0.160  1.00  0.00     0.361 C 
HETATM   22  N1  UNL     1       4.370  -0.830  -0.662  1.00  0.00    -0.328 N 
ATOM     23  H1  UNL     1       4.365  -0.282  -1.522  1.00  0.00     0.165 HD
HETATM   24  O1  UNL     1       2.785  -1.749   0.860  1.00  0.00    -0.238 OA
BRANCH  22  25
HETATM   25  C3  UNL     1       5.674  -1.172  -0.215  1.00  0.00     0.027 C 
HETATM   26  C4  UNL     1       6.691  -0.972  -1.380  1.00  0.00     0.038 C 
HETATM   27  C5  UNL     1       5.781  -2.678   0.080  1.00  0.00     0.038 C 
BRANCH  25  28
HETATM   28  C2  UNL     1       6.167  -0.446   0.984  1.00  0.00     0.026 C 
HETATM   29  C1  UNL     1       5.317  -0.567   2.183  1.00  0.00     0.007 C 
ENDBRANCH  25  28
ENDBRANCH  22  25
ENDBRANCH  20  21
ENDBRANCH   1  20
BRANCH   7  30
HETATM   30  O3  UNL     1      -4.567  -0.348   0.599  1.00  0.00    -0.394 OA
ATOM     31  H3  UNL     1      -5.448  -0.648   0.792  1.00  0.00     0.210 HD
ENDBRANCH   7  30
TORSDOF 6
