REMARK  7 active torsions:
REMARK  status: ('A' for Active; 'I' for Inactive)
REMARK    1  A    between atoms: C3_3  and  C4_4 
REMARK    2  A    between atoms: C4_4  and  O2_6 
REMARK    3  A    between atoms: O2_6  and  C5_7 
REMARK    4  A    between atoms: C6_8  and  C7_9 
REMARK    5  A    between atoms: C7_9  and  C8_10 
REMARK    6  A    between atoms: C15_17  and  O3_18 
REMARK    7  A    between atoms: C16_20  and  O4_21 
ROOT
HETATM    1  C5  UNL     1       0.699   0.269  -0.353  1.00  0.00     0.144 C 
HETATM    2  C6  UNL     1      -0.263   0.646   0.741  1.00  0.00     0.020 C 
HETATM    3  C12 UNL     1      -1.430  -0.308   0.536  1.00  0.00     0.019 C 
HETATM    4  C13 UNL     1      -1.011  -1.699   0.829  1.00  0.00    -0.011 C 
HETATM    5  C14 UNL     1      -1.568  -2.011   2.233  1.00  0.00     0.018 C 
HETATM    6  C15 UNL     1      -1.830  -2.615  -0.094  1.00  0.00     0.155 C 
HETATM    7  C16 UNL     1      -1.715  -4.037   0.352  1.00  0.00     0.147 C 
HETATM    8  C17 UNL     1      -0.279  -4.412   0.612  1.00  0.00     0.035 C 
HETATM    9  C18 UNL     1       0.681  -3.378   0.118  1.00  0.00     0.009 C 
HETATM   10  C19 UNL     1       0.423  -2.003   0.756  1.00  0.00     0.007 C 
HETATM   11  C20 UNL     1       1.330  -1.048   0.108  1.00  0.00    -0.016 C 
HETATM   12  C21 UNL     1       2.492  -0.630   1.004  1.00  0.00     0.018 C 
HETATM   13  C22 UNL     1       1.989  -1.611  -1.161  1.00  0.00     0.018 C 
ENDROOT
BRANCH   1  14
HETATM   14  O2  UNL     1       1.728   1.229  -0.491  1.00  0.00    -0.311 OA
BRANCH  14  15
HETATM   15  C4  UNL     1       2.106   1.861  -1.640  1.00  0.00     0.282 C 
HETATM   16  O1  UNL     1       1.491   1.576  -2.700  1.00  0.00    -0.260 OA
BRANCH  15  17
HETATM   17  C3  UNL     1       3.202   2.850  -1.646  1.00  0.00     0.077 C 
HETATM   18  C2  UNL     1       3.823   3.126  -0.528  1.00  0.00    -0.025 C 
HETATM   19  C1  UNL     1       4.926   4.113  -0.505  1.00  0.00     0.036 C 
ENDBRANCH  15  17
ENDBRANCH  14  15
ENDBRANCH   1  14
BRANCH   2  20
HETATM   20  C7  UNL     1      -0.704   2.075   0.739  1.00  0.00     0.034 C 
BRANCH  20  21
HETATM   21  C8  UNL     1      -1.417   2.528  -0.451  1.00  0.00    -0.024 C 
HETATM   22  C9  UNL     1      -2.663   3.011  -0.405  1.00  0.00    -0.091 C 
HETATM   23  C10 UNL     1      -3.326   3.454  -1.663  1.00  0.00     0.042 C 
HETATM   24  C11 UNL     1      -3.431   3.129   0.854  1.00  0.00     0.042 C 
ENDBRANCH  20  21
ENDBRANCH   2  20
BRANCH   6  25
HETATM   25  O3  UNL     1      -1.568  -2.396  -1.420  1.00  0.00    -0.392 OA
ATOM     26  H3  UNL     1      -2.074  -2.962  -1.991  1.00  0.00     0.210 HD
ENDBRANCH   6  25
BRANCH   7  27
HETATM   27  O4  UNL     1      -2.321  -4.865  -0.576  1.00  0.00    -0.393 OA
ATOM     28  H4  UNL     1      -2.248  -5.769  -0.293  1.00  0.00     0.210 HD
ENDBRANCH   7  27
TORSDOF 7
