REMARK  5 active torsions:
REMARK  status: ('A' for Active; 'I' for Inactive)
REMARK       I    between atoms: N1_2  and  C2_4 
REMARK    1  A    between atoms: C2_4  and  C3_6 
REMARK    2  A    between atoms: C5_9  and  C6_10 
REMARK    3  A    between atoms: C10_14  and  N2_15 
REMARK       I    between atoms: N2_15  and  C11_17 
REMARK    4  A    between atoms: C11_17  and  C12_19 
REMARK    5  A    between atoms: C15_22  and  C16_23 
ROOT
HETATM    1  C3  UNL     1      -2.486   1.052   1.704  1.00  0.00     0.099 A 
HETATM    2  S1  UNL     1      -3.690   0.420   2.728  1.00  0.00    -0.094 SA
HETATM    3  C4  UNL     1      -3.750  -1.166   2.119  1.00  0.00     0.060 A 
HETATM    4  C5  UNL     1      -2.816  -1.168   1.114  1.00  0.00    -0.016 A 
HETATM    5  C10 UNL     1      -2.149  -0.000   0.897  1.00  0.00     0.065 A 
ENDROOT
BRANCH   5   6
HETATM    6  N2  UNL     1      -1.137   0.183  -0.143  1.00  0.00    -0.319 N 
HETATM    7  C11 UNL     1       0.239   0.140   0.103  1.00  0.00     0.280 C 
HETATM    8  O2  UNL     1       0.665  -0.056   1.266  1.00  0.00    -0.265 OA
ATOM      9  H2  UNL     1      -1.452   0.351  -1.099  1.00  0.00     0.169 HD
BRANCH   7  10
HETATM   10  C12 UNL     1       1.222   0.319  -0.968  1.00  0.00     0.143 A 
HETATM   11  C13 UNL     1       0.951   0.546  -2.316  1.00  0.00     0.045 A 
HETATM   12  C14 UNL     1       2.153   0.656  -2.979  1.00  0.00     0.036 A 
HETATM   13  C15 UNL     1       3.103   0.490  -2.000  1.00  0.00     0.058 A 
HETATM   14  O3  UNL     1       2.523   0.299  -0.864  1.00  0.00    -0.309 OA
BRANCH  13  15
HETATM   15  C16 UNL     1       4.593   0.526  -2.226  1.00  0.00     0.043 C 
HETATM   16  C17 UNL     1       5.287   1.508  -1.297  1.00  0.00     0.011 C 
HETATM   17  C18 UNL     1       5.529   0.351  -0.354  1.00  0.00     0.002 C 
HETATM   18  C19 UNL     1       5.344  -0.585  -1.543  1.00  0.00     0.011 C 
ENDBRANCH  13  15
ENDBRANCH   7  10
ENDBRANCH   5   6
BRANCH   1  19
HETATM   19  C2  UNL     1      -1.955   2.429   1.675  1.00  0.00     0.260 C 
HETATM   20  N1  UNL     1      -2.458   3.342   2.634  1.00  0.00    -0.361 N 
HETATM   21  C1  UNL     1      -2.008   4.714   2.696  1.00  0.00     0.149 C 
ATOM     22  H1  UNL     1      -3.159   3.021   3.301  1.00  0.00     0.162 HD
HETATM   23  O1  UNL     1      -1.120   2.761   0.860  1.00  0.00    -0.267 OA
ENDBRANCH   1  19
BRANCH   4  24
HETATM   24  C6  UNL     1      -2.609  -2.438   0.299  1.00  0.00    -0.021 C 
HETATM   25  C7  UNL     1      -3.560  -3.520   0.820  1.00  0.00     0.019 C 
HETATM   26  C8  UNL     1      -1.197  -2.928   0.338  1.00  0.00     0.019 C 
HETATM   27  C9  UNL     1      -2.980  -2.205  -1.150  1.00  0.00     0.019 C 
ENDBRANCH   4  24
TORSDOF 5
