REMARK  6 active torsions:
REMARK  status: ('A' for Active; 'I' for Inactive)
REMARK    1  A    between atoms: C4_4  and  C5_5 
REMARK    2  A    between atoms: C5_5  and  C6_6 
REMARK    3  A    between atoms: C12_14  and  C14_16 
REMARK    4  A    between atoms: C14_16  and  S1_17 
REMARK    5  A    between atoms: S1_17  and  C15_18 
REMARK    6  A    between atoms: C19_22  and  O3_23 
ROOT
HETATM    1  C6  UNL     1       3.208   0.482  -1.009  1.00  0.00    -0.017 A 
HETATM    2  C7  UNL     1       2.345  -0.344  -0.315  1.00  0.00     0.021 A 
HETATM    3  C8  UNL     1       1.086   0.080   0.050  1.00  0.00    -0.015 A 
HETATM    4  C9  UNL     1       0.617   1.339  -0.251  1.00  0.00     0.113 A 
HETATM    5  C10 UNL     1       1.477   2.184  -0.951  1.00  0.00     0.144 A 
HETATM    6  C11 UNL     1       2.766   1.748  -1.324  1.00  0.00     0.119 A 
HETATM    7  O1  UNL     1       2.304   3.053  -1.647  1.00  0.00    -0.301 OA
HETATM    8  O2  UNL     1      -0.647   1.694   0.147  1.00  0.00    -0.334 OA
HETATM    9  C12 UNL     1      -1.697   0.723   0.051  1.00  0.00     0.099 C 
HETATM   10  C13 UNL     1      -2.221   0.904  -1.353  1.00  0.00     0.050 C 
HETATM   11  C19 UNL     1      -1.259  -0.681   0.239  1.00  0.00     0.161 C 
HETATM   12  C20 UNL     1       0.147  -0.806   0.785  1.00  0.00     0.049 C 
HETATM   13  C21 UNL     1       0.626  -2.228   0.620  1.00  0.00     0.018 C 
ENDROOT
BRANCH   9  14
HETATM   14  C14 UNL     1      -2.688   1.157   1.111  1.00  0.00     0.115 C 
BRANCH  14  15
HETATM   15  S1  UNL     1      -4.122   0.220   1.397  1.00  0.00    -0.157 SA
BRANCH  15  16
HETATM   16  C15 UNL     1      -5.446   0.123   0.257  1.00  0.00    -0.003 C 
HETATM   17  C16 UNL     1      -5.250  -0.620  -1.013  1.00  0.00     0.026 C 
HETATM   18  C17 UNL     1      -6.015   1.501  -0.120  1.00  0.00     0.026 C 
HETATM   19  C18 UNL     1      -6.628  -0.561   0.980  1.00  0.00     0.026 C 
ENDBRANCH  15  16
ENDBRANCH  14  15
ENDBRANCH   9  14
BRANCH  11  20
HETATM   20  O3  UNL     1      -1.346  -1.495  -0.878  1.00  0.00    -0.392 OA
ATOM     21  H3  UNL     1      -1.065  -2.395  -0.758  1.00  0.00     0.210 HD
ENDBRANCH  11  20
BRANCH   1  22
HETATM   22  C5  UNL     1       4.573   0.043  -1.409  1.00  0.00     0.068 C 
BRANCH  22  23
HETATM   23  C4  UNL     1       5.569   0.639  -0.507  1.00  0.00    -0.020 C 
HETATM   24  C2  UNL     1       6.376  -0.110   0.217  1.00  0.00    -0.091 C 
HETATM   25  C1  UNL     1       7.373   0.530   1.121  1.00  0.00     0.042 C 
HETATM   26  C3  UNL     1       6.265  -1.587   0.106  1.00  0.00     0.042 C 
ENDBRANCH  22  23
ENDBRANCH   1  22
TORSDOF 6
