REMARK  5 active torsions:
REMARK  status: ('A' for Active; 'I' for Inactive)
REMARK    1  A    between atoms: C2_2  and  O1_3 
REMARK    2  A    between atoms: O1_3  and  C3_4 
REMARK    3  A    between atoms: C8_9  and  O2_10 
REMARK    4  A    between atoms: C13_15  and  O3_16 
REMARK    5  A    between atoms: C13_15  and  C14_18 
ROOT
HETATM    1  C3  UNL     1       3.270  -0.160  -0.370  1.00  0.00     0.102 A 
HETATM    2  C4  UNL     1       2.068   0.498  -0.483  1.00  0.00     0.050 A 
HETATM    3  C5  UNL     1       1.337   0.969   0.602  1.00  0.00    -0.015 A 
HETATM    4  C6  UNL     1       1.827   0.776   1.871  1.00  0.00    -0.046 A 
HETATM    5  C7  UNL     1       3.045   0.109   1.989  1.00  0.00     0.047 A 
HETATM    6  C8  UNL     1       3.756  -0.350   0.908  1.00  0.00     0.102 A 
HETATM    7  C10 UNL     1       1.120   1.250   3.113  1.00  0.00     0.039 C 
HETATM    8  C11 UNL     1      -0.299   1.574   2.833  1.00  0.00     0.008 C 
HETATM    9  C12 UNL     1      -0.511   2.319   1.538  1.00  0.00     0.043 C 
HETATM   10  C13 UNL     1       0.033   1.675   0.331  1.00  0.00     0.089 C 
ENDROOT
BRANCH  10  11
HETATM   11  O3  UNL     1       0.352   2.686  -0.593  1.00  0.00    -0.385 OA
ATOM     12  H3  UNL     1      -0.470   3.131  -0.764  1.00  0.00     0.211 HD
ENDBRANCH  10  11
BRANCH  10  13
HETATM   13  C14 UNL     1      -0.928   0.762  -0.420  1.00  0.00     0.028 C 
HETATM   14  C15 UNL     1      -2.197   1.498  -0.682  1.00  0.00     0.008 C 
HETATM   15  C16 UNL     1      -3.050   0.896  -1.764  1.00  0.00     0.001 C 
HETATM   16  C17 UNL     1      -4.438   0.613  -1.250  1.00  0.00     0.000 C 
HETATM   17  C18 UNL     1      -4.608  -0.636  -0.484  1.00  0.00     0.004 C 
HETATM   18  C19 UNL     1      -3.388  -1.485  -0.294  1.00  0.00    -0.018 C 
HETATM   19  C20 UNL     1      -3.923  -2.838   0.217  1.00  0.00     0.010 C 
HETATM   20  C21 UNL     1      -2.415  -0.960   0.691  1.00  0.00     0.009 C 
HETATM   21  C22 UNL     1      -1.057  -0.600   0.155  1.00  0.00    -0.011 C 
HETATM   22  C23 UNL     1      -0.483  -1.696  -0.732  1.00  0.00     0.010 C 
ENDBRANCH  10  13
BRANCH   1  23
HETATM   23  O1  UNL     1       3.975  -0.619  -1.487  1.00  0.00    -0.349 OA
BRANCH  23  24
HETATM   24  C2  UNL     1       3.411  -0.386  -2.753  1.00  0.00     0.171 C 
HETATM   25  C1  UNL     1       4.264  -0.924  -3.876  1.00  0.00     0.034 C 
ENDBRANCH  23  24
ENDBRANCH   1  23
BRANCH   6  26
HETATM   26  O2  UNL     1       4.971  -1.012   1.072  1.00  0.00    -0.353 OA
HETATM   27  C9  UNL     1       5.530  -1.242   2.352  1.00  0.00     0.210 C 
ENDBRANCH   6  26
TORSDOF 5
