REMARK  11 active torsions:
REMARK  status: ('A' for Active; 'I' for Inactive)
REMARK    1  A    between atoms: C1_2  and  C2_4 
REMARK    2  A    between atoms: C4_8  and  C5_9 
REMARK    3  A    between atoms: N4_14  and  C7_16 
REMARK    4  A    between atoms: C7_16  and  O2_17 
REMARK    5  A    between atoms: C7_16  and  C8_19 
REMARK    6  A    between atoms: C8_19  and  O3_20 
REMARK    7  A    between atoms: C8_19  and  C9_22 
REMARK    8  A    between atoms: C9_22  and  O4_23 
REMARK    9  A    between atoms: C9_22  and  C10_25 
REMARK   10  A    between atoms: C10_25  and  O5_26 
REMARK   11  A    between atoms: C11_31  and  N6_32 
REMARK       I    between atoms: N6_32  and  C12_34 
REMARK       I    between atoms: C12_34  and  N7_35 
REMARK       I    between atoms: C12_34  and  N8_39 
ROOT
HETATM    1  C2  UNL     1       2.473   0.970   3.931  1.00  0.00     0.112 A 
HETATM    2  N2  UNL     1       1.392   1.725   4.227  1.00  0.00    -0.358 N 
ATOM      3  H2  UNL     1       1.383   2.266   5.092  1.00  0.00     0.165 HD
HETATM    4  C3  UNL     1       0.334   1.779   3.411  1.00  0.00     0.122 A 
HETATM    5  C4  UNL     1       0.370   1.039   2.249  1.00  0.00     0.103 A 
HETATM    6  N5  UNL     1       1.425   0.277   1.920  1.00  0.00    -0.336 N 
ATOM      7  H5  UNL     1       1.430  -0.263   1.054  1.00  0.00     0.168 HD
HETATM    8  C11 UNL     1       2.470   0.242   2.754  1.00  0.00     0.134 A 
ENDROOT
BRANCH   5   9
HETATM    9  C5  UNL     1      -0.761   1.054   1.309  1.00  0.00     0.200 A 
HETATM   10  N3  UNL     1      -1.882   1.753   1.481  1.00  0.00    -0.233 N 
HETATM   11  O1  UNL     1      -2.649   1.532   0.472  1.00  0.00    -0.192 OA
ATOM     12  H3  UNL     1      -2.095   2.358   2.274  1.00  0.00     0.197 HD
HETATM   13  C6  UNL     1      -2.044   0.712  -0.335  1.00  0.00     0.292 A 
HETATM   14  N4  UNL     1      -2.460   0.239  -1.452  1.00  0.00    -0.320 N 
HETATM   15  O6  UNL     1      -0.868   0.412   0.183  1.00  0.00    -0.251 OA
ATOM     16  H4  UNL     1      -1.854  -0.401  -1.966  1.00  0.00     0.166 HD
BRANCH  14  17
HETATM   17  C7  UNL     1      -3.752   0.572  -2.018  1.00  0.00     0.252 C 
BRANCH  17  18
HETATM   18  O2  UNL     1      -4.778   0.388  -1.099  1.00  0.00    -0.374 OA
ATOM     19  H2  UNL     1      -5.625   0.606  -1.470  1.00  0.00     0.212 HD
ENDBRANCH  17  18
BRANCH  17  20
HETATM   20  C8  UNL     1      -3.936  -0.371  -3.216  1.00  0.00     0.197 C 
BRANCH  20  21
HETATM   21  O3  UNL     1      -3.889  -1.656  -2.705  1.00  0.00    -0.389 OA
ATOM     22  H3  UNL     1      -4.003  -2.239  -3.446  1.00  0.00     0.210 HD
ENDBRANCH  20  21
BRANCH  20  23
HETATM   23  C9  UNL     1      -2.747  -0.123  -4.120  1.00  0.00     0.174 C 
BRANCH  23  24
HETATM   24  O4  UNL     1      -2.791   1.166  -4.634  1.00  0.00    -0.391 OA
ATOM     25  H4  UNL     1      -2.045   1.322  -5.201  1.00  0.00     0.210 HD
ENDBRANCH  23  24
BRANCH  23  26
HETATM   26  C10 UNL     1      -2.668  -1.167  -5.212  1.00  0.00     0.198 C 
BRANCH  26  27
HETATM   27  O5  UNL     1      -1.498  -0.920  -5.945  1.00  0.00    -0.398 OA
ATOM     28  H5  UNL     1      -1.448  -1.576  -6.631  1.00  0.00     0.209 HD
ENDBRANCH  26  27
ENDBRANCH  23  26
ENDBRANCH  20  23
ENDBRANCH  17  20
ENDBRANCH  14  17
ENDBRANCH   5   9
BRANCH   8  29
HETATM   29  N6  UNL     1       3.511  -0.474   2.487  1.00  0.00    -0.325 N 
HETATM   30  C12 UNL     1       3.628  -1.273   1.297  1.00  0.00     0.481 C 
HETATM   31  N7  UNL     1       2.883  -2.518   1.393  1.00  0.00    -0.033 N 
HETATM   32  N8  UNL     1       5.041  -1.613   1.064  1.00  0.00    -0.033 N 
ATOM     33  H73 UNL     1       3.156  -3.048   2.221  1.00  0.00     0.278 HD
ATOM     34  H72 UNL     1       1.905  -2.345   1.626  1.00  0.00     0.278 HD
ATOM     35  H71 UNL     1       2.966  -3.085   0.549  1.00  0.00     0.278 HD
ATOM     36  H83 UNL     1       5.635  -0.784   1.030  1.00  0.00     0.278 HD
ATOM     37  H82 UNL     1       5.466  -2.065   1.874  1.00  0.00     0.278 HD
ATOM     38  H81 UNL     1       5.124  -2.180   0.220  1.00  0.00     0.278 HD
ATOM     39  H6  UNL     1       4.286  -0.473   3.150  1.00  0.00     0.165 HD
ENDBRANCH   8  29
BRANCH   1  40
HETATM   40  C1  UNL     1       3.604   0.942   4.850  1.00  0.00     0.143 C 
HETATM   41  N1  UNL     1       4.780   1.689   4.626  1.00  0.00    -0.087 NA
HETATM   42  S1  UNL     1       3.502   0.015   6.177  1.00  0.00    -0.061 SA
ENDBRANCH   1  40
TORSDOF 11
