REMARK  9 active torsions:
REMARK  status: ('A' for Active; 'I' for Inactive)
REMARK    1  A    between atoms: C1_2  and  C2_3 
REMARK    2  A    between atoms: C1_2  and  N2_6 
REMARK    3  A    between atoms: C2_3  and  O1_4 
REMARK       I    between atoms: N2_6  and  C3_8 
REMARK    4  A    between atoms: C3_8  and  C4_10 
REMARK    5  A    between atoms: C4_10  and  N3_11 
REMARK       I    between atoms: N3_11  and  C5_13 
REMARK       I    between atoms: C5_13  and  N4_15 
REMARK    6  A    between atoms: N4_15  and  C6_17 
REMARK    7  A    between atoms: C7_21  and  C8_22 
REMARK    8  A    between atoms: C7_21  and  N6_25 
REMARK    9  A    between atoms: C8_22  and  O4_23 
ROOT
HETATM    1  C6  UNL     1      -1.019   0.252   0.642  1.00  0.00     0.359 C 
HETATM    2  N5  UNL     1      -2.037   1.183   0.188  1.00  0.00    -0.006 N 
ATOM      3  H51 UNL     1      -2.406   1.034  -0.751  1.00  0.00     0.284 HD
ATOM      4  H52 UNL     1      -1.729   2.135  -0.011  1.00  0.00     0.284 HD
HETATM    5  C7  UNL     1      -2.957   1.021   1.270  1.00  0.00     0.283 C 
HETATM    6  S1  UNL     1      -1.679   0.329   2.353  1.00  0.00    -0.052 SA
ENDROOT
BRANCH   1   7
HETATM    7  N4  UNL     1       0.322   0.790   0.642  1.00  0.00    -0.306 N 
HETATM    8  C5  UNL     1       1.365  -0.045   0.108  1.00  0.00     0.318 C 
HETATM    9  N3  UNL     1       2.708   0.386   0.062  1.00  0.00    -0.334 N 
HETATM   10  O3  UNL     1       1.099  -1.191  -0.336  1.00  0.00    -0.247 OA
ATOM     11  H3  UNL     1       2.960   1.310   0.413  1.00  0.00     0.164 HD
ATOM     12  H4  UNL     1       0.521   1.722   1.005  1.00  0.00     0.167 HD
BRANCH   9  13
HETATM   13  C4  UNL     1       3.718  -0.476  -0.478  1.00  0.00     0.227 C 
BRANCH  13  14
HETATM   14  C3  UNL     1       5.028   0.201  -0.413  1.00  0.00     0.240 C 
HETATM   15  N2  UNL     1       6.208  -0.423  -0.880  1.00  0.00    -0.312 N 
ATOM     16  H2  UNL     1       6.154  -1.364  -1.271  1.00  0.00     0.170 HD
HETATM   17  O2  UNL     1       5.100   1.350   0.065  1.00  0.00    -0.271 OA
BRANCH  15  18
HETATM   18  C1  UNL     1       7.470   0.234  -0.816  1.00  0.00     0.140 C 
HETATM   19  N1  UNL     1       7.597   1.459  -1.517  1.00  0.00    -0.081 NA
BRANCH  18  20
HETATM   20  C2  UNL     1       8.477  -0.272  -0.135  1.00  0.00     0.176 C 
BRANCH  20  21
HETATM   21  O1  UNL     1       8.312  -1.476   0.539  1.00  0.00    -0.369 OA
ATOM     22  H1  UNL     1       9.039  -1.841   1.030  1.00  0.00     0.216 HD
ENDBRANCH  20  21
ENDBRANCH  18  20
ENDBRANCH  15  18
ENDBRANCH  13  14
ENDBRANCH   9  13
ENDBRANCH   1   7
BRANCH   5  23
HETATM   23  C8  UNL     1      -3.514   2.348   1.736  1.00  0.00     0.238 C 
BRANCH  23  24
HETATM   24  O4  UNL     1      -4.183   2.976   0.690  1.00  0.00    -0.396 OA
ATOM     25  H4  UNL     1      -4.533   3.809   0.983  1.00  0.00     0.209 HD
ENDBRANCH  23  24
ENDBRANCH   5  23
BRANCH   5  26
HETATM   26  N6  UNL     1      -4.017   0.063   1.084  1.00  0.00    -0.282 N 
HETATM   27  C9  UNL     1      -4.757  -0.425   2.094  1.00  0.00     0.188 A 
HETATM   28  N7  UNL     1      -5.660  -1.292   1.609  1.00  0.00    -0.346 N 
HETATM   29  C10 UNL     1      -5.502  -1.365   0.279  1.00  0.00     0.119 A 
ATOM     30  H7  UNL     1      -6.348  -1.807   2.158  1.00  0.00     0.167 HD
HETATM   31  C11 UNL     1      -6.147  -2.086  -0.711  1.00  0.00     0.148 A 
HETATM   32  C13 UNL     1      -4.474  -0.515  -0.040  1.00  0.00     0.142 A 
HETATM   33  N8  UNL     1      -7.205  -2.958  -0.367  1.00  0.00    -0.080 NA
HETATM   34  N9  UNL     1      -5.709  -1.902  -1.968  1.00  0.00    -0.339 N 
HETATM   35  C12 UNL     1      -4.692  -1.058  -2.270  1.00  0.00     0.183 A 
ATOM     36  H9  UNL     1      -6.159  -2.417  -2.724  1.00  0.00     0.167 HD
HETATM   37  N10 UNL     1      -4.068  -0.359  -1.302  1.00  0.00    -0.336 N 
ATOM     38  H10 UNL     1      -3.302   0.275  -1.528  1.00  0.00     0.168 HD
ENDBRANCH   5  26
TORSDOF 9
