REMARK  11 active torsions:
REMARK  status: ('A' for Active; 'I' for Inactive)
REMARK    1  A    between atoms: N1_1  and  C1_4 
REMARK    2  A    between atoms: C4_16  and  C5_17 
REMARK    3  A    between atoms: C6_18  and  C7_19 
REMARK       I    between atoms: C7_19  and  N6_21 
REMARK    4  A    between atoms: N6_21  and  N7_23 
REMARK    5  A    between atoms: N9_29  and  C9_30 
REMARK    6  A    between atoms: C9_30  and  O2_31 
REMARK    7  A    between atoms: O2_31  and  C10_32 
REMARK    8  A    between atoms: C10_32  and  C11_33 
REMARK    9  A    between atoms: C10_32  and  C12_36 
REMARK   10  A    between atoms: C11_33  and  O3_34 
REMARK   11  A    between atoms: C12_36  and  O4_37 
ROOT
HETATM    1  C1  UNL     1      -4.756   1.565   2.024  1.00  0.00     0.678 A 
HETATM    2  N2  UNL     1      -3.921   2.616   2.011  1.00  0.00    -0.175 N 
ATOM      3  H2  UNL     1      -4.169   3.471   2.508  1.00  0.00     0.186 HD
HETATM    4  C2  UNL     1      -2.759   2.539   1.342  1.00  0.00     0.145 A 
HETATM    5  N3  UNL     1      -1.964   3.544   1.330  1.00  0.00    -0.383 N 
ATOM      6  H31 UNL     1      -1.081   3.486   0.822  1.00  0.00     0.157 HD
ATOM      7  H32 UNL     1      -2.218   4.397   1.828  1.00  0.00     0.157 HD
HETATM    8  C3  UNL     1      -2.411   1.368   0.658  1.00  0.00     0.125 A 
HETATM    9  N4  UNL     1      -1.227   1.454   0.045  1.00  0.00    -0.293 N 
ATOM     10  H4  UNL     1      -0.868   2.399  -0.091  1.00  0.00     0.187 HD
HETATM   11  N5  UNL     1      -0.461   0.483  -0.407  1.00  0.00    -0.283 N 
ATOM     12  H5  UNL     1       0.463   0.775  -0.727  1.00  0.00     0.188 HD
HETATM   13  C4  UNL     1      -0.710  -0.836  -0.512  1.00  0.00     0.152 C 
HETATM   14  N10 UNL     1      -1.945  -1.328  -0.594  1.00  0.00    -0.305 N 
ATOM     15  H10 UNL     1      -2.066  -2.118  -1.227  1.00  0.00     0.171 HD
HETATM   16  C13 UNL     1      -3.075  -0.911   0.062  1.00  0.00     0.277 C 
HETATM   17  O5  UNL     1      -4.049  -1.689   0.122  1.00  0.00    -0.266 OA
HETATM   18  C14 UNL     1      -3.284   0.301   0.686  1.00  0.00     0.148 A 
HETATM   19  N11 UNL     1      -4.427   0.422   1.362  1.00  0.00    -0.184 N 
ATOM     20  H11 UNL     1      -5.074  -0.366   1.384  1.00  0.00     0.184 HD
ENDROOT
BRANCH  13  21
HETATM   21  C5  UNL     1       0.445  -1.700  -0.479  1.00  0.00     0.116 A 
HETATM   22  C6  UNL     1       0.469  -3.064  -0.746  1.00  0.00     0.134 A 
HETATM   23  N8  UNL     1       1.769  -3.493  -0.510  1.00  0.00    -0.346 N 
HETATM   24  C8  UNL     1       2.489  -2.462  -0.129  1.00  0.00     0.186 A 
ATOM     25  H8  UNL     1       2.108  -4.449  -0.615  1.00  0.00     0.167 HD
HETATM   26  N9  UNL     1       1.688  -1.348  -0.105  1.00  0.00    -0.316 N 
BRANCH  22  27
HETATM   27  C7  UNL     1      -0.531  -3.975  -1.249  1.00  0.00     0.288 C 
HETATM   28  O1  UNL     1      -1.596  -3.657  -1.784  1.00  0.00    -0.264 OA
HETATM   29  N6  UNL     1      -0.273  -5.398  -1.119  1.00  0.00    -0.271 N 
ATOM     30  H6  UNL     1       0.595  -5.708  -0.683  1.00  0.00     0.189 HD
BRANCH  29  31
HETATM   31  N7  UNL     1      -1.185  -6.356  -1.577  1.00  0.00    -0.342 N 
ATOM     32  H72 UNL     1      -2.048  -6.029  -2.011  1.00  0.00     0.176 HD
ATOM     33  H71 UNL     1      -1.004  -7.356  -1.486  1.00  0.00     0.176 HD
ENDBRANCH  29  31
ENDBRANCH  22  27
BRANCH  26  34
HETATM   34  C9  UNL     1       2.210  -0.082   0.263  1.00  0.00     0.300 C 
BRANCH  34  35
HETATM   35  O2  UNL     1       2.722   0.598  -0.847  1.00  0.00    -0.362 OA
BRANCH  35  36
HETATM   36  C10 UNL     1       3.306   1.795  -0.549  1.00  0.00     0.170 C 
BRANCH  36  37
HETATM   37  C11 UNL     1       4.833   1.726  -0.746  1.00  0.00     0.198 C 
BRANCH  37  38
HETATM   38  O3  UNL     1       5.349   2.965  -0.427  1.00  0.00    -0.398 OA
ATOM     39  H3  UNL     1       6.290   2.922  -0.548  1.00  0.00     0.209 HD
ENDBRANCH  37  38
ENDBRANCH  36  37
BRANCH  36  40
HETATM   40  C12 UNL     1       2.834   2.984  -1.294  1.00  0.00     0.198 C 
BRANCH  40  41
HETATM   41  O4  UNL     1       1.498   3.304  -1.150  1.00  0.00    -0.398 OA
ATOM     42  H4  UNL     1       1.195   4.067  -1.628  1.00  0.00     0.209 HD
ENDBRANCH  40  41
ENDBRANCH  36  40
ENDBRANCH  35  36
ENDBRANCH  34  35
ENDBRANCH  26  34
ENDBRANCH  13  21
BRANCH   1  43
HETATM   43  N1  UNL     1      -5.868   1.636   2.663  1.00  0.00    -0.234 N 
ATOM     44  H12 UNL     1      -6.115   2.492   3.159  1.00  0.00     0.174 HD
ATOM     45  H11 UNL     1      -6.502   0.837   2.673  1.00  0.00     0.174 HD
ENDBRANCH   1  43
TORSDOF 11
