REMARK  15 active torsions:
REMARK  status: ('A' for Active; 'I' for Inactive)
REMARK    1  A    between atoms: N1_3  and  N2_5 
REMARK    2  A    between atoms: N3_7  and  C3_9 
REMARK    3  A    between atoms: C6_12  and  C7_13 
REMARK    4  A    between atoms: C7_13  and  O1_14 
REMARK    5  A    between atoms: C7_13  and  C8_16 
REMARK    6  A    between atoms: C8_16  and  C9_17 
REMARK    7  A    between atoms: C9_17  and  C10_18 
REMARK    8  A    between atoms: C10_18  and  C11_19 
REMARK    9  A    between atoms: C11_19  and  S1_20 
REMARK   10  A    between atoms: S1_20  and  S2_21 
REMARK   11  A    between atoms: S2_21  and  C12_22 
REMARK   12  A    between atoms: C12_22  and  C13_23 
REMARK   13  A    between atoms: C13_23  and  O2_24 
REMARK   14  A    between atoms: C15_27  and  O3_28 
REMARK   15  A    between atoms: O3_28  and  C16_29 
ROOT
HETATM    1  C3  UNL     1       2.720   0.875   0.856  1.00  0.00     0.082 A 
HETATM    2  C4  UNL     1       1.771   1.624   0.208  1.00  0.00     0.034 A 
HETATM    3  C5  UNL     1       0.829   1.013  -0.596  1.00  0.00     0.012 A 
HETATM    4  C6  UNL     1       0.858  -0.345  -0.735  1.00  0.00    -0.027 A 
HETATM    5  C14 UNL     1       1.815  -1.130  -0.085  1.00  0.00     0.049 A 
HETATM    6  C15 UNL     1       2.756  -0.523   0.718  1.00  0.00     0.097 A 
ENDROOT
BRANCH   4   7
HETATM    7  C7  UNL     1      -0.129  -1.098  -1.588  1.00  0.00     0.151 C 
BRANCH   7   8
HETATM    8  O1  UNL     1       0.614  -1.993  -2.401  1.00  0.00    -0.391 OA
ATOM      9  H1  UNL     1      -0.009  -2.468  -2.939  1.00  0.00     0.210 HD
ENDBRANCH   7   8
BRANCH   7  10
HETATM   10  C8  UNL     1      -1.016  -1.875  -0.651  1.00  0.00     0.036 C 
BRANCH  10  11
HETATM   11  C9  UNL     1      -1.778  -0.990   0.293  1.00  0.00     0.004 C 
BRANCH  11  12
HETATM   12  C10 UNL     1      -2.678  -0.087  -0.468  1.00  0.00     0.011 C 
BRANCH  12  13
HETATM   13  C11 UNL     1      -3.478   0.838   0.484  1.00  0.00     0.086 C 
BRANCH  13  14
HETATM   14  S1  UNL     1      -4.483   1.833  -0.627  1.00  0.00    -0.098 SA
BRANCH  14  15
HETATM   15  S2  UNL     1      -5.935   0.728  -1.634  1.00  0.00    -0.096 SA
BRANCH  15  16
HETATM   16  C12 UNL     1      -7.493   0.781  -0.778  1.00  0.00     0.112 C 
BRANCH  16  17
HETATM   17  C13 UNL     1      -7.446   0.148   0.566  1.00  0.00     0.175 C 
BRANCH  17  18
HETATM   18  O2  UNL     1      -6.589   0.832   1.391  1.00  0.00    -0.400 OA
ATOM     19  H2  UNL     1      -6.559   0.427   2.250  1.00  0.00     0.209 HD
ENDBRANCH  17  18
ENDBRANCH  16  17
ENDBRANCH  15  16
ENDBRANCH  14  15
ENDBRANCH  13  14
ENDBRANCH  12  13
ENDBRANCH  11  12
ENDBRANCH  10  11
ENDBRANCH   7  10
ENDBRANCH   4   7
BRANCH   6  20
HETATM   20  O3  UNL     1       3.711  -1.235   1.376  1.00  0.00    -0.349 OA
BRANCH  20  21
HETATM   21  C16 UNL     1       3.898  -2.616   1.343  1.00  0.00     0.171 C 
HETATM   22  C17 UNL     1       4.217  -3.093  -0.056  1.00  0.00     0.034 C 
ENDBRANCH  20  21
ENDBRANCH   6  20
BRANCH   1  23
HETATM   23  N3  UNL     1       3.700   1.470   1.687  1.00  0.00    -0.284 N 
HETATM   24  N2  UNL     1       4.361   2.497   1.411  1.00  0.00    -0.243 N 
ATOM     25  H2  UNL     1       5.033   2.806   2.113  1.00  0.00     0.208 HD
ATOM     26  H3  UNL     1       3.883   1.024   2.586  1.00  0.00     0.188 HD
BRANCH  24  27
HETATM   27  N1  UNL     1       4.282   3.255   0.267  1.00  0.00    -0.302 N 
HETATM   28  C2  UNL     1       5.317   3.419  -0.475  1.00  0.00     0.077 C 
HETATM   29  C1  UNL     1       6.591   2.793  -0.097  1.00  0.00     0.056 C 
ATOM     30  H1  UNL     1       3.397   3.689   0.006  1.00  0.00     0.187 HD
ENDBRANCH  24  27
ENDBRANCH   1  23
TORSDOF 15
