REMARK  15 active torsions:
REMARK  status: ('A' for Active; 'I' for Inactive)
REMARK    1  A    between atoms: C2_2  and  C3_3 
REMARK    2  A    between atoms: C3_3  and  C4_4 
REMARK    3  A    between atoms: C4_4  and  C5_5 
REMARK    4  A    between atoms: C5_5  and  O1_6 
REMARK    5  A    between atoms: O1_6  and  C6_7 
REMARK    6  A    between atoms: C7_8  and  C8_9 
REMARK    7  A    between atoms: C8_9  and  C9_10 
REMARK    8  A    between atoms: C9_10  and  O2_11 
REMARK    9  A    between atoms: O2_11  and  C10_12 
REMARK   10  A    between atoms: C10_12  and  C11_13 
REMARK   11  A    between atoms: C11_13  and  S1_14 
REMARK   12  A    between atoms: S1_14  and  C12_15 
REMARK   13  A    between atoms: N1_19  and  C16_20 
REMARK   14  A    between atoms: C16_20  and  C17_21 
REMARK   15  A    between atoms: C19_24  and  O3_25 
ROOT
HETATM    1  C17 UNL     1      -1.108   5.029  -1.202  1.00  0.00     0.144 C 
HETATM    2  C18 UNL     1      -1.019   6.434  -0.808  1.00  0.00     0.060 C 
HETATM    3  N2  UNL     1      -0.968   7.535  -0.498  1.00  0.00    -0.197 NA
ENDROOT
BRANCH   1   4
HETATM    4  C16 UNL     1      -0.745   4.148  -0.018  1.00  0.00     0.144 C 
BRANCH   4   5
HETATM    5  N1  UNL     1      -0.856   2.766  -0.485  1.00  0.00    -0.334 N 
HETATM    6  C15 UNL     1       0.162   2.082  -1.034  1.00  0.00     0.103 A 
HETATM    7  C7  UNL     1      -0.284   0.796  -1.366  1.00  0.00    -0.003 A 
HETATM    8  C6  UNL     1      -1.587   0.708  -1.012  1.00  0.00     0.127 A 
HETATM    9  C19 UNL     1      -1.914   1.950  -0.466  1.00  0.00     0.177 A 
BRANCH   7  10
HETATM   10  C8  UNL     1       0.596  -0.206  -1.976  1.00  0.00     0.069 C 
BRANCH  10  11
HETATM   11  C9  UNL     1       1.124  -1.178  -0.915  1.00  0.00     0.172 C 
BRANCH  11  12
HETATM   12  O2  UNL     1       1.837  -0.507   0.051  1.00  0.00    -0.390 OA
BRANCH  12  13
HETATM   13  C10 UNL     1       2.290  -1.368   1.021  1.00  0.00     0.177 C 
BRANCH  13  14
HETATM   14  C11 UNL     1       3.200  -2.400   0.420  1.00  0.00     0.100 C 
BRANCH  14  15
HETATM   15  S1  UNL     1       4.597  -1.651  -0.410  1.00  0.00    -0.163 SA
BRANCH  15  16
HETATM   16  C12 UNL     1       5.716  -0.869   0.729  1.00  0.00     0.039 C 
HETATM   17  C13 UNL     1       5.183   0.352   1.398  1.00  0.00     0.021 C 
HETATM   18  C14 UNL     1       7.013  -0.574  -0.026  1.00  0.00     0.021 C 
ENDBRANCH  15  16
ENDBRANCH  14  15
ENDBRANCH  13  14
ENDBRANCH  12  13
ENDBRANCH  11  12
ENDBRANCH  10  11
ENDBRANCH   7  10
BRANCH   8  19
HETATM   19  O1  UNL     1      -2.442  -0.336  -1.136  1.00  0.00    -0.346 OA
BRANCH  19  20
HETATM   20  C5  UNL     1      -2.783  -1.367  -0.294  1.00  0.00     0.176 C 
BRANCH  20  21
HETATM   21  C4  UNL     1      -3.394  -0.921   1.031  1.00  0.00     0.027 C 
BRANCH  21  22
HETATM   22  C3  UNL     1      -3.732  -2.102   1.894  1.00  0.00     0.002 C 
BRANCH  22  23
HETATM   23  C2  UNL     1      -4.714  -3.045   1.275  1.00  0.00    -0.004 C 
HETATM   24  C1  UNL     1      -6.033  -2.439   0.948  1.00  0.00     0.005 C 
ENDBRANCH  22  23
ENDBRANCH  21  22
ENDBRANCH  20  21
ENDBRANCH  19  20
ENDBRANCH   8  19
BRANCH   9  25
HETATM   25  O3  UNL     1      -3.162   2.306   0.033  1.00  0.00    -0.344 OA
ATOM     26  H3  UNL     1      -3.385   3.151   0.405  1.00  0.00     0.219 HD
ENDBRANCH   9  25
ENDBRANCH   4   5
ENDBRANCH   1   4
TORSDOF 15
