REMARK  14 active torsions:
REMARK  status: ('A' for Active; 'I' for Inactive)
REMARK    1  A    between atoms: C2_2  and  C3_3 
REMARK    2  A    between atoms: C3_3  and  C4_4 
REMARK    3  A    between atoms: C4_4  and  C5_5 
REMARK    4  A    between atoms: C4_4  and  C7_8 
REMARK    5  A    between atoms: C5_5  and  O1_6 
REMARK    6  A    between atoms: C7_8  and  O2_9 
REMARK    7  A    between atoms: O2_9  and  C8_10 
REMARK    8  A    between atoms: C8_10  and  C9_11 
REMARK    9  A    between atoms: C9_11  and  S1_12 
REMARK   10  A    between atoms: S1_12  and  S2_13 
REMARK   11  A    between atoms: S2_13  and  C10_14 
REMARK   12  A    between atoms: C13_18  and  N2_19 
REMARK   13  A    between atoms: N2_19  and  C14_21 
REMARK   14  A    between atoms: C14_21  and  C16_23 
ROOT
HETATM    1  C10 UNL     1       2.111  -2.354  -0.708  1.00  0.00     0.082 A 
HETATM    2  C11 UNL     1       2.203  -1.500   0.370  1.00  0.00     0.066 A 
HETATM    3  C12 UNL     1       3.275  -0.635   0.430  1.00  0.00     0.076 A 
HETATM    4  N1  UNL     1       3.409   0.259   1.519  1.00  0.00    -0.100 NA
HETATM    5  C13 UNL     1       4.264  -0.589  -0.549  1.00  0.00     0.068 A 
HETATM    6  C18 UNL     1       4.125  -1.458  -1.599  1.00  0.00     0.119 A 
HETATM    7  N3  UNL     1       3.060  -2.314  -1.653  1.00  0.00    -0.358 N 
ATOM      8  H3  UNL     1       2.985  -2.950  -2.447  1.00  0.00     0.166 HD
ENDROOT
BRANCH   1   9
HETATM    9  S2  UNL     1       0.738  -3.516  -0.859  1.00  0.00    -0.040 SA
BRANCH   9  10
HETATM   10  S1  UNL     1      -0.576  -3.314   0.803  1.00  0.00    -0.089 SA
BRANCH  10  11
HETATM   11  C9  UNL     1      -1.826  -2.055   0.335  1.00  0.00     0.112 C 
BRANCH  11  12
HETATM   12  C8  UNL     1      -2.803  -1.839   1.443  1.00  0.00     0.179 C 
BRANCH  12  13
HETATM   13  O2  UNL     1      -3.762  -0.925   1.136  1.00  0.00    -0.386 OA
BRANCH  13  14
HETATM   14  C7  UNL     1      -3.249   0.303   0.863  1.00  0.00     0.204 C 
BRANCH  14  15
HETATM   15  C4  UNL     1      -4.389   1.321   0.550  1.00  0.00    -0.037 C 
BRANCH  15  16
HETATM   16  C3  UNL     1      -5.297   1.460   1.675  1.00  0.00    -0.020 C 
BRANCH  16  17
HETATM   17  C2  UNL     1      -6.300   0.487   2.087  1.00  0.00     0.023 C 
HETATM   18  C1  UNL     1      -7.443   0.166   1.185  1.00  0.00     0.009 C 
ENDBRANCH  16  17
ENDBRANCH  15  16
BRANCH  15  19
HETATM   19  C5  UNL     1      -4.826   1.167  -0.841  1.00  0.00     0.203 C 
BRANCH  19  20
HETATM   20  O1  UNL     1      -5.567   0.093  -1.212  1.00  0.00    -0.392 OA
HETATM   21  C6  UNL     1      -5.849   0.181  -2.564  1.00  0.00     0.201 C 
ENDBRANCH  19  20
ENDBRANCH  15  19
ENDBRANCH  14  15
ENDBRANCH  13  14
ENDBRANCH  12  13
ENDBRANCH  11  12
ENDBRANCH  10  11
ENDBRANCH   9  10
ENDBRANCH   1   9
BRANCH   5  22
HETATM   22  N2  UNL     1       5.347   0.322  -0.456  1.00  0.00    -0.383 N 
ATOM     23  H2  UNL     1       5.368   0.969   0.332  1.00  0.00     0.160 HD
BRANCH  22  24
HETATM   24  C14 UNL     1       6.421   0.382  -1.417  1.00  0.00     0.077 C 
HETATM   25  C15 UNL     1       7.233  -0.908  -1.421  1.00  0.00     0.032 C 
BRANCH  24  26
HETATM   26  C16 UNL     1       7.341   1.542  -1.122  1.00  0.00     0.020 C 
HETATM   27  C17 UNL     1       7.967   1.448   0.237  1.00  0.00     0.007 C 
ENDBRANCH  24  26
ENDBRANCH  22  24
ENDBRANCH   5  22
TORSDOF 14
