REMARK  17 active torsions:
REMARK  status: ('A' for Active; 'I' for Inactive)
REMARK    1  A    between atoms: C2_2  and  C3_3 
REMARK    2  A    between atoms: C2_2  and  C8_11 
REMARK    3  A    between atoms: C3_3  and  C4_4 
REMARK    4  A    between atoms: C4_4  and  C5_5 
REMARK    5  A    between atoms: C8_11  and  O1_12 
REMARK    6  A    between atoms: O1_12  and  C9_13 
REMARK    7  A    between atoms: C9_13  and  O2_14 
REMARK    8  A    between atoms: C9_13  and  C10_16 
REMARK    9  A    between atoms: C10_16  and  N2_17 
REMARK   10  A    between atoms: N2_17  and  C11_19 
REMARK   11  A    between atoms: C11_19  and  C12_20 
REMARK   12  A    between atoms: C12_20  and  S2_21 
REMARK   13  A    between atoms: S2_21  and  S3_22 
REMARK   14  A    between atoms: S3_22  and  C13_23 
REMARK   15  A    between atoms: C13_23  and  C14_24 
REMARK   16  A    between atoms: C14_24  and  N3_25 
REMARK   17  A    between atoms: N3_25  and  N4_27 
ROOT
HETATM    1  C10 UNL     1       1.384   2.178   0.603  1.00  0.00     0.120 C 
ENDROOT
BRANCH   1   2
HETATM    2  C9  UNL     1       0.067   2.934   0.724  1.00  0.00     0.296 C 
BRANCH   2   3
HETATM    3  O1  UNL     1      -0.639   2.991  -0.464  1.00  0.00    -0.356 OA
BRANCH   3   4
HETATM    4  C8  UNL     1      -1.906   2.494  -0.353  1.00  0.00     0.175 C 
BRANCH   4   5
HETATM    5  C2  UNL     1      -2.042   1.057   0.001  1.00  0.00     0.005 C 
HETATM    6  C1  UNL     1      -1.393   0.170  -1.060  1.00  0.00     0.012 C 
BRANCH   5   7
HETATM    7  C3  UNL     1      -3.512   0.694   0.087  1.00  0.00     0.009 C 
BRANCH   7   8
HETATM    8  C4  UNL     1      -3.574  -0.766   0.471  1.00  0.00     0.036 C 
BRANCH   8   9
HETATM    9  C5  UNL     1      -4.967  -1.276   0.611  1.00  0.00     0.143 C 
HETATM   10  N1  UNL     1      -5.798  -1.213  -0.501  1.00  0.00    -0.388 N 
HETATM   11  C6  UNL     1      -6.543  -2.132  -0.815  1.00  0.00     0.067 C 
ATOM     12  H1  UNL     1      -5.787  -0.371  -1.076  1.00  0.00     0.159 HD
HETATM   13  C7  UNL     1      -6.555  -3.354   0.024  1.00  0.00     0.120 C 
HETATM   14  S1  UNL     1      -4.947  -3.097   0.894  1.00  0.00    -0.139 SA
ENDBRANCH   8   9
ENDBRANCH   7   8
ENDBRANCH   5   7
ENDBRANCH   4   5
ENDBRANCH   3   4
ENDBRANCH   2   3
BRANCH   2  15
HETATM   15  O2  UNL     1       0.385   4.234   1.175  1.00  0.00    -0.367 OA
ATOM     16  H2  UNL     1       0.870   4.195   1.991  1.00  0.00     0.213 HD
ENDBRANCH   2  15
ENDBRANCH   1   2
BRANCH   1  17
HETATM   17  N2  UNL     1       2.212   2.808  -0.346  1.00  0.00    -0.377 N 
ATOM     18  H2  UNL     1       1.857   3.602  -0.878  1.00  0.00     0.164 HD
BRANCH  17  19
HETATM   19  C11 UNL     1       3.522   2.352  -0.566  1.00  0.00     0.071 C 
BRANCH  19  20
HETATM   20  C12 UNL     1       3.721   1.038  -1.227  1.00  0.00     0.130 C 
BRANCH  20  21
HETATM   21  S2  UNL     1       3.079  -0.401  -0.404  1.00  0.00    -0.092 SA
BRANCH  21  22
HETATM   22  S3  UNL     1       4.026  -0.830   1.430  1.00  0.00    -0.096 SA
BRANCH  22  23
HETATM   23  C13 UNL     1       5.440  -1.917   1.126  1.00  0.00     0.107 C 
BRANCH  23  24
HETATM   24  C14 UNL     1       5.000  -3.261   0.623  1.00  0.00     0.152 C 
BRANCH  24  25
HETATM   25  N3  UNL     1       6.125  -4.143   0.374  1.00  0.00    -0.322 N 
ATOM     26  H3  UNL     1       5.993  -5.133   0.165  1.00  0.00     0.181 HD
BRANCH  25  27
HETATM   27  N4  UNL     1       7.263  -3.632   0.428  1.00  0.00    -0.254 N 
HETATM   28  N5  UNL     1       8.392  -3.535   0.950  1.00  0.00    -0.331 N 
ATOM     29  H52 UNL     1       8.342  -4.220   1.704  1.00  0.00     0.178 HD
ATOM     30  H51 UNL     1       9.322  -3.118   0.994  1.00  0.00     0.178 HD
ATOM     31  H4  UNL     1       7.276  -2.957  -0.336  1.00  0.00     0.207 HD
ENDBRANCH  25  27
ENDBRANCH  24  25
ENDBRANCH  23  24
ENDBRANCH  22  23
ENDBRANCH  21  22
ENDBRANCH  20  21
ENDBRANCH  19  20
ENDBRANCH  17  19
ENDBRANCH   1  17
TORSDOF 17
