REMARK  14 active torsions:
REMARK  status: ('A' for Active; 'I' for Inactive)
REMARK    1  A    between atoms: C2_2  and  C3_3 
REMARK    2  A    between atoms: C3_3  and  C4_4 
REMARK    3  A    between atoms: C4_4  and  N1_5 
REMARK    4  A    between atoms: N1_5  and  C5_6 
REMARK    5  A    between atoms: N1_5  and  C9_10 
REMARK    6  A    between atoms: C5_6  and  C6_7 
REMARK    7  A    between atoms: C6_7  and  C7_8 
REMARK    8  A    between atoms: C10_12  and  C11_13 
REMARK    9  A    between atoms: C11_13  and  C12_14 
REMARK   10  A    between atoms: C12_14  and  S1_15 
REMARK   11  A    between atoms: S1_15  and  C13_16 
REMARK   12  A    between atoms: C13_16  and  C14_17 
REMARK   13  A    between atoms: C17_22  and  N4_23 
REMARK   14  A    between atoms: N4_23  and  O2_25 
ROOT
HETATM    1  C14 UNL     1       7.107   0.601   0.402  1.00  0.00     0.134 C 
HETATM    2  C15 UNL     1       6.473  -0.517  -0.231  1.00  0.00     0.059 C 
HETATM    3  N2  UNL     1       5.997  -1.425  -0.758  1.00  0.00    -0.197 NA
ENDROOT
BRANCH   1   4
HETATM    4  C13 UNL     1       6.200   1.688   0.854  1.00  0.00     0.088 C 
BRANCH   4   5
HETATM    5  S1  UNL     1       5.020   1.176   2.070  1.00  0.00    -0.168 SA
BRANCH   5   6
HETATM    6  C12 UNL     1       3.641   0.186   1.544  1.00  0.00     0.080 C 
BRANCH   6   7
HETATM    7  C11 UNL     1       2.787   1.008   0.594  1.00  0.00     0.077 C 
BRANCH   7   8
HETATM    8  C10 UNL     1       1.576   0.314   0.115  1.00  0.00     0.083 A 
HETATM    9  O1  UNL     1       0.366   0.602   0.586  1.00  0.00    -0.294 OA
HETATM   10  C9  UNL     1      -0.555  -0.154  -0.003  1.00  0.00     0.180 A 
HETATM   11  C17 UNL     1       0.064  -0.967  -0.889  1.00  0.00     0.132 A 
HETATM   12  C16 UNL     1       1.433  -0.670  -0.818  1.00  0.00     0.109 A 
HETATM   13  N3  UNL     1       2.469  -1.255  -1.562  1.00  0.00    -0.097 NA
BRANCH  10  14
HETATM   14  N1  UNL     1      -1.925  -0.030   0.320  1.00  0.00    -0.339 N 
BRANCH  14  15
HETATM   15  C4  UNL     1      -2.646  -0.507   1.446  1.00  0.00     0.066 C 
BRANCH  15  16
HETATM   16  C3  UNL     1      -2.057  -1.444   2.405  1.00  0.00     0.044 C 
BRANCH  16  17
HETATM   17  C2  UNL     1      -1.707  -2.818   1.940  1.00  0.00     0.001 C 
HETATM   18  C1  UNL     1      -2.917  -3.567   1.404  1.00  0.00     0.005 C 
ENDBRANCH  16  17
ENDBRANCH  15  16
ENDBRANCH  14  15
BRANCH  14  19
HETATM   19  C5  UNL     1      -2.699   0.783  -0.638  1.00  0.00     0.130 C 
BRANCH  19  20
HETATM   20  C6  UNL     1      -3.059   2.109  -0.078  1.00  0.00     0.020 C 
BRANCH  20  21
HETATM   21  C7  UNL     1      -3.842   2.975  -1.034  1.00  0.00    -0.003 C 
HETATM   22  C8  UNL     1      -4.136   4.340  -0.386  1.00  0.00     0.005 C 
ENDBRANCH  20  21
ENDBRANCH  19  20
ENDBRANCH  14  19
ENDBRANCH  10  14
BRANCH  11  23
HETATM   23  N4  UNL     1      -0.461  -1.955  -1.769  1.00  0.00    -0.261 N 
ATOM     24  H4  UNL     1      -0.883  -2.787  -1.357  1.00  0.00     0.194 HD
BRANCH  23  25
HETATM   25  O2  UNL     1      -0.435  -1.859  -3.097  1.00  0.00    -0.285 OA
HETATM   26  C18 UNL     1      -1.695  -1.560  -3.575  1.00  0.00     0.237 C 
ENDBRANCH  23  25
ENDBRANCH  11  23
ENDBRANCH   7   8
ENDBRANCH   6   7
ENDBRANCH   5   6
ENDBRANCH   4   5
ENDBRANCH   1   4
TORSDOF 14
