REMARK  12 active torsions:
REMARK  status: ('A' for Active; 'I' for Inactive)
REMARK       I    between atoms: C1_4  and  N3_6 
REMARK    1  A    between atoms: N3_6  and  C2_8 
REMARK    2  A    between atoms: C5_16  and  N6_17 
REMARK    3  A    between atoms: N6_17  and  C6_19 
REMARK    4  A    between atoms: C6_19  and  C7_20 
REMARK    5  A    between atoms: C7_20  and  N7_21 
REMARK    6  A    between atoms: N7_21  and  C8_24 
REMARK    7  A    between atoms: C8_24  and  C9_25 
REMARK    8  A    between atoms: C9_25  and  N8_26 
REMARK    9  A    between atoms: N8_26  and  C10_29 
REMARK   10  A    between atoms: C10_29  and  C11_30 
REMARK   11  A    between atoms: C11_30  and  N9_31 
REMARK   12  A    between atoms: C13_38  and  N11_39 
ROOT
HETATM    1  C2  UNL     1      -5.297  -0.453   0.036  1.00  0.00     0.144 A 
HETATM    2  N4  UNL     1      -4.619  -0.342  -1.127  1.00  0.00    -0.334 N 
ATOM      3  H4  UNL     1      -4.946  -0.701  -2.024  1.00  0.00     0.168 HD
HETATM    4  C3  UNL     1      -3.453   0.306  -0.943  1.00  0.00     0.133 A 
HETATM    5  C4  UNL     1      -2.420   0.671  -1.754  1.00  0.00     0.288 A 
HETATM    6  O1  UNL     1      -2.467   0.388  -2.979  1.00  0.00    -0.265 OA
HETATM    7  N5  UNL     1      -1.365   1.323  -1.253  1.00  0.00    -0.154 N 
ATOM      8  H5  UNL     1      -0.603   1.586  -1.878  1.00  0.00     0.187 HD
HETATM    9  C5  UNL     1      -1.280   1.637   0.027  1.00  0.00     0.681 A 
HETATM   10  N10 UNL     1      -2.281   1.295   0.865  1.00  0.00    -0.187 N 
ATOM     11  H10 UNL     1      -2.222   1.535   1.855  1.00  0.00     0.184 HD
HETATM   12  C12 UNL     1      -3.355   0.639   0.396  1.00  0.00     0.118 A 
HETATM   13  C13 UNL     1      -4.506   0.160   0.983  1.00  0.00     0.176 A 
ENDROOT
BRANCH   9  14
HETATM   14  N6  UNL     1      -0.299   2.242   0.579  1.00  0.00    -0.224 N 
ATOM     15  H6  UNL     1      -0.398   2.408   1.580  1.00  0.00     0.177 HD
BRANCH  14  16
HETATM   16  C6  UNL     1       0.912   2.718   0.002  1.00  0.00     0.165 C 
BRANCH  16  17
HETATM   17  C7  UNL     1       1.921   1.605  -0.224  1.00  0.00     0.252 C 
BRANCH  17  18
HETATM   18  N7  UNL     1       2.253   0.941   1.003  1.00  0.00    -0.072 N 
ATOM     19  H72 UNL     1       2.607   1.601   1.696  1.00  0.00     0.277 HD
ATOM     20  H71 UNL     1       1.414   0.627   1.492  1.00  0.00     0.277 HD
BRANCH  18  21
HETATM   21  C8  UNL     1       3.169  -0.139   0.801  1.00  0.00     0.259 C 
BRANCH  21  22
HETATM   22  C9  UNL     1       4.559   0.295   0.400  1.00  0.00     0.259 C 
BRANCH  22  23
HETATM   23  N8  UNL     1       5.424  -0.871   0.215  1.00  0.00    -0.072 N 
ATOM     24  H82 UNL     1       5.429  -1.498   1.019  1.00  0.00     0.277 HD
ATOM     25  H81 UNL     1       5.060  -1.537  -0.466  1.00  0.00     0.277 HD
BRANCH  23  26
HETATM   26  C10 UNL     1       6.739  -0.370  -0.125  1.00  0.00     0.259 C 
BRANCH  26  27
HETATM   27  C11 UNL     1       7.714  -1.507  -0.349  1.00  0.00     0.257 C 
BRANCH  27  28
HETATM   28  N9  UNL     1       7.257  -2.346  -1.433  1.00  0.00    -0.078 N 
ATOM     29  H93 UNL     1       6.306  -2.683  -1.281  1.00  0.00     0.274 HD
ATOM     30  H92 UNL     1       7.091  -1.812  -2.286  1.00  0.00     0.274 HD
ATOM     31  H91 UNL     1       7.914  -3.112  -1.584  1.00  0.00     0.274 HD
ENDBRANCH  27  28
ENDBRANCH  26  27
ENDBRANCH  23  26
ENDBRANCH  22  23
ENDBRANCH  21  22
ENDBRANCH  18  21
ENDBRANCH  17  18
ENDBRANCH  16  17
ENDBRANCH  14  16
ENDBRANCH   9  14
BRANCH  13  32
HETATM   32  N11 UNL     1      -4.767   0.312   2.377  1.00  0.00    -0.109 N 
HETATM   33  O2  UNL     1      -5.605   1.109   2.835  1.00  0.00    -0.532 OA
HETATM   34  O3  UNL     1      -4.059  -0.457   3.253  1.00  0.00    -0.532 OA
ENDBRANCH  13  32
BRANCH   1  35
HETATM   35  N3  UNL     1      -6.551  -1.062   0.289  1.00  0.00    -0.315 N 
HETATM   36  C1  UNL     1      -7.362  -1.684  -0.685  1.00  0.00     0.187 C 
HETATM   37  N1  UNL     1      -6.867  -2.538  -1.489  1.00  0.00    -0.373 N 
HETATM   38  N2  UNL     1      -8.739  -1.342  -0.752  1.00  0.00    -0.064 NA
ATOM     39  H12 UNL     1      -7.453  -2.987  -2.193  1.00  0.00     0.158 HD
ATOM     40  H11 UNL     1      -5.878  -2.784  -1.441  1.00  0.00     0.158 HD
ATOM     41  H3  UNL     1      -6.895  -1.050   1.249  1.00  0.00     0.170 HD
ENDBRANCH   1  35
TORSDOF 12
