REMARK  14 active torsions:
REMARK  status: ('A' for Active; 'I' for Inactive)
REMARK    1  A    between atoms: C2_2  and  C3_3 
REMARK    2  A    between atoms: C3_3  and  N1_4 
REMARK    3  A    between atoms: N1_4  and  C4_5 
REMARK    4  A    between atoms: N1_4  and  C6_9 
REMARK    5  A    between atoms: C4_5  and  C5_6 
REMARK    6  A    between atoms: C5_6  and  O1_7 
REMARK    7  A    between atoms: C6_9  and  C7_10 
REMARK    8  A    between atoms: C7_10  and  N2_11 
REMARK    9  A    between atoms: N2_11  and  C8_14 
REMARK   10  A    between atoms: C8_14  and  C9_15 
REMARK   11  A    between atoms: C9_15  and  C10_16 
REMARK   12  A    between atoms: C10_16  and  N3_17 
REMARK   13  A    between atoms: N3_17  and  C11_19 
REMARK   14  A    between atoms: C13_25  and  N6_26 
ROOT
HETATM    1  N3  UNL     1      -2.493   0.381   1.442  1.00  0.00    -0.226 N 
ATOM      2  H3  UNL     1      -2.393   0.283   2.452  1.00  0.00     0.177 HD
ENDROOT
BRANCH   1   3
HETATM    3  C10 UNL     1      -1.341   0.698   0.630  1.00  0.00     0.139 C 
BRANCH   3   4
HETATM    4  C9  UNL     1      -0.465   1.749   1.291  1.00  0.00     0.048 C 
BRANCH   4   5
HETATM    5  C8  UNL     1       0.690   2.030   0.366  1.00  0.00     0.234 C 
BRANCH   5   6
HETATM    6  N2  UNL     1       1.504   0.890   0.110  1.00  0.00    -0.074 N 
ATOM      7  H22 UNL     1       2.123   1.044  -0.686  1.00  0.00     0.277 HD
ATOM      8  H21 UNL     1       0.955   0.116  -0.265  1.00  0.00     0.277 HD
BRANCH   6   9
HETATM    9  C7  UNL     1       2.243   0.494   1.286  1.00  0.00     0.252 C 
BRANCH   9  10
HETATM   10  C6  UNL     1       3.092  -0.703   0.923  1.00  0.00     0.149 C 
BRANCH  10  11
HETATM   11  N1  UNL     1       3.967  -0.360  -0.136  1.00  0.00    -0.386 N 
BRANCH  11  12
HETATM   12  C3  UNL     1       5.005   0.559   0.107  1.00  0.00     0.084 C 
BRANCH  12  13
HETATM   13  C2  UNL     1       6.266  -0.020   0.644  1.00  0.00     0.007 C 
HETATM   14  C1  UNL     1       6.775   0.343   1.806  1.00  0.00     0.012 C 
ENDBRANCH  12  13
ENDBRANCH  11  12
BRANCH  11  15
HETATM   15  C4  UNL     1       4.125  -1.305  -1.173  1.00  0.00     0.148 C 
BRANCH  15  16
HETATM   16  C5  UNL     1       4.102  -0.621  -2.516  1.00  0.00     0.183 C 
BRANCH  16  17
HETATM   17  O1  UNL     1       4.254  -1.530  -3.564  1.00  0.00    -0.399 OA
ATOM     18  H1  UNL     1       4.240  -1.099  -4.410  1.00  0.00     0.209 HD
ENDBRANCH  16  17
ENDBRANCH  15  16
ENDBRANCH  11  15
ENDBRANCH  10  11
ENDBRANCH   9  10
ENDBRANCH   6   9
ENDBRANCH   5   6
ENDBRANCH   4   5
ENDBRANCH   3   4
ENDBRANCH   1   3
BRANCH   1  19
HETATM   19  C11 UNL     1      -3.648   0.222   0.890  1.00  0.00     0.680 A 
HETATM   20  N4  UNL     1      -4.041   0.294  -0.384  1.00  0.00    -0.174 N 
HETATM   21  C12 UNL     1      -5.362   0.065  -0.506  1.00  0.00     0.169 A 
ATOM     22  H4  UNL     1      -3.419   0.497  -1.166  1.00  0.00     0.186 HD
HETATM   23  N5  UNL     1      -6.192   0.033  -1.563  1.00  0.00    -0.174 N 
HETATM   24  C15 UNL     1      -5.828  -0.166   0.776  1.00  0.00     0.162 A 
HETATM   25  C13 UNL     1      -7.497  -0.227  -1.375  1.00  0.00     0.680 A 
ATOM     26  H5  UNL     1      -5.833   0.205  -2.502  1.00  0.00     0.186 HD
HETATM   27  N7  UNL     1      -7.994  -0.459  -0.129  1.00  0.00    -0.154 N 
HETATM   28  C14 UNL     1      -7.175  -0.428   0.920  1.00  0.00     0.290 A 
ATOM     29  H7  UNL     1      -8.987  -0.655  -0.000  1.00  0.00     0.187 HD
HETATM   30  O2  UNL     1      -7.616  -0.641   2.099  1.00  0.00    -0.265 OA
HETATM   31  N8  UNL     1      -4.773  -0.065   1.601  1.00  0.00    -0.182 N 
ATOM     32  H8  UNL     1      -4.809  -0.186   2.613  1.00  0.00     0.184 HD
BRANCH  25  33
HETATM   33  N6  UNL     1      -8.322  -0.266  -2.373  1.00  0.00    -0.234 N 
ATOM     34  H62 UNL     1      -7.950  -0.092  -3.307  1.00  0.00     0.174 HD
ATOM     35  H61 UNL     1      -9.313  -0.463  -2.230  1.00  0.00     0.174 HD
ENDBRANCH  25  33
ENDBRANCH   1  19
TORSDOF 14
