REMARK  14 active torsions:
REMARK  status: ('A' for Active; 'I' for Inactive)
REMARK    1  A    between atoms: N1_2  and  C3_4 
REMARK    2  A    between atoms: N1_2  and  C13_31 
REMARK    3  A    between atoms: C3_4  and  C4_5 
REMARK    4  A    between atoms: C5_6  and  C6_7 
REMARK    5  A    between atoms: C6_7  and  N2_8 
REMARK    6  A    between atoms: N2_8  and  C7_10 
REMARK    7  A    between atoms: C8_13  and  N4_14 
REMARK    8  A    between atoms: N4_14  and  C9_16 
REMARK    9  A    between atoms: C10_19  and  C11_20 
REMARK   10  A    between atoms: C11_20  and  O1_21 
REMARK   11  A    between atoms: C12_25  and  N8_26 
REMARK   12  A    between atoms: C13_31  and  C14_32 
REMARK   13  A    between atoms: C14_32  and  C15_33 
REMARK   14  A    between atoms: C15_33  and  N10_34 
ROOT
HETATM    1  C7  UNL     1       1.402  -1.003   1.597  1.00  0.00     0.707 A 
HETATM    2  N3  UNL     1       2.188  -0.152   0.915  1.00  0.00    -0.021 N 
ATOM      3  H3  UNL     1       1.780   0.610   0.373  1.00  0.00     0.203 HD
HETATM    4  C8  UNL     1       3.530  -0.323   0.960  1.00  0.00     0.708 A 
HETATM    5  N7  UNL     1       4.007  -1.342   1.690  1.00  0.00    -0.022 N 
ATOM      6  H7  UNL     1       5.018  -1.475   1.728  1.00  0.00     0.203 HD
HETATM    7  C12 UNL     1       3.237  -2.188   2.367  1.00  0.00     0.705 A 
HETATM    8  N9  UNL     1       1.908  -2.033   2.333  1.00  0.00    -0.022 N 
ATOM      9  H9  UNL     1       1.292  -2.667   2.843  1.00  0.00     0.203 HD
ENDROOT
BRANCH   1  10
HETATM   10  N2  UNL     1       0.122  -0.905   1.602  1.00  0.00    -0.222 N 
ATOM     11  H2  UNL     1      -0.398  -1.593   2.146  1.00  0.00     0.178 HD
BRANCH  10  12
HETATM   12  C6  UNL     1      -0.642   0.100   0.900  1.00  0.00     0.165 C 
BRANCH  12  13
HETATM   13  C5  UNL     1      -0.813  -0.242  -0.515  1.00  0.00    -0.009 C 
HETATM   14  C4  UNL     1      -1.951  -0.434  -1.160  1.00  0.00    -0.002 C 
BRANCH  14  15
HETATM   15  C3  UNL     1      -3.308  -0.349  -0.614  1.00  0.00     0.263 C 
BRANCH  15  16
HETATM   16  N1  UNL     1      -4.106   0.684  -1.297  1.00  0.00    -0.072 N 
HETATM   17  C1  UNL     1      -3.510   0.836  -2.637  1.00  0.00     0.272 C 
HETATM   18  C2  UNL     1      -3.920   1.902  -0.606  1.00  0.00     0.272 C 
BRANCH  16  19
HETATM   19  C13 UNL     1      -5.418   0.201  -1.450  1.00  0.00     0.238 C 
BRANCH  19  20
HETATM   20  C14 UNL     1      -6.462   0.670  -0.510  1.00  0.00     0.055 C 
BRANCH  20  21
HETATM   21  C15 UNL     1      -6.222   0.357   0.940  1.00  0.00     0.231 C 
BRANCH  21  22
HETATM   22  N10 UNL     1      -6.134  -1.078   1.140  1.00  0.00    -0.079 N 
ATOM     23 3H10 UNL     1      -6.955  -1.563   0.777  1.00  0.00     0.274 HD
ATOM     24 2H10 UNL     1      -5.429  -1.503   0.538  1.00  0.00     0.274 HD
ATOM     25 1H10 UNL     1      -5.971  -1.290   2.124  1.00  0.00     0.274 HD
ENDBRANCH  21  22
ENDBRANCH  20  21
ENDBRANCH  19  20
ENDBRANCH  16  19
ENDBRANCH  15  16
ENDBRANCH  14  15
ENDBRANCH  12  13
ENDBRANCH  10  12
ENDBRANCH   1  10
BRANCH   4  26
HETATM   26  N4  UNL     1       4.398   0.550   0.258  1.00  0.00    -0.204 N 
ATOM     27  H4  UNL     1       4.003   1.317  -0.286  1.00  0.00     0.179 HD
BRANCH  26  28
HETATM   28  C9  UNL     1       5.815   0.377   0.297  1.00  0.00     0.232 C 
HETATM   29  N5  UNL     1       6.290  -0.854  -0.248  1.00  0.00    -0.120 NA
HETATM   30  N6  UNL     1       6.679  -0.189  -1.400  1.00  0.00    -0.136 NA
HETATM   31  C10 UNL     1       6.603   1.098  -0.746  1.00  0.00     0.159 C 
BRANCH  31  32
HETATM   32  C11 UNL     1       7.913   1.604  -0.178  1.00  0.00     0.190 C 
BRANCH  32  33
HETATM   33  O1  UNL     1       7.626   2.853   0.408  1.00  0.00    -0.399 OA
ATOM     34  H1  UNL     1       8.448   3.170   0.764  1.00  0.00     0.209 HD
ENDBRANCH  32  33
ENDBRANCH  31  32
ENDBRANCH  26  28
ENDBRANCH   4  26
BRANCH   7  35
HETATM   35  N8  UNL     1       3.794  -3.136   3.039  1.00  0.00    -0.234 N 
ATOM     36  H82 UNL     1       4.807  -3.254   3.065  1.00  0.00     0.174 HD
ATOM     37  H81 UNL     1       3.203  -3.785   3.558  1.00  0.00     0.174 HD
ENDBRANCH   7  35
TORSDOF 14
