REMARK  3 active torsions:
REMARK  status: ('A' for Active; 'I' for Inactive)
REMARK    1  A    between atoms: C3_3  and  N1_4 
REMARK    2  A    between atoms: C3_3  and  N2_8 
REMARK    3  A    between atoms: N2_8  and  N3_10 
ROOT
HETATM    1  C1  UNL     1      -3.496  -1.389   0.755  1.00  0.00     0.016 C 
HETATM    2  C2  UNL     1      -2.667  -0.721   0.180  1.00  0.00    -0.062 C 
HETATM    3  C3  UNL     1      -1.660   0.100  -0.494  1.00  0.00     0.376 C 
ENDROOT
BRANCH   3   4
HETATM    4  N1  UNL     1      -1.817   1.473  -0.021  1.00  0.00    -0.046 N 
ATOM      5  H13 UNL     1      -2.765   1.829  -0.144  1.00  0.00     0.278 HD
ATOM      6  H12 UNL     1      -1.775   1.549   0.995  1.00  0.00     0.278 HD
ATOM      7  H11 UNL     1      -1.115   2.045  -0.491  1.00  0.00     0.278 HD
ENDBRANCH   3   4
BRANCH   3   8
HETATM    8  N2  UNL     1      -0.322  -0.400  -0.267  1.00  0.00    -0.294 N 
ATOM      9  H2  UNL     1      -0.201  -1.233   0.310  1.00  0.00     0.183 HD
BRANCH   8  10
HETATM   10  N3  UNL     1       0.797   0.205  -0.800  1.00  0.00    -0.278 N 
HETATM   11  C4  UNL     1       1.982   0.107  -0.315  1.00  0.00     0.215 C 
HETATM   12  N4  UNL     1       2.248  -0.657   0.850  1.00  0.00    -0.065 NA
HETATM   13  N5  UNL     1       3.034   0.779  -0.961  1.00  0.00    -0.065 NA
ATOM     14  H3  UNL     1       0.675   0.771  -1.640  1.00  0.00     0.189 HD
ENDBRANCH   8  10
ENDBRANCH   3   8
TORSDOF 3
