REMARK  1 active torsions:
REMARK  status: ('A' for Active; 'I' for Inactive)
REMARK       I    between atoms: C1_4  and  N3_6 
REMARK       I    between atoms: N3_6  and  C2_7 
REMARK    1  A    between atoms: C2_7  and  C3_9 
ROOT
HETATM    1  N1  UNL     1       1.601  -1.948  -0.137  1.00  0.00    -0.362 N 
ATOM      2  H11 UNL     1       0.669  -2.271  -0.397  1.00  0.00     0.159 HD
ATOM      3  H12 UNL     1       2.470  -2.479  -0.073  1.00  0.00     0.159 HD
HETATM    4  C1  UNL     1       1.653  -0.649   0.140  1.00  0.00     0.264 C 
HETATM    5  N2  UNL     1       2.941  -0.203   0.499  1.00  0.00    -0.049 NA
HETATM    6  N3  UNL     1       0.509   0.050   0.056  1.00  0.00    -0.330 NA
HETATM    7  C2  UNL     1      -0.648   0.757  -0.030  1.00  0.00     0.384 C 
HETATM    8  O1  UNL     1      -0.830   1.970   0.173  1.00  0.00    -0.246 OA
ENDROOT
BRANCH   7   9
HETATM    9  C3  UNL     1      -1.888   0.013  -0.417  1.00  0.00     0.337 C 
HETATM   10  N4  UNL     1      -3.137   0.657  -0.539  1.00  0.00    -0.052 NA
HETATM   11  O2  UNL     1      -1.830  -1.208  -0.639  1.00  0.00    -0.264 OA
ENDBRANCH   7   9
TORSDOF 1
