REMARK  0 active torsions:
REMARK  status: ('A' for Active; 'I' for Inactive)
REMARK       I    between atoms: C1_4  and  N3_6 
ROOT
HETATM    1  N1  UNL     1       1.364  -1.486  -0.543  1.00  0.00    -0.373 N 
ATOM      2  H11 UNL     1       0.741  -1.568  -1.346  1.00  0.00     0.158 HD
ATOM      3  H12 UNL     1       1.897  -2.293  -0.219  1.00  0.00     0.158 HD
HETATM    4  C1  UNL     1       1.477  -0.360   0.061  1.00  0.00     0.187 C 
HETATM    5  N2  UNL     1       2.337  -0.247   1.170  1.00  0.00    -0.064 NA
HETATM    6  N3  UNL     1       0.738   0.760  -0.389  1.00  0.00    -0.311 N 
ATOM      7  H3  UNL     1       1.193   1.585  -0.780  1.00  0.00     0.170 HD
HETATM    8  C2  UNL     1      -0.565   0.676  -0.274  1.00  0.00     0.193 A 
HETATM    9  N4  UNL     1      -1.670   1.500  -0.572  1.00  0.00    -0.278 N 
ATOM     10  H4  UNL     1      -1.757   2.431  -0.979  1.00  0.00     0.189 HD
HETATM   11  N5  UNL     1      -2.598   0.574  -0.106  1.00  0.00    -0.262 N 
ATOM     12  H5  UNL     1      -3.614   0.536  -0.028  1.00  0.00     0.190 HD
HETATM   13  C3  UNL     1      -1.526  -0.293   0.213  1.00  0.00     0.305 A 
HETATM   14  O1  UNL     1      -1.384  -1.452   0.717  1.00  0.00    -0.263 OA
ENDROOT
TORSDOF 0
