REMARK  13 active torsions:
REMARK  status: ('A' for Active; 'I' for Inactive)
REMARK    1  A    between atoms: C5_5  and  C6_6 
REMARK    2  A    between atoms: C6_6  and  C7_7 
REMARK    3  A    between atoms: C7_7  and  O1_8 
REMARK    4  A    between atoms: C7_7  and  C15_16 
REMARK    5  A    between atoms: O1_8  and  C8_9 
REMARK    6  A    between atoms: C8_9  and  C9_10 
REMARK    7  A    between atoms: C16_19  and  C17_20 
REMARK    8  A    between atoms: C17_20  and  S1_21 
REMARK    9  A    between atoms: S1_21  and  C18_22 
REMARK   10  A    between atoms: C18_22  and  O4_23 
REMARK   11  A    between atoms: N1_25  and  O5_27 
REMARK   12  A    between atoms: C19_29  and  O6_30 
REMARK   13  A    between atoms: C20_32  and  O7_33 
ROOT
HETATM    1  C15 UNL     1      -0.502  -0.287  -1.228  1.00  0.00     0.220 C 
HETATM    2  O2  UNL     1       0.287  -1.425  -1.151  1.00  0.00    -0.230 OA
HETATM    3  O3  UNL     1       1.550  -1.221  -1.355  1.00  0.00    -0.232 OA
HETATM    4  C16 UNL     1       2.183  -0.596  -0.287  1.00  0.00     0.201 C 
HETATM    5  C19 UNL     1       1.482   0.719  -0.047  1.00  0.00     0.182 C 
HETATM    6  C20 UNL     1       0.468   0.888  -1.164  1.00  0.00     0.184 C 
ENDROOT
BRANCH   1   7
HETATM    7  C7  UNL     1      -1.463  -0.173  -0.109  1.00  0.00     0.162 C 
BRANCH   7   8
HETATM    8  C6  UNL     1      -2.501  -1.248   0.004  1.00  0.00     0.100 C 
BRANCH   8   9
HETATM    9  C5  UNL     1      -2.007  -2.624   0.169  1.00  0.00     0.056 A 
HETATM   10  C4  UNL     1      -1.760  -3.575  -0.823  1.00  0.00     0.035 A 
HETATM   11  C3  UNL     1      -1.312  -4.706  -0.192  1.00  0.00     0.035 A 
HETATM   12  C2  UNL     1      -1.295  -4.425   1.155  1.00  0.00     0.049 A 
HETATM   13  C1  UNL     1      -0.864  -5.400   2.229  1.00  0.00     0.076 C 
HETATM   14  O8  UNL     1      -1.706  -3.211   1.303  1.00  0.00    -0.320 OA
ENDBRANCH   8   9
ENDBRANCH   7   8
BRANCH   7  15
HETATM   15  O1  UNL     1      -2.175   1.034  -0.255  1.00  0.00    -0.378 OA
BRANCH  15  16
HETATM   16  C8  UNL     1      -2.040   1.900   0.795  1.00  0.00     0.207 C 
BRANCH  16  17
HETATM   17  C9  UNL     1      -2.862   3.114   0.442  1.00  0.00    -0.035 A 
HETATM   18  C10 UNL     1      -3.566   3.233  -0.714  1.00  0.00     0.009 A 
HETATM   19  C11 UNL     1      -4.287   4.397  -0.934  1.00  0.00     0.001 A 
HETATM   20  C12 UNL     1      -4.315   5.434  -0.024  1.00  0.00     0.000 A 
HETATM   21  C13 UNL     1      -3.589   5.283   1.142  1.00  0.00     0.001 A 
HETATM   22  C14 UNL     1      -2.865   4.130   1.375  1.00  0.00     0.009 A 
ENDBRANCH  16  17
ENDBRANCH  15  16
ENDBRANCH   7  15
ENDBRANCH   1   7
BRANCH   6  23
HETATM   23  O7  UNL     1       1.136   1.008  -2.401  1.00  0.00    -0.390 OA
ATOM     24  H7  UNL     1       1.740   1.740  -2.361  1.00  0.00     0.210 HD
ENDBRANCH   6  23
BRANCH   5  25
HETATM   25  O6  UNL     1       2.360   1.799  -0.148  1.00  0.00    -0.390 OA
ATOM     26  H6  UNL     1       1.919   2.627   0.003  1.00  0.00     0.210 HD
ENDBRANCH   5  25
BRANCH   4  27
HETATM   27  C17 UNL     1       3.624  -0.306  -0.626  1.00  0.00     0.120 C 
BRANCH  27  28
HETATM   28  S1  UNL     1       4.538  -1.827  -1.005  1.00  0.00    -0.082 SA
BRANCH  28  29
HETATM   29  C18 UNL     1       6.229  -1.405  -1.394  1.00  0.00     0.199 C 
HETATM   30  N1  UNL     1       7.072  -2.325  -1.697  1.00  0.00    -0.242 N 
ATOM     31  H1  UNL     1       6.747  -3.292  -1.707  1.00  0.00     0.197 HD
BRANCH  29  32
HETATM   32  O4  UNL     1       6.666  -0.089  -1.380  1.00  0.00    -0.340 OA
ATOM     33  H4  UNL     1       7.566   0.136  -1.587  1.00  0.00     0.220 HD
ENDBRANCH  29  32
BRANCH  30  34
HETATM   34  O5  UNL     1       8.376  -2.083  -2.006  1.00  0.00    -0.287 OA
ATOM     35  H5  UNL     1       9.000  -2.764  -2.230  1.00  0.00     0.244 HD
ENDBRANCH  30  34
ENDBRANCH  28  29
ENDBRANCH  27  28
ENDBRANCH   4  27
TORSDOF 13
