REMARK  2 active torsions:
REMARK  status: ('A' for Active; 'I' for Inactive)
REMARK    1  A    between atoms: C2_2  and  N2_6 
REMARK    2  A    between atoms: N2_6  and  C5_8 
ROOT
HETATM    1  C1  UNL     1       2.998  -0.604  -1.205  1.00  0.00     0.054 C 
HETATM    2  C2  UNL     1       2.156   0.055  -0.096  1.00  0.00     0.110 C 
HETATM    3  C3  UNL     1       2.235  -0.869   1.070  1.00  0.00     0.054 C 
HETATM    4  C4  UNL     1       2.904   1.289   0.289  1.00  0.00     0.089 C 
HETATM    5  N1  UNL     1       3.469   2.257   0.578  1.00  0.00    -0.195 NA
ENDROOT
BRANCH   2   6
HETATM    6  N2  UNL     1       0.903   0.336  -0.639  1.00  0.00    -0.381 N 
ATOM      7  H2  UNL     1       0.837   0.517  -1.641  1.00  0.00     0.156 HD
BRANCH   6   8
HETATM    8  C5  UNL     1      -0.264   0.381   0.124  1.00  0.00     0.117 C 
HETATM    9  C6  UNL     1      -0.145   1.444   1.157  1.00  0.00     0.090 C 
HETATM   10  N3  UNL     1      -0.039   2.260   1.973  1.00  0.00    -0.195 NA
HETATM   11  C7  UNL     1      -0.844  -0.885   0.637  1.00  0.00     0.046 C 
HETATM   12  C8  UNL     1      -2.162  -1.283   0.007  1.00  0.00     0.004 C 
HETATM   13  C9  UNL     1      -3.232  -0.255   0.083  1.00  0.00     0.000 C 
HETATM   14  C10 UNL     1      -2.577   1.117   0.057  1.00  0.00     0.004 C 
HETATM   15  C11 UNL     1      -1.352   0.960  -0.820  1.00  0.00     0.046 C 
ENDBRANCH   6   8
ENDBRANCH   2   6
TORSDOF 2
