REMARK  2 active torsions:
REMARK  status: ('A' for Active; 'I' for Inactive)
REMARK    1  A    between atoms: C5_7  and  N1_8 
REMARK    2  A    between atoms: N1_8  and  C6_10 
ROOT
HETATM    1  C1  UNL     1      -2.925  -1.479  -0.598  1.00  0.00     0.021 C 
HETATM    2  C2  UNL     1      -2.504  -0.358   0.307  1.00  0.00     0.086 C 
HETATM    3  C3  UNL     1      -3.627   0.627   0.312  1.00  0.00     0.191 C 
HETATM    4  O1  UNL     1      -4.794   0.512  -0.021  1.00  0.00    -0.285 OA
HETATM    5  S1  UNL     1      -2.884   2.109   0.946  1.00  0.00    -0.090 SA
HETATM    6  C4  UNL     1      -1.149   1.667   0.493  1.00  0.00     0.107 C 
HETATM    7  C5  UNL     1      -1.302   0.405  -0.301  1.00  0.00     0.098 C 
ENDROOT
BRANCH   7   8
HETATM    8  N1  UNL     1      -0.183  -0.444  -0.299  1.00  0.00    -0.411 N 
ATOM      9  H1  UNL     1      -0.258  -1.366  -0.729  1.00  0.00     0.154 HD
BRANCH   8  10
HETATM   10  C6  UNL     1       1.038  -0.057   0.280  1.00  0.00     0.077 C 
HETATM   11  C7  UNL     1       1.783   1.046  -0.428  1.00  0.00     0.024 C 
HETATM   12  C8  UNL     1       3.192   0.808   0.142  1.00  0.00     0.002 C 
HETATM   13  C9  UNL     1       3.354  -0.652  -0.100  1.00  0.00     0.002 C 
HETATM   14  C10 UNL     1       2.006  -1.228   0.196  1.00  0.00     0.024 C 
ENDBRANCH   8  10
ENDBRANCH   7   8
TORSDOF 2
