REMARK  7 active torsions:
REMARK  status: ('A' for Active; 'I' for Inactive)
REMARK    1  A    between atoms: N1_2  and  C2_4 
REMARK       I    between atoms: N2_6  and  C4_8 
REMARK       I    between atoms: C4_8  and  N6_25 
REMARK       I    between atoms: N3_9  and  C5_11 
REMARK    2  A    between atoms: C5_11  and  C6_13 
REMARK    3  A    between atoms: C6_13  and  N4_14 
REMARK    4  A    between atoms: C6_13  and  C7_18 
REMARK    5  A    between atoms: C7_18  and  N5_19 
REMARK    6  A    between atoms: C7_18  and  C8_23 
REMARK    7  A    between atoms: N6_25  and  N7_27 
ROOT
HETATM    1  C2  UNL     1      -2.989   0.391  -0.994  1.00  0.00     0.089 C 
HETATM    2  C3  UNL     1      -4.008   0.974  -1.904  1.00  0.00     0.089 C 
HETATM    3  N2  UNL     1      -1.846   0.033  -1.453  1.00  0.00    -0.180 N 
ATOM      4  H2  UNL     1      -1.666   0.161  -2.449  1.00  0.00     0.185 HD
HETATM    5  C4  UNL     1      -0.829  -0.525  -0.664  1.00  0.00     0.702 C 
HETATM    6  N3  UNL     1       0.412  -0.234  -0.855  1.00  0.00    -0.156 N 
ATOM      7  H3  UNL     1       0.670   0.418  -1.596  1.00  0.00     0.187 HD
HETATM    8  C5  UNL     1       1.427  -0.814  -0.042  1.00  0.00     0.269 C 
HETATM    9  O1  UNL     1       1.423  -2.063   0.068  1.00  0.00    -0.270 OA
HETATM   10  N6  UNL     1      -1.195  -1.440   0.375  1.00  0.00    -0.118 N 
ATOM     11  H6  UNL     1      -1.217  -1.156   1.354  1.00  0.00     0.207 HD
ENDROOT
BRANCH   8  12
HETATM   12  C6  UNL     1       2.454  -0.050   0.658  1.00  0.00     0.312 C 
BRANCH  12  13
HETATM   13  N4  UNL     1       3.317  -0.938   1.385  1.00  0.00    -0.064 N 
ATOM     14  H43 UNL     1       2.795  -1.546   2.017  1.00  0.00     0.275 HD
ATOM     15  H42 UNL     1       3.719  -1.658   0.784  1.00  0.00     0.275 HD
ATOM     16  H41 UNL     1       4.035  -0.404   1.874  1.00  0.00     0.275 HD
ENDBRANCH  12  13
BRANCH  12  17
HETATM   17  C7  UNL     1       3.260   0.851  -0.242  1.00  0.00     0.283 C 
BRANCH  17  18
HETATM   18  N5  UNL     1       4.242   1.553   0.563  1.00  0.00    -0.066 N 
ATOM     19  H53 UNL     1       3.820   2.057   1.343  1.00  0.00     0.275 HD
ATOM     20  H52 UNL     1       4.828   0.918   1.106  1.00  0.00     0.275 HD
ATOM     21  H51 UNL     1       4.787   2.163  -0.046  1.00  0.00     0.275 HD
ENDBRANCH  17  18
BRANCH  17  22
HETATM   22  C8  UNL     1       3.999  -0.003  -1.202  1.00  0.00     0.266 C 
HETATM   23  O2  UNL     1       3.371  -0.686  -1.983  1.00  0.00    -0.305 OA
ENDBRANCH  17  22
ENDBRANCH  12  17
ENDBRANCH   8  12
BRANCH  10  24
HETATM   24  N7  UNL     1      -1.521  -2.740  -0.018  1.00  0.00    -0.235 N 
HETATM   25  N8  UNL     1      -2.401  -3.381   0.632  1.00  0.00    -0.330 N 
ATOM     26  H82 UNL     1      -2.856  -2.938   1.430  1.00  0.00     0.178 HD
ATOM     27  H81 UNL     1      -2.639  -4.330   0.345  1.00  0.00     0.178 HD
ATOM     28  H7  UNL     1      -1.057  -3.169  -0.819  1.00  0.00     0.208 HD
ENDBRANCH  10  24
BRANCH   1  29
HETATM   29  N1  UNL     1      -3.353   0.258   0.383  1.00  0.00    -0.384 N 
HETATM   30  C1  UNL     1      -3.223   1.358   1.330  1.00  0.00     0.147 C 
ATOM     31  H1  UNL     1      -3.716  -0.636   0.713  1.00  0.00     0.160 HD
ENDBRANCH   1  29
TORSDOF 7
