REMARK  6 active torsions:
REMARK  status: ('A' for Active; 'I' for Inactive)
REMARK    1  A    between atoms: N2_4  and  N3_6 
REMARK       I    between atoms: N3_6  and  C1_8 
REMARK       I    between atoms: C1_8  and  N5_12 
REMARK    2  A    between atoms: S1_15  and  C4_16 
REMARK    3  A    between atoms: C4_16  and  C5_17 
REMARK    4  A    between atoms: C5_17  and  N6_18 
REMARK    5  A    between atoms: C5_17  and  C6_22 
REMARK    6  A    between atoms: N8_24  and  O1_26 
ROOT
HETATM    1  N3  UNL     1       4.072  -0.532  -0.666  1.00  0.00    -0.118 N 
ATOM      2  H3  UNL     1       3.895  -0.611  -1.667  1.00  0.00     0.207 HD
HETATM    3  C1  UNL     1       3.399   0.476   0.035  1.00  0.00     0.690 C 
HETATM    4  N4  UNL     1       4.055   1.383   0.659  1.00  0.00    -0.233 N 
ATOM      5  H41 UNL     1       3.565   2.117   1.170  1.00  0.00     0.174 HD
ATOM      6  H42 UNL     1       5.074   1.351   0.632  1.00  0.00     0.174 HD
HETATM    7  N5  UNL     1       1.985   0.521   0.073  1.00  0.00    -0.208 N 
HETATM    8  C2  UNL     1       1.149  -0.662   0.330  1.00  0.00     0.151 C 
HETATM    9  C3  UNL     1       0.393  -0.724  -1.018  1.00  0.00     0.085 C 
HETATM   10  S1  UNL     1      -0.264   0.910  -0.982  1.00  0.00    -0.197 SA
HETATM   11  C7  UNL     1       1.138   1.687  -0.126  1.00  0.00     0.205 C 
ENDROOT
BRANCH  10  12
HETATM   12  C4  UNL     1      -1.643   0.996   0.114  1.00  0.00     0.105 C 
BRANCH  12  13
HETATM   13  C5  UNL     1      -2.793   0.123  -0.240  1.00  0.00     0.258 C 
BRANCH  13  14
HETATM   14  N6  UNL     1      -2.491  -1.257  -0.255  1.00  0.00    -0.068 N 
ATOM     15  H63 UNL     1      -1.700  -1.442  -0.871  1.00  0.00     0.275 HD
ATOM     16  H62 UNL     1      -2.087  -1.543   0.637  1.00  0.00     0.275 HD
ATOM     17  H61 UNL     1      -3.280  -1.856  -0.498  1.00  0.00     0.275 HD
ENDBRANCH  13  14
BRANCH  13  18
HETATM   18  C6  UNL     1      -3.968   0.344   0.632  1.00  0.00     0.144 C 
HETATM   19  N7  UNL     1      -5.183  -0.379   0.233  1.00  0.00    -0.083 NA
HETATM   20  N8  UNL     1      -3.996   1.056   1.640  1.00  0.00    -0.257 N 
ATOM     21  H8  UNL     1      -4.912   1.065   2.088  1.00  0.00     0.195 HD
BRANCH  20  22
HETATM   22  O1  UNL     1      -3.115   1.809   2.273  1.00  0.00    -0.289 OA
ATOM     23  H1  UNL     1      -3.137   2.357   3.049  1.00  0.00     0.244 HD
ENDBRANCH  20  22
ENDBRANCH  13  18
ENDBRANCH  12  13
ENDBRANCH  10  12
BRANCH   1  24
HETATM   24  N2  UNL     1       4.961  -1.430  -0.098  1.00  0.00    -0.235 N 
HETATM   25  N1  UNL     1       4.798  -2.671  -0.214  1.00  0.00    -0.330 N 
ATOM     26  H12 UNL     1       3.991  -3.007  -0.739  1.00  0.00     0.178 HD
ATOM     27  H11 UNL     1       5.453  -3.332   0.204  1.00  0.00     0.178 HD
ATOM     28  H2  UNL     1       5.763  -1.077   0.424  1.00  0.00     0.208 HD
ENDBRANCH   1  24
TORSDOF 6
