REMARK  7 active torsions:
REMARK  status: ('A' for Active; 'I' for Inactive)
REMARK    1  A    between atoms: C2_2  and  C4_4 
REMARK    2  A    between atoms: C6_6  and  N1_7 
REMARK    3  A    between atoms: N1_7  and  C7_9 
REMARK    4  A    between atoms: C7_9  and  C8_10 
REMARK    5  A    between atoms: C8_10  and  C9_11 
REMARK    6  A    between atoms: C9_11  and  O1_12 
REMARK    7  A    between atoms: N4_24  and  C15_26 
ROOT
HETATM    1  C4  UNL     1      -1.688   2.260  -0.049  1.00  0.00     0.033 A 
HETATM    2  C5  UNL     1      -0.417   1.732   0.116  1.00  0.00     0.074 A 
HETATM    3  C6  UNL     1      -0.214   0.377   0.233  1.00  0.00     0.118 A 
HETATM    4  N3  UNL     1      -1.325  -0.412   0.178  1.00  0.00    -0.177 N 
ATOM      5  H3  UNL     1      -1.206  -1.422   0.261  1.00  0.00     0.185 HD
HETATM    6  C14 UNL     1      -2.569   0.072   0.020  1.00  0.00     0.680 A 
HETATM    7  N4  UNL     1      -3.618  -0.652  -0.033  1.00  0.00    -0.218 N 
ATOM      8  H4  UNL     1      -4.490  -0.138  -0.158  1.00  0.00     0.178 HD
HETATM    9  N5  UNL     1      -2.737   1.434  -0.094  1.00  0.00    -0.195 N 
ATOM     10  H5  UNL     1      -3.675   1.817  -0.214  1.00  0.00     0.184 HD
ENDROOT
BRANCH   3  11
HETATM   11  N1  UNL     1       0.961  -0.122   0.385  1.00  0.00    -0.375 N 
ATOM     12  H1  UNL     1       1.048  -1.135   0.466  1.00  0.00     0.161 HD
BRANCH  11  13
HETATM   13  C7  UNL     1       2.146   0.663   0.446  1.00  0.00     0.134 C 
BRANCH  13  14
HETATM   14  C8  UNL     1       3.396  -0.157   0.099  1.00  0.00     0.021 C 
HETATM   15  C10 UNL     1       3.569  -1.294   1.049  1.00  0.00     0.017 C 
HETATM   16  C11 UNL     1       4.821  -2.040   0.723  1.00  0.00     0.028 C 
HETATM   17  C12 UNL     1       4.968  -2.309  -0.753  1.00  0.00     0.232 C 
HETATM   18  N2  UNL     1       3.720  -2.043  -1.443  1.00  0.00    -0.074 N 
HETATM   19  C13 UNL     1       3.278  -0.693  -1.310  1.00  0.00     0.245 C 
ATOM     20  H22 UNL     1       3.786  -2.307  -2.426  1.00  0.00     0.277 HD
ATOM     21  H21 UNL     1       2.994  -2.693  -1.142  1.00  0.00     0.277 HD
BRANCH  14  22
HETATM   22  C9  UNL     1       4.560   0.815   0.210  1.00  0.00     0.177 C 
BRANCH  22  23
HETATM   23  O1  UNL     1       4.544   1.267   1.549  1.00  0.00    -0.400 OA
ATOM     24  H1  UNL     1       5.271   1.874   1.618  1.00  0.00     0.209 HD
ENDBRANCH  22  23
ENDBRANCH  14  22
ENDBRANCH  13  14
ENDBRANCH  11  13
ENDBRANCH   3  11
BRANCH   1  25
HETATM   25  C2  UNL     1      -1.847   3.720  -0.168  1.00  0.00     0.028 C 
HETATM   26  C1  UNL     1      -2.784   4.290   0.858  1.00  0.00     0.016 C 
HETATM   27  C3  UNL     1      -2.410   4.027  -1.539  1.00  0.00     0.016 C 
ENDBRANCH   1  25
BRANCH   7  28
HETATM   28  C15 UNL     1      -3.760  -2.059   0.055  1.00  0.00     0.036 C 
HETATM   29  C16 UNL     1      -5.224  -2.470  -0.096  1.00  0.00     0.038 C 
HETATM   30  C17 UNL     1      -3.028  -2.761  -1.073  1.00  0.00     0.038 C 
HETATM   31  C18 UNL     1      -3.277  -2.609   1.383  1.00  0.00     0.038 C 
ENDBRANCH   7  28
TORSDOF 7
