REMARK  6 active torsions:
REMARK  status: ('A' for Active; 'I' for Inactive)
REMARK    1  A    between atoms: N1_1  and  C1_4 
REMARK    2  A    between atoms: C2_7  and  O1_8 
REMARK    3  A    between atoms: O1_8  and  C3_9 
REMARK    4  A    between atoms: C3_9  and  C4_10 
REMARK    5  A    between atoms: C11_20  and  N4_21 
REMARK    6  A    between atoms: N4_21  and  C12_23 
ROOT
HETATM    1  C1  UNL     1       1.353  -2.318  -0.426  1.00  0.00     0.679 A 
HETATM    2  N2  UNL     1       0.021  -2.070  -0.454  1.00  0.00    -0.171 N 
ATOM      3  H2  UNL     1      -0.627  -2.833  -0.649  1.00  0.00     0.186 HD
HETATM    4  C2  UNL     1      -0.461  -0.837  -0.230  1.00  0.00     0.161 A 
HETATM    5  C10 UNL     1       0.465   0.146   0.025  1.00  0.00     0.105 A 
HETATM    6  C11 UNL     1       1.845  -0.104   0.055  1.00  0.00     0.121 A 
HETATM    7  N5  UNL     1       2.247  -1.352  -0.176  1.00  0.00    -0.177 N 
ATOM      8  H5  UNL     1       3.242  -1.574  -0.163  1.00  0.00     0.185 HD
ENDROOT
BRANCH   4   9
HETATM    9  O1  UNL     1      -1.826  -0.606  -0.263  1.00  0.00    -0.335 OA
BRANCH   9  10
HETATM   10  C3  UNL     1      -2.393   0.669  -0.036  1.00  0.00     0.183 C 
BRANCH  10  11
HETATM   11  C4  UNL     1      -3.891   0.651  -0.128  1.00  0.00     0.028 C 
HETATM   12  C5  UNL     1      -4.530  -0.270   0.867  1.00  0.00     0.009 C 
HETATM   13  C6  UNL     1      -5.602  -1.089   0.181  1.00  0.00     0.010 C 
HETATM   14  C7  UNL     1      -6.595  -0.230  -0.561  1.00  0.00     0.103 C 
HETATM   15  C8  UNL     1      -6.783   1.094   0.071  1.00  0.00     0.217 C 
HETATM   16  O2  UNL     1      -7.974   1.427   0.283  1.00  0.00    -0.274 OA
HETATM   17  N3  UNL     1      -5.803   2.037   0.469  1.00  0.00    -0.361 N 
HETATM   18  C9  UNL     1      -4.385   2.066   0.114  1.00  0.00     0.129 C 
ATOM     19  H3  UNL     1      -6.127   2.788   1.078  1.00  0.00     0.162 HD
ENDBRANCH  10  11
ENDBRANCH   9  10
ENDBRANCH   4   9
BRANCH   1  20
HETATM   20  N1  UNL     1       1.775  -3.537  -0.651  1.00  0.00    -0.234 N 
ATOM     21  H12 UNL     1       1.094  -4.272  -0.841  1.00  0.00     0.174 HD
ATOM     22  H11 UNL     1       2.778  -3.724  -0.630  1.00  0.00     0.174 HD
ENDBRANCH   1  20
BRANCH   6  23
HETATM   23  N4  UNL     1       2.572   0.893   0.302  1.00  0.00    -0.371 N 
ATOM     24  H4  UNL     1       2.073   1.770   0.453  1.00  0.00     0.161 HD
BRANCH  23  25
HETATM   25  C12 UNL     1       4.006   0.977   0.403  1.00  0.00     0.083 C 
HETATM   26  C13 UNL     1       4.721   0.623  -0.866  1.00  0.00     0.025 C 
HETATM   27  C14 UNL     1       5.977  -0.159  -0.698  1.00  0.00     0.002 C 
HETATM   28  C15 UNL     1       6.701   0.385   0.526  1.00  0.00     0.000 C 
HETATM   29  C16 UNL     1       5.899  -0.075   1.715  1.00  0.00     0.002 C 
HETATM   30  C17 UNL     1       4.452   0.281   1.633  1.00  0.00     0.025 C 
ENDBRANCH  23  25
ENDBRANCH   6  23
TORSDOF 6
