REMARK  9 active torsions:
REMARK  status: ('A' for Active; 'I' for Inactive)
REMARK    1  A    between atoms: C2_2  and  C3_3 
REMARK       I    between atoms: N1_10  and  C10_12 
REMARK    2  A    between atoms: C10_12  and  C11_14 
REMARK    3  A    between atoms: C11_14  and  C12_15 
REMARK    4  A    between atoms: C12_15  and  C13_16 
REMARK    5  A    between atoms: C13_16  and  C14_17 
REMARK    6  A    between atoms: C14_17  and  C15_18 
REMARK    7  A    between atoms: C15_18  and  C16_19 
REMARK    8  A    between atoms: C16_19  and  C17_20 
REMARK    9  A    between atoms: C17_20  and  C18_21 
ROOT
HETATM    1  C3  UNL     1      -4.801  -0.597   0.260  1.00  0.00    -0.073 C 
HETATM    2  C4  UNL     1      -4.252  -1.825   0.146  1.00  0.00     0.002 C 
HETATM    3  C5  UNL     1      -2.817  -1.965   0.417  1.00  0.00     0.109 C 
HETATM    4  C6  UNL     1      -2.569  -1.183   1.727  1.00  0.00     0.047 C 
HETATM    5  C7  UNL     1      -2.620   0.246   1.163  1.00  0.00     0.028 C 
HETATM    6  C8  UNL     1      -2.073   1.252   2.125  1.00  0.00     0.025 C 
HETATM    7  C9  UNL     1      -1.596   0.027   0.051  1.00  0.00     0.091 C 
HETATM    8  N1  UNL     1      -0.640   0.722  -0.177  1.00  0.00    -0.316 N 
ATOM      9  H1  UNL     1      -0.646   1.479   0.506  1.00  0.00     0.170 HD
HETATM   10  C10 UNL     1       0.455   0.909  -0.983  1.00  0.00     0.223 C 
HETATM   11  O1  UNL     1       0.463   1.241  -2.203  1.00  0.00    -0.273 OA
HETATM   12  N2  UNL     1      -2.085  -1.149  -0.562  1.00  0.00    -0.366 N 
HETATM   13  C19 UNL     1      -1.906  -1.518  -1.972  1.00  0.00     0.151 C 
HETATM   14  C20 UNL     1      -3.976   0.578   0.648  1.00  0.00    -0.010 C 
HETATM   15  C21 UNL     1      -4.694   1.356   1.767  1.00  0.00     0.021 C 
HETATM   16  C22 UNL     1      -3.822   1.579  -0.500  1.00  0.00     0.021 C 
ENDROOT
BRANCH  10  17
HETATM   17  C11 UNL     1       1.817   0.695  -0.352  1.00  0.00     0.103 C 
BRANCH  17  18
HETATM   18  C12 UNL     1       2.930   1.052  -1.280  1.00  0.00     0.009 C 
BRANCH  18  19
HETATM   19  C13 UNL     1       4.284   0.858  -0.655  1.00  0.00     0.000 C 
BRANCH  19  20
HETATM   20  C14 UNL     1       4.491  -0.571  -0.252  1.00  0.00     0.000 C 
BRANCH  20  21
HETATM   21  C15 UNL     1       5.863  -0.803   0.376  1.00  0.00     0.000 C 
BRANCH  21  22
HETATM   22  C16 UNL     1       6.952  -0.467  -0.594  1.00  0.00     0.007 C 
BRANCH  22  23
HETATM   23  C17 UNL     1       8.282  -0.729   0.119  1.00  0.00     0.069 C 
BRANCH  23  24
HETATM   24  C18 UNL     1       9.378  -0.418  -0.829  1.00  0.00     0.231 C 
HETATM   25  O2  UNL     1      10.521  -0.548  -0.445  1.00  0.00    -0.307 OA
ENDBRANCH  23  24
ENDBRANCH  22  23
ENDBRANCH  21  22
ENDBRANCH  20  21
ENDBRANCH  19  20
ENDBRANCH  18  19
ENDBRANCH  17  18
ENDBRANCH  10  17
BRANCH   1  26
HETATM   26  C2  UNL     1      -6.247  -0.484  -0.015  1.00  0.00     0.030 C 
HETATM   27  C1  UNL     1      -6.629   0.431  -1.129  1.00  0.00     0.010 C 
ENDBRANCH   1  26
TORSDOF 9
