REMARK  11 active torsions:
REMARK  status: ('A' for Active; 'I' for Inactive)
REMARK    1  A    between atoms: C2_2  and  C3_3 
REMARK    2  A    between atoms: C3_3  and  C4_4 
REMARK    3  A    between atoms: C4_4  and  C5_5 
REMARK    4  A    between atoms: C5_5  and  C6_6 
REMARK    5  A    between atoms: C6_6  and  C7_7 
REMARK    6  A    between atoms: C7_7  and  C8_8 
REMARK    7  A    between atoms: C8_8  and  C9_9 
REMARK    8  A    between atoms: C9_9  and  N1_10 
REMARK    9  A    between atoms: C18_20  and  C19_21 
REMARK   10  A    between atoms: C19_21  and  O2_23 
REMARK   11  A    between atoms: O2_23  and  C20_24 
ROOT
HETATM    1  N1  UNL     1       0.994   0.138  -1.104  1.00  0.00    -0.057 N 
HETATM    2  C10 UNL     1       1.222   0.087  -2.559  1.00  0.00     0.243 C 
HETATM    3  C11 UNL     1       2.524  -0.703  -2.579  1.00  0.00     0.015 C 
HETATM    4  C12 UNL     1       2.094  -1.892  -1.704  1.00  0.00     0.044 C 
HETATM    5  C13 UNL     1       1.489  -1.071  -0.556  1.00  0.00     0.222 C 
HETATM    6  C14 UNL     1       2.715  -0.685   0.260  1.00  0.00    -0.013 C 
HETATM    7  C15 UNL     1       3.077  -1.343   1.322  1.00  0.00     0.024 C 
HETATM    8  C16 UNL     1       4.254  -1.031   2.169  1.00  0.00     0.060 C 
HETATM    9  C17 UNL     1       2.261  -2.498   1.729  1.00  0.00     0.095 C 
HETATM   10  N2  UNL     1       1.629  -3.411   2.045  1.00  0.00    -0.192 NA
HETATM   11  C18 UNL     1       3.180   0.474  -0.497  1.00  0.00     0.099 C 
HETATM   12  C22 UNL     1       3.599   0.076  -1.912  1.00  0.00     0.032 C 
HETATM   13  C23 UNL     1       1.844   1.230  -0.644  1.00  0.00     0.263 C 
ENDROOT
BRANCH  11  14
HETATM   14  C19 UNL     1       4.157   1.358   0.114  1.00  0.00     0.273 C 
HETATM   15  O1  UNL     1       3.789   2.464   0.585  1.00  0.00    -0.264 OA
BRANCH  14  16
HETATM   16  O2  UNL     1       5.501   1.066   0.221  1.00  0.00    -0.321 OA
BRANCH  16  17
HETATM   17  C20 UNL     1       6.465   1.900   0.805  1.00  0.00     0.174 C 
HETATM   18  C21 UNL     1       7.802   1.155   0.688  1.00  0.00     0.034 C 
ENDBRANCH  16  17
ENDBRANCH  14  16
ENDBRANCH  11  14
BRANCH   1  19
HETATM   19  C9  UNL     1      -0.404   0.404  -0.937  1.00  0.00     0.238 C 
BRANCH  19  20
HETATM   20  C8  UNL     1      -0.927   0.262   0.443  1.00  0.00     0.028 C 
BRANCH  20  21
HETATM   21  C7  UNL     1      -2.403   0.584   0.475  1.00  0.00     0.002 C 
BRANCH  21  22
HETATM   22  C6  UNL     1      -3.225  -0.318  -0.412  1.00  0.00     0.000 C 
BRANCH  22  23
HETATM   23  C5  UNL     1      -4.695   0.023  -0.346  1.00  0.00     0.000 C 
BRANCH  23  24
HETATM   24  C4  UNL     1      -5.239  -0.119   1.060  1.00  0.00     0.000 C 
BRANCH  24  25
HETATM   25  C3  UNL     1      -6.716   0.228   1.097  1.00  0.00    -0.000 C 
BRANCH  25  26
HETATM   26  C2  UNL     1      -7.533  -0.659   0.207  1.00  0.00    -0.005 C 
HETATM   27  C1  UNL     1      -8.974  -0.242   0.313  1.00  0.00     0.005 C 
ENDBRANCH  25  26
ENDBRANCH  24  25
ENDBRANCH  23  24
ENDBRANCH  22  23
ENDBRANCH  21  22
ENDBRANCH  20  21
ENDBRANCH  19  20
ENDBRANCH   1  19
TORSDOF 11
