REMARK  2 active torsions:
REMARK  status: ('A' for Active; 'I' for Inactive)
REMARK    1  A    between atoms: O1_2  and  C2_3 
REMARK    2  A    between atoms: C2_3  and  C3_5 
ROOT
HETATM    1  C3  UNL     1       0.072   0.020   0.033  1.00  0.00     0.106 A 
HETATM    2  C4  UNL     1      -0.518   0.768  -0.959  1.00  0.00     0.137 A 
HETATM    3  N1  UNL     1       0.151   1.905  -1.483  1.00  0.00    -0.081 NA
HETATM    4  N2  UNL     1      -1.748   0.426  -1.447  1.00  0.00    -0.309 N 
ATOM      5  H2  UNL     1      -2.167   0.995  -2.183  1.00  0.00     0.170 HD
HETATM    6  C5  UNL     1      -2.422  -0.645  -0.980  1.00  0.00     0.273 A 
HETATM    7  O3  UNL     1      -3.552  -0.913  -1.467  1.00  0.00    -0.266 OA
HETATM    8  C6  UNL     1      -1.869  -1.425   0.015  1.00  0.00     0.139 A 
HETATM    9  N3  UNL     1      -2.589  -2.541   0.489  1.00  0.00    -0.094 NA
HETATM   10  C7  UNL     1      -0.610  -1.073   0.512  1.00  0.00     0.095 A 
HETATM   11  N4  UNL     1      -0.028  -1.867   1.537  1.00  0.00    -0.099 NA
ENDROOT
BRANCH   1  12
HETATM   12  C2  UNL     1       1.382   0.426   0.518  1.00  0.00     0.298 C 
HETATM   13  O2  UNL     1       1.988  -0.215   1.431  1.00  0.00    -0.259 OA
BRANCH  12  14
HETATM   14  O1  UNL     1       2.044   1.533   0.014  1.00  0.00    -0.322 OA
HETATM   15  C1  UNL     1       3.307   1.965   0.448  1.00  0.00     0.213 C 
ENDBRANCH  12  14
ENDBRANCH   1  12
TORSDOF 2
