REMARK  3 active torsions:
REMARK  status: ('A' for Active; 'I' for Inactive)
REMARK    1  A    between atoms: C2_2  and  C3_3 
REMARK    2  A    between atoms: C3_3  and  C4_4 
REMARK    3  A    between atoms: N1_5  and  N2_7 
ROOT
HETATM    1  C4  UNL     1      -0.117  -0.360  -0.431  1.00  0.00     0.162 C 
HETATM    2  N1  UNL     1      -0.387   0.766  -1.120  1.00  0.00    -0.309 N 
ATOM      3  H1  UNL     1       0.060   1.013  -2.003  1.00  0.00     0.186 HD
ENDROOT
BRANCH   2   4
HETATM    4  N2  UNL     1      -1.313   1.528  -0.510  1.00  0.00    -0.341 N 
HETATM    5  C5  UNL     1      -2.665   1.101  -0.172  1.00  0.00     0.167 C 
ATOM      6  H2  UNL     1      -1.047   2.482  -0.264  1.00  0.00     0.179 HD
ENDBRANCH   2   4
BRANCH   1   7
HETATM    7  C3  UNL     1       0.831  -0.857   0.216  1.00  0.00    -0.111 C 
BRANCH   7   8
HETATM    8  C2  UNL     1       1.809  -1.369   0.883  1.00  0.00     0.047 C 
HETATM    9  C1  UNL     1       3.072  -1.421   0.330  1.00  0.00     0.020 C 
ENDBRANCH   7   8
ENDBRANCH   1   7
TORSDOF 3
