REMARK  2 active torsions:
REMARK  status: ('A' for Active; 'I' for Inactive)
REMARK    1  A    between atoms: C2_2  and  N1_3 
REMARK    2  A    between atoms: N2_5  and  N3_7 
ROOT
HETATM    1  N1  UNL     1      -0.098  -0.330  -0.466  1.00  0.00    -0.317 N 
HETATM    2  C3  UNL     1      -0.465  -1.418   0.411  1.00  0.00     0.172 C 
HETATM    3  N2  UNL     1       1.111  -0.108  -0.677  1.00  0.00    -0.231 N 
ATOM      4  H2  UNL     1       1.338   0.674  -1.292  1.00  0.00     0.209 HD
ENDROOT
BRANCH   3   5
HETATM    5  N3  UNL     1       2.167  -0.820  -0.157  1.00  0.00    -0.235 N 
HETATM    6  N4  UNL     1       3.198  -0.218   0.277  1.00  0.00    -0.330 N 
ATOM      7  H42 UNL     1       3.227   0.801   0.232  1.00  0.00     0.178 HD
ATOM      8  H41 UNL     1       3.981  -0.746   0.663  1.00  0.00     0.178 HD
ATOM      9  H3  UNL     1       2.122  -1.838  -0.120  1.00  0.00     0.209 HD
ENDBRANCH   3   5
BRANCH   1  10
HETATM   10  C2  UNL     1      -1.071   0.520  -1.100  1.00  0.00     0.139 C 
HETATM   11  C1  UNL     1      -1.794   1.438  -0.149  1.00  0.00     0.028 C 
ENDBRANCH   1  10
TORSDOF 2
