REMARK  15 active torsions:
REMARK  status: ('A' for Active; 'I' for Inactive)
REMARK       I    between atoms: C1_4  and  N3_6 
REMARK    1  A    between atoms: N3_6  and  C2_8 
REMARK    2  A    between atoms: C2_8  and  C3_9 
REMARK    3  A    between atoms: C3_9  and  C4_10 
REMARK    4  A    between atoms: C4_10  and  C5_11 
REMARK    5  A    between atoms: C5_11  and  N4_12 
REMARK    6  A    between atoms: C5_11  and  C6_16 
REMARK       I    between atoms: C6_16  and  N5_18 
REMARK    7  A    between atoms: N5_18  and  C7_20 
REMARK    8  A    between atoms: C7_20  and  C8_21 
REMARK    9  A    between atoms: C7_20  and  N11_38 
REMARK       I    between atoms: C8_21  and  N6_23 
REMARK   10  A    between atoms: N6_23  and  C9_25 
REMARK   11  A    between atoms: C13_29  and  C14_30 
REMARK   12  A    between atoms: N11_38  and  C22_45 
REMARK   13  A    between atoms: C16_39  and  C17_40 
REMARK   14  A    between atoms: C17_40  and  C18_41 
REMARK   15  A    between atoms: C22_45  and  C23_46 
ROOT
HETATM    1  C7  UNL     1      -0.276  -0.313   0.687  1.00  0.00     0.182 C 
ENDROOT
BRANCH   1   2
HETATM    2  N5  UNL     1       1.122  -0.327   0.815  1.00  0.00    -0.306 N 
HETATM    3  C6  UNL     1       1.763  -0.464   2.063  1.00  0.00     0.254 C 
HETATM    4  O1  UNL     1       1.020  -0.555   3.097  1.00  0.00    -0.271 OA
ATOM      5  H5  UNL     1       1.694  -0.235  -0.024  1.00  0.00     0.170 HD
BRANCH   3   6
HETATM    6  C5  UNL     1       3.245  -0.511   2.223  1.00  0.00     0.275 C 
BRANCH   6   7
HETATM    7  C4  UNL     1       3.696   0.670   3.017  1.00  0.00     0.044 C 
BRANCH   7   8
HETATM    8  C3  UNL     1       5.111   0.726   3.448  1.00  0.00     0.022 C 
BRANCH   8   9
HETATM    9  C2  UNL     1       6.143   0.687   2.384  1.00  0.00     0.122 C 
BRANCH   9  10
HETATM   10  N3  UNL     1       7.476   0.805   3.018  1.00  0.00    -0.365 N 
HETATM   11  C1  UNL     1       7.903   1.998   3.633  1.00  0.00     0.181 C 
HETATM   12  N1  UNL     1       7.309   3.113   3.388  1.00  0.00    -0.374 N 
HETATM   13  N2  UNL     1       9.006   1.964   4.531  1.00  0.00    -0.064 NA
ATOM     14  H12 UNL     1       7.618   3.977   3.833  1.00  0.00     0.158 HD
ATOM     15  H11 UNL     1       6.518   3.137   2.744  1.00  0.00     0.158 HD
ATOM     16  H3  UNL     1       8.102  -0.000   3.009  1.00  0.00     0.162 HD
ENDBRANCH   9  10
ENDBRANCH   8   9
ENDBRANCH   7   8
ENDBRANCH   6   7
BRANCH   6  17
HETATM   17  N4  UNL     1       3.940  -0.568   0.963  1.00  0.00    -0.066 N 
ATOM     18  H43 UNL     1       3.844   0.301   0.438  1.00  0.00     0.275 HD
ATOM     19  H42 UNL     1       4.952  -0.559   1.088  1.00  0.00     0.275 HD
ATOM     20  H41 UNL     1       3.632  -1.375   0.420  1.00  0.00     0.275 HD
ENDBRANCH   6  17
ENDBRANCH   3   6
ENDBRANCH   1   2
BRANCH   1  21
HETATM   21  C8  UNL     1      -0.792   1.008   0.290  1.00  0.00     0.286 C 
HETATM   22  O2  UNL     1       0.020   1.970   0.282  1.00  0.00    -0.264 OA
HETATM   23  N6  UNL     1      -2.165   1.223  -0.082  1.00  0.00    -0.350 N 
ATOM     24  H6  UNL     1      -2.826   0.446  -0.084  1.00  0.00     0.163 HD
BRANCH  23  25
HETATM   25  C9  UNL     1      -2.599   2.554  -0.453  1.00  0.00     0.085 C 
HETATM   26  C10 UNL     1      -2.369   2.760  -1.943  1.00  0.00     0.025 C 
HETATM   27  C11 UNL     1      -3.123   3.962  -2.454  1.00  0.00     0.003 C 
HETATM   28  C12 UNL     1      -4.573   3.931  -2.100  1.00  0.00     0.012 C 
HETATM   29  C13 UNL     1      -4.690   3.967  -0.597  1.00  0.00     0.057 C 
HETATM   30  C15 UNL     1      -3.991   2.774  -0.033  1.00  0.00     0.037 C 
BRANCH  29  31
HETATM   31  C14 UNL     1      -6.097   3.930  -0.157  1.00  0.00     0.111 A 
HETATM   32  N7  UNL     1      -6.663   4.848   0.633  1.00  0.00    -0.274 N 
HETATM   33  N8  UNL     1      -7.950   4.525   0.840  1.00  0.00    -0.007 NA
ATOM     34  H7  UNL     1      -6.191   5.666   1.018  1.00  0.00     0.185 HD
HETATM   35  N9  UNL     1      -8.183   3.397   0.170  1.00  0.00    -0.007 NA
HETATM   36  N10 UNL     1      -7.047   3.032  -0.442  1.00  0.00    -0.274 N 
ATOM     37  H10 UNL     1      -6.927   2.206  -1.028  1.00  0.00     0.185 HD
ENDBRANCH  29  31
ENDBRANCH  23  25
ENDBRANCH   1  21
BRANCH   1  38
HETATM   38  N11 UNL     1      -0.923  -1.432   0.039  1.00  0.00    -0.322 N 
HETATM   39  C16 UNL     1      -0.932  -1.516  -1.324  1.00  0.00     0.071 C 
BRANCH  39  40
HETATM   40  C17 UNL     1       0.349  -1.705  -2.103  1.00  0.00     0.049 C 
BRANCH  40  41
HETATM   41  C18 UNL     1       0.087  -1.832  -3.581  1.00  0.00    -0.010 C 
HETATM   42  C19 UNL     1      -0.756  -2.972  -4.040  1.00  0.00     0.005 C 
HETATM   43  C20 UNL     1       0.557  -3.771  -4.181  1.00  0.00     0.001 C 
HETATM   44  C21 UNL     1       1.217  -2.400  -4.392  1.00  0.00     0.005 C 
ENDBRANCH  40  41
ENDBRANCH  39  40
BRANCH  38  45
HETATM   45  C22 UNL     1      -0.923  -2.496   0.940  1.00  0.00     0.075 C 
BRANCH  45  46
HETATM   46  C23 UNL     1      -1.610  -3.773   0.760  1.00  0.00     0.025 C 
HETATM   47  C24 UNL     1      -1.309  -4.706  -0.352  1.00  0.00     0.010 C 
HETATM   48  C25 UNL     1      -2.802  -4.936  -0.590  1.00  0.00     0.001 C 
HETATM   49  C26 UNL     1      -3.054  -3.731   0.276  1.00  0.00     0.010 C 
ENDBRANCH  45  46
ENDBRANCH  38  45
ENDBRANCH   1  38
TORSDOF 15
