REMARK  17 active torsions:
REMARK  status: ('A' for Active; 'I' for Inactive)
REMARK    1  A    between atoms: C2_2  and  C4_4 
REMARK    2  A    between atoms: C4_4  and  N1_5 
REMARK    3  A    between atoms: C4_4  and  C5_9 
REMARK    4  A    between atoms: C7_12  and  N2_13 
REMARK       I    between atoms: N2_13  and  C8_15 
REMARK    5  A    between atoms: C8_15  and  C9_17 
REMARK    6  A    between atoms: C9_17  and  N3_18 
REMARK    7  A    between atoms: C9_17  and  C10_22 
REMARK    8  A    between atoms: C10_22  and  C11_23 
REMARK    9  A    between atoms: C11_23  and  C12_24 
REMARK   10  A    between atoms: C12_24  and  N4_25 
REMARK   11  A    between atoms: C16_32  and  O3_33 
REMARK   12  A    between atoms: O3_33  and  C17_34 
REMARK   13  A    between atoms: C17_34  and  C18_35 
REMARK   14  A    between atoms: C18_35  and  C19_36 
REMARK   15  A    between atoms: C18_35  and  C20_41 
REMARK   16  A    between atoms: C19_36  and  N7_37 
REMARK   17  A    between atoms: C20_41  and  C21_42 
ROOT
HETATM    1  C5  UNL     1      -0.646  -1.119  -0.781  1.00  0.00     0.117 C 
HETATM    2  C6  UNL     1       0.350  -0.706   0.211  1.00  0.00     0.158 C 
HETATM    3  O1  UNL     1       0.379  -1.076   1.387  1.00  0.00    -0.295 OA
HETATM    4  C7  UNL     1       1.435   0.243  -0.172  1.00  0.00     0.154 C 
HETATM    5  C14 UNL     1       1.741  -0.031  -1.618  1.00  0.00     0.035 C 
HETATM    6  C15 UNL     1       0.561   0.338  -2.431  1.00  0.00     0.035 C 
HETATM    7  C16 UNL     1      -0.799   0.020  -1.834  1.00  0.00     0.134 C 
ENDROOT
BRANCH   7   8
HETATM    8  O3  UNL     1      -1.398   1.056  -1.449  1.00  0.00    -0.385 OA
BRANCH   8   9
HETATM    9  C17 UNL     1      -2.008   2.068  -1.093  1.00  0.00     0.174 C 
BRANCH   9  10
HETATM   10  C18 UNL     1      -3.469   1.863  -0.612  1.00  0.00     0.039 C 
BRANCH  10  11
HETATM   11  C19 UNL     1      -4.076   3.175  -0.201  1.00  0.00     0.236 C 
BRANCH  11  12
HETATM   12  N7  UNL     1      -4.139   4.170  -1.220  1.00  0.00    -0.079 N 
ATOM     13  H73 UNL     1      -3.211   4.324  -1.615  1.00  0.00     0.274 HD
ATOM     14  H72 UNL     1      -4.625   3.802  -2.037  1.00  0.00     0.274 HD
ATOM     15  H71 UNL     1      -4.551   5.060  -0.941  1.00  0.00     0.274 HD
ENDBRANCH  11  12
ENDBRANCH  10  11
BRANCH  10  16
HETATM   16  C20 UNL     1      -4.271   1.202  -1.713  1.00  0.00     0.049 C 
BRANCH  16  17
HETATM   17  C21 UNL     1      -5.680   0.995  -1.293  1.00  0.00    -0.030 A 
HETATM   18  C22 UNL     1      -6.712   1.818  -1.743  1.00  0.00     0.096 A 
HETATM   19  N8  UNL     1      -7.878   1.419  -1.209  1.00  0.00    -0.365 N 
HETATM   20  C23 UNL     1      -7.638   0.341  -0.410  1.00  0.00     0.042 A 
ATOM     21  H8  UNL     1      -8.788   1.849  -1.373  1.00  0.00     0.165 HD
HETATM   22  C24 UNL     1      -8.497  -0.428   0.354  1.00  0.00     0.030 A 
HETATM   23  C28 UNL     1      -6.269   0.088  -0.470  1.00  0.00    -0.002 A 
HETATM   24  C25 UNL     1      -7.945  -1.465   1.062  1.00  0.00     0.002 A 
HETATM   25  C26 UNL     1      -6.590  -1.729   1.013  1.00  0.00     0.001 A 
HETATM   26  C27 UNL     1      -5.726  -0.957   0.245  1.00  0.00     0.014 A 
ENDBRANCH  16  17
ENDBRANCH  10  16
ENDBRANCH   9  10
ENDBRANCH   8   9
ENDBRANCH   7   8
BRANCH   1  27
HETATM   27  C4  UNL     1      -0.395  -2.406  -1.438  1.00  0.00     0.200 C 
BRANCH  27  28
HETATM   28  C2  UNL     1      -0.288  -3.664  -0.668  1.00  0.00     0.009 C 
HETATM   29  C1  UNL     1       0.808  -3.859   0.291  1.00  0.00     0.011 C 
HETATM   30  C3  UNL     1      -1.606  -3.923   0.112  1.00  0.00     0.011 C 
ENDBRANCH  27  28
BRANCH  27  31
HETATM   31  N1  UNL     1      -1.622  -2.707  -2.309  1.00  0.00    -0.074 N 
ATOM     32  H13 UNL     1      -1.568  -3.560  -2.865  1.00  0.00     0.274 HD
ATOM     33  H12 UNL     1      -2.463  -2.986  -1.803  1.00  0.00     0.274 HD
ATOM     34  H11 UNL     1      -1.696  -1.839  -2.840  1.00  0.00     0.274 HD
ENDBRANCH  27  31
ENDBRANCH   1  27
BRANCH   4  35
HETATM   35  N2  UNL     1       2.582   0.111   0.685  1.00  0.00    -0.348 N 
HETATM   36  C8  UNL     1       3.158   1.198   1.393  1.00  0.00     0.248 C 
HETATM   37  O2  UNL     1       2.597   2.331   1.230  1.00  0.00    -0.271 OA
ATOM     38  H2  UNL     1       3.004  -0.812   0.790  1.00  0.00     0.163 HD
BRANCH  36  39
HETATM   39  C9  UNL     1       4.325   1.122   2.278  1.00  0.00     0.274 C 
BRANCH  39  40
HETATM   40  N3  UNL     1       4.869  -0.187   2.472  1.00  0.00    -0.067 N 
ATOM     41  H33 UNL     1       4.141  -0.822   2.800  1.00  0.00     0.275 HD
ATOM     42  H32 UNL     1       5.087  -0.611   1.570  1.00  0.00     0.275 HD
ATOM     43  H31 UNL     1       5.681  -0.240   3.088  1.00  0.00     0.275 HD
ENDBRANCH  39  40
BRANCH  39  44
HETATM   44  C10 UNL     1       5.363   2.143   1.906  1.00  0.00     0.044 C 
BRANCH  44  45
HETATM   45  C11 UNL     1       5.903   2.039   0.527  1.00  0.00     0.022 C 
BRANCH  45  46
HETATM   46  C12 UNL     1       6.583   0.759   0.173  1.00  0.00     0.122 C 
BRANCH  46  47
HETATM   47  N4  UNL     1       7.714   0.450   1.010  1.00  0.00    -0.367 N 
HETATM   48  C13 UNL     1       8.861   0.073   0.536  1.00  0.00     0.196 C 
HETATM   49  N5  UNL     1       9.909  -0.208   1.429  1.00  0.00    -0.067 NA
HETATM   50  N6  UNL     1       9.035  -0.048  -0.867  1.00  0.00    -0.067 NA
ATOM     51  H4  UNL     1       7.608   0.531   2.021  1.00  0.00     0.161 HD
ENDBRANCH  46  47
ENDBRANCH  45  46
ENDBRANCH  44  45
ENDBRANCH  39  44
ENDBRANCH  36  39
ENDBRANCH   4  35
TORSDOF 17
