REMARK  16 active torsions:
REMARK  status: ('A' for Active; 'I' for Inactive)
REMARK    1  A    between atoms: C4_4  and  O1_5 
REMARK    2  A    between atoms: O1_5  and  C5_6 
REMARK    3  A    between atoms: C5_6  and  C6_7 
REMARK    4  A    between atoms: C5_6  and  C10_17 
REMARK    5  A    between atoms: C6_7  and  C7_8 
REMARK    6  A    between atoms: C7_8  and  C8_9 
REMARK    7  A    between atoms: C8_9  and  N1_10 
REMARK       I    between atoms: N1_10  and  C9_12 
REMARK    8  A    between atoms: N5_22  and  C13_23 
REMARK    9  A    between atoms: C13_23  and  C14_24 
REMARK   10  A    between atoms: C14_24  and  C15_25 
REMARK   11  A    between atoms: C15_25  and  C16_26 
REMARK   12  A    between atoms: C16_26  and  C17_27 
REMARK   13  A    between atoms: C17_27  and  C18_28 
REMARK   14  A    between atoms: C18_28  and  N6_29 
REMARK   15  A    between atoms: C19_30  and  O3_31 
REMARK   16  A    between atoms: C22_35  and  O4_36 
ROOT
HETATM    1  C13 UNL     1      -0.233   1.296  -1.940  1.00  0.00     0.128 C 
ENDROOT
BRANCH   1   2
HETATM    2  N5  UNL     1       1.176   1.159  -1.772  1.00  0.00    -0.360 N 
HETATM    3  C2  UNL     1       1.909   1.732  -0.838  1.00  0.00     0.010 A 
HETATM    4  C1  UNL     1       1.326   2.700   0.130  1.00  0.00     0.068 C 
HETATM    5  C3  UNL     1       3.273   1.466  -0.770  1.00  0.00     0.061 A 
HETATM    6  C4  UNL     1       3.929   0.630  -1.628  1.00  0.00     0.073 A 
HETATM    7  C11 UNL     1       3.132   0.031  -2.617  1.00  0.00     0.054 A 
HETATM    8  C12 UNL     1       1.807   0.316  -2.649  1.00  0.00     0.093 A 
BRANCH   6   9
HETATM    9  O1  UNL     1       5.259   0.359  -1.576  1.00  0.00    -0.337 OA
BRANCH   9  10
HETATM   10  C5  UNL     1       6.286   0.776  -0.766  1.00  0.00     0.218 C 
BRANCH  10  11
HETATM   11  C6  UNL     1       6.226   0.283   0.637  1.00  0.00     0.043 C 
BRANCH  11  12
HETATM   12  C7  UNL     1       6.250  -1.216   0.665  1.00  0.00     0.023 C 
BRANCH  12  13
HETATM   13  C8  UNL     1       7.487  -1.772   0.046  1.00  0.00     0.122 C 
BRANCH  13  14
HETATM   14  N1  UNL     1       8.670  -1.324   0.725  1.00  0.00    -0.365 N 
HETATM   15  C9  UNL     1       9.938  -1.735   0.272  1.00  0.00     0.181 C 
HETATM   16  N2  UNL     1      10.294  -2.984   0.398  1.00  0.00    -0.374 N 
HETATM   17  N3  UNL     1      10.882  -0.864  -0.329  1.00  0.00    -0.064 NA
ATOM     18  H22 UNL     1       9.615  -3.610   0.830  1.00  0.00     0.158 HD
ATOM     19  H21 UNL     1      11.213  -3.282   0.070  1.00  0.00     0.158 HD
ATOM     20  H1  UNL     1       8.592  -0.709   1.535  1.00  0.00     0.162 HD
ENDBRANCH  13  14
ENDBRANCH  12  13
ENDBRANCH  11  12
ENDBRANCH  10  11
BRANCH  10  21
HETATM   21  C10 UNL     1       6.510   2.252  -0.872  1.00  0.00     0.260 C 
HETATM   22  N4  UNL     1       7.471   2.901  -0.049  1.00  0.00    -0.060 NA
HETATM   23  O2  UNL     1       5.834   2.894  -1.699  1.00  0.00    -0.274 OA
ENDBRANCH  10  21
ENDBRANCH   9  10
ENDBRANCH   6   9
ENDBRANCH   1   2
BRANCH   1  24
HETATM   24  C14 UNL     1      -1.081   0.211  -1.352  1.00  0.00     0.020 C 
BRANCH  24  25
HETATM   25  C15 UNL     1      -0.882   0.080   0.116  1.00  0.00     0.002 C 
BRANCH  25  26
HETATM   26  C16 UNL     1      -1.726  -1.023   0.751  1.00  0.00     0.002 C 
BRANCH  26  27
HETATM   27  C17 UNL     1      -3.163  -0.728   0.528  1.00  0.00     0.020 C 
BRANCH  27  28
HETATM   28  C18 UNL     1      -4.077  -1.769   1.158  1.00  0.00     0.133 C 
BRANCH  28  29
HETATM   29  N6  UNL     1      -5.438  -1.329   0.844  1.00  0.00    -0.307 N 
HETATM   30  C19 UNL     1      -6.154  -0.495   1.651  1.00  0.00     0.155 A 
HETATM   31  C20 UNL     1      -7.384  -0.286   1.062  1.00  0.00     0.027 A 
HETATM   32  C21 UNL     1      -7.432  -0.993  -0.116  1.00  0.00     0.025 A 
HETATM   33  C27 UNL     1      -8.312   0.589   1.772  1.00  0.00     0.013 C 
HETATM   34  C22 UNL     1      -6.200  -1.622  -0.202  1.00  0.00     0.153 A 
HETATM   35  C23 UNL     1      -8.350  -1.260  -1.238  1.00  0.00     0.166 C 
HETATM   36  N7  UNL     1      -9.203  -0.173  -1.569  1.00  0.00    -0.356 N 
HETATM   37  C24 UNL     1      -9.968   0.781  -0.855  1.00  0.00     0.221 C 
ATOM     38  H7  UNL     1      -9.285  -0.048  -2.578  1.00  0.00     0.162 HD
HETATM   39  O5  UNL     1     -10.236   1.831  -1.493  1.00  0.00    -0.273 OA
HETATM   40  C25 UNL     1     -10.531   0.819   0.498  1.00  0.00     0.130 C 
HETATM   41  C26 UNL     1      -9.541   1.028   1.564  1.00  0.00    -0.017 C 
BRANCH  30  42
HETATM   42  O3  UNL     1      -5.702   0.044   2.861  1.00  0.00    -0.345 OA
ATOM     43  H3  UNL     1      -6.201   0.625   3.423  1.00  0.00     0.219 HD
ENDBRANCH  30  42
BRANCH  34  44
HETATM   44  O4  UNL     1      -5.800  -2.456  -1.247  1.00  0.00    -0.345 OA
ATOM     45  H4  UNL     1      -6.346  -2.666  -1.996  1.00  0.00     0.219 HD
ENDBRANCH  34  44
ENDBRANCH  28  29
ENDBRANCH  27  28
ENDBRANCH  26  27
ENDBRANCH  25  26
ENDBRANCH  24  25
ENDBRANCH   1  24
TORSDOF 16
