REMARK  14 active torsions:
REMARK  status: ('A' for Active; 'I' for Inactive)
REMARK    1  A    between atoms: C2_2  and  C3_3 
REMARK    2  A    between atoms: N2_9  and  N3_10 
REMARK       I    between atoms: N3_10  and  C6_12 
REMARK    3  A    between atoms: C6_12  and  C7_14 
REMARK    4  A    between atoms: C7_14  and  N4_15 
REMARK    5  A    between atoms: C12_21  and  C13_22 
REMARK    6  A    between atoms: C13_22  and  C14_23 
REMARK    7  A    between atoms: C14_23  and  C15_24 
REMARK    8  A    between atoms: C15_24  and  N5_25 
REMARK       I    between atoms: N5_25  and  C16_27 
REMARK    9  A    between atoms: C16_27  and  C17_29 
REMARK   10  A    between atoms: C17_29  and  C18_30 
REMARK   11  A    between atoms: C18_30  and  C19_31 
REMARK   12  A    between atoms: C19_31  and  C20_32 
REMARK   13  A    between atoms: C20_32  and  C21_33 
REMARK   14  A    between atoms: C21_33  and  N6_34 
REMARK       I    between atoms: N6_34  and  C22_36 
ROOT
HETATM    1  N4  UNL     1      -2.881  -0.878   0.905  1.00  0.00    -0.261 N 
HETATM    2  C8  UNL     1      -2.469  -1.036  -0.452  1.00  0.00     0.228 C 
HETATM    3  O3  UNL     1      -3.289  -1.716  -1.152  1.00  0.00    -0.273 OA
HETATM    4  C9  UNL     1      -1.289  -0.562  -1.182  1.00  0.00     0.113 C 
HETATM    5  C10 UNL     1      -0.865   0.838  -0.878  1.00  0.00     0.036 C 
HETATM    6  C11 UNL     1      -1.911   1.858  -1.334  1.00  0.00     0.016 C 
HETATM    7  C12 UNL     1      -0.498   1.108   0.518  1.00  0.00    -0.005 C 
HETATM    8  N9  UNL     1      -1.130   0.836   1.606  1.00  0.00    -0.316 N 
ATOM      9  H9  UNL     1      -0.672   1.122   2.471  1.00  0.00     0.170 HD
HETATM   10  C23 UNL     1      -2.387   0.186   1.753  1.00  0.00     0.329 C 
HETATM   11  O5  UNL     1      -3.173   0.505   2.659  1.00  0.00    -0.246 OA
ENDROOT
BRANCH   7  12
HETATM   12  C13 UNL     1       0.778   1.810   0.756  1.00  0.00     0.054 C 
BRANCH  12  13
HETATM   13  C14 UNL     1       1.993   1.094   0.224  1.00  0.00     0.025 C 
BRANCH  13  14
HETATM   14  C15 UNL     1       2.156  -0.290   0.787  1.00  0.00     0.123 C 
BRANCH  14  15
HETATM   15  N5  UNL     1       3.350  -0.899   0.244  1.00  0.00    -0.361 N 
HETATM   16  C16 UNL     1       4.648  -0.416   0.474  1.00  0.00     0.217 C 
HETATM   17  O4  UNL     1       4.883   0.603   1.208  1.00  0.00    -0.274 OA
ATOM     18  H5  UNL     1       3.243  -1.728  -0.340  1.00  0.00     0.162 HD
BRANCH  16  19
HETATM   19  C17 UNL     1       5.866  -1.057  -0.122  1.00  0.00     0.103 C 
BRANCH  19  20
HETATM   20  C18 UNL     1       7.117  -0.579   0.591  1.00  0.00     0.009 C 
BRANCH  20  21
HETATM   21  C19 UNL     1       8.316  -1.154  -0.093  1.00  0.00     0.002 C 
BRANCH  21  22
HETATM   22  C20 UNL     1       9.606  -0.749   0.599  1.00  0.00     0.020 C 
BRANCH  22  23
HETATM   23  C21 UNL     1       9.762   0.726   0.721  1.00  0.00     0.122 C 
BRANCH  23  24
HETATM   24  N6  UNL     1       9.756   1.469  -0.504  1.00  0.00    -0.365 N 
HETATM   25  C22 UNL     1      10.837   1.344  -1.408  1.00  0.00     0.181 C 
HETATM   26  N7  UNL     1      11.946   1.960  -1.202  1.00  0.00    -0.374 N 
HETATM   27  N8  UNL     1      10.708   0.541  -2.568  1.00  0.00    -0.064 NA
ATOM     28  H72 UNL     1      12.039   2.538  -0.367  1.00  0.00     0.158 HD
ATOM     29  H71 UNL     1      12.725   1.870  -1.854  1.00  0.00     0.158 HD
ATOM     30  H6  UNL     1       8.974   2.086  -0.724  1.00  0.00     0.162 HD
ENDBRANCH  23  24
ENDBRANCH  22  23
ENDBRANCH  21  22
ENDBRANCH  20  21
ENDBRANCH  19  20
ENDBRANCH  16  19
ENDBRANCH  14  15
ENDBRANCH  13  14
ENDBRANCH  12  13
ENDBRANCH   7  12
BRANCH   1  31
HETATM   31  C7  UNL     1      -3.806  -1.815   1.418  1.00  0.00     0.241 C 
BRANCH  31  32
HETATM   32  C6  UNL     1      -5.240  -1.444   1.279  1.00  0.00     0.256 C 
HETATM   33  N3  UNL     1      -5.679  -0.230   0.683  1.00  0.00    -0.246 N 
ATOM     34  H3  UNL     1      -4.986   0.427   0.324  1.00  0.00     0.192 HD
HETATM   35  O2  UNL     1      -6.152  -2.228   1.705  1.00  0.00    -0.270 OA
BRANCH  33  36
HETATM   36  N2  UNL     1      -7.047   0.089   0.576  1.00  0.00    -0.142 N 
HETATM   37  C5  UNL     1      -7.786   0.465   1.761  1.00  0.00     0.355 C 
HETATM   38  N1  UNL     1      -9.136   0.474   1.388  1.00  0.00    -0.316 N 
HETATM   39  O1  UNL     1      -7.316   0.728   2.896  1.00  0.00    -0.244 OA
HETATM   40  C3  UNL     1      -9.208   0.104  -0.012  1.00  0.00     0.123 C 
ATOM     41  H1  UNL     1      -9.926   0.700   1.992  1.00  0.00     0.166 HD
HETATM   42  C4  UNL     1     -10.120   1.134  -0.656  1.00  0.00     0.060 C 
HETATM   43  N10 UNL     1      -7.881   0.120  -0.519  1.00  0.00    -0.082 NA
BRANCH  40  44
HETATM   44  C2  UNL     1      -9.879  -1.246  -0.085  1.00  0.00     0.046 C 
HETATM   45  C1  UNL     1     -10.154  -1.658  -1.495  1.00  0.00     0.009 C 
ENDBRANCH  40  44
ENDBRANCH  33  36
ENDBRANCH  31  32
ENDBRANCH   1  31
TORSDOF 14
