REMARK  21 active torsions:
REMARK  status: ('A' for Active; 'I' for Inactive)
REMARK    1  A    between atoms: C2_2  and  N1_4 
REMARK    2  A    between atoms: N1_4  and  C4_6 
REMARK    3  A    between atoms: C4_6  and  C5_7 
REMARK    4  A    between atoms: C5_7  and  O1_8 
REMARK    5  A    between atoms: C5_7  and  N2_10 
REMARK    6  A    between atoms: N2_10  and  C6_12 
REMARK    7  A    between atoms: C6_12  and  C7_13 
REMARK       I    between atoms: C7_13  and  N3_15 
REMARK    8  A    between atoms: N3_15  and  C8_17 
REMARK    9  A    between atoms: C8_17  and  C10_19 
REMARK       I    between atoms: C10_19  and  N4_21 
REMARK   10  A    between atoms: N4_21  and  C11_23 
REMARK   11  A    between atoms: C11_23  and  C12_24 
REMARK   12  A    between atoms: C11_23  and  C15_29 
REMARK   13  A    between atoms: C12_24  and  C13_25 
REMARK   14  A    between atoms: C13_25  and  C14_26 
REMARK       I    between atoms: C15_29  and  N6_31 
REMARK   15  A    between atoms: N6_31  and  C16_33 
REMARK   16  A    between atoms: C16_33  and  C18_35 
REMARK   17  A    between atoms: C18_35  and  N7_36 
REMARK   18  A    between atoms: C18_35  and  C27_46 
REMARK   19  A    between atoms: N7_36  and  C19_38 
REMARK   20  A    between atoms: C19_38  and  C20_39 
REMARK   21  A    between atoms: C19_38  and  C23_42 
ROOT
HETATM    1  C11 UNL     1      -0.165   1.139   0.865  1.00  0.00     0.177 C 
ENDROOT
BRANCH   1   2
HETATM    2  N4  UNL     1       1.009   1.138   0.049  1.00  0.00    -0.346 N 
HETATM    3  C10 UNL     1       2.301   1.607   0.469  1.00  0.00     0.240 C 
HETATM    4  O3  UNL     1       2.482   2.055   1.627  1.00  0.00    -0.271 OA
ATOM      5  H4  UNL     1       0.923   0.778  -0.901  1.00  0.00     0.163 HD
BRANCH   3   6
HETATM    6  C8  UNL     1       3.450   1.569  -0.459  1.00  0.00     0.172 C 
HETATM    7  C9  UNL     1       3.143   2.574  -1.573  1.00  0.00     0.042 C 
BRANCH   6   8
HETATM    8  N3  UNL     1       4.676   2.017   0.160  1.00  0.00    -0.347 N 
HETATM    9  C7  UNL     1       5.866   1.248  -0.027  1.00  0.00     0.236 C 
HETATM   10  O2  UNL     1       5.826   0.190  -0.727  1.00  0.00    -0.272 OA
ATOM     11  H3  UNL     1       4.692   2.868   0.721  1.00  0.00     0.163 HD
BRANCH   9  12
HETATM   12  C6  UNL     1       7.123   1.692   0.589  1.00  0.00     0.224 C 
BRANCH  12  13
HETATM   13  N2  UNL     1       8.227   0.782   0.294  1.00  0.00    -0.361 N 
ATOM     14  H2  UNL     1       9.028   1.121  -0.238  1.00  0.00     0.162 HD
BRANCH  13  15
HETATM   15  C5  UNL     1       8.203  -0.547   0.729  1.00  0.00     0.151 C 
BRANCH  15  16
HETATM   16  C4  UNL     1       9.196  -1.593   0.504  1.00  0.00     0.139 C 
BRANCH  16  17
HETATM   17  N1  UNL     1      10.280  -1.435  -0.345  1.00  0.00    -0.392 N 
ATOM     18  H1  UNL     1      11.186  -1.173   0.043  1.00  0.00     0.159 HD
BRANCH  17  19
HETATM   19  C2  UNL     1      10.153  -1.628  -1.725  1.00  0.00     0.072 C 
HETATM   20  C1  UNL     1       9.218  -0.735  -2.442  1.00  0.00     0.031 C 
HETATM   21  C3  UNL     1      11.529  -1.592  -2.423  1.00  0.00     0.031 C 
ENDBRANCH  17  19
ENDBRANCH  16  17
ENDBRANCH  15  16
BRANCH  15  22
HETATM   22  O1  UNL     1       7.178  -0.948   1.443  1.00  0.00    -0.345 OA
ATOM     23  H1  UNL     1       6.532  -0.267   1.589  1.00  0.00     0.219 HD
ENDBRANCH  15  22
ENDBRANCH  13  15
ENDBRANCH  12  13
ENDBRANCH   9  12
ENDBRANCH   6   8
ENDBRANCH   3   6
ENDBRANCH   1   2
BRANCH   1  24
HETATM   24  C12 UNL     1      -0.491  -0.283   1.366  1.00  0.00     0.043 C 
BRANCH  24  25
HETATM   25  C13 UNL     1       0.666  -0.805   2.191  1.00  0.00     0.102 C 
BRANCH  25  26
HETATM   26  C14 UNL     1       0.350  -2.164   2.686  1.00  0.00     0.231 C 
HETATM   27  N5  UNL     1       1.327  -2.802   3.527  1.00  0.00    -0.062 NA
HETATM   28  O4  UNL     1      -0.718  -2.715   2.379  1.00  0.00    -0.277 OA
ENDBRANCH  25  26
ENDBRANCH  24  25
ENDBRANCH   1  24
BRANCH   1  29
HETATM   29  C15 UNL     1      -1.360   1.603   0.130  1.00  0.00     0.240 C 
HETATM   30  O5  UNL     1      -1.209   1.950  -1.071  1.00  0.00    -0.271 OA
HETATM   31  N6  UNL     1      -2.658   1.680   0.692  1.00  0.00    -0.353 N 
ATOM     32  H6  UNL     1      -2.802   1.404   1.663  1.00  0.00     0.163 HD
BRANCH  31  33
HETATM   33  C16 UNL     1      -3.777   2.141  -0.086  1.00  0.00     0.103 C 
HETATM   34  C17 UNL     1      -4.558   3.167   0.695  1.00  0.00     0.034 C 
BRANCH  33  35
HETATM   35  C18 UNL     1      -4.594   1.152  -0.812  1.00  0.00     0.106 C 
BRANCH  35  36
HETATM   36  N7  UNL     1      -5.350   0.143  -0.426  1.00  0.00    -0.388 N 
ATOM     37  H7  UNL     1      -6.314   0.294  -0.723  1.00  0.00     0.159 HD
BRANCH  36  38
HETATM   38  C19 UNL     1      -5.244  -1.068   0.263  1.00  0.00    -0.006 C 
BRANCH  38  39
HETATM   39  C20 UNL     1      -5.021  -0.906   1.704  1.00  0.00     0.023 C 
HETATM   40  C21 UNL     1      -4.875  -2.196   2.528  1.00  0.00     0.016 C 
HETATM   41  C22 UNL     1      -6.017   0.013   2.406  1.00  0.00     0.016 C 
ENDBRANCH  38  39
BRANCH  38  42
HETATM   42  C23 UNL     1      -6.198  -2.111  -0.245  1.00  0.00    -0.013 C 
HETATM   43  C24 UNL     1      -6.252  -3.453   0.339  1.00  0.00     0.021 C 
HETATM   44  C25 UNL     1      -5.831  -2.354  -1.740  1.00  0.00     0.021 C 
HETATM   45  C26 UNL     1      -7.630  -1.605  -0.321  1.00  0.00     0.021 C 
ENDBRANCH  38  42
ENDBRANCH  36  38
ENDBRANCH  35  36
BRANCH  35  46
HETATM   46  C27 UNL     1      -5.437   2.058  -1.779  1.00  0.00     0.002 C 
HETATM   47  C28 UNL     1      -6.382   1.311  -2.630  1.00  0.00     0.011 C 
HETATM   48  C29 UNL     1      -4.469   2.865  -2.661  1.00  0.00     0.011 C 
ENDBRANCH  35  46
ENDBRANCH  33  35
ENDBRANCH  31  33
ENDBRANCH   1  29
TORSDOF 21
