REMARK  18 active torsions:
REMARK  status: ('A' for Active; 'I' for Inactive)
REMARK    1  A    between atoms: C1_2  and  C2_4 
REMARK    2  A    between atoms: C2_4  and  C3_5 
REMARK    3  A    between atoms: C3_5  and  C4_6 
REMARK    4  A    between atoms: C3_5  and  N6_19 
REMARK    5  A    between atoms: C4_6  and  N2_7 
REMARK    6  A    between atoms: C4_6  and  C5_11 
REMARK    7  A    between atoms: C5_11  and  C6_12 
REMARK    8  A    between atoms: C6_12  and  C7_13 
REMARK    9  A    between atoms: C7_13  and  N3_14 
REMARK   10  A    between atoms: C12_23  and  C13_24 
REMARK       I    between atoms: C13_24  and  N7_26 
REMARK   11  A    between atoms: N7_26  and  C14_28 
REMARK   12  A    between atoms: C14_28  and  C15_29 
REMARK   13  A    between atoms: C14_28  and  C24_42 
REMARK   14  A    between atoms: C15_29  and  C16_30 
REMARK   15  A    between atoms: C16_30  and  C17_31 
REMARK       I    between atoms: N8_32  and  C18_34 
REMARK       I    between atoms: C18_34  and  N9_36 
REMARK   16  A    between atoms: C24_42  and  C25_43 
REMARK   17  A    between atoms: C25_43  and  C26_44 
REMARK   18  A    between atoms: C26_44  and  N10_45 
ROOT
HETATM    1  C13 UNL     1      -0.994   2.677   0.370  1.00  0.00     0.240 C 
HETATM    2  O2  UNL     1      -0.588   3.776  -0.154  1.00  0.00    -0.271 OA
HETATM    3  N7  UNL     1      -0.066   1.621   0.408  1.00  0.00    -0.355 N 
ATOM      4  H7  UNL     1      -0.349   0.734   0.826  1.00  0.00     0.162 HD
ENDROOT
BRANCH   1   5
HETATM    5  C12 UNL     1      -2.389   2.661   0.871  1.00  0.00     0.176 C 
HETATM    6  N6  UNL     1      -2.946   1.411   0.956  1.00  0.00    -0.373 N 
HETATM    7  C9  UNL     1      -2.723   0.778   2.193  1.00  0.00     0.059 C 
HETATM    8  C10 UNL     1      -2.045   1.770   3.110  1.00  0.00     0.047 C 
HETATM    9  C11 UNL     1      -2.221   3.077   2.364  1.00  0.00     0.040 C 
BRANCH   6  10
HETATM   10  C3  UNL     1      -4.174   1.055   0.273  1.00  0.00     0.123 C 
BRANCH  10  11
HETATM   11  C2  UNL     1      -5.418   1.328   1.024  1.00  0.00     0.126 C 
BRANCH  11  12
HETATM   12  C1  UNL     1      -5.656   2.702   1.500  1.00  0.00     0.233 C 
HETATM   13  N1  UNL     1      -5.968   2.907   2.862  1.00  0.00    -0.062 NA
HETATM   14  O1  UNL     1      -5.598   3.704   0.759  1.00  0.00    -0.277 OA
ENDBRANCH  11  12
ENDBRANCH  10  11
BRANCH  10  15
HETATM   15  C4  UNL     1      -3.989  -0.334  -0.160  1.00  0.00     0.206 C 
BRANCH  15  16
HETATM   16  N2  UNL     1      -2.698  -0.355  -0.920  1.00  0.00    -0.073 N 
ATOM     17  H23 UNL     1      -2.663   0.319  -1.685  1.00  0.00     0.274 HD
ATOM     18  H22 UNL     1      -1.908   0.017  -0.393  1.00  0.00     0.274 HD
ATOM     19  H21 UNL     1      -2.569  -1.321  -1.221  1.00  0.00     0.274 HD
ENDBRANCH  15  16
BRANCH  15  20
HETATM   20  C5  UNL     1      -4.949  -1.200  -0.800  1.00  0.00     0.036 C 
BRANCH  20  21
HETATM   21  C6  UNL     1      -6.174  -1.568  -0.064  1.00  0.00     0.022 C 
BRANCH  21  22
HETATM   22  C7  UNL     1      -7.049  -2.540  -0.882  1.00  0.00     0.122 C 
BRANCH  22  23
HETATM   23  N3  UNL     1      -6.336  -3.748  -1.173  1.00  0.00    -0.367 N 
HETATM   24  C8  UNL     1      -6.938  -4.844  -1.447  1.00  0.00     0.196 C 
HETATM   25  N4  UNL     1      -6.152  -5.996  -1.722  1.00  0.00    -0.067 NA
HETATM   26  N5  UNL     1      -8.354  -4.967  -1.494  1.00  0.00    -0.067 NA
ATOM     27  H3  UNL     1      -5.316  -3.734  -1.162  1.00  0.00     0.161 HD
ENDBRANCH  22  23
ENDBRANCH  21  22
ENDBRANCH  20  21
ENDBRANCH  15  20
ENDBRANCH  10  15
ENDBRANCH   6  10
ENDBRANCH   1   5
BRANCH   3  28
HETATM   28  C14 UNL     1       1.285   1.745  -0.127  1.00  0.00     0.084 C 
BRANCH  28  29
HETATM   29  C15 UNL     1       1.567   0.691  -1.141  1.00  0.00     0.030 C 
BRANCH  29  30
HETATM   30  C16 UNL     1       1.444  -0.718  -0.694  1.00  0.00     0.046 C 
BRANCH  30  31
HETATM   31  C17 UNL     1       2.300  -1.175   0.388  1.00  0.00     0.065 C 
HETATM   32  N8  UNL     1       3.459  -1.675   0.330  1.00  0.00    -0.323 N 
HETATM   33  C18 UNL     1       4.279  -1.945  -0.759  1.00  0.00     0.322 C 
ATOM     34  H8  UNL     1       3.860  -1.922   1.235  1.00  0.00     0.169 HD
HETATM   35  O3  UNL     1       3.976  -1.520  -1.900  1.00  0.00    -0.247 OA
HETATM   36  N9  UNL     1       5.479  -2.702  -0.640  1.00  0.00    -0.334 N 
HETATM   37  C19 UNL     1       6.282  -2.954  -1.814  1.00  0.00     0.127 C 
HETATM   38  C23 UNL     1       5.945  -3.241   0.619  1.00  0.00     0.127 C 
HETATM   39  C20 UNL     1       7.747  -2.706  -1.601  1.00  0.00     0.020 C 
HETATM   40  C21 UNL     1       8.238  -3.184  -0.274  1.00  0.00     0.003 C 
HETATM   41  C22 UNL     1       7.179  -4.072   0.327  1.00  0.00     0.020 C 
ENDBRANCH  30  31
ENDBRANCH  29  30
ENDBRANCH  28  29
BRANCH  28  42
HETATM   42  C24 UNL     1       2.268   1.929   0.964  1.00  0.00     0.027 C 
BRANCH  42  43
HETATM   43  C25 UNL     1       3.695   2.104   0.516  1.00  0.00     0.022 C 
BRANCH  43  44
HETATM   44  C26 UNL     1       3.805   3.345  -0.360  1.00  0.00     0.122 C 
BRANCH  44  45
HETATM   45  N10 UNL     1       5.177   3.487  -0.789  1.00  0.00    -0.367 N 
HETATM   46  C27 UNL     1       5.566   4.632  -1.265  1.00  0.00     0.196 C 
HETATM   47  N11 UNL     1       4.666   5.695  -1.355  1.00  0.00    -0.067 NA
HETATM   48  N12 UNL     1       6.922   4.807  -1.709  1.00  0.00    -0.067 NA
ATOM     49  H10 UNL     1       5.827   2.704  -0.720  1.00  0.00     0.161 HD
ENDBRANCH  44  45
ENDBRANCH  43  44
ENDBRANCH  42  43
ENDBRANCH  28  42
ENDBRANCH   3  28
TORSDOF 18
