REMARK  17 active torsions:
REMARK  status: ('A' for Active; 'I' for Inactive)
REMARK    1  A    between atoms: C1_4  and  C2_6 
REMARK    2  A    between atoms: C2_6  and  C3_7 
REMARK    3  A    between atoms: C3_7  and  N3_8 
REMARK       I    between atoms: N3_8  and  C4_10 
REMARK       I    between atoms: C4_10  and  N4_12 
REMARK    4  A    between atoms: N4_12  and  C5_14 
REMARK    5  A    between atoms: N5_17  and  C8_18 
REMARK       I    between atoms: N6_20  and  C10_21 
REMARK    6  A    between atoms: C10_21  and  C11_23 
REMARK    7  A    between atoms: C11_23  and  C12_24 
REMARK    8  A    between atoms: C12_24  and  C13_25 
REMARK    9  A    between atoms: C13_25  and  N7_26 
REMARK   10  A    between atoms: C13_25  and  C20_39 
REMARK       I    between atoms: N7_26  and  C14_28 
REMARK   11  A    between atoms: C14_28  and  C15_30 
REMARK   12  A    between atoms: C15_30  and  C16_31 
REMARK   13  A    between atoms: C16_31  and  C17_32 
REMARK   14  A    between atoms: C17_32  and  C18_33 
REMARK   15  A    between atoms: C18_33  and  N8_34 
REMARK   16  A    between atoms: C26_45  and  C27_46 
REMARK   17  A    between atoms: C27_46  and  O4_47 
ROOT
HETATM    1  C8  UNL     1       3.111   0.744   1.295  1.00  0.00     0.265 A 
HETATM    2  C9  UNL     1       2.148   0.630   0.168  1.00  0.00     0.164 A 
HETATM    3  N6  UNL     1       1.126   0.084   1.066  1.00  0.00    -0.341 N 
HETATM    4  C10 UNL     1      -0.199  -0.361   0.813  1.00  0.00     0.220 C 
HETATM    5  O2  UNL     1      -0.757  -0.329  -0.308  1.00  0.00    -0.273 OA
HETATM    6  C26 UNL     1       2.014   0.221   2.199  1.00  0.00     0.145 A 
ENDROOT
BRANCH   4   7
HETATM    7  C11 UNL     1      -0.960  -0.901   1.957  1.00  0.00     0.105 C 
BRANCH   7   8
HETATM    8  C12 UNL     1      -2.407  -1.088   1.754  1.00  0.00     0.034 C 
BRANCH   8   9
HETATM    9  C13 UNL     1      -3.261   0.078   1.468  1.00  0.00     0.088 C 
BRANCH   9  10
HETATM   10  N7  UNL     1      -4.630  -0.459   1.301  1.00  0.00    -0.356 N 
HETATM   11  C14 UNL     1      -5.504   0.022   0.310  1.00  0.00     0.217 C 
HETATM   12  O3  UNL     1      -5.107   0.944  -0.445  1.00  0.00    -0.274 OA
ATOM     13  H7  UNL     1      -4.949  -1.201   1.924  1.00  0.00     0.162 HD
BRANCH  11  14
HETATM   14  C15 UNL     1      -6.873  -0.495   0.100  1.00  0.00     0.103 C 
BRANCH  14  15
HETATM   15  C16 UNL     1      -7.701   0.384  -0.813  1.00  0.00     0.011 C 
BRANCH  15  16
HETATM   16  C17 UNL     1      -9.079  -0.210  -0.993  1.00  0.00     0.020 C 
BRANCH  16  17
HETATM   17  C18 UNL     1      -9.052  -1.573  -1.668  1.00  0.00     0.122 C 
BRANCH  17  18
HETATM   18  N8  UNL     1      -8.470  -1.443  -3.007  1.00  0.00    -0.367 N 
HETATM   19  C19 UNL     1      -9.223  -1.482  -4.039  1.00  0.00     0.196 C 
HETATM   20  N9  UNL     1     -10.625  -1.654  -3.915  1.00  0.00    -0.067 NA
HETATM   21  N10 UNL     1      -8.668  -1.334  -5.328  1.00  0.00    -0.067 NA
ATOM     22  H8  UNL     1      -7.463  -1.321  -3.115  1.00  0.00     0.161 HD
ENDBRANCH  17  18
ENDBRANCH  16  17
ENDBRANCH  15  16
ENDBRANCH  14  15
ENDBRANCH  11  14
ENDBRANCH   9  10
BRANCH   9  23
HETATM   23  C20 UNL     1      -3.350   1.122   2.554  1.00  0.00     0.008 C 
HETATM   24  C21 UNL     1      -3.861   0.627   3.864  1.00  0.00     0.007 C 
HETATM   25  C22 UNL     1      -3.968   1.812   4.796  1.00  0.00     0.000 C 
HETATM   26  C23 UNL     1      -3.955   3.142   4.076  1.00  0.00     0.000 C 
HETATM   27  C24 UNL     1      -2.711   3.347   3.261  1.00  0.00     0.000 C 
HETATM   28  C25 UNL     1      -2.170   1.991   2.746  1.00  0.00     0.007 C 
ENDBRANCH   9  23
ENDBRANCH   8   9
ENDBRANCH   7   8
ENDBRANCH   4   7
BRANCH   6  29
HETATM   29  C27 UNL     1       2.391  -1.056   2.879  1.00  0.00     0.191 C 
BRANCH  29  30
HETATM   30  O4  UNL     1       3.036  -1.978   2.101  1.00  0.00    -0.399 OA
ATOM     31  H4  UNL     1       3.276  -2.789   2.533  1.00  0.00     0.209 HD
ENDBRANCH  29  30
ENDBRANCH   6  29
BRANCH   1  32
HETATM   32  N5  UNL     1       4.258  -0.076   1.174  1.00  0.00     0.099 N 
HETATM   33  C7  UNL     1       5.404   0.289   1.935  1.00  0.00     0.275 C 
HETATM   34  C6  UNL     1       6.634   0.176   1.075  1.00  0.00     0.057 C 
HETATM   35  C5  UNL     1       6.134  -0.630  -0.114  1.00  0.00     0.116 C 
HETATM   36  C28 UNL     1       4.659  -0.262  -0.191  1.00  0.00     0.298 C 
BRANCH  35  37
HETATM   37  N4  UNL     1       6.898  -0.203  -1.261  1.00  0.00    -0.337 N 
HETATM   38  C4  UNL     1       7.771  -1.055  -1.964  1.00  0.00     0.316 C 
HETATM   39  N3  UNL     1       8.501  -0.589  -3.069  1.00  0.00    -0.343 N 
HETATM   40  O1  UNL     1       7.921  -2.270  -1.612  1.00  0.00    -0.247 OA
ATOM     41  H3  UNL     1       8.387   0.379  -3.370  1.00  0.00     0.164 HD
ATOM     42  H4  UNL     1       6.801   0.762  -1.578  1.00  0.00     0.164 HD
BRANCH  39  43
HETATM   43  C3  UNL     1       9.418  -1.459  -3.795  1.00  0.00     0.131 C 
BRANCH  43  44
HETATM   44  C2  UNL     1      10.095  -0.751  -4.922  1.00  0.00     0.092 C 
BRANCH  44  45
HETATM   45  C1  UNL     1      10.882   0.417  -4.434  1.00  0.00     0.088 C 
HETATM   46  N1  UNL     1      10.589   1.572  -4.878  1.00  0.00    -0.391 N 
ATOM     47  H12 UNL     1      11.128   2.371  -4.544  1.00  0.00     0.157 HD
ATOM     48  H11 UNL     1       9.830   1.676  -5.551  1.00  0.00     0.157 HD
HETATM   49  N2  UNL     1      11.944   0.272  -3.492  1.00  0.00    -0.088 NA
ENDBRANCH  44  45
ENDBRANCH  43  44
ENDBRANCH  39  43
ENDBRANCH  35  37
ENDBRANCH   1  32
TORSDOF 17
