REMARK  9 active torsions:
REMARK  status: ('A' for Active; 'I' for Inactive)
REMARK    1  A    between atoms: C2_2  and  O1_3 
REMARK    2  A    between atoms: O1_3  and  C3_4 
REMARK    3  A    between atoms: C3_4  and  C4_6 
REMARK    4  A    between atoms: C4_6  and  C5_7 
REMARK    5  A    between atoms: C5_7  and  C6_8 
REMARK    6  A    between atoms: C6_8  and  N1_9 
REMARK    7  A    between atoms: N1_9  and  C7_11 
REMARK    8  A    between atoms: C7_11  and  O3_12 
REMARK    9  A    between atoms: C7_11  and  C8_14 
ROOT
HETATM    1  C6  UNL     1      -0.501  -0.804   0.388  1.00  0.00     0.125 C 
ENDROOT
BRANCH   1   2
HETATM    2  C5  UNL     1      -1.256  -0.265  -0.777  1.00  0.00     0.071 C 
BRANCH   2   3
HETATM    3  C4  UNL     1      -2.713  -0.545  -0.681  1.00  0.00     0.239 C 
HETATM    4  C17 UNL     1      -2.810  -2.055  -0.183  1.00  0.00     0.321 C 
HETATM    5  N2  UNL     1      -4.172  -2.410  -0.075  1.00  0.00     0.088 N 
HETATM    6  C18 UNL     1      -4.261  -3.864  -0.042  1.00  0.00     0.310 C 
HETATM    7  C19 UNL     1      -5.122  -1.878  -0.942  1.00  0.00     0.299 C 
HETATM    8  C20 UNL     1      -4.875  -0.475  -1.449  1.00  0.00     0.264 C 
HETATM    9  N3  UNL     1      -3.482  -0.441  -1.837  1.00  0.00    -0.053 N 
ATOM     10  H32 UNL     1      -3.247   0.380  -2.395  1.00  0.00     0.278 HD
ATOM     11  H31 UNL     1      -3.248  -1.150  -2.532  1.00  0.00     0.278 HD
BRANCH   3  12
HETATM   12  C3  UNL     1      -3.282   0.216   0.510  1.00  0.00     0.297 C 
HETATM   13  O2  UNL     1      -3.812  -0.300   1.486  1.00  0.00    -0.262 OA
BRANCH  12  14
HETATM   14  O1  UNL     1      -3.174   1.608   0.418  1.00  0.00    -0.320 OA
BRANCH  14  15
HETATM   15  C2  UNL     1      -3.641   2.466   1.399  1.00  0.00     0.174 C 
HETATM   16  C1  UNL     1      -3.789   3.843   0.698  1.00  0.00     0.034 C 
ENDBRANCH  14  15
ENDBRANCH  12  14
ENDBRANCH   3  12
ENDBRANCH   2   3
ENDBRANCH   1   2
BRANCH   1  17
HETATM   17  N1  UNL     1       0.872  -0.478   0.485  1.00  0.00    -0.370 N 
ATOM     18  H1  UNL     1       1.564  -1.221   0.390  1.00  0.00     0.161 HD
BRANCH  17  19
HETATM   19  C7  UNL     1       1.308   0.825   0.706  1.00  0.00     0.147 C 
BRANCH  19  20
HETATM   20  O3  UNL     1       0.350   1.700   0.790  1.00  0.00    -0.346 OA
ATOM     21  H3  UNL     1       0.648   2.589   0.941  1.00  0.00     0.219 HD
ENDBRANCH  19  20
BRANCH  19  22
HETATM   22  C8  UNL     1       2.703   1.314   0.869  1.00  0.00     0.028 A 
HETATM   23  C9  UNL     1       2.865   2.194   1.953  1.00  0.00     0.066 A 
HETATM   24  S1  UNL     1       4.513   2.481   2.047  1.00  0.00    -0.105 SA
HETATM   25  C10 UNL     1       5.030   1.506   0.737  1.00  0.00    -0.010 A 
HETATM   26  C11 UNL     1       3.856   0.976   0.252  1.00  0.00    -0.030 A 
HETATM   27  C16 UNL     1       6.479   1.348   0.333  1.00  0.00     0.046 C 
HETATM   28  C12 UNL     1       3.827   0.102  -1.011  1.00  0.00     0.040 C 
HETATM   29  C13 UNL     1       5.207   0.068  -1.646  1.00  0.00     0.005 C 
HETATM   30  C14 UNL     1       6.132  -0.843  -0.855  1.00  0.00     0.001 C 
HETATM   31  C15 UNL     1       6.916  -0.052   0.150  1.00  0.00     0.005 C 
ENDBRANCH  19  22
ENDBRANCH  17  19
ENDBRANCH   1  17
TORSDOF 9
