REMARK  8 active torsions:
REMARK  status: ('A' for Active; 'I' for Inactive)
REMARK    1  A    between atoms: C2_2  and  C3_3 
REMARK    2  A    between atoms: C8_9  and  C9_10 
REMARK       I    between atoms: C9_10  and  N2_12 
REMARK    3  A    between atoms: N2_12  and  C10_14 
REMARK    4  A    between atoms: C11_16  and  C12_17 
REMARK    5  A    between atoms: C17_22  and  C18_23 
REMARK    6  A    between atoms: C18_23  and  O2_24 
REMARK    7  A    between atoms: C18_23  and  C19_26 
REMARK    8  A    between atoms: C19_26  and  N3_27 
ROOT
HETATM    1  C10 UNL     1      -0.285  -0.453   0.222  1.00  0.00     0.086 A 
HETATM    2  S1  UNL     1      -0.910  -2.125   0.187  1.00  0.00    -0.075 SA
HETATM    3  C11 UNL     1      -2.447  -1.852  -0.384  1.00  0.00    -0.007 A 
HETATM    4  C16 UNL     1      -2.489  -0.496  -0.550  1.00  0.00     0.028 A 
HETATM    5  C17 UNL     1      -1.386   0.212  -0.236  1.00  0.00     0.007 A 
ENDROOT
BRANCH   1   6
HETATM    6  N2  UNL     1       0.995  -0.181   0.714  1.00  0.00    -0.319 N 
HETATM    7  C9  UNL     1       1.861   0.860   0.686  1.00  0.00     0.256 C 
HETATM    8  O1  UNL     1       1.684   1.940   0.090  1.00  0.00    -0.271 OA
ATOM      9  H2  UNL     1       1.377  -0.974   1.229  1.00  0.00     0.169 HD
BRANCH   7  10
HETATM   10  C8  UNL     1       3.146   0.794   1.408  1.00  0.00     0.314 C 
HETATM   11  N1  UNL     1       3.713  -0.512   1.665  1.00  0.00     0.103 N 
HETATM   12  C4  UNL     1       4.436  -1.009   0.474  1.00  0.00     0.282 C 
HETATM   13  C5  UNL     1       4.846   0.008   2.503  1.00  0.00     0.279 C 
HETATM   14  C3  UNL     1       5.807  -0.333   0.476  1.00  0.00     0.041 C 
HETATM   15  C6  UNL     1       5.479   0.839   1.388  1.00  0.00     0.026 C 
HETATM   16  C7  UNL     1       4.291   1.549   0.796  1.00  0.00     0.053 C 
BRANCH  14  17
HETATM   17  C2  UNL     1       6.274   0.096  -0.839  1.00  0.00    -0.030 C 
HETATM   18  C1  UNL     1       7.509  -0.243  -1.261  1.00  0.00     0.007 C 
ENDBRANCH  14  17
ENDBRANCH   7  10
ENDBRANCH   1   6
BRANCH   5  19
HETATM   19  C18 UNL     1      -1.388   1.714  -0.466  1.00  0.00     0.182 C 
BRANCH  19  20
HETATM   20  O2  UNL     1      -1.266   1.776  -1.931  1.00  0.00    -0.389 OA
ATOM     21  H2  UNL     1      -1.267   2.715  -2.075  1.00  0.00     0.210 HD
ENDBRANCH  19  20
BRANCH  19  22
HETATM   22  C19 UNL     1      -2.599   2.484  -0.204  1.00  0.00     0.307 C 
BRANCH  22  23
HETATM   23  N3  UNL     1      -3.930   2.166  -0.486  1.00  0.00     0.082 N 
HETATM   24  C20 UNL     1      -4.700   3.448  -0.731  1.00  0.00     0.309 C 
HETATM   25  C21 UNL     1      -4.522   1.703   0.841  1.00  0.00     0.309 C 
ENDBRANCH  22  23
ENDBRANCH  19  22
ENDBRANCH   5  19
BRANCH   3  26
HETATM   26  C12 UNL     1      -3.600  -2.778  -0.685  1.00  0.00    -0.018 C 
HETATM   27  C13 UNL     1      -4.662  -2.639   0.370  1.00  0.00     0.020 C 
HETATM   28  C14 UNL     1      -4.182  -2.297  -2.023  1.00  0.00     0.020 C 
HETATM   29  C15 UNL     1      -3.131  -4.173  -0.896  1.00  0.00     0.020 C 
ENDBRANCH   3  26
TORSDOF 8
