REMARK  9 active torsions:
REMARK  status: ('A' for Active; 'I' for Inactive)
REMARK    1  A    between atoms: O1_2  and  C2_3 
REMARK    2  A    between atoms: C3_5  and  C4_6 
REMARK    3  A    between atoms: C5_7  and  C6_8 
REMARK    4  A    between atoms: C8_10  and  C9_11 
REMARK    5  A    between atoms: C9_11  and  C10_12 
REMARK    6  A    between atoms: C10_12  and  C11_13 
REMARK    7  A    between atoms: C16_18  and  O3_19 
REMARK    8  A    between atoms: C20_25  and  O5_26 
REMARK    9  A    between atoms: C21_28  and  O6_29 
ROOT
HETATM    1  C6  UNL     1      -0.614  -0.592   0.052  1.00  0.00     0.146 C 
HETATM    2  C7  UNL     1      -0.032  -1.436  -1.078  1.00  0.00     0.055 C 
HETATM    3  C8  UNL     1       1.444  -1.375  -0.647  1.00  0.00     0.088 C 
HETATM    4  C18 UNL     1       1.243  -1.601   0.855  1.00  0.00     0.133 C 
HETATM    5  C19 UNL     1       1.307  -3.066   1.195  1.00  0.00     0.041 C 
HETATM    6  O4  UNL     1       0.020  -1.046   1.200  1.00  0.00    -0.376 OA
ENDROOT
BRANCH   1   7
HETATM    7  C5  UNL     1      -2.087  -0.689   0.132  1.00  0.00     0.003 C 
HETATM    8  C4  UNL     1      -2.691  -0.743   1.280  1.00  0.00     0.006 C 
BRANCH   8   9
HETATM    9  C3  UNL     1      -4.158  -0.842   1.501  1.00  0.00     0.178 C 
HETATM   10  O2  UNL     1      -4.743  -1.337   0.365  1.00  0.00    -0.347 OA
HETATM   11  C2  UNL     1      -5.650  -0.432  -0.140  1.00  0.00     0.291 C 
HETATM   12  C21 UNL     1      -5.281   0.914   0.460  1.00  0.00     0.207 C 
HETATM   13  C20 UNL     1      -4.802   0.479   1.823  1.00  0.00     0.184 C 
BRANCH  11  14
HETATM   14  O1  UNL     1      -5.604  -0.295  -1.523  1.00  0.00    -0.363 OA
HETATM   15  C1  UNL     1      -6.847  -0.443  -2.100  1.00  0.00     0.204 C 
ENDBRANCH  11  14
BRANCH  12  16
HETATM   16  O6  UNL     1      -6.307   1.804   0.486  1.00  0.00    -0.383 OA
HETATM   17  C22 UNL     1      -6.092   2.990  -0.193  1.00  0.00     0.202 C 
ENDBRANCH  12  16
BRANCH  13  18
HETATM   18  O5  UNL     1      -3.970   1.417   2.371  1.00  0.00    -0.390 OA
ATOM     19  H5  UNL     1      -4.377   2.251   2.574  1.00  0.00     0.210 HD
ENDBRANCH  13  18
ENDBRANCH   8   9
ENDBRANCH   1   7
BRANCH   3  20
HETATM   20  C9  UNL     1       2.175  -0.249  -0.931  1.00  0.00    -0.148 C 
BRANCH  20  21
HETATM   21  C10 UNL     1       2.868   0.819  -1.201  1.00  0.00     0.058 C 
BRANCH  21  22
HETATM   22  C11 UNL     1       4.277   0.862  -0.709  1.00  0.00    -0.048 A 
HETATM   23  C12 UNL     1       4.948   1.958  -0.996  1.00  0.00     0.008 A 
HETATM   24  C13 UNL     1       6.320   2.091  -0.563  1.00  0.00     0.006 A 
HETATM   25  C14 UNL     1       6.912   1.139   0.109  1.00  0.00    -0.055 A 
HETATM   26  C15 UNL     1       8.365   1.337   0.541  1.00  0.00     0.046 C 
HETATM   27  C16 UNL     1       6.262  -0.115   0.467  1.00  0.00     0.151 A 
HETATM   28  C17 UNL     1       4.856  -0.260   0.043  1.00  0.00     0.075 A 
BRANCH  27  29
HETATM   29  O3  UNL     1       7.030  -1.174  -0.103  1.00  0.00    -0.391 OA
ATOM     30  H3  UNL     1       6.606  -1.992   0.130  1.00  0.00     0.210 HD
ENDBRANCH  27  29
ENDBRANCH  21  22
ENDBRANCH  20  21
ENDBRANCH   3  20
TORSDOF 9
