REMARK  6 active torsions:
REMARK  status: ('A' for Active; 'I' for Inactive)
REMARK    1  A    between atoms: C2_2  and  C3_3 
REMARK    2  A    between atoms: C12_14  and  O3_15 
REMARK    3  A    between atoms: C15_19  and  C17_21 
REMARK    4  A    between atoms: C17_21  and  O4_22 
REMARK    5  A    between atoms: C18_24  and  C19_25 
REMARK    6  A    between atoms: C19_25  and  O5_26 
ROOT
HETATM    1  C1  UNL     1       3.325  -1.647   1.771  1.00  0.00     0.027 C 
HETATM    2  C2  UNL     1       2.797  -0.404   1.032  1.00  0.00     0.049 C 
HETATM    3  C4  UNL     1       1.819   0.241   1.985  1.00  0.00     0.021 C 
HETATM    4  C5  UNL     1       0.474  -0.253   1.569  1.00  0.00     0.007 C 
HETATM    5  C6  UNL     1       0.559  -0.706   0.116  1.00  0.00     0.003 C 
HETATM    6  C7  UNL     1       2.008  -0.787  -0.193  1.00  0.00     0.009 C 
HETATM    7  C8  UNL     1       2.487  -0.233  -1.474  1.00  0.00     0.006 C 
HETATM    8  C9  UNL     1       1.714   0.876  -2.059  1.00  0.00     0.001 C 
HETATM    9  C10 UNL     1       0.550   1.298  -1.194  1.00  0.00     0.013 C 
HETATM   10  C11 UNL     1      -0.323   0.127  -0.762  1.00  0.00     0.001 A 
HETATM   11  C12 UNL     1      -0.787  -0.533  -2.013  1.00  0.00     0.128 A 
HETATM   12  C13 UNL     1      -2.278  -0.573  -2.013  1.00  0.00     0.039 A 
HETATM   13  C14 UNL     1      -2.768   0.196  -0.846  1.00  0.00     0.011 A 
HETATM   14  C15 UNL     1      -2.525  -0.262   0.571  1.00  0.00    -0.007 A 
HETATM   15  C16 UNL     1      -2.429  -1.776   0.612  1.00  0.00     0.019 C 
HETATM   16  C18 UNL     1      -1.555   0.642  -0.012  1.00  0.00     0.005 A 
ENDROOT
BRANCH  11  17
HETATM   17  O3  UNL     1      -0.181  -1.764  -2.287  1.00  0.00    -0.395 OA
ATOM     18  H3  UNL     1      -0.477  -2.185  -3.085  1.00  0.00     0.210 HD
ENDBRANCH  11  17
BRANCH  16  19
HETATM   19  C19 UNL     1      -1.563   2.129   0.100  1.00  0.00     0.175 C 
BRANCH  19  20
HETATM   20  O5  UNL     1      -2.558   2.776   0.747  1.00  0.00    -0.400 OA
ATOM     21  H5  UNL     1      -2.563   3.723   0.818  1.00  0.00     0.209 HD
ENDBRANCH  19  20
ENDBRANCH  16  19
BRANCH  14  22
HETATM   22  C17 UNL     1      -3.552   0.157   1.599  1.00  0.00     0.174 C 
BRANCH  22  23
HETATM   23  O4  UNL     1      -4.831  -0.383   1.224  1.00  0.00    -0.400 OA
ATOM     24  H4  UNL     1      -5.476  -0.120   1.870  1.00  0.00     0.209 HD
ENDBRANCH  22  23
ENDBRANCH  14  22
BRANCH   2  25
HETATM   25  C3  UNL     1       3.935   0.475   0.862  1.00  0.00     0.181 C 
HETATM   26  O1  UNL     1       5.137   0.151   1.166  1.00  0.00    -0.647 OA
HETATM   27  O2  UNL     1       3.828   1.759   0.350  1.00  0.00    -0.647 OA
ENDBRANCH   2  25
TORSDOF 6
