REMARK  7 active torsions:
REMARK  status: ('A' for Active; 'I' for Inactive)
REMARK    1  A    between atoms: C2_2  and  C3_3 
REMARK    2  A    between atoms: C3_3  and  O1_4 
REMARK    3  A    between atoms: C9_11  and  O2_12 
REMARK    4  A    between atoms: C15_19  and  C16_20 
REMARK    5  A    between atoms: C15_19  and  C17_23 
REMARK    6  A    between atoms: C16_20  and  O3_21 
REMARK    7  A    between atoms: C17_23  and  O4_24 
ROOT
HETATM    1  C1  UNL     1      -4.304  -0.213   1.133  1.00  0.00     0.018 C 
HETATM    2  C2  UNL     1      -3.263   0.478   0.268  1.00  0.00    -0.016 C 
HETATM    3  C4  UNL     1      -2.598   1.521   1.101  1.00  0.00     0.012 C 
HETATM    4  C5  UNL     1      -1.559   0.737   1.881  1.00  0.00     0.011 C 
HETATM    5  C6  UNL     1      -1.299  -0.527   1.160  1.00  0.00    -0.033 C 
HETATM    6  C7  UNL     1      -1.724  -1.710   2.005  1.00  0.00     0.016 C 
HETATM    7  C8  UNL     1      -2.152  -0.448  -0.115  1.00  0.00     0.034 C 
HETATM    8  C9  UNL     1      -1.257   0.244  -1.119  1.00  0.00     0.132 C 
HETATM    9  C10 UNL     1       0.167  -0.157  -0.729  1.00  0.00    -0.009 C 
HETATM   10  C11 UNL     1       0.693  -1.187  -1.725  1.00  0.00     0.013 C 
HETATM   11  C12 UNL     1       2.110  -0.747  -2.071  1.00  0.00     0.006 C 
HETATM   12  C13 UNL     1       2.451   0.347  -1.149  1.00  0.00    -0.001 C 
HETATM   13  C14 UNL     1       1.093   0.983  -0.941  1.00  0.00     0.018 C 
HETATM   14  C15 UNL     1       3.184   0.075   0.093  1.00  0.00     0.006 C 
HETATM   15  C18 UNL     1       2.479  -0.852   1.051  1.00  0.00     0.014 C 
HETATM   16  C19 UNL     1       1.179  -0.335   1.580  1.00  0.00     0.007 C 
HETATM   17  C20 UNL     1       0.095  -0.727   0.639  1.00  0.00     0.005 C 
ENDROOT
BRANCH  14  18
HETATM   18  C16 UNL     1       3.437   1.429   0.792  1.00  0.00     0.176 C 
BRANCH  18  19
HETATM   19  O3  UNL     1       4.185   2.185  -0.107  1.00  0.00    -0.400 OA
ATOM     20  H3  UNL     1       4.341   3.018   0.323  1.00  0.00     0.209 HD
ENDBRANCH  18  19
ENDBRANCH  14  18
BRANCH  14  21
HETATM   21  C17 UNL     1       4.554  -0.488  -0.126  1.00  0.00     0.176 C 
BRANCH  21  22
HETATM   22  O4  UNL     1       4.623  -1.690  -0.790  1.00  0.00    -0.400 OA
ATOM     23  H4  UNL     1       5.492  -2.047  -0.929  1.00  0.00     0.209 HD
ENDBRANCH  21  22
ENDBRANCH  14  21
BRANCH   8  24
HETATM   24  O2  UNL     1      -1.607  -0.189  -2.382  1.00  0.00    -0.394 OA
ATOM     25  H2  UNL     1      -1.045   0.246  -3.013  1.00  0.00     0.210 HD
ENDBRANCH   8  24
BRANCH   2  26
HETATM   26  C3  UNL     1      -3.992   1.045  -0.925  1.00  0.00     0.173 C 
BRANCH  26  27
HETATM   27  O1  UNL     1      -4.948   1.948  -0.466  1.00  0.00    -0.400 OA
ATOM     28  H1  UNL     1      -5.407   2.305  -1.217  1.00  0.00     0.209 HD
ENDBRANCH  26  27
ENDBRANCH   2  26
TORSDOF 7
