REMARK  5 active torsions:
REMARK  status: ('A' for Active; 'I' for Inactive)
REMARK    1  A    between atoms: N1_1  and  C1_4 
REMARK    2  A    between atoms: C2_7  and  O1_8 
REMARK    3  A    between atoms: C3_10  and  C4_11 
REMARK    4  A    between atoms: C9_16  and  N3_17 
REMARK    5  A    between atoms: C15_23  and  C16_24 
ROOT
HETATM    1  C4  UNL     1       2.120   0.259   0.284  1.00  0.00    -0.015 C 
HETATM    2  C5  UNL     1       1.899   0.537   1.742  1.00  0.00     0.039 C 
HETATM    3  C6  UNL     1       1.338  -0.657   2.472  1.00  0.00     0.004 C 
HETATM    4  C7  UNL     1       1.041  -1.896   1.749  1.00  0.00     0.003 C 
HETATM    5  C8  UNL     1       1.192  -1.974   0.277  1.00  0.00     0.040 C 
HETATM    6  C9  UNL     1       1.061  -0.600  -0.316  1.00  0.00     0.254 C 
ENDROOT
BRANCH   1   7
HETATM    7  C3  UNL     1       3.478   0.290  -0.216  1.00  0.00     0.105 A 
HETATM    8  C2  UNL     1       4.530  -0.615  -0.005  1.00  0.00     0.183 A 
HETATM    9  N2  UNL     1       5.595  -0.330  -0.751  1.00  0.00    -0.169 N 
HETATM   10  C1  UNL     1       5.263   0.776  -1.473  1.00  0.00     0.678 A 
ATOM     11  H2  UNL     1       6.480  -0.837  -0.777  1.00  0.00     0.186 HD
HETATM   12  N4  UNL     1       4.032   1.126  -1.151  1.00  0.00    -0.188 N 
ATOM     13  H4  UNL     1       3.547   1.928  -1.553  1.00  0.00     0.184 HD
BRANCH   8  14
HETATM   14  O1  UNL     1       4.511  -1.688   0.874  1.00  0.00    -0.344 OA
ATOM     15  H1  UNL     1       3.751  -1.891   1.406  1.00  0.00     0.219 HD
ENDBRANCH   8  14
BRANCH  10  16
HETATM   16  N1  UNL     1       6.088   1.309  -2.361  1.00  0.00    -0.234 N 
ATOM     17  H12 UNL     1       7.039   1.038  -2.610  1.00  0.00     0.174 HD
ATOM     18  H11 UNL     1       5.839   2.137  -2.902  1.00  0.00     0.174 HD
ENDBRANCH  10  16
ENDBRANCH   1   7
BRANCH   6  19
HETATM   19  N3  UNL     1      -0.214  -0.008   0.110  1.00  0.00     0.098 N 
HETATM   20  C10 UNL     1      -1.367  -0.841   0.005  1.00  0.00     0.284 C 
HETATM   21  C11 UNL     1      -2.096   0.311  -0.669  1.00  0.00     0.013 C 
HETATM   22  C12 UNL     1      -2.753  -0.114  -1.937  1.00  0.00     0.013 C 
HETATM   23  C17 UNL     1      -2.957   1.130   0.235  1.00  0.00     0.024 C 
HETATM   24  C18 UNL     1      -0.720   0.910  -0.872  1.00  0.00     0.284 C 
HETATM   25  C13 UNL     1      -4.125  -0.679  -1.693  1.00  0.00     0.002 C 
HETATM   26  C14 UNL     1      -4.960   0.125  -0.752  1.00  0.00     0.011 C 
HETATM   27  C15 UNL     1      -4.227   0.378   0.550  1.00  0.00     0.048 C 
BRANCH  27  28
HETATM   28  C16 UNL     1      -5.119   1.137   1.455  1.00  0.00     0.235 C 
HETATM   29  O2  UNL     1      -4.613   1.542   2.493  1.00  0.00    -0.306 OA
ENDBRANCH  27  28
ENDBRANCH   6  19
TORSDOF 5
