REMARK  1 active torsions:
REMARK  status: ('A' for Active; 'I' for Inactive)
REMARK    1  A    between atoms: C9_11  and  N1_12 
ROOT
HETATM    1  C1  UNL     1       2.404   1.499   0.657  1.00  0.00     0.045 C 
HETATM    2  C2  UNL     1       1.391   1.135  -0.439  1.00  0.00     0.186 C 
HETATM    3  O1  UNL     1       0.249   1.773  -0.179  1.00  0.00    -0.234 OA
HETATM    4  O2  UNL     1      -0.792   1.664  -0.896  1.00  0.00    -0.241 OA
HETATM    5  C3  UNL     1      -2.019   1.938  -0.316  1.00  0.00     0.210 C 
HETATM    6  C4  UNL     1      -2.829   0.646   0.022  1.00  0.00     0.029 C 
HETATM    7  C5  UNL     1      -1.734  -0.319   0.192  1.00  0.00     0.002 C 
HETATM    8  C6  UNL     1      -1.728  -1.707   0.530  1.00  0.00     0.000 C 
HETATM    9  C7  UNL     1      -0.274  -2.154   0.240  1.00  0.00     0.002 C 
HETATM   10  C8  UNL     1       0.788  -1.157   0.543  1.00  0.00     0.035 C 
HETATM   11  C9  UNL     1       1.360  -0.367  -0.577  1.00  0.00     0.215 C 
ENDROOT
BRANCH  11  12
HETATM   12  N1  UNL     1       2.792  -0.695  -0.815  1.00  0.00    -0.072 N 
ATOM     13  H13 UNL     1       3.222  -0.201  -1.597  1.00  0.00     0.274 HD
ATOM     14  H12 UNL     1       3.437  -0.342  -0.108  1.00  0.00     0.274 HD
ATOM     15  H11 UNL     1       2.771  -1.711  -0.908  1.00  0.00     0.274 HD
ENDBRANCH  11  12
TORSDOF 1
