REMARK  2 active torsions:
REMARK  status: ('A' for Active; 'I' for Inactive)
REMARK    1  A    between atoms: C1_4  and  O1_5 
REMARK    2  A    between atoms: C1_4  and  N2_7 
ROOT
HETATM    1  N2  UNL     1       0.915   0.015   0.104  1.00  0.00    -0.338 N 
HETATM    2  C2  UNL     1       0.135   0.485  -1.027  1.00  0.00     0.088 C 
HETATM    3  C3  UNL     1      -0.824  -0.653  -1.363  1.00  0.00     0.025 C 
HETATM    4  C4  UNL     1      -1.830  -0.755  -0.243  1.00  0.00     0.004 C 
HETATM    5  C5  UNL     1      -1.081  -0.939   1.049  1.00  0.00     0.025 C 
HETATM    6  C6  UNL     1      -0.000   0.102   1.235  1.00  0.00     0.088 C 
HETATM    7  C7  UNL     1      -0.547   1.501   1.067  1.00  0.00     0.027 C 
HETATM    8  C8  UNL     1      -0.597   1.666  -0.438  1.00  0.00     0.027 C 
ENDROOT
BRANCH   1   9
HETATM    9  C1  UNL     1       2.258  -0.419   0.075  1.00  0.00     0.213 C 
HETATM   10  N1  UNL     1       2.930  -0.570   1.147  1.00  0.00    -0.365 N 
ATOM     11  H12 UNL     1       3.900  -0.884   1.126  1.00  0.00     0.159 HD
ATOM     12  H11 UNL     1       2.486  -0.371   2.044  1.00  0.00     0.159 HD
BRANCH   9  13
HETATM   13  O1  UNL     1       2.860  -0.689  -1.142  1.00  0.00    -0.333 OA
ATOM     14  H1  UNL     1       2.359  -0.576  -1.941  1.00  0.00     0.220 HD
ENDBRANCH   9  13
ENDBRANCH   1   9
TORSDOF 2
