REMARK  2 active torsions:
REMARK  status: ('A' for Active; 'I' for Inactive)
REMARK    1  A    between atoms: C2_4  and  O1_5 
REMARK    2  A    between atoms: C2_4  and  N2_7 
ROOT
HETATM    1  N2  UNL     1       0.310  -0.426   0.194  1.00  0.00    -0.338 N 
HETATM    2  C3  UNL     1      -0.786  -0.297   1.120  1.00  0.00     0.090 C 
HETATM    3  C4  UNL     1      -1.886   0.593   0.586  1.00  0.00     0.025 C 
HETATM    4  C5  UNL     1      -1.818   0.716  -0.924  1.00  0.00     0.004 C 
HETATM    5  C6  UNL     1      -1.483  -0.645  -1.466  1.00  0.00     0.025 C 
HETATM    6  C7  UNL     1      -0.487  -1.351  -0.572  1.00  0.00     0.090 C 
HETATM    7  C8  UNL     1      -1.147  -1.742   0.756  1.00  0.00     0.050 C 
ENDROOT
BRANCH   1   8
HETATM    8  C2  UNL     1       1.604   0.123   0.091  1.00  0.00     0.215 C 
HETATM    9  N1  UNL     1       1.835   1.386   0.163  1.00  0.00    -0.361 N 
HETATM   10  C1  UNL     1       3.146   1.949   0.060  1.00  0.00     0.150 C 
ATOM     11  H1  UNL     1       1.045   2.017   0.300  1.00  0.00     0.162 HD
BRANCH   8  12
HETATM   12  O1  UNL     1       2.715  -0.719  -0.100  1.00  0.00    -0.333 OA
ATOM     13  H1  UNL     1       2.544  -1.652  -0.153  1.00  0.00     0.220 HD
ENDBRANCH   8  12
ENDBRANCH   1   8
TORSDOF 2
