REMARK  8 active torsions:
REMARK  status: ('A' for Active; 'I' for Inactive)
REMARK    1  A    between atoms: C2_2  and  C10_13 
REMARK    2  A    between atoms: C3_3  and  C4_4 
REMARK    3  A    between atoms: C7_7  and  N1_8 
REMARK       I    between atoms: C10_13  and  N2_15 
REMARK    4  A    between atoms: N2_15  and  C11_17 
REMARK    5  A    between atoms: C13_21  and  N4_22 
REMARK    6  A    between atoms: C14_24  and  O4_25 
REMARK    7  A    between atoms: C14_24  and  C15_27 
REMARK    8  A    between atoms: C15_27  and  C16_29 
ROOT
HETATM    1  C11 UNL     1       1.865   0.879  -0.278  1.00  0.00     0.054 A 
HETATM    2  C12 UNL     1       2.786   1.856  -0.618  1.00  0.00     0.119 A 
HETATM    3  N3  UNL     1       4.022   1.332  -0.613  1.00  0.00    -0.350 N 
ATOM      4  H3  UNL     1       4.871   1.854  -0.832  1.00  0.00     0.166 HD
HETATM    5  C13 UNL     1       3.995   0.040  -0.284  1.00  0.00     0.109 A 
HETATM    6  C17 UNL     1       2.611  -0.235  -0.073  1.00  0.00     0.079 A 
ENDROOT
BRANCH   1   7
HETATM    7  N2  UNL     1       0.450   1.086  -0.177  1.00  0.00    -0.322 N 
HETATM    8  C10 UNL     1      -0.441   0.040   0.022  1.00  0.00     0.251 C 
HETATM    9  O3  UNL     1      -0.065  -1.141   0.122  1.00  0.00    -0.268 OA
ATOM     10  H2  UNL     1       0.085   2.035  -0.254  1.00  0.00     0.169 HD
BRANCH   8  11
HETATM   11  C2  UNL     1      -1.898   0.290   0.124  1.00  0.00     0.007 C 
HETATM   12  C1  UNL     1      -2.415   1.679   0.025  1.00  0.00     0.054 C 
HETATM   13  C3  UNL     1      -2.710  -0.731   0.298  1.00  0.00     0.023 C 
BRANCH  13  14
HETATM   14  C4  UNL     1      -4.143  -0.674   0.409  1.00  0.00    -0.035 A 
HETATM   15  C5  UNL     1      -4.790  -1.422   1.399  1.00  0.00     0.014 A 
HETATM   16  C6  UNL     1      -6.179  -1.418   1.529  1.00  0.00     0.037 A 
HETATM   17  C7  UNL     1      -6.947  -0.663   0.670  1.00  0.00     0.102 A 
HETATM   18  C8  UNL     1      -6.326   0.091  -0.323  1.00  0.00     0.037 A 
HETATM   19  C9  UNL     1      -4.945   0.065  -0.427  1.00  0.00     0.014 A 
BRANCH  17  20
HETATM   20  N1  UNL     1      -8.369  -0.650   0.792  1.00  0.00    -0.116 N 
HETATM   21  O1  UNL     1      -8.903  -1.333   1.686  1.00  0.00    -0.532 OA
HETATM   22  O2  UNL     1      -9.162   0.086  -0.040  1.00  0.00    -0.532 OA
ENDBRANCH  17  20
ENDBRANCH  13  14
ENDBRANCH   8  11
ENDBRANCH   1   7
BRANCH   5  23
HETATM   23  N4  UNL     1       5.004  -0.940  -0.149  1.00  0.00    -0.320 N 
HETATM   24  C14 UNL     1       6.352  -0.897  -0.298  1.00  0.00     0.198 C 
ATOM     25  H4  UNL     1       4.649  -1.860   0.112  1.00  0.00     0.169 HD
BRANCH  24  26
HETATM   26  O4  UNL     1       6.911  -2.105  -0.070  1.00  0.00    -0.343 OA
ATOM     27  H4  UNL     1       7.855  -2.075  -0.174  1.00  0.00     0.219 HD
ENDBRANCH  24  26
BRANCH  24  28
HETATM   28  C15 UNL     1       7.350   0.052  -0.626  1.00  0.00     0.305 C 
HETATM   29  O5  UNL     1       7.238   1.259  -0.881  1.00  0.00    -0.279 OA
BRANCH  28  30
HETATM   30  C16 UNL     1       8.811  -0.416  -0.695  1.00  0.00     0.459 C 
HETATM   31  F1  UNL     1       9.621   0.638  -1.023  1.00  0.00    -0.163 F 
HETATM   32  F2  UNL     1       8.876  -1.404  -1.639  1.00  0.00    -0.163 F 
HETATM   33  F3  UNL     1       9.176  -0.870   0.533  1.00  0.00    -0.163 F 
ENDBRANCH  28  30
ENDBRANCH  24  28
ENDBRANCH   5  23
TORSDOF 8
