REMARK  7 active torsions:
REMARK  status: ('A' for Active; 'I' for Inactive)
REMARK    1  A    between atoms: O1_2  and  C2_3 
REMARK    2  A    between atoms: C2_3  and  C3_4 
REMARK    3  A    between atoms: C3_4  and  O2_6 
REMARK    4  A    between atoms: C3_4  and  C21_31 
REMARK    5  A    between atoms: O2_6  and  C5_7 
REMARK    6  A    between atoms: C7_11  and  C8_12 
REMARK    7  A    between atoms: N3_19  and  C13_20 
ROOT
HETATM    1  C5  UNL     1       1.173  -0.487  -0.016  1.00  0.00     0.159 A 
HETATM    2  N1  UNL     1       1.109  -1.807   0.258  1.00  0.00    -0.345 N 
ATOM      3  H1  UNL     1       1.981  -2.328   0.349  1.00  0.00     0.167 HD
HETATM    4  C6  UNL     1      -0.052  -2.466   0.416  1.00  0.00     0.100 A 
HETATM    5  C7  UNL     1      -1.274  -1.838   0.310  1.00  0.00    -0.006 A 
HETATM    6  C12 UNL     1      -1.258  -0.481   0.029  1.00  0.00     0.075 A 
HETATM    7  N2  UNL     1      -2.267   0.396  -0.133  1.00  0.00    -0.290 N 
ATOM      8  H2  UNL     1      -3.262   0.181  -0.070  1.00  0.00     0.187 HD
HETATM    9  N3  UNL     1      -1.750   1.574  -0.386  1.00  0.00    -0.239 N 
HETATM   10  C19 UNL     1      -0.381   1.483  -0.393  1.00  0.00     0.138 A 
HETATM   11  N4  UNL     1       0.420   2.455  -0.609  1.00  0.00    -0.383 N 
ATOM     12  H41 UNL     1       1.438   2.387  -0.614  1.00  0.00     0.157 HD
ATOM     13  H42 UNL     1       0.167   3.424  -0.804  1.00  0.00     0.157 HD
HETATM   14  C20 UNL     1      -0.041   0.182  -0.131  1.00  0.00     0.089 A 
ENDROOT
BRANCH   1  15
HETATM   15  O2  UNL     1       2.314   0.216  -0.183  1.00  0.00    -0.316 OA
BRANCH  15  16
HETATM   16  C3  UNL     1       3.656  -0.201  -0.131  1.00  0.00     0.145 C 
HETATM   17  C4  UNL     1       3.699  -1.409  -1.175  1.00  0.00     0.054 C 
BRANCH  16  18
HETATM   18  C2  UNL     1       4.069  -0.793   1.133  1.00  0.00     0.210 C 
BRANCH  18  19
HETATM   19  O1  UNL     1       5.367  -1.049   1.355  1.00  0.00    -0.393 OA
HETATM   20  C1  UNL     1       6.217  -0.083   1.776  1.00  0.00     0.201 C 
ENDBRANCH  18  19
ENDBRANCH  16  18
BRANCH  16  21
HETATM   21  C21 UNL     1       4.521   0.793  -0.791  1.00  0.00     0.389 C 
HETATM   22  F1  UNL     1       5.754   0.297  -1.191  1.00  0.00    -0.211 F 
HETATM   23  F2  UNL     1       3.880   1.287  -1.951  1.00  0.00    -0.211 F 
ENDBRANCH  16  21
ENDBRANCH  15  16
ENDBRANCH   1  15
BRANCH   5  24
HETATM   24  C8  UNL     1      -2.561  -2.576   0.486  1.00  0.00    -0.021 C 
HETATM   25  C9  UNL     1      -3.387  -2.487  -0.756  1.00  0.00     0.019 C 
HETATM   26  C10 UNL     1      -2.213  -4.036   0.722  1.00  0.00     0.019 C 
HETATM   27  C11 UNL     1      -3.301  -2.105   1.717  1.00  0.00     0.019 C 
ENDBRANCH   5  24
BRANCH   9  28
HETATM   28  C13 UNL     1      -2.472   2.771  -0.620  1.00  0.00     0.058 A 
HETATM   29  C14 UNL     1      -2.982   3.557   0.389  1.00  0.00     0.031 A 
HETATM   30  C15 UNL     1      -3.670   4.699   0.130  1.00  0.00     0.002 A 
HETATM   31  C16 UNL     1      -3.885   5.118  -1.172  1.00  0.00     0.000 A 
HETATM   32  C17 UNL     1      -3.382   4.344  -2.194  1.00  0.00     0.002 A 
HETATM   33  C18 UNL     1      -2.677   3.173  -1.924  1.00  0.00     0.031 A 
ENDBRANCH   9  28
TORSDOF 7
