REMARK  10 active torsions:
REMARK  status: ('A' for Active; 'I' for Inactive)
REMARK    1  A    between atoms: C2_2  and  O1_3 
REMARK    2  A    between atoms: O1_3  and  C3_4 
REMARK    3  A    between atoms: C3_4  and  C4_6 
REMARK    4  A    between atoms: C4_6  and  C5_7 
REMARK    5  A    between atoms: C5_7  and  N1_8 
REMARK    6  A    between atoms: C5_7  and  C14_24 
REMARK    7  A    between atoms: N1_8  and  C6_10 
REMARK    8  A    between atoms: C6_10  and  N2_12 
REMARK    9  A    between atoms: N2_12  and  C7_14 
REMARK   10  A    between atoms: C12_20  and  O3_21 
ROOT
HETATM    1  C7  UNL     1      -2.105   0.281  -0.848  1.00  0.00     0.036 A 
HETATM    2  C8  UNL     1      -1.545   0.950   0.197  1.00  0.00     0.031 A 
HETATM    3  C9  UNL     1      -2.319   1.750   1.051  1.00  0.00     0.028 A 
HETATM    4  C10 UNL     1      -3.679   1.871   0.836  1.00  0.00     0.077 A 
HETATM    5  C11 UNL     1      -4.520   2.684   1.690  1.00  0.00     0.102 C 
HETATM    6  N3  UNL     1      -5.198   3.325   2.385  1.00  0.00    -0.191 NA
HETATM    7  C12 UNL     1      -4.254   1.203  -0.213  1.00  0.00     0.088 A 
HETATM    8  C13 UNL     1      -3.478   0.422  -1.041  1.00  0.00     0.067 A 
ENDROOT
BRANCH   7   9
HETATM    9  O3  UNL     1      -5.618   1.334  -0.415  1.00  0.00    -0.359 OA
ATOM     10  H3  UNL     1      -6.017   0.871  -1.142  1.00  0.00     0.217 HD
ENDBRANCH   7   9
BRANCH   1  11
HETATM   11  N2  UNL     1      -1.379  -0.553  -1.707  1.00  0.00    -0.333 N 
ATOM     12  H2  UNL     1      -1.660  -0.519  -2.687  1.00  0.00     0.168 HD
BRANCH  11  13
HETATM   13  C6  UNL     1      -0.324  -1.426  -1.418  1.00  0.00     0.172 C 
HETATM   14  S1  UNL     1       0.320  -2.274  -2.696  1.00  0.00    -0.041 SA
BRANCH  13  15
HETATM   15  N1  UNL     1       0.248  -1.695  -0.166  1.00  0.00    -0.358 N 
ATOM     16  H1  UNL     1      -0.149  -1.223   0.646  1.00  0.00     0.162 HD
BRANCH  15  17
HETATM   17  C5  UNL     1       1.369  -2.600   0.060  1.00  0.00     0.147 C 
BRANCH  17  18
HETATM   18  C4  UNL     1       2.676  -2.112  -0.446  1.00  0.00     0.140 C 
BRANCH  18  19
HETATM   19  C3  UNL     1       3.169  -0.849   0.105  1.00  0.00     0.260 C 
HETATM   20  O2  UNL     1       3.910  -0.854   1.113  1.00  0.00    -0.265 OA
BRANCH  19  21
HETATM   21  O1  UNL     1       2.861   0.389  -0.432  1.00  0.00    -0.322 OA
BRANCH  21  22
HETATM   22  C2  UNL     1       3.376   1.590   0.154  1.00  0.00     0.174 C 
HETATM   23  C1  UNL     1       2.895   2.780  -0.614  1.00  0.00     0.034 C 
ENDBRANCH  21  22
ENDBRANCH  19  21
ENDBRANCH  18  19
ENDBRANCH  17  18
BRANCH  17  24
HETATM   24  C14 UNL     1       1.361  -3.160   1.449  1.00  0.00     0.208 C 
HETATM   25 CL1  UNL     1       2.472  -4.535   1.541  1.00  0.00    -0.082 Cl
HETATM   26 CL2  UNL     1      -0.288  -3.876   1.659  1.00  0.00    -0.082 Cl
HETATM   27 CL3  UNL     1       1.558  -1.987   2.732  1.00  0.00    -0.082 Cl
ENDBRANCH  17  24
ENDBRANCH  15  17
ENDBRANCH  13  15
ENDBRANCH  11  13
ENDBRANCH   1  11
TORSDOF 10
