REMARK  9 active torsions:
REMARK  status: ('A' for Active; 'I' for Inactive)
REMARK    1  A    between atoms: C2_3  and  N2_4 
REMARK    2  A    between atoms: N2_4  and  C3_6 
REMARK    3  A    between atoms: C4_9  and  N4_10 
REMARK    4  A    between atoms: N4_10  and  C5_12 
REMARK    5  A    between atoms: C5_12  and  C6_13 
REMARK    6  A    between atoms: C6_13  and  C7_14 
REMARK    7  A    between atoms: C12_23  and  N7_24 
REMARK    8  A    between atoms: N7_24  and  C13_26 
REMARK    9  A    between atoms: C13_26  and  C14_27 
ROOT
HETATM    1  C3  UNL     1      -0.863   0.345   0.876  1.00  0.00     0.726 A 
HETATM    2  N3  UNL     1       0.327  -0.198   0.571  1.00  0.00    -0.021 N 
ATOM      3  H3  UNL     1       0.483  -1.180   0.800  1.00  0.00     0.203 HD
HETATM    4  C4  UNL     1       1.316   0.478  -0.015  1.00  0.00     0.707 A 
HETATM    5  N6  UNL     1       1.117   1.771  -0.318  1.00  0.00    -0.022 N 
ATOM      6  H6  UNL     1       1.861   2.306  -0.766  1.00  0.00     0.203 HD
HETATM    7  C12 UNL     1      -0.052   2.363  -0.036  1.00  0.00     0.707 A 
HETATM    8  N8  UNL     1      -1.041   1.637   0.564  1.00  0.00    -0.021 N 
ATOM      9  H8  UNL     1      -1.931   2.086   0.779  1.00  0.00     0.203 HD
ENDROOT
BRANCH   1  10
HETATM   10  N2  UNL     1      -1.840  -0.399   1.484  1.00  0.00    -0.021 N 
ATOM     11  H2  UNL     1      -1.661  -0.549   2.477  1.00  0.00     0.203 HD
BRANCH  10  12
HETATM   12  C2  UNL     1      -2.899  -0.934   1.099  1.00  0.00     0.699 A 
HETATM   13  N1  UNL     1      -3.444  -0.946  -0.114  1.00  0.00    -0.185 N 
HETATM   14  C1  UNL     1      -2.939  -0.336  -1.296  1.00  0.00     0.175 C 
HETATM   15  C20 UNL     1      -4.614  -1.654  -0.087  1.00  0.00     0.078 A 
HETATM   16  C15 UNL     1      -4.782  -2.089   1.202  1.00  0.00     0.076 A 
HETATM   17  C19 UNL     1      -5.552  -1.967  -1.049  1.00  0.00     0.032 A 
HETATM   18  N9  UNL     1      -3.722  -1.638   1.910  1.00  0.00    -0.189 N 
HETATM   19  C16 UNL     1      -5.888  -2.840   1.539  1.00  0.00     0.032 A 
ATOM     20  H9  UNL     1      -3.566  -1.803   2.904  1.00  0.00     0.184 HD
HETATM   21  C17 UNL     1      -6.816  -3.145   0.573  1.00  0.00     0.002 A 
HETATM   22  C18 UNL     1      -6.648  -2.713  -0.706  1.00  0.00     0.002 A 
ENDBRANCH  10  12
ENDBRANCH   1  10
BRANCH   4  23
HETATM   23  N4  UNL     1       2.427  -0.116  -0.274  1.00  0.00    -0.225 N 
ATOM     24  H4  UNL     1       3.184   0.400  -0.722  1.00  0.00     0.177 HD
BRANCH  23  25
HETATM   25  C5  UNL     1       2.612  -1.510   0.065  1.00  0.00     0.142 C 
BRANCH  25  26
HETATM   26  C6  UNL     1       3.974  -1.683   0.703  1.00  0.00     0.058 C 
BRANCH  26  27
HETATM   27  C7  UNL     1       5.061  -1.262  -0.232  1.00  0.00    -0.054 A 
HETATM   28  C8  UNL     1       5.446   0.058  -0.171  1.00  0.00     0.024 A 
HETATM   29  C9  UNL     1       6.445   0.531  -1.001  1.00  0.00     0.088 A 
HETATM   30  N5  UNL     1       7.009  -0.346  -1.852  1.00  0.00    -0.375 N 
HETATM   31  C10 UNL     1       6.652  -1.639  -1.931  1.00  0.00     0.088 A 
ATOM     32  H5  UNL     1       7.748  -0.011  -2.471  1.00  0.00     0.164 HD
HETATM   33  C11 UNL     1       5.660  -2.128  -1.113  1.00  0.00     0.024 A 
ENDBRANCH  26  27
ENDBRANCH  25  26
ENDBRANCH  23  25
ENDBRANCH   4  23
BRANCH   7  34
HETATM   34  N7  UNL     1      -0.209   3.598  -0.339  1.00  0.00    -0.216 N 
ATOM     35  H7  UNL     1      -1.092   4.065  -0.132  1.00  0.00     0.178 HD
BRANCH  34  36
HETATM   36  C13 UNL     1       0.857   4.326  -0.970  1.00  0.00     0.255 C 
BRANCH  36  37
HETATM   37  C14 UNL     1       0.433   5.790  -1.011  1.00  0.00     0.403 C 
HETATM   38  F1  UNL     1       0.239   6.195   0.299  1.00  0.00    -0.169 F 
HETATM   39  F2  UNL     1       1.419   6.588  -1.547  1.00  0.00    -0.169 F 
HETATM   40  F3  UNL     1      -0.772   5.928  -1.669  1.00  0.00    -0.169 F 
ENDBRANCH  36  37
ENDBRANCH  34  36
ENDBRANCH   7  34
TORSDOF 9
