REMARK  9 active torsions:
REMARK  status: ('A' for Active; 'I' for Inactive)
REMARK    1  A    between atoms: C3_3  and  C5_5 
REMARK    2  A    between atoms: C5_5  and  O1_7 
REMARK    3  A    between atoms: O1_7  and  C7_8 
REMARK    4  A    between atoms: C7_8  and  C8_10 
REMARK    5  A    between atoms: C8_10  and  C9_11 
REMARK    6  A    between atoms: C8_10  and  C13_24 
REMARK    7  A    between atoms: C9_11  and  C10_12 
REMARK       I    between atoms: C10_12  and  N1_14 
REMARK    8  A    between atoms: N1_14  and  N2_16 
REMARK       I    between atoms: N2_16  and  C11_18 
REMARK    9  A    between atoms: C11_18  and  C12_20 
ROOT
HETATM    1  C1  UNL     1      -3.344  -3.601  -3.183  1.00  0.00     0.097 C 
HETATM    2  C2  UNL     1      -3.850  -2.764  -2.445  1.00  0.00    -0.181 C 
HETATM    3  C3  UNL     1      -4.434  -1.767  -1.548  1.00  0.00     0.076 C 
HETATM    4  C4  UNL     1      -5.816  -2.179  -1.168  1.00  0.00     0.025 C 
ENDROOT
BRANCH   3   5
HETATM    5  C5  UNL     1      -3.541  -1.525  -0.358  1.00  0.00     0.142 C 
HETATM    6  C6  UNL     1      -3.386  -2.864   0.381  1.00  0.00     0.041 C 
BRANCH   5   7
HETATM    7  O1  UNL     1      -2.233  -1.153  -0.744  1.00  0.00    -0.315 OA
BRANCH   7   8
HETATM    8  C7  UNL     1      -1.639  -0.021  -0.215  1.00  0.00     0.270 C 
HETATM    9  O2  UNL     1      -2.323   0.638   0.613  1.00  0.00    -0.264 OA
BRANCH   8  10
HETATM   10  C8  UNL     1      -0.257   0.374  -0.622  1.00  0.00     0.151 C 
BRANCH  10  11
HETATM   11  C9  UNL     1       0.714  -0.723  -0.309  1.00  0.00     0.126 C 
BRANCH  11  12
HETATM   12  C10 UNL     1       2.081  -0.336  -0.712  1.00  0.00     0.237 C 
HETATM   13  O3  UNL     1       2.244   0.806  -1.243  1.00  0.00    -0.272 OA
HETATM   14  N1  UNL     1       3.206  -1.170  -0.535  1.00  0.00    -0.267 N 
ATOM     15  H1  UNL     1       3.091  -2.090  -0.109  1.00  0.00     0.190 HD
BRANCH  14  16
HETATM   16  N2  UNL     1       4.467  -0.751  -0.935  1.00  0.00    -0.260 N 
HETATM   17  C11 UNL     1       5.623  -1.541  -0.737  1.00  0.00     0.343 C 
HETATM   18  O4  UNL     1       5.496  -2.665  -0.177  1.00  0.00    -0.262 OA
ATOM     19  H2  UNL     1       4.563   0.158  -1.387  1.00  0.00     0.190 HD
BRANCH  17  20
HETATM   20  C12 UNL     1       6.963  -1.074  -1.173  1.00  0.00     0.473 C 
HETATM   21  F1  UNL     1       7.246   0.113  -0.503  1.00  0.00    -0.162 F 
HETATM   22  F2  UNL     1       7.912  -2.032  -0.913  1.00  0.00    -0.162 F 
HETATM   23  F3  UNL     1       6.938  -0.827  -2.550  1.00  0.00    -0.162 F 
ENDBRANCH  17  20
ENDBRANCH  14  16
ENDBRANCH  11  12
ENDBRANCH  10  11
BRANCH  10  24
HETATM   24  C13 UNL     1       0.067   1.617   0.176  1.00  0.00     0.066 A 
HETATM   25  N3  UNL     1       0.186   1.732   1.487  1.00  0.00    -0.352 N 
HETATM   26  C14 UNL     1       0.472   2.889   2.015  1.00  0.00     0.050 A 
ATOM     27  H3  UNL     1       0.054   0.916   2.085  1.00  0.00     0.166 HD
HETATM   28  C15 UNL     1       0.627   3.150   3.389  1.00  0.00     0.031 A 
HETATM   29  C19 UNL     1       0.639   3.948   1.165  1.00  0.00     0.033 A 
HETATM   30  C16 UNL     1       0.930   4.414   3.824  1.00  0.00     0.002 A 
HETATM   31  C17 UNL     1       1.098   5.479   2.974  1.00  0.00     0.002 A 
HETATM   32  C18 UNL     1       0.950   5.240   1.629  1.00  0.00     0.021 A 
HETATM   33  S1  UNL     1       0.372   3.212  -0.358  1.00  0.00    -0.074 SA
ENDBRANCH  10  24
ENDBRANCH   8  10
ENDBRANCH   7   8
ENDBRANCH   5   7
ENDBRANCH   3   5
TORSDOF 9
