REMARK  10 active torsions:
REMARK  status: ('A' for Active; 'I' for Inactive)
REMARK    1  A    between atoms: C6_6  and  C7_7 
REMARK    2  A    between atoms: C7_7  and  N1_8 
REMARK    3  A    between atoms: N1_8  and  C8_10 
REMARK    4  A    between atoms: C9_13  and  N3_14 
REMARK    5  A    between atoms: N3_14  and  C10_16 
REMARK    6  A    between atoms: C10_16  and  C11_17 
REMARK    7  A    between atoms: N6_26  and  O1_27 
REMARK    8  A    between atoms: C14_30  and  C15_31 
REMARK    9  A    between atoms: N7_32  and  O2_34 
REMARK   10  A    between atoms: O2_34  and  C16_35 
ROOT
HETATM    1  C8  UNL     1       0.262   0.545  -0.322  1.00  0.00     0.132 A 
HETATM    2  N2  UNL     1       1.184   1.538  -0.426  1.00  0.00    -0.176 N 
ATOM      3  H2  UNL     1       2.046   1.341  -0.935  1.00  0.00     0.186 HD
HETATM    4  C9  UNL     1       1.029   2.759   0.100  1.00  0.00     0.685 A 
HETATM    5  N4  UNL     1      -0.090   3.045   0.773  1.00  0.00    -0.174 N 
ATOM      6  H4  UNL     1      -0.215   3.973   1.176  1.00  0.00     0.186 HD
HETATM    7  C12 UNL     1      -1.059   2.111   0.923  1.00  0.00     0.152 A 
HETATM    8  N5  UNL     1      -2.172   2.462   1.600  1.00  0.00    -0.258 N 
ATOM      9  H5  UNL     1      -2.268   3.399   1.991  1.00  0.00     0.191 HD
HETATM   10  N6  UNL     1      -3.124   1.580   1.745  1.00  0.00    -0.173 N 
HETATM   11  C13 UNL     1      -3.032   0.331   1.242  1.00  0.00     0.157 A 
HETATM   12  C14 UNL     1      -1.921  -0.084   0.543  1.00  0.00     0.018 A 
HETATM   13  C19 UNL     1      -0.886   0.835   0.369  1.00  0.00     0.067 A 
ENDROOT
BRANCH   1  14
HETATM   14  N1  UNL     1       0.447  -0.584  -0.857  1.00  0.00    -0.371 N 
ATOM     15  H1  UNL     1      -0.278  -1.293  -0.746  1.00  0.00     0.161 HD
BRANCH  14  16
HETATM   16  C7  UNL     1       1.634  -0.931  -1.622  1.00  0.00     0.160 C 
BRANCH  16  17
HETATM   17  C6  UNL     1       2.786  -1.292  -0.767  1.00  0.00    -0.040 A 
HETATM   18  C5  UNL     1       2.706  -1.347   0.601  1.00  0.00     0.009 A 
HETATM   19  C4  UNL     1       3.809  -1.688   1.353  1.00  0.00     0.001 A 
HETATM   20  C3  UNL     1       5.015  -1.981   0.751  1.00  0.00     0.007 A 
HETATM   21  C2  UNL     1       5.104  -1.929  -0.608  1.00  0.00    -0.061 A 
HETATM   22  C1  UNL     1       6.411  -2.247  -1.243  1.00  0.00     0.048 C 
HETATM   23  C20 UNL     1       3.991  -1.585  -1.364  1.00  0.00     0.015 A 
ENDBRANCH  16  17
ENDBRANCH  14  16
ENDBRANCH   1  14
BRANCH   4  24
HETATM   24  N3  UNL     1       1.927   3.636  -0.034  1.00  0.00    -0.197 N 
ATOM     25  H3  UNL     1       2.742   3.324  -0.561  1.00  0.00     0.183 HD
BRANCH  24  26
HETATM   26  C10 UNL     1       2.003   4.970   0.416  1.00  0.00     0.194 C 
BRANCH  26  27
HETATM   27  C11 UNL     1       1.576   6.003  -0.601  1.00  0.00     0.422 C 
HETATM   28  F1  UNL     1       1.712   7.242  -0.001  1.00  0.00    -0.166 F 
HETATM   29  F2  UNL     1       2.405   6.009  -1.705  1.00  0.00    -0.166 F 
HETATM   30  F3  UNL     1       0.249   5.873  -0.958  1.00  0.00    -0.166 F 
ENDBRANCH  26  27
ENDBRANCH  24  26
ENDBRANCH   4  24
BRANCH  12  31
HETATM   31  C15 UNL     1      -1.851  -1.436   0.082  1.00  0.00     0.128 C 
HETATM   32  N7  UNL     1      -2.800  -2.255   0.178  1.00  0.00    -0.277 N 
ATOM     33  H7  UNL     1      -2.503  -3.146  -0.220  1.00  0.00     0.193 HD
BRANCH  32  34
HETATM   34  O2  UNL     1      -4.003  -2.375   0.594  1.00  0.00    -0.276 OA
BRANCH  34  35
HETATM   35  C16 UNL     1      -5.150  -2.866  -0.075  1.00  0.00     0.144 C 
HETATM   36  C17 UNL     1      -5.796  -4.004   0.641  1.00  0.00     0.042 C 
HETATM   37  C18 UNL     1      -6.159  -1.751  -0.232  1.00  0.00     0.042 C 
ENDBRANCH  34  35
ENDBRANCH  32  34
ENDBRANCH  12  31
BRANCH  10  38
HETATM   38  O1  UNL     1      -4.296   1.914   2.444  1.00  0.00    -0.268 OA
ATOM     39  H1  UNL     1      -4.989   1.272   2.549  1.00  0.00     0.247 HD
ENDBRANCH  10  38
TORSDOF 10
