REMARK  12 active torsions:
REMARK  status: ('A' for Active; 'I' for Inactive)
REMARK    1  A    between atoms: C2_2  and  N1_3 
REMARK       I    between atoms: N1_3  and  C3_5 
REMARK       I    between atoms: C3_5  and  N2_7 
REMARK    2  A    between atoms: N2_7  and  C4_9 
REMARK    3  A    between atoms: C4_9  and  C5_10 
REMARK    4  A    between atoms: C4_9  and  C13_26 
REMARK    5  A    between atoms: C5_10  and  C6_11 
REMARK    6  A    between atoms: C6_11  and  N3_12 
REMARK    7  A    between atoms: N3_12  and  C7_14 
REMARK    8  A    between atoms: C7_14  and  C10_21 
REMARK       I    between atoms: N4_15  and  C8_17 
REMARK    9  A    between atoms: C8_17  and  O3_19 
REMARK   10  A    between atoms: C10_21  and  O5_23 
REMARK   11  A    between atoms: O5_23  and  C11_24 
REMARK   12  A    between atoms: C16_29  and  C17_30 
ROOT
HETATM    1  C4  UNL     1       1.849   0.056   0.874  1.00  0.00     0.121 C 
ENDROOT
BRANCH   1   2
HETATM    2  N2  UNL     1       2.861  -0.978   0.583  1.00  0.00    -0.334 N 
HETATM    3  C3  UNL     1       2.917  -2.197   1.304  1.00  0.00     0.316 C 
HETATM    4  N1  UNL     1       3.866  -3.165   0.947  1.00  0.00    -0.343 N 
HETATM    5  O1  UNL     1       2.121  -2.395   2.229  1.00  0.00    -0.247 OA
ATOM      6  H1  UNL     1       4.528  -3.003   0.188  1.00  0.00     0.164 HD
ATOM      7  H2  UNL     1       3.540  -0.810  -0.159  1.00  0.00     0.165 HD
BRANCH   4   8
HETATM    8  C2  UNL     1       3.869  -4.427   1.712  1.00  0.00     0.120 C 
HETATM    9  C1  UNL     1       4.893  -5.401   1.215  1.00  0.00     0.026 C 
ENDBRANCH   4   8
ENDBRANCH   1   2
BRANCH   1  10
HETATM   10  C5  UNL     1       0.679  -0.428   0.078  1.00  0.00     0.050 C 
BRANCH  10  11
HETATM   11  C6  UNL     1      -0.600   0.334   0.105  1.00  0.00     0.123 C 
BRANCH  11  12
HETATM   12  N3  UNL     1      -1.493  -0.460  -0.757  1.00  0.00    -0.371 N 
ATOM     13  H3  UNL     1      -1.127  -1.347  -1.102  1.00  0.00     0.161 HD
BRANCH  12  14
HETATM   14  C7  UNL     1      -2.804  -0.116  -1.153  1.00  0.00     0.182 C 
HETATM   15  N4  UNL     1      -3.019  -0.236  -2.436  1.00  0.00    -0.284 N 
HETATM   16  C8  UNL     1      -4.228   0.039  -3.060  1.00  0.00     0.365 C 
ATOM     17  H4  UNL     1      -2.245  -0.554  -3.019  1.00  0.00     0.172 HD
HETATM   18  O2  UNL     1      -4.606   1.217  -3.285  1.00  0.00    -0.238 OA
BRANCH  16  19
HETATM   19  O3  UNL     1      -5.109  -0.978  -3.487  1.00  0.00    -0.309 OA
HETATM   20  C9  UNL     1      -6.337  -0.618  -4.123  1.00  0.00     0.215 C 
ENDBRANCH  16  19
BRANCH  14  21
HETATM   21  C10 UNL     1      -3.776   0.303  -0.192  1.00  0.00     0.327 C 
HETATM   22  O4  UNL     1      -4.930   0.621  -0.529  1.00  0.00    -0.256 OA
BRANCH  21  23
HETATM   23  O5  UNL     1      -3.450   0.367   1.146  1.00  0.00    -0.316 OA
BRANCH  23  24
HETATM   24  C11 UNL     1      -4.411   0.806   2.085  1.00  0.00     0.175 C 
HETATM   25  C12 UNL     1      -5.667   0.024   2.136  1.00  0.00     0.034 C 
ENDBRANCH  23  24
ENDBRANCH  21  23
ENDBRANCH  14  21
ENDBRANCH  12  14
ENDBRANCH  11  12
ENDBRANCH  10  11
ENDBRANCH   1  10
BRANCH   1  26
HETATM   26  C13 UNL     1       2.315   1.382   0.496  1.00  0.00    -0.035 A 
HETATM   27  C14 UNL     1       2.301   2.486   1.361  1.00  0.00     0.010 A 
HETATM   28  C15 UNL     1       2.772   3.704   0.922  1.00  0.00     0.017 A 
HETATM   29  C16 UNL     1       3.270   3.884  -0.364  1.00  0.00     0.047 A 
HETATM   30  C18 UNL     1       3.274   2.782  -1.197  1.00  0.00     0.017 A 
HETATM   31  C19 UNL     1       2.807   1.565  -0.773  1.00  0.00     0.010 A 
BRANCH  29  32
HETATM   32  C17 UNL     1       3.790   5.217  -0.834  1.00  0.00     0.417 C 
HETATM   33  F1  UNL     1       5.080   5.038  -1.314  1.00  0.00    -0.166 F 
HETATM   34  F2  UNL     1       2.946   5.760  -1.804  1.00  0.00    -0.166 F 
HETATM   35  F3  UNL     1       3.806   6.085   0.236  1.00  0.00    -0.166 F 
ENDBRANCH  29  32
ENDBRANCH   1  26
TORSDOF 12
