REMARK  11 active torsions:
REMARK  status: ('A' for Active; 'I' for Inactive)
REMARK       I    between atoms: N1_1  and  C1_5 
REMARK       I    between atoms: C1_5  and  N2_6 
REMARK       I    between atoms: C1_5  and  N3_10 
REMARK    1  A    between atoms: N3_10  and  N4_12 
REMARK    2  A    between atoms: N4_12  and  C2_14 
REMARK    3  A    between atoms: C2_14  and  C3_15 
REMARK    4  A    between atoms: C4_18  and  N6_19 
REMARK       I    between atoms: N6_19  and  C5_21 
REMARK    5  A    between atoms: C5_21  and  C6_23 
REMARK    6  A    between atoms: C8_29  and  O2_30 
REMARK    7  A    between atoms: O2_30  and  C9_31 
REMARK    8  A    between atoms: C9_31  and  C10_33 
REMARK    9  A    between atoms: C12_40  and  C13_41 
REMARK   10  A    between atoms: C14_44  and  O7_45 
REMARK   11  A    between atoms: C17_49  and  N11_50 
ROOT
HETATM    1  N6  UNL     1      -0.996  -1.345  -0.579  1.00  0.00    -0.307 N 
ATOM      2  H6  UNL     1      -1.300  -2.074   0.066  1.00  0.00     0.170 HD
HETATM    3  C5  UNL     1       0.381  -1.235  -0.909  1.00  0.00     0.278 C 
HETATM    4  O1  UNL     1       0.725  -1.667  -2.018  1.00  0.00    -0.265 OA
ENDROOT
BRANCH   1   5
HETATM    5  C4  UNL     1      -1.879  -0.528  -1.088  1.00  0.00     0.108 A 
HETATM    6  N5  UNL     1      -3.177  -0.649  -0.762  1.00  0.00    -0.339 N 
HETATM    7  C3  UNL     1      -4.145   0.179  -1.267  1.00  0.00     0.084 A 
ATOM      8  H5  UNL     1      -3.453  -1.386  -0.113  1.00  0.00     0.167 HD
HETATM    9  C17 UNL     1      -3.740   1.153  -2.133  1.00  0.00     0.131 A 
HETATM   10  C16 UNL     1      -2.383   1.292  -2.483  1.00  0.00     0.042 A 
HETATM   11  C15 UNL     1      -1.454   0.450  -1.960  1.00  0.00     0.051 A 
BRANCH   7  12
HETATM   12  C2  UNL     1      -5.515   0.002  -0.838  1.00  0.00     0.139 C 
BRANCH  12  13
HETATM   13  N4  UNL     1      -5.829  -0.972  -0.010  1.00  0.00    -0.311 N 
ATOM     14  H4  UNL     1      -5.092  -1.594   0.321  1.00  0.00     0.185 HD
BRANCH  13  15
HETATM   15  N3  UNL     1      -7.121  -1.179   0.425  1.00  0.00    -0.284 N 
HETATM   16  C1  UNL     1      -7.620  -0.749   1.716  1.00  0.00     0.494 C 
HETATM   17  N1  UNL     1      -7.542   0.665   1.923  1.00  0.00    -0.032 N 
HETATM   18  N2  UNL     1      -8.976  -1.188   1.898  1.00  0.00    -0.032 N 
ATOM     19  H13 UNL     1      -8.195   1.177   1.330  1.00  0.00     0.279 HD
ATOM     20  H12 UNL     1      -7.918   0.943   2.830  1.00  0.00     0.279 HD
ATOM     21  H11 UNL     1      -6.579   0.977   1.794  1.00  0.00     0.279 HD
ATOM     22  H23 UNL     1      -9.352  -0.910   2.805  1.00  0.00     0.279 HD
ATOM     23  H22 UNL     1      -9.629  -0.676   1.305  1.00  0.00     0.279 HD
ATOM     24  H21 UNL     1      -9.032  -2.196   1.750  1.00  0.00     0.279 HD
ATOM     25  H3  UNL     1      -7.765  -1.664  -0.200  1.00  0.00     0.184 HD
ENDBRANCH  13  15
ENDBRANCH  12  13
ENDBRANCH   7  12
BRANCH   9  26
HETATM   26  N11 UNL     1      -4.616   2.067  -2.724  1.00  0.00    -0.113 N 
HETATM   27  O8  UNL     1      -5.759   1.795  -3.065  1.00  0.00    -0.532 OA
HETATM   28  O9  UNL     1      -4.166   3.353  -2.979  1.00  0.00    -0.532 OA
ENDBRANCH   9  26
ENDBRANCH   1   5
BRANCH   3  29
HETATM   29  C6  UNL     1       1.306  -0.644   0.024  1.00  0.00     0.152 A 
HETATM   30  N7  UNL     1       0.822  -0.197   1.228  1.00  0.00    -0.293 N 
HETATM   31  N8  UNL     1       1.584   0.352   2.138  1.00  0.00    -0.308 N 
ATOM     32  H7  UNL     1      -0.174  -0.297   1.421  1.00  0.00     0.187 HD
HETATM   33  C7  UNL     1       2.890   0.482   1.886  1.00  0.00     0.147 A 
ATOM     34  H8  UNL     1       1.190   0.674   3.022  1.00  0.00     0.186 HD
HETATM   35  C8  UNL     1       3.444   0.059   0.706  1.00  0.00     0.132 A 
HETATM   36  C14 UNL     1       2.643  -0.526  -0.268  1.00  0.00     0.135 A 
BRANCH  35  37
HETATM   37  O2  UNL     1       4.817   0.239   0.539  1.00  0.00    -0.269 OA
BRANCH  37  38
HETATM   38  C9  UNL     1       5.751  -0.695   0.907  1.00  0.00     0.318 C 
HETATM   39  O3  UNL     1       5.338  -1.766   1.419  1.00  0.00    -0.257 OA
BRANCH  38  40
HETATM   40  C10 UNL     1       7.188  -0.522   0.739  1.00  0.00     0.146 A 
HETATM   41  N9  UNL     1       8.159  -1.386   1.072  1.00  0.00    -0.291 N 
HETATM   42  N10 UNL     1       9.359  -0.914   0.784  1.00  0.00    -0.265 N 
ATOM     43  H9  UNL     1       7.991  -2.298   1.497  1.00  0.00     0.187 HD
HETATM   44  C11 UNL     1       9.203   0.303   0.240  1.00  0.00     0.279 A 
ATOM     45  H10 UNL     1      10.246  -1.390   0.946  1.00  0.00     0.190 HD
HETATM   46  O4  UNL     1      10.134   1.049  -0.157  1.00  0.00    -0.266 OA
HETATM   47  C12 UNL     1       7.847   0.579   0.198  1.00  0.00     0.144 A 
BRANCH  47  48
HETATM   48  C13 UNL     1       7.176   1.749  -0.294  1.00  0.00     0.217 C 
HETATM   49  O5  UNL     1       6.944   2.707   0.474  1.00  0.00    -0.644 OA
HETATM   50  O6  UNL     1       6.780   1.833  -1.612  1.00  0.00    -0.644 OA
ENDBRANCH  47  48
ENDBRANCH  38  40
ENDBRANCH  37  38
ENDBRANCH  35  37
BRANCH  36  51
HETATM   51  O7  UNL     1       3.242  -0.922  -1.406  1.00  0.00    -0.356 OA
ATOM     52  H7  UNL     1       4.167  -0.840  -1.608  1.00  0.00     0.218 HD
ENDBRANCH  36  51
ENDBRANCH   3  29
TORSDOF 11
