REMARK  18 active torsions:
REMARK  status: ('A' for Active; 'I' for Inactive)
REMARK    1  A    between atoms: C2_2  and  N1_3 
REMARK    2  A    between atoms: N1_3  and  C3_5 
REMARK    3  A    between atoms: C4_6  and  C5_7 
REMARK    4  A    between atoms: C5_7  and  O1_8 
REMARK    5  A    between atoms: C5_7  and  N2_10 
REMARK    6  A    between atoms: N2_10  and  N3_12 
REMARK       I    between atoms: N3_12  and  C6_13 
REMARK    7  A    between atoms: C6_13  and  C7_15 
REMARK    8  A    between atoms: C7_15  and  O3_16 
REMARK    9  A    between atoms: C8_18  and  C9_19 
REMARK   10  A    between atoms: C9_19  and  O5_21 
REMARK   11  A    between atoms: C11_23  and  C12_24 
REMARK   12  A    between atoms: C12_24  and  O6_25 
REMARK   13  A    between atoms: C12_24  and  O7_27 
REMARK   14  A    between atoms: O7_27  and  C13_28 
REMARK   15  A    between atoms: C14_29  and  O8_30 
REMARK   16  A    between atoms: C15_32  and  O9_33 
REMARK   17  A    between atoms: C16_35  and  C17_36 
REMARK   18  A    between atoms: N4_39  and  O12_40 
ROOT
HETATM    1  C3  UNL     1      -1.353  -1.742   1.297  1.00  0.00     0.098 A 
HETATM    2  C4  UNL     1      -1.348  -0.561   0.674  1.00  0.00     0.065 A 
HETATM    3  C8  UNL     1      -0.101   0.045   0.131  1.00  0.00     0.075 A 
HETATM    4  C11 UNL     1       1.092  -0.568   0.289  1.00  0.00     0.094 A 
HETATM    5  C18 UNL     1       1.090  -1.908   1.011  1.00  0.00     0.240 A 
HETATM    6  O13 UNL     1       2.184  -2.540   1.188  1.00  0.00    -0.283 OA
HETATM    7  C19 UNL     1      -0.112  -2.465   1.488  1.00  0.00     0.249 A 
HETATM    8  O14 UNL     1      -0.124  -3.598   2.092  1.00  0.00    -0.282 OA
ENDROOT
BRANCH   4   9
HETATM    9  C12 UNL     1       2.379  -0.148  -0.136  1.00  0.00     0.201 C 
BRANCH   9  10
HETATM   10  O6  UNL     1       3.357  -1.014   0.146  1.00  0.00    -0.340 OA
ATOM     11  H6  UNL     1       4.219  -0.733  -0.139  1.00  0.00     0.220 HD
ENDBRANCH   9  10
BRANCH   9  12
HETATM   12  O7  UNL     1       2.943   0.939  -0.777  1.00  0.00    -0.265 OA
BRANCH  12  13
HETATM   13  C13 UNL     1       4.354   0.848  -0.958  1.00  0.00     0.213 A 
HETATM   14  C14 UNL     1       5.081   0.756  -2.095  1.00  0.00     0.156 A 
HETATM   15  C15 UNL     1       6.432   0.670  -1.714  1.00  0.00     0.140 A 
HETATM   16  C16 UNL     1       6.482   0.716  -0.321  1.00  0.00     0.177 A 
HETATM   17  N4  UNL     1       5.193   0.830   0.076  1.00  0.00    -0.189 N 
BRANCH  14  18
HETATM   18  O8  UNL     1       4.619   0.744  -3.385  1.00  0.00    -0.354 OA
ATOM     19  H8  UNL     1       5.130   0.679  -4.184  1.00  0.00     0.218 HD
ENDBRANCH  14  18
BRANCH  15  20
HETATM   20  O9  UNL     1       7.455   0.559  -2.635  1.00  0.00    -0.356 OA
ATOM     21  H9  UNL     1       8.368   0.501  -2.378  1.00  0.00     0.218 HD
ENDBRANCH  15  20
BRANCH  16  22
HETATM   22  C17 UNL     1       7.643   0.595   0.535  1.00  0.00     0.232 C 
HETATM   23  O10 UNL     1       7.580   0.647   1.758  1.00  0.00    -0.643 OA
HETATM   24  O11 UNL     1       8.923   0.408  -0.043  1.00  0.00    -0.643 OA
ENDBRANCH  16  22
BRANCH  17  25
HETATM   25  O12 UNL     1       4.876   0.945   1.419  1.00  0.00    -0.280 OA
ATOM     26  H12 UNL     1       5.475   0.932   2.157  1.00  0.00     0.245 HD
ENDBRANCH  17  25
ENDBRANCH  12  13
ENDBRANCH   9  12
ENDBRANCH   4   9
BRANCH   3  27
HETATM   27  C9  UNL     1      -0.120   0.980  -1.021  1.00  0.00     0.295 C 
HETATM   28  O4  UNL     1       0.838   1.640  -1.318  1.00  0.00    -0.259 OA
BRANCH  27  29
HETATM   29  O5  UNL     1      -1.244   1.143  -1.885  1.00  0.00    -0.322 OA
HETATM   30  C10 UNL     1      -1.105   2.029  -3.006  1.00  0.00     0.213 C 
ENDBRANCH  27  29
ENDBRANCH   3  27
BRANCH   2  31
HETATM   31  C5  UNL     1      -2.561   0.203   0.576  1.00  0.00     0.179 C 
BRANCH  31  32
HETATM   32  O1  UNL     1      -2.445   1.373  -0.080  1.00  0.00    -0.344 OA
ATOM     33  H1  UNL     1      -3.247   1.878  -0.145  1.00  0.00     0.219 HD
ENDBRANCH  31  32
BRANCH  31  34
HETATM   34  N2  UNL     1      -3.856   0.012   1.001  1.00  0.00    -0.209 N 
ATOM     35  H2  UNL     1      -4.046  -0.785   1.608  1.00  0.00     0.204 HD
BRANCH  34  36
HETATM   36  N3  UNL     1      -4.903   0.822   0.662  1.00  0.00    -0.282 NA
HETATM   37  C6  UNL     1      -5.931   1.602   0.333  1.00  0.00     0.335 C 
HETATM   38  O2  UNL     1      -7.160   1.311   0.247  1.00  0.00    -0.253 OA
BRANCH  37  39
HETATM   39  C7  UNL     1      -5.606   3.056  -0.011  1.00  0.00     0.285 C 
BRANCH  39  40
HETATM   40  O3  UNL     1      -6.735   3.728  -0.410  1.00  0.00    -0.390 OA
ATOM     41  H3  UNL     1      -6.533   4.631  -0.624  1.00  0.00     0.210 HD
ENDBRANCH  39  40
ENDBRANCH  37  39
ENDBRANCH  34  36
ENDBRANCH  31  34
ENDBRANCH   2  31
BRANCH   1  42
HETATM   42  N1  UNL     1      -2.491  -2.368   1.887  1.00  0.00    -0.386 N 
ATOM     43  H1  UNL     1      -2.746  -2.172   2.855  1.00  0.00     0.159 HD
BRANCH  42  44
HETATM   44  C2  UNL     1      -3.289  -3.298   1.080  1.00  0.00     0.115 C 
HETATM   45  C1  UNL     1      -4.313  -3.921   1.972  1.00  0.00     0.026 C 
ENDBRANCH  42  44
ENDBRANCH   1  42
TORSDOF 18
