REMARK  13 active torsions:
REMARK  status: ('A' for Active; 'I' for Inactive)
REMARK    1  A    between atoms: O1_2  and  C2_3 
REMARK    2  A    between atoms: C2_3  and  C3_5 
REMARK    3  A    between atoms: C3_5  and  N1_6 
REMARK    4  A    between atoms: C5_13  and  N4_14 
REMARK    5  A    between atoms: C6_18  and  C7_19 
REMARK       I    between atoms: C7_19  and  N6_21 
REMARK    6  A    between atoms: N6_21  and  C8_23 
REMARK    7  A    between atoms: C8_23  and  C9_24 
REMARK    8  A    between atoms: C9_24  and  N7_25 
REMARK    9  A    between atoms: C14_33  and  C15_34 
REMARK   10  A    between atoms: C15_34  and  O4_35 
REMARK   11  A    between atoms: C16_37  and  C17_38 
REMARK   12  A    between atoms: C20_42  and  O6_43 
REMARK   13  A    between atoms: C21_45  and  O7_46 
ROOT
HETATM    1  N1  UNL     1      -3.039   1.744   1.057  1.00  0.00    -0.157 N 
HETATM    2  C4  UNL     1      -2.858   2.964   1.647  1.00  0.00     0.694 A 
HETATM    3  N2  UNL     1      -3.839   3.726   1.995  1.00  0.00    -0.234 N 
ATOM      4  H21 UNL     1      -3.704   4.636   2.435  1.00  0.00     0.174 HD
ATOM      5  H22 UNL     1      -4.800   3.411   1.862  1.00  0.00     0.174 HD
HETATM    6  N3  UNL     1      -1.596   3.378   1.822  1.00  0.00    -0.022 N 
ATOM      7  H3  UNL     1      -1.419   4.282   2.260  1.00  0.00     0.203 HD
HETATM    8  C5  UNL     1      -0.565   2.621   1.430  1.00  0.00     0.699 A 
HETATM    9  N5  UNL     1      -0.747   1.421   0.852  1.00  0.00    -0.124 N 
HETATM   10  C6  UNL     1       0.125   0.535   0.391  1.00  0.00     0.135 A 
HETATM   11  C14 UNL     1      -0.529  -0.535  -0.131  1.00  0.00     0.015 A 
HETATM   12  C16 UNL     1      -1.884  -0.268   0.034  1.00  0.00     0.055 A 
HETATM   13  C22 UNL     1      -2.047   0.961   0.654  1.00  0.00     0.161 A 
ENDROOT
BRANCH  10  14
HETATM   14  C7  UNL     1       1.598   0.558   0.483  1.00  0.00     0.270 C 
HETATM   15  O3  UNL     1       2.180   0.477  -0.649  1.00  0.00    -0.266 OA
HETATM   16  N6  UNL     1       2.322   0.650   1.660  1.00  0.00    -0.354 N 
ATOM     17  H6  UNL     1       1.729   0.700   2.489  1.00  0.00     0.162 HD
BRANCH  16  18
HETATM   18  C8  UNL     1       3.700   0.690   1.966  1.00  0.00     0.153 C 
BRANCH  18  19
HETATM   19  C9  UNL     1       4.541  -0.473   1.593  1.00  0.00     0.292 C 
BRANCH  19  20
HETATM   20  N7  UNL     1       4.730  -0.767   0.211  1.00  0.00     0.093 N 
HETATM   21  C10 UNL     1       5.621   0.224  -0.387  1.00  0.00     0.300 C 
HETATM   22  C11 UNL     1       7.068  -0.199  -0.194  1.00  0.00     0.262 C 
HETATM   23  N8  UNL     1       7.367  -1.359  -0.980  1.00  0.00    -0.072 N 
HETATM   24  C12 UNL     1       6.143  -2.059  -1.281  1.00  0.00     0.262 C 
ATOM     25  H82 UNL     1       7.898  -1.130  -1.820  1.00  0.00     0.277 HD
ATOM     26  H81 UNL     1       8.057  -1.962  -0.532  1.00  0.00     0.277 HD
HETATM   27  C13 UNL     1       5.222  -2.079  -0.055  1.00  0.00     0.300 C 
ENDBRANCH  19  20
ENDBRANCH  18  19
ENDBRANCH  16  18
ENDBRANCH  10  14
BRANCH  11  28
HETATM   28  C15 UNL     1       0.052  -1.716  -0.735  1.00  0.00     0.206 C 
BRANCH  28  29
HETATM   29  O4  UNL     1      -0.884  -2.641  -1.172  1.00  0.00    -0.396 OA
ATOM     30  H4  UNL     1      -0.503  -3.416  -1.568  1.00  0.00     0.209 HD
ENDBRANCH  28  29
ENDBRANCH  11  28
BRANCH   8  31
HETATM   31  N4  UNL     1       0.620   3.151   1.606  1.00  0.00    -0.233 N 
ATOM     32  H42 UNL     1       0.758   4.061   2.045  1.00  0.00     0.174 HD
ATOM     33  H41 UNL     1       1.406   2.574   1.307  1.00  0.00     0.174 HD
ENDBRANCH   8  31
BRANCH  12  34
HETATM   34  C17 UNL     1      -2.913  -1.186  -0.395  1.00  0.00     0.097 A 
HETATM   35  C18 UNL     1      -3.445  -1.075  -1.655  1.00  0.00     0.096 A 
HETATM   36  C19 UNL     1      -4.424  -1.936  -2.106  1.00  0.00     0.212 A 
HETATM   37  O5  UNL     1      -4.916  -1.836  -3.265  1.00  0.00    -0.285 OA
HETATM   38  C20 UNL     1      -4.863  -2.928  -1.246  1.00  0.00     0.175 A 
HETATM   39  C21 UNL     1      -4.297  -3.000   0.011  1.00  0.00     0.222 A 
HETATM   40  O8  UNL     1      -3.360  -2.141   0.384  1.00  0.00    -0.285 OA
BRANCH  38  41
HETATM   41  O6  UNL     1      -5.849  -3.841  -1.620  1.00  0.00    -0.353 OA
ATOM     42  H6  UNL     1      -6.150  -4.522  -1.030  1.00  0.00     0.218 HD
ENDBRANCH  38  41
BRANCH  39  43
HETATM   43  O7  UNL     1      -4.745  -3.997   0.863  1.00  0.00    -0.339 OA
ATOM     44  H7  UNL     1      -4.355  -4.047   1.728  1.00  0.00     0.220 HD
ENDBRANCH  39  43
ENDBRANCH  12  34
BRANCH   1  45
HETATM   45  C3  UNL     1      -4.411   1.327   0.956  1.00  0.00     0.260 C 
BRANCH  45  46
HETATM   46  C2  UNL     1      -5.122   1.883  -0.222  1.00  0.00     0.277 C 
HETATM   47  O2  UNL     1      -6.326   1.586  -0.412  1.00  0.00    -0.263 OA
BRANCH  46  48
HETATM   48  O1  UNL     1      -4.515   2.726  -1.136  1.00  0.00    -0.325 OA
HETATM   49  C1  UNL     1      -5.138   3.281  -2.265  1.00  0.00     0.213 C 
ENDBRANCH  46  48
ENDBRANCH  45  46
ENDBRANCH   1  45
TORSDOF 13
