REMARK  10 active torsions:
REMARK  status: ('A' for Active; 'I' for Inactive)
REMARK    1  A    between atoms: O1_2  and  C2_3 
REMARK    2  A    between atoms: C4_5  and  N1_6 
REMARK    3  A    between atoms: N1_6  and  S1_8 
REMARK    4  A    between atoms: S1_8  and  C5_11 
REMARK    5  A    between atoms: C8_14  and  N2_15 
REMARK       I    between atoms: N2_15  and  C9_17 
REMARK    6  A    between atoms: C9_17  and  C10_19 
REMARK    7  A    between atoms: N5_23  and  C11_24 
REMARK    8  A    between atoms: C12_30  and  N8_31 
REMARK    9  A    between atoms: C14_39  and  C15_40 
REMARK       I    between atoms: C15_40  and  N11_42 
REMARK   10  A    between atoms: N11_42  and  N12_44 
ROOT
HETATM    1  C5  UNL     1      -0.568   1.062   3.138  1.00  0.00     0.151 A 
HETATM    2  C6  UNL     1      -0.101   0.309   4.177  1.00  0.00     0.047 A 
HETATM    3  C7  UNL     1       1.049  -0.291   3.734  1.00  0.00     0.051 A 
HETATM    4  C8  UNL     1       1.251   0.118   2.426  1.00  0.00     0.108 A 
HETATM    5  N10 UNL     1       0.255   0.942   2.082  1.00  0.00    -0.332 N 
ATOM      6  H10 UNL     1       0.140   1.399   1.177  1.00  0.00     0.168 HD
ENDROOT
BRANCH   1   7
HETATM    7  S1  UNL     1      -2.022   2.064   3.110  1.00  0.00     0.278 S 
HETATM    8  O2  UNL     1      -1.755   3.219   2.199  1.00  0.00    -0.199 OA
HETATM    9  O3  UNL     1      -2.240   2.519   4.527  1.00  0.00    -0.199 OA
BRANCH   7  10
HETATM   10  N1  UNL     1      -3.377   1.181   2.570  1.00  0.00    -0.279 N 
ATOM     11  H1  UNL     1      -4.162   1.074   3.213  1.00  0.00     0.179 HD
BRANCH  10  12
HETATM   12  C4  UNL     1      -3.488   0.584   1.286  1.00  0.00     0.046 A 
HETATM   13  C3  UNL     1      -3.963  -0.717   1.270  1.00  0.00     0.069 A 
HETATM   14  C2  UNL     1      -4.095  -1.360   0.061  1.00  0.00     0.095 A 
HETATM   15  C16 UNL     1      -3.749  -0.686  -1.086  1.00  0.00     0.095 A 
HETATM   16  C14 UNL     1      -3.267   0.628  -1.103  1.00  0.00     0.062 A 
HETATM   17  N13 UNL     1      -3.881  -1.337  -2.325  1.00  0.00    -0.098 NA
HETATM   18  C13 UNL     1      -3.147   1.244   0.120  1.00  0.00     0.049 A 
BRANCH  14  19
HETATM   19  O1  UNL     1      -4.570  -2.660   0.051  1.00  0.00    -0.354 OA
HETATM   20  C1  UNL     1      -4.898  -3.269   1.279  1.00  0.00     0.210 C 
ENDBRANCH  14  19
BRANCH  16  21
HETATM   21  C15 UNL     1      -2.925   1.264  -2.369  1.00  0.00     0.271 C 
HETATM   22  O6  UNL     1      -3.047   0.674  -3.472  1.00  0.00    -0.266 OA
HETATM   23  N11 UNL     1      -2.440   2.586  -2.379  1.00  0.00    -0.272 N 
ATOM     24  H11 UNL     1      -2.336   3.077  -1.491  1.00  0.00     0.189 HD
BRANCH  23  25
HETATM   25  N12 UNL     1      -2.093   3.255  -3.566  1.00  0.00    -0.342 N 
ATOM     26 2H12 UNL     1      -2.203   2.749  -4.445  1.00  0.00     0.176 HD
ATOM     27 1H12 UNL     1      -1.742   4.213  -3.573  1.00  0.00     0.176 HD
ENDBRANCH  23  25
ENDBRANCH  16  21
ENDBRANCH  10  12
ENDBRANCH   7  10
ENDBRANCH   1   7
BRANCH   4  28
HETATM   28  N2  UNL     1       2.349  -0.300   1.633  1.00  0.00    -0.306 N 
HETATM   29  C9  UNL     1       2.602   0.079   0.315  1.00  0.00     0.293 C 
HETATM   30  O4  UNL     1       1.853   0.851  -0.308  1.00  0.00    -0.264 OA
ATOM     31  H2  UNL     1       3.016  -0.938   2.067  1.00  0.00     0.170 HD
BRANCH  29  32
HETATM   32  C10 UNL     1       3.779  -0.436  -0.377  1.00  0.00     0.204 A 
HETATM   33  N3  UNL     1       4.716  -1.290   0.130  1.00  0.00    -0.262 N 
HETATM   34  N4  UNL     1       5.615  -1.509  -0.813  1.00  0.00     0.004 NA
ATOM     35  H3  UNL     1       4.721  -1.688   1.069  1.00  0.00     0.186 HD
HETATM   36  N5  UNL     1       5.305  -0.832  -1.918  1.00  0.00    -0.156 N 
HETATM   37  N9  UNL     1       4.189  -0.188  -1.633  1.00  0.00    -0.258 N 
ATOM     38  H9  UNL     1       3.698   0.423  -2.286  1.00  0.00     0.190 HD
BRANCH  36  39
HETATM   39  C11 UNL     1       6.045  -0.826  -3.136  1.00  0.00     0.210 A 
HETATM   40  N6  UNL     1       5.575  -0.858  -4.395  1.00  0.00    -0.219 N 
HETATM   41  O5  UNL     1       6.541  -0.841  -5.260  1.00  0.00    -0.153 OA
ATOM     42  H6  UNL     1       4.585  -0.891  -4.639  1.00  0.00     0.198 HD
HETATM   43  N7  UNL     1       7.656  -0.798  -4.597  1.00  0.00    -0.222 N 
HETATM   44  C12 UNL     1       7.416  -0.786  -3.270  1.00  0.00     0.170 A 
ATOM     45  H7  UNL     1       8.584  -0.776  -5.020  1.00  0.00     0.198 HD
BRANCH  44  46
HETATM   46  N8  UNL     1       8.293  -0.747  -2.322  1.00  0.00    -0.381 N 
ATOM     47  H82 UNL     1       8.111  -0.738  -1.318  1.00  0.00     0.157 HD
ATOM     48  H81 UNL     1       9.308  -0.717  -2.421  1.00  0.00     0.157 HD
ENDBRANCH  44  46
ENDBRANCH  36  39
ENDBRANCH  29  32
ENDBRANCH   4  28
TORSDOF 10
