REMARK  1 active torsions:
REMARK  status: ('A' for Active; 'I' for Inactive)
REMARK       I    between atoms: N2_6  and  C5_7 
REMARK    1  A    between atoms: C5_7  and  C6_9 
ROOT
HETATM    1  N1  UNL     1       2.478   0.172  -2.570  1.00  0.00    -0.197 NA
HETATM    2  C1  UNL     1       2.992   0.087  -1.531  1.00  0.00     0.064 C 
HETATM    3  C2  UNL     1       3.660  -0.032  -0.229  1.00  0.00     0.096 C 
HETATM    4  C3  UNL     1       3.096   1.065   0.649  1.00  0.00     0.039 C 
HETATM    5  C4  UNL     1       1.558   1.039   0.602  1.00  0.00     0.127 C 
HETATM    6  N2  UNL     1       1.171  -0.353   0.662  1.00  0.00    -0.352 N 
HETATM    7  C5  UNL     1      -0.047  -0.875   0.166  1.00  0.00     0.224 C 
HETATM    8  O1  UNL     1      -0.293  -2.111   0.265  1.00  0.00    -0.273 OA
HETATM    9  C12 UNL     1       2.133  -1.235   1.285  1.00  0.00     0.127 C 
HETATM   10  C13 UNL     1       3.366  -1.344   0.417  1.00  0.00     0.039 C 
ENDROOT
BRANCH   7  11
HETATM   11  C6  UNL     1      -1.101  -0.063  -0.485  1.00  0.00     0.078 C 
HETATM   12  C7  UNL     1      -1.684   0.994   0.385  1.00  0.00     0.014 C 
HETATM   13  C8  UNL     1      -2.892   1.561  -0.378  1.00  0.00     0.001 C 
HETATM   14  C9  UNL     1      -3.998   0.524  -0.169  1.00  0.00     0.000 C 
HETATM   15  C10 UNL     1      -3.482  -0.870  -0.419  1.00  0.00     0.001 C 
HETATM   16  C11 UNL     1      -2.159  -0.887  -1.135  1.00  0.00     0.014 C 
ENDBRANCH   7  11
TORSDOF 1
