REMARK  1 active torsions:
REMARK  status: ('A' for Active; 'I' for Inactive)
REMARK    1  A    between atoms: N1_4  and  C4_5 
ROOT
HETATM    1  C4  UNL     1      -0.479   0.328  -0.412  1.00  0.00     0.087 C 
HETATM    2  C5  UNL     1       0.110   1.670  -0.454  1.00  0.00     0.044 C 
HETATM    3  C6  UNL     1       1.636   1.528  -0.361  1.00  0.00     0.119 C 
HETATM    4  N2  UNL     1       2.068   0.222  -0.756  1.00  0.00    -0.408 N 
HETATM    5  C7  UNL     1       3.417   0.157  -1.193  1.00  0.00     0.117 C 
HETATM    6  C8  UNL     1       4.400  -0.228  -0.119  1.00  0.00     0.019 C 
HETATM    7  C9  UNL     1       3.938  -1.393   0.715  1.00  0.00     0.004 C 
HETATM    8  C10 UNL     1       2.581  -1.030   1.285  1.00  0.00     0.025 C 
HETATM    9  C11 UNL     1       1.651  -0.836   0.106  1.00  0.00     0.081 C 
HETATM   10  C12 UNL     1       0.274  -0.494   0.644  1.00  0.00     0.050 C 
ENDROOT
BRANCH   1  11
HETATM   11  N1  UNL     1      -1.852   0.224  -0.152  1.00  0.00    -0.389 N 
HETATM   12  C3  UNL     1      -2.412  -1.054  -0.111  1.00  0.00     0.058 C 
HETATM   13  C2  UNL     1      -3.849  -1.001  -0.618  1.00  0.00     0.044 C 
HETATM   14  C1  UNL     1      -4.654  -0.127   0.295  1.00  0.00     0.007 C 
HETATM   15  C14 UNL     1      -3.838   0.939   0.950  1.00  0.00     0.020 C 
HETATM   16  C13 UNL     1      -2.633   1.341   0.083  1.00  0.00     0.122 C 
ENDBRANCH   1  11
TORSDOF 1
