REMARK  5 active torsions:
REMARK  status: ('A' for Active; 'I' for Inactive)
REMARK    1  A    between atoms: C2_2  and  N1_3 
REMARK       I    between atoms: N1_3  and  C3_5 
REMARK       I    between atoms: C3_5  and  N4_10 
REMARK    2  A    between atoms: N4_10  and  C5_12 
REMARK    3  A    between atoms: C5_12  and  C6_13 
REMARK    4  A    between atoms: C5_12  and  C12_22 
REMARK    5  A    between atoms: C6_13  and  C7_14 
REMARK       I    between atoms: C7_14  and  N5_16 
REMARK       I    between atoms: C12_22  and  N6_24 
ROOT
HETATM    1  N1  UNL     1       3.797  -0.896   0.349  1.00  0.00    -0.226 N 
ATOM      2  H1  UNL     1       3.759  -0.704   1.350  1.00  0.00     0.177 HD
HETATM    3  C3  UNL     1       2.984  -0.154  -0.536  1.00  0.00     0.683 C 
HETATM    4  N2  UNL     1       3.495   0.900  -1.099  1.00  0.00    -0.126 N 
ATOM      5  H2  UNL     1       2.922   1.448  -1.741  1.00  0.00     0.197 HD
HETATM    6  C4  UNL     1       4.811   1.302  -0.847  1.00  0.00     0.196 C 
HETATM    7  N3  UNL     1       5.919   1.628  -0.631  1.00  0.00    -0.171 NA
HETATM    8  N4  UNL     1       1.657  -0.524  -0.816  1.00  0.00    -0.212 N 
ATOM      9  H4  UNL     1       1.435  -1.517  -0.890  1.00  0.00     0.178 HD
ENDROOT
BRANCH   1  10
HETATM   10  C2  UNL     1       4.686  -1.929  -0.150  1.00  0.00     0.133 C 
HETATM   11  C1  UNL     1       5.458  -2.596   0.940  1.00  0.00     0.027 C 
ENDBRANCH   1  10
BRANCH   8  12
HETATM   12  C5  UNL     1       0.567   0.456  -1.008  1.00  0.00     0.200 C 
BRANCH  12  13
HETATM   13  C6  UNL     1      -0.715  -0.269  -1.291  1.00  0.00     0.138 C 
BRANCH  13  14
HETATM   14  C7  UNL     1      -1.147  -1.168  -0.227  1.00  0.00     0.222 C 
HETATM   15  O1  UNL     1      -0.503  -1.328   0.859  1.00  0.00    -0.273 OA
HETATM   16  N5  UNL     1      -2.336  -1.919  -0.371  1.00  0.00    -0.351 N 
HETATM   17  C8  UNL     1      -2.741  -2.804   0.699  1.00  0.00     0.136 C 
HETATM   18  C11 UNL     1      -3.068  -1.748  -1.589  1.00  0.00     0.136 C 
HETATM   19  C9  UNL     1      -4.124  -2.437   1.257  1.00  0.00     0.093 C 
HETATM   20  S1  UNL     1      -5.252  -2.644  -0.147  1.00  0.00    -0.166 SA
HETATM   21  C10 UNL     1      -4.344  -2.501  -1.699  1.00  0.00     0.093 C 
ENDBRANCH  13  14
ENDBRANCH  12  13
BRANCH  12  22
HETATM   22  C12 UNL     1       0.535   1.403   0.107  1.00  0.00     0.243 C 
HETATM   23  O2  UNL     1       1.394   1.216   1.042  1.00  0.00    -0.271 OA
HETATM   24  N6  UNL     1      -0.332   2.499   0.271  1.00  0.00    -0.350 N 
HETATM   25  C13 UNL     1      -0.331   3.450   1.413  1.00  0.00     0.126 C 
HETATM   26  C16 UNL     1      -1.369   2.907  -0.639  1.00  0.00     0.126 C 
HETATM   27  C14 UNL     1      -0.602   4.745   0.652  1.00  0.00     0.021 C 
HETATM   28  C15 UNL     1      -1.716   4.316  -0.260  1.00  0.00     0.021 C 
ENDBRANCH  12  22
ENDBRANCH   8  12
TORSDOF 5
