REMARK  7 active torsions:
REMARK  status: ('A' for Active; 'I' for Inactive)
REMARK    1  A    between atoms: N1_2  and  C2_3 
REMARK    2  A    between atoms: N1_2  and  S1_18 
REMARK    3  A    between atoms: C2_3  and  C3_4 
REMARK    4  A    between atoms: C6_7  and  N2_8 
REMARK    5  A    between atoms: C9_11  and  O1_12 
REMARK    6  A    between atoms: C11_15  and  O2_16 
REMARK    7  A    between atoms: S1_18  and  N3_21 
ROOT
HETATM    1  C3  UNL     1      -0.643   0.813  -0.482  1.00  0.00     0.056 C 
HETATM    2  C4  UNL     1      -0.681  -0.030  -1.723  1.00  0.00     0.015 C 
HETATM    3  C5  UNL     1      -2.171  -0.406  -1.870  1.00  0.00     0.039 C 
HETATM    4  C6  UNL     1      -2.495  -0.739  -0.431  1.00  0.00     0.252 C 
HETATM    5  C11 UNL     1      -1.581   0.047   0.456  1.00  0.00     0.160 C 
ENDROOT
BRANCH   1   6
HETATM    6  C2  UNL     1       0.674   0.937   0.173  1.00  0.00     0.084 C 
BRANCH   6   7
HETATM    7  N1  UNL     1       1.749   1.496  -0.517  1.00  0.00    -0.282 N 
HETATM    8  C1  UNL     1       1.647   2.828  -0.982  1.00  0.00     0.169 C 
BRANCH   7   9
HETATM    9  S1  UNL     1       2.943   0.530  -1.185  1.00  0.00     0.304 S 
HETATM   10  O3  UNL     1       3.298   1.014  -2.583  1.00  0.00    -0.188 OA
HETATM   11  O4  UNL     1       2.689  -0.921  -1.270  1.00  0.00    -0.188 OA
BRANCH   9  12
HETATM   12  N3  UNL     1       4.381   0.736  -0.177  1.00  0.00    -0.189 NA
HETATM   13  C12 UNL     1       4.079   0.297   1.141  1.00  0.00     0.135 C 
HETATM   14  C13 UNL     1       5.306  -0.209   1.833  1.00  0.00     0.183 C 
HETATM   15  O5  UNL     1       6.421   0.407   1.344  1.00  0.00    -0.389 OA
HETATM   16  C14 UNL     1       6.716   0.047   0.030  1.00  0.00     0.183 C 
HETATM   17  C15 UNL     1       5.476   0.079  -0.836  1.00  0.00     0.135 C 
ENDBRANCH   9  12
ENDBRANCH   7   9
ENDBRANCH   6   7
ENDBRANCH   1   6
BRANCH   5  18
HETATM   18  O2  UNL     1      -2.265   0.905   1.298  1.00  0.00    -0.393 OA
ATOM     19  H2  UNL     1      -2.847   0.430   1.880  1.00  0.00     0.210 HD
ENDBRANCH   5  18
BRANCH   4  20
HETATM   20  N2  UNL     1      -3.881  -0.492  -0.194  1.00  0.00     0.098 N 
HETATM   21  C7  UNL     1      -4.300  -0.772   1.150  1.00  0.00     0.275 C 
HETATM   22  C8  UNL     1      -5.341  -1.866   1.080  1.00  0.00     0.064 C 
HETATM   23  C9  UNL     1      -5.955  -1.645  -0.272  1.00  0.00     0.148 C 
HETATM   24  C10 UNL     1      -4.762  -1.173  -1.089  1.00  0.00     0.304 C 
BRANCH  23  25
HETATM   25  O1  UNL     1      -6.882  -0.605  -0.177  1.00  0.00    -0.394 OA
ATOM     26  H1  UNL     1      -7.271  -0.465  -1.033  1.00  0.00     0.210 HD
ENDBRANCH  23  25
ENDBRANCH   4  20
TORSDOF 7
