REMARK  8 active torsions:
REMARK  status: ('A' for Active; 'I' for Inactive)
REMARK    1  A    between atoms: N1_1  and  N2_4 
REMARK    2  A    between atoms: N2_4  and  C1_5 
REMARK    3  A    between atoms: C1_5  and  N3_6 
REMARK    4  A    between atoms: N4_9  and  C4_10 
REMARK    5  A    between atoms: C5_13  and  N6_14 
REMARK    6  A    between atoms: N6_14  and  C6_16 
REMARK    7  A    between atoms: C6_16  and  C7_17 
REMARK    8  A    between atoms: C7_17  and  N7_18 
ROOT
HETATM    1  C4  UNL     1       1.103  -0.218  -0.307  1.00  0.00     0.127 A 
HETATM    2  N5  UNL     1       0.146   0.724  -0.099  1.00  0.00    -0.176 N 
ATOM      3  H5  UNL     1       0.357   1.518   0.505  1.00  0.00     0.186 HD
HETATM    4  C5  UNL     1      -1.071   0.641  -0.665  1.00  0.00     0.679 A 
HETATM    5  N10 UNL     1      -1.330  -0.415  -1.458  1.00  0.00    -0.195 N 
ATOM      6  H10 UNL     1      -2.251  -0.487  -1.891  1.00  0.00     0.184 HD
HETATM    7  C9  UNL     1      -0.419  -1.385  -1.704  1.00  0.00     0.036 A 
HETATM    8  C10 UNL     1       0.823  -1.286  -1.119  1.00  0.00     0.009 A 
HETATM    9  C11 UNL     1       1.828  -2.315  -1.385  1.00  0.00     0.044 C 
HETATM   10  C12 UNL     1       1.735  -2.658  -2.875  1.00  0.00     0.005 C 
HETATM   11  C13 UNL     1       0.392  -3.128  -3.300  1.00  0.00     0.006 C 
HETATM   12  C14 UNL     1      -0.756  -2.532  -2.577  1.00  0.00     0.058 C 
ENDROOT
BRANCH   1  13
HETATM   13  N4  UNL     1       2.380  -0.140   0.304  1.00  0.00    -0.363 N 
HETATM   14  C3  UNL     1       2.844  -1.112   1.280  1.00  0.00     0.144 C 
HETATM   15  C2  UNL     1       3.265  -0.397   2.561  1.00  0.00     0.144 C 
HETATM   16  N3  UNL     1       3.833   0.892   2.249  1.00  0.00    -0.362 N 
HETATM   17  C16 UNL     1       4.362   1.092   0.931  1.00  0.00     0.144 C 
HETATM   18  C15 UNL     1       3.241   0.966  -0.068  1.00  0.00     0.144 C 
BRANCH  16  19
HETATM   19  C1  UNL     1       3.863   1.914   3.210  1.00  0.00     0.299 C 
BRANCH  19  20
HETATM   20  N2  UNL     1       4.411   3.019   3.047  1.00  0.00    -0.329 NA
BRANCH  20  21
HETATM   21  N1  UNL     1       5.185   3.999   2.999  1.00  0.00    -0.279 N 
ATOM     22  H12 UNL     1       5.940   3.459   3.422  1.00  0.00     0.191 HD
ATOM     23  H11 UNL     1       5.634   4.905   2.865  1.00  0.00     0.191 HD
ENDBRANCH  20  21
ENDBRANCH  19  20
ENDBRANCH  16  19
ENDBRANCH   1  13
BRANCH   4  24
HETATM   24  N6  UNL     1      -1.967   1.552  -0.451  1.00  0.00    -0.224 N 
ATOM     25  H6  UNL     1      -1.717   2.331   0.158  1.00  0.00     0.177 HD
BRANCH  24  26
HETATM   26  C6  UNL     1      -3.278   1.540  -1.009  1.00  0.00     0.157 C 
BRANCH  26  27
HETATM   27  C7  UNL     1      -4.230   0.730  -0.158  1.00  0.00     0.142 C 
BRANCH  27  28
HETATM   28  N7  UNL     1      -4.336   1.267   1.184  1.00  0.00    -0.365 N 
HETATM   29  C8  UNL     1      -5.435   1.765   1.625  1.00  0.00     0.197 C 
HETATM   30  N8  UNL     1      -5.484   2.276   2.943  1.00  0.00    -0.067 NA
HETATM   31  N9  UNL     1      -6.570   1.795   0.792  1.00  0.00    -0.067 NA
ATOM     32  H7  UNL     1      -3.518   1.249   1.793  1.00  0.00     0.161 HD
ENDBRANCH  27  28
ENDBRANCH  26  27
ENDBRANCH  24  26
ENDBRANCH   4  24
TORSDOF 8
