REMARK  9 active torsions:
REMARK  status: ('A' for Active; 'I' for Inactive)
REMARK    1  A    between atoms: C2_3  and  C3_4 
REMARK    2  A    between atoms: C3_4  and  C4_5 
REMARK    3  A    between atoms: C3_4  and  N3_8 
REMARK    4  A    between atoms: C5_13  and  C6_14 
REMARK    5  A    between atoms: C6_14  and  C7_16 
REMARK    6  A    between atoms: C8_19  and  N7_20 
REMARK    7  A    between atoms: C9_27  and  N11_28 
REMARK    8  A    between atoms: C10_35  and  O3_36 
REMARK    9  A    between atoms: C11_38  and  O4_39 
ROOT
HETATM    1  N3  UNL     1      -1.289   0.854  -0.767  1.00  0.00    -0.235 N 
HETATM    2  N4  UNL     1      -0.505   1.791  -0.290  1.00  0.00    -0.237 N 
ATOM      3  H4  UNL     1      -0.808   2.747  -0.104  1.00  0.00     0.208 HD
HETATM    4  N5  UNL     1       0.706   1.357  -0.082  1.00  0.00    -0.278 N 
ATOM      5  H5  UNL     1       1.478   1.914   0.285  1.00  0.00     0.189 HD
HETATM    6  C5  UNL     1       0.778   0.051  -0.430  1.00  0.00     0.156 A 
HETATM    7  C10 UNL     1      -0.516  -0.239  -0.865  1.00  0.00     0.192 A 
ENDROOT
BRANCH   6   8
HETATM    8  C6  UNL     1       1.915  -0.853  -0.377  1.00  0.00     0.249 C 
HETATM    9  O2  UNL     1       1.704  -2.048  -0.790  1.00  0.00    -0.282 OA
BRANCH   8  10
HETATM   10  C7  UNL     1       3.215  -0.449   0.109  1.00  0.00     0.189 A 
HETATM   11  N6  UNL     1       4.353  -1.152  -0.062  1.00  0.00    -0.168 N 
HETATM   12  C8  UNL     1       5.380  -0.497   0.524  1.00  0.00     0.736 A 
ATOM     13  H6  UNL     1       4.427  -2.041  -0.557  1.00  0.00     0.186 HD
HETATM   14  N12 UNL     1       4.843   0.601   1.043  1.00  0.00    -0.128 N 
HETATM   15  N13 UNL     1       3.525   0.651   0.803  1.00  0.00    -0.267 N 
ATOM     16  H12 UNL     1       5.364   1.312   1.556  1.00  0.00     0.205 HD
ATOM     17  H13 UNL     1       2.882   1.387   1.094  1.00  0.00     0.189 HD
BRANCH  12  18
HETATM   18  N7  UNL     1       6.729  -0.959   0.535  1.00  0.00     0.108 N 
HETATM   19  N8  UNL     1       7.219  -1.988  -0.176  1.00  0.00    -0.191 N 
HETATM   20  N9  UNL     1       8.489  -2.163   0.050  1.00  0.00    -0.212 N 
ATOM     21  H8  UNL     1       6.665  -2.561  -0.813  1.00  0.00     0.211 HD
HETATM   22  N10 UNL     1       8.859  -1.244   0.919  1.00  0.00    -0.114 N 
ATOM     23  H9  UNL     1       9.086  -2.877  -0.367  1.00  0.00     0.210 HD
HETATM   24  C9  UNL     1       7.770  -0.489   1.227  1.00  0.00     0.729 A 
ATOM     25  H10 UNL     1       9.799  -1.120   1.295  1.00  0.00     0.207 HD
BRANCH  24  26
HETATM   26  N11 UNL     1       7.787   0.490   2.044  1.00  0.00    -0.231 N 
ATOM     27 2H11 UNL     1       6.971   1.056   2.275  1.00  0.00     0.174 HD
ATOM     28 1H11 UNL     1       8.582   0.849   2.573  1.00  0.00     0.174 HD
ENDBRANCH  24  26
ENDBRANCH  12  18
ENDBRANCH   8  10
ENDBRANCH   6   8
BRANCH   7  29
HETATM   29  O3  UNL     1      -0.911  -1.495  -1.327  1.00  0.00    -0.343 OA
ATOM     30  H3  UNL     1      -0.364  -2.269  -1.396  1.00  0.00     0.219 HD
ENDBRANCH   7  29
BRANCH   1  31
HETATM   31  C3  UNL     1      -2.697   1.017  -1.102  1.00  0.00     0.255 C 
BRANCH  31  32
HETATM   32  C2  UNL     1      -3.569   0.337  -0.111  1.00  0.00     0.113 A 
HETATM   33  N1  UNL     1      -4.436  -0.672  -0.353  1.00  0.00    -0.185 N 
HETATM   34  C1  UNL     1      -4.677  -1.292  -1.621  1.00  0.00     0.175 C 
HETATM   35  C12 UNL     1      -5.061  -1.013   0.815  1.00  0.00     0.680 A 
HETATM   36  N14 UNL     1      -4.599  -0.231   1.787  1.00  0.00    -0.169 N 
HETATM   37  N15 UNL     1      -5.954  -1.953   0.905  1.00  0.00    -0.234 N 
HETATM   38  C11 UNL     1      -3.691   0.592   1.234  1.00  0.00     0.181 A 
ATOM     39  H14 UNL     1      -4.881  -0.252   2.767  1.00  0.00     0.186 HD
ATOM     40 2H15 UNL     1      -6.308  -2.553   0.160  1.00  0.00     0.174 HD
ATOM     41 1H15 UNL     1      -6.420  -2.207   1.776  1.00  0.00     0.174 HD
BRANCH  38  42
HETATM   42  O4  UNL     1      -2.982   1.562   1.942  1.00  0.00    -0.344 OA
ATOM     43  H4  UNL     1      -3.066   1.738   2.872  1.00  0.00     0.219 HD
ENDBRANCH  38  42
ENDBRANCH  31  32
BRANCH  31  44
HETATM   44  C4  UNL     1      -3.091   2.410  -1.348  1.00  0.00     0.262 C 
HETATM   45  N2  UNL     1      -3.125   3.427  -0.384  1.00  0.00    -0.060 NA
HETATM   46  O1  UNL     1      -3.432   2.722  -2.548  1.00  0.00    -0.274 OA
ENDBRANCH  31  44
ENDBRANCH   1  31
TORSDOF 9
