REMARK  15 active torsions:
REMARK  status: ('A' for Active; 'I' for Inactive)
REMARK    1  A    between atoms: O1_2  and  C2_3 
REMARK    2  A    between atoms: C2_3  and  O2_4 
REMARK    3  A    between atoms: C2_3  and  C3_6 
REMARK    4  A    between atoms: C3_6  and  N1_7 
REMARK    5  A    between atoms: C3_6  and  C4_11 
REMARK    6  A    between atoms: C4_11  and  C5_12 
REMARK    7  A    between atoms: C7_14  and  N2_15 
REMARK    8  A    between atoms: N3_17  and  C8_19 
REMARK    9  A    between atoms: C9_20  and  O3_21 
REMARK   10  A    between atoms: N5_27  and  N6_28 
REMARK   11  A    between atoms: N7_33  and  C12_34 
REMARK   12  A    between atoms: C12_34  and  O6_35 
REMARK   13  A    between atoms: C12_34  and  C13_37 
REMARK   14  A    between atoms: C13_37  and  N8_39 
REMARK   15  A    between atoms: C13_37  and  O7_43 
ROOT
HETATM    1  C5  UNL     1      -1.218   0.611   0.026  1.00  0.00    -0.012 A 
HETATM    2  C6  UNL     1       0.056   1.181   0.154  1.00  0.00     0.047 A 
HETATM    3  C7  UNL     1       1.120   0.333   0.002  1.00  0.00     0.117 A 
HETATM    4  C11 UNL     1       0.943  -1.016  -0.264  1.00  0.00     0.283 A 
HETATM    5  O5  UNL     1       1.993  -1.670  -0.379  1.00  0.00    -0.265 OA
HETATM    6  N7  UNL     1      -0.274  -1.580  -0.390  1.00  0.00    -0.243 N 
HETATM    7  C15 UNL     1      -1.340  -0.728  -0.237  1.00  0.00     0.134 A 
HETATM    8  N9  UNL     1      -2.665  -1.214  -0.372  1.00  0.00    -0.081 NA
ENDROOT
BRANCH   3   9
HETATM    9  N2  UNL     1       2.438   0.853   0.117  1.00  0.00    -0.294 N 
HETATM   10  N3  UNL     1       3.380   0.449  -0.653  1.00  0.00    -0.280 N 
ATOM     11  H3  UNL     1       3.171  -0.258  -1.358  1.00  0.00     0.188 HD
ATOM     12  H2  UNL     1       2.638   1.560   0.825  1.00  0.00     0.187 HD
BRANCH  10  13
HETATM   13  C8  UNL     1       4.705   0.952  -0.558  1.00  0.00     0.197 A 
HETATM   14  C9  UNL     1       5.547   1.086  -1.649  1.00  0.00     0.192 A 
HETATM   15  N4  UNL     1       6.688   1.584  -1.170  1.00  0.00    -0.284 N 
HETATM   16  C10 UNL     1       6.567   1.753   0.157  1.00  0.00     0.349 A 
ATOM     17  H4  UNL     1       7.518   1.801  -1.722  1.00  0.00     0.172 HD
HETATM   18  O4  UNL     1       7.442   2.204   0.957  1.00  0.00    -0.245 OA
HETATM   19  N5  UNL     1       5.329   1.362   0.560  1.00  0.00    -0.190 N 
BRANCH  14  20
HETATM   20  O3  UNL     1       5.273   0.770  -2.982  1.00  0.00    -0.343 OA
ATOM     21  H3  UNL     1       5.851   0.862  -3.731  1.00  0.00     0.219 HD
ENDBRANCH  14  20
BRANCH  19  22
HETATM   22  N6  UNL     1       4.820   1.385   1.865  1.00  0.00    -0.333 N 
ATOM     23  H62 UNL     1       3.891   1.092   2.167  1.00  0.00     0.177 HD
ATOM     24  H61 UNL     1       5.293   1.696   2.713  1.00  0.00     0.177 HD
ENDBRANCH  19  22
ENDBRANCH  10  13
ENDBRANCH   3   9
BRANCH   1  25
HETATM   25  C4  UNL     1      -2.374   1.502   0.217  1.00  0.00     0.080 C 
BRANCH  25  26
HETATM   26  C3  UNL     1      -2.948   1.603   1.571  1.00  0.00     0.242 C 
BRANCH  26  27
HETATM   27  C2  UNL     1      -4.125   2.595   1.453  1.00  0.00     0.286 C 
BRANCH  27  28
HETATM   28  O1  UNL     1      -3.736   3.773   0.876  1.00  0.00    -0.364 OA
HETATM   29  C1  UNL     1      -4.339   4.054  -0.340  1.00  0.00     0.204 C 
ENDBRANCH  27  28
BRANCH  27  30
HETATM   30  O2  UNL     1      -4.725   2.767   2.701  1.00  0.00    -0.369 OA
ATOM     31  H2  UNL     1      -4.995   1.949   3.102  1.00  0.00     0.212 HD
ENDBRANCH  27  30
ENDBRANCH  26  27
BRANCH  26  32
HETATM   32  N1  UNL     1      -3.481   0.441   2.173  1.00  0.00    -0.070 N 
ATOM     33  H13 UNL     1      -3.953   0.621   3.059  1.00  0.00     0.274 HD
ATOM     34  H12 UNL     1      -4.288   0.059   1.679  1.00  0.00     0.274 HD
ATOM     35  H11 UNL     1      -2.703  -0.214   2.251  1.00  0.00     0.274 HD
ENDBRANCH  26  32
ENDBRANCH  25  26
ENDBRANCH   1  25
BRANCH   6  36
HETATM   36  C12 UNL     1      -0.535  -2.931  -0.649  1.00  0.00     0.191 C 
BRANCH  36  37
HETATM   37  O6  UNL     1      -1.809  -3.217  -0.829  1.00  0.00    -0.345 OA
ATOM     38  H6  UNL     1      -1.986  -4.134  -1.005  1.00  0.00     0.219 HD
ENDBRANCH  36  37
BRANCH  36  39
HETATM   39  C13 UNL     1       0.275  -4.120  -0.769  1.00  0.00     0.284 C 
HETATM   40  C14 UNL     1       0.010  -4.649  -2.209  1.00  0.00     0.088 C 
BRANCH  39  41
HETATM   41  N8  UNL     1      -0.393  -5.143   0.101  1.00  0.00    -0.039 N 
ATOM     42  H83 UNL     1      -0.533  -4.836   1.064  1.00  0.00     0.278 HD
ATOM     43  H82 UNL     1      -1.377  -5.292  -0.121  1.00  0.00     0.278 HD
ATOM     44  H81 UNL     1       0.179  -5.983   0.016  1.00  0.00     0.278 HD
ENDBRANCH  39  41
BRANCH  39  45
HETATM   45  O7  UNL     1       1.591  -4.120  -0.500  1.00  0.00    -0.359 OA
ATOM     46  H7  UNL     1       2.124  -4.902  -0.579  1.00  0.00     0.213 HD
ENDBRANCH  39  45
ENDBRANCH  36  39
ENDBRANCH   6  36
TORSDOF 15
