REMARK  11 active torsions:
REMARK  status: ('A' for Active; 'I' for Inactive)
REMARK    1  A    between atoms: N2_5  and  C3_6 
REMARK    2  A    between atoms: N5_11  and  N6_12 
REMARK    3  A    between atoms: N6_12  and  N7_14 
REMARK    4  A    between atoms: N7_14  and  N8_15 
REMARK       I    between atoms: N8_15  and  C4_17 
REMARK    5  A    between atoms: N10_19  and  N11_21 
REMARK    6  A    between atoms: C5_24  and  C6_25 
REMARK    7  A    between atoms: N13_27  and  N14_29 
REMARK    8  A    between atoms: C7_34  and  C8_35 
REMARK    9  A    between atoms: C8_35  and  S1_36 
REMARK   10  A    between atoms: S1_36  and  C9_37 
REMARK   11  A    between atoms: C10_40  and  N17_41 
ROOT
HETATM    1  C3  UNL     1      -0.436  -0.616   1.307  1.00  0.00     0.195 A 
HETATM    2  N3  UNL     1      -0.966  -1.210   2.444  1.00  0.00    -0.264 N 
ATOM      3  H3  UNL     1      -0.573  -2.008   2.943  1.00  0.00     0.190 HD
HETATM    4  N4  UNL     1      -2.059  -0.564   2.762  1.00  0.00    -0.217 N 
ATOM      5  H4  UNL     1      -2.664  -0.778   3.555  1.00  0.00     0.210 HD
HETATM    6  N5  UNL     1      -2.257   0.432   1.871  1.00  0.00    -0.148 N 
HETATM    7  C5  UNL     1      -1.285   0.419   0.988  1.00  0.00     0.169 A 
ENDROOT
BRANCH   1   8
HETATM    8  N2  UNL     1       0.705  -1.120   0.651  1.00  0.00    -0.175 N 
HETATM    9  N1  UNL     1       0.707  -1.899  -0.458  1.00  0.00    -0.280 N 
HETATM   10  C2  UNL     1       1.916  -2.299  -0.751  1.00  0.00     0.049 A 
ATOM     11  H1  UNL     1      -0.126  -2.141  -0.994  1.00  0.00     0.189 HD
HETATM   12  C1  UNL     1       2.303  -3.161  -1.878  1.00  0.00     0.072 C 
HETATM   13  C7  UNL     1       2.760  -1.747   0.231  1.00  0.00     0.061 A 
HETATM   14  N15 UNL     1       1.960  -1.051   1.032  1.00  0.00    -0.279 N 
ATOM     15  H15 UNL     1       2.282  -0.526   1.845  1.00  0.00     0.189 HD
BRANCH  13  16
HETATM   16  C8  UNL     1       4.172  -2.172   0.271  1.00  0.00     0.143 C 
BRANCH  16  17
HETATM   17  S1  UNL     1       5.282  -1.377   1.390  1.00  0.00    -0.078 SA
BRANCH  17  18
HETATM   18  C9  UNL     1       6.243  -0.143   0.563  1.00  0.00     0.223 A 
HETATM   19  N16 UNL     1       6.021   1.127   0.355  1.00  0.00    -0.161 N 
HETATM   20  C10 UNL     1       7.061   1.627  -0.332  1.00  0.00     0.698 A 
ATOM     21  H16 UNL     1       5.200   1.649   0.661  1.00  0.00     0.187 HD
HETATM   22  N18 UNL     1       7.935   0.615  -0.541  1.00  0.00    -0.089 N 
HETATM   23  O1  UNL     1       7.430  -0.428  -0.001  1.00  0.00    -0.197 OA
ATOM     24  H18 UNL     1       8.826   0.673  -1.035  1.00  0.00     0.213 HD
BRANCH  20  25
HETATM   25  N17 UNL     1       7.221   2.824  -0.737  1.00  0.00    -0.233 N 
ATOM     26 2H17 UNL     1       6.562   3.587  -0.579  1.00  0.00     0.174 HD
ATOM     27 1H17 UNL     1       8.011   3.204  -1.259  1.00  0.00     0.174 HD
ENDBRANCH  20  25
ENDBRANCH  17  18
ENDBRANCH  16  17
ENDBRANCH  13  16
ENDBRANCH   1   8
BRANCH   7  28
HETATM   28  C6  UNL     1      -1.088   1.328  -0.135  1.00  0.00     0.165 C 
HETATM   29  N12 UNL     1       0.077   1.106  -0.993  1.00  0.00    -0.079 NA
HETATM   30  N13 UNL     1      -1.753   2.290  -0.498  1.00  0.00    -0.292 N 
ATOM     31  H13 UNL     1      -1.269   2.637  -1.326  1.00  0.00     0.187 HD
BRANCH  30  32
HETATM   32  N14 UNL     1      -2.777   3.098  -0.354  1.00  0.00    -0.344 N 
ATOM     33 2H14 UNL     1      -3.234   2.723   0.478  1.00  0.00     0.176 HD
ATOM     34 1H14 UNL     1      -3.331   3.899  -0.656  1.00  0.00     0.176 HD
ENDBRANCH  30  32
ENDBRANCH   7  28
BRANCH   6  35
HETATM   35  N6  UNL     1      -3.429   1.215   1.993  1.00  0.00    -0.132 N 
ATOM     36  H6  UNL     1      -3.387   2.169   2.352  1.00  0.00     0.228 HD
BRANCH  35  37
HETATM   37  N7  UNL     1      -4.462   0.731   1.666  1.00  0.00    -0.216 NA
BRANCH  37  38
HETATM   38  N8  UNL     1      -5.592   0.227   1.318  1.00  0.00    -0.184 N 
HETATM   39  C4  UNL     1      -6.494   0.777   0.338  1.00  0.00     0.233 C 
HETATM   40  N9  UNL     1      -6.413   2.197   0.133  1.00  0.00    -0.060 NA
HETATM   41  N10 UNL     1      -7.329   0.096  -0.315  1.00  0.00    -0.278 N 
ATOM     42  H10 UNL     1      -7.924   0.583  -0.985  1.00  0.00     0.189 HD
ATOM     43  H8  UNL     1      -5.875  -0.639   1.776  1.00  0.00     0.207 HD
BRANCH  41  44
HETATM   44  N11 UNL     1      -7.488  -1.256  -0.181  1.00  0.00    -0.343 N 
ATOM     45 2H11 UNL     1      -6.885  -1.727   0.494  1.00  0.00     0.176 HD
ATOM     46 1H11 UNL     1      -8.164  -1.807  -0.710  1.00  0.00     0.176 HD
ENDBRANCH  41  44
ENDBRANCH  37  38
ENDBRANCH  35  37
ENDBRANCH   6  35
TORSDOF 11
