REMARK  1 active torsions:
REMARK  status: ('A' for Active; 'I' for Inactive)
REMARK    1  A    between atoms: O1_2  and  C2_3 
REMARK       I    between atoms: N1_6  and  C5_7 
REMARK       I    between atoms: C5_7  and  N2_8 
REMARK       I    between atoms: C5_7  and  N3_12 
ROOT
HETATM    1  C2  UNL     1      -1.380  -0.009   0.319  1.00  0.00     0.151 C 
HETATM    2  C3  UNL     1      -0.871  -1.405   0.635  1.00  0.00     0.064 C 
HETATM    3  C4  UNL     1       0.495  -1.482   0.026  1.00  0.00     0.280 C 
HETATM    4  N1  UNL     1       0.881  -0.187  -0.392  1.00  0.00     0.149 N 
HETATM    5  C5  UNL     1       2.178   0.240   0.028  1.00  0.00     0.612 C 
HETATM    6  N2  UNL     1       2.379   1.579  -0.500  1.00  0.00    -0.024 N 
ATOM      7  H21 UNL     1       3.305   1.884  -0.200  1.00  0.00     0.279 HD
ATOM      8  H22 UNL     1       1.639   2.229  -0.235  1.00  0.00     0.279 HD
ATOM      9  H23 UNL     1       2.247   1.635  -1.510  1.00  0.00     0.279 HD
HETATM   10  N3  UNL     1       3.177  -0.683  -0.472  1.00  0.00    -0.024 N 
ATOM     11  H31 UNL     1       4.103  -0.378  -0.172  1.00  0.00     0.279 HD
ATOM     12  H32 UNL     1       3.119  -0.802  -1.483  1.00  0.00     0.279 HD
ATOM     13  H33 UNL     1       2.982  -1.646  -0.200  1.00  0.00     0.279 HD
HETATM   14  C6  UNL     1      -0.170   0.737  -0.198  1.00  0.00     0.309 C 
ENDROOT
BRANCH   1  15
HETATM   15  O1  UNL     1      -2.381  -0.055  -0.640  1.00  0.00    -0.389 OA
HETATM   16  C1  UNL     1      -3.504   0.592  -0.133  1.00  0.00     0.202 C 
ENDBRANCH   1  15
TORSDOF 1
