REMARK  2 active torsions:
REMARK  status: ('A' for Active; 'I' for Inactive)
REMARK    1  A    between atoms: N1_3  and  C3_4 
REMARK    2  A    between atoms: C3_4  and  C4_5 
ROOT
HETATM    1  C1  UNL     1      -1.734  -1.046  -1.421  1.00  0.00     0.252 C 
HETATM    2  C2  UNL     1      -0.912  -1.245  -0.128  1.00  0.00     0.149 C 
HETATM    3  N1  UNL     1      -0.604   0.011   0.379  1.00  0.00    -0.390 N 
HETATM    4  C7  UNL     1      -1.726   0.859   0.722  1.00  0.00     0.149 C 
HETATM    5  C8  UNL     1      -2.981   0.141   0.270  1.00  0.00     0.252 C 
HETATM    6  N3  UNL     1      -2.877  -0.243  -1.117  1.00  0.00    -0.072 N 
ATOM      7  H31 UNL     1      -3.731  -0.709  -1.423  1.00  0.00     0.277 HD
ATOM      8  H32 UNL     1      -2.904   0.581  -1.718  1.00  0.00     0.277 HD
ENDROOT
BRANCH   3   9
HETATM    9  C3  UNL     1       0.627   0.416   0.856  1.00  0.00     0.066 C 
BRANCH   9  10
HETATM   10  C4  UNL     1       1.676   0.574  -0.200  1.00  0.00     0.075 C 
HETATM   11  C5  UNL     1       3.011   1.096   0.393  1.00  0.00     0.243 C 
HETATM   12  N2  UNL     1       3.363  -0.269   0.624  1.00  0.00    -0.074 N 
HETATM   13  C6  UNL     1       2.549  -0.602  -0.524  1.00  0.00     0.243 C 
ATOM     14  H22 UNL     1       4.339  -0.560   0.682  1.00  0.00     0.277 HD
ATOM     15  H21 UNL     1       3.204  -0.709   1.530  1.00  0.00     0.277 HD
ENDBRANCH   9  10
ENDBRANCH   3   9
TORSDOF 2
