REMARK  4 active torsions:
REMARK  status: ('A' for Active; 'I' for Inactive)
REMARK    1  A    between atoms: C2_2  and  C3_3 
REMARK    2  A    between atoms: C3_3  and  N1_4 
REMARK    3  A    between atoms: C5_6  and  N2_7 
REMARK    4  A    between atoms: C7_12  and  O1_13 
ROOT
HETATM    1  N1  UNL     1      -0.245  -0.367   0.429  1.00  0.00     0.092 N 
HETATM    2  C4  UNL     1       0.755  -1.318   0.078  1.00  0.00     0.305 C 
HETATM    3  C5  UNL     1       1.905  -0.595  -0.574  1.00  0.00     0.214 C 
HETATM    4  C6  UNL     1       2.480   0.300   0.499  1.00  0.00     0.068 C 
HETATM    5  C7  UNL     1       1.433   1.324   0.816  1.00  0.00     0.148 C 
HETATM    6  C8  UNL     1       0.091   1.008   0.246  1.00  0.00     0.303 C 
ENDROOT
BRANCH   3   7
HETATM    7  N2  UNL     1       2.928  -1.430  -1.094  1.00  0.00    -0.073 N 
ATOM      8  H23 UNL     1       3.274  -2.055  -0.366  1.00  0.00     0.274 HD
ATOM      9  H22 UNL     1       2.530  -2.111  -1.741  1.00  0.00     0.274 HD
ATOM     10  H21 UNL     1       3.706  -0.941  -1.535  1.00  0.00     0.274 HD
ENDBRANCH   3   7
BRANCH   1  11
HETATM   11  C3  UNL     1      -1.517  -0.754  -0.086  1.00  0.00     0.272 C 
BRANCH  11  12
HETATM   12  C2  UNL     1      -2.594   0.273   0.113  1.00  0.00     0.026 C 
HETATM   13  C1  UNL     1      -3.881  -0.302  -0.480  1.00  0.00     0.007 C 
ENDBRANCH  11  12
ENDBRANCH   1  11
BRANCH   5  14
HETATM   14  O1  UNL     1       1.798   2.609   0.372  1.00  0.00    -0.394 OA
ATOM     15  H1  UNL     1       1.134   3.258   0.573  1.00  0.00     0.210 HD
ENDBRANCH   5  14
TORSDOF 4
