REMARK  1 active torsions:
REMARK  status: ('A' for Active; 'I' for Inactive)
REMARK    1  A    between atoms: C2_2  and  C3_3 
ROOT
HETATM    1  C3  UNL     1      -0.148   0.372  -0.132  1.00  0.00     0.086 C 
HETATM    2  C4  UNL     1      -0.995   0.614  -1.378  1.00  0.00     0.046 C 
HETATM    3  N1  UNL     1       0.921   1.300  -0.144  1.00  0.00    -0.355 N 
ATOM      4  H1  UNL     1       0.704   2.235  -0.488  1.00  0.00     0.162 HD
HETATM    5  C5  UNL     1       2.252   1.078   0.265  1.00  0.00     0.140 C 
HETATM    6  N2  UNL     1       3.185   1.890  -0.064  1.00  0.00    -0.380 N 
ATOM      7  H21 UNL     1       4.148   1.729   0.232  1.00  0.00     0.158 HD
ATOM      8  H22 UNL     1       3.005   2.721  -0.628  1.00  0.00     0.158 HD
HETATM    9  S1  UNL     1       2.569  -0.384   1.258  1.00  0.00    -0.039 SA
HETATM   10  C6  UNL     1       1.158  -1.461   0.940  1.00  0.00     0.088 C 
HETATM   11  N3  UNL     1       1.038  -2.525   1.653  1.00  0.00    -0.394 N 
ATOM     12  H31 UNL     1       0.240  -3.134   1.473  1.00  0.00     0.156 HD
ATOM     13  H32 UNL     1       1.691  -2.799   2.387  1.00  0.00     0.156 HD
HETATM   14  C7  UNL     1       0.222  -1.069  -0.112  1.00  0.00     0.213 C 
HETATM   15  C8  UNL     1      -1.018  -1.842   0.111  1.00  0.00     0.094 C 
HETATM   16  N4  UNL     1      -1.982  -2.462   0.291  1.00  0.00    -0.195 NA
HETATM   17  C9  UNL     1       0.779  -1.409  -1.433  1.00  0.00     0.094 C 
HETATM   18  N5  UNL     1       1.203  -1.685  -2.477  1.00  0.00    -0.195 NA
ENDROOT
BRANCH   1  19
HETATM   19  C2  UNL     1      -1.006   0.650   1.053  1.00  0.00    -0.004 C 
HETATM   20  C1  UNL     1      -2.317   0.723   0.974  1.00  0.00     0.009 C 
ENDBRANCH   1  19
TORSDOF 1
