REMARK  3 active torsions:
REMARK  status: ('A' for Active; 'I' for Inactive)
REMARK    1  A    between atoms: C2_3  and  O1_4 
REMARK    2  A    between atoms: C9_12  and  N2_13 
REMARK    3  A    between atoms: C9_12  and  O2_17 
ROOT
HETATM    1  N1  UNL     1       1.704   0.982   3.514  1.00  0.00    -0.189 NA
HETATM    2  C1  UNL     1       2.081   0.820   2.408  1.00  0.00     0.125 C 
HETATM    3  C2  UNL     1       2.567   0.622   1.089  1.00  0.00     0.155 C 
HETATM    4  C3  UNL     1       1.775   0.420   0.087  1.00  0.00     0.009 C 
HETATM    5  C4  UNL     1       2.267   0.208  -1.312  1.00  0.00     0.044 C 
HETATM    6  C5  UNL     1       1.718  -1.067  -1.900  1.00  0.00     0.006 C 
HETATM    7  C6  UNL     1       0.431  -1.531  -1.329  1.00  0.00     0.011 C 
HETATM    8  C7  UNL     1      -0.418  -0.450  -0.754  1.00  0.00     0.040 C 
HETATM    9  C8  UNL     1      -1.608  -0.985  -0.009  1.00  0.00     0.080 C 
HETATM   10  C9  UNL     1      -2.447   0.259   0.319  1.00  0.00     0.238 C 
HETATM   11  C10 UNL     1      -1.704   1.034   1.355  1.00  0.00     0.188 C 
HETATM   12  N3  UNL     1      -0.275   1.038   1.167  1.00  0.00    -0.388 N 
ATOM     13  H3  UNL     1       0.289   1.592   1.811  1.00  0.00     0.159 HD
HETATM   14  C11 UNL     1       0.335   0.389   0.241  1.00  0.00     0.019 C 
ENDROOT
BRANCH   3  15
HETATM   15  O1  UNL     1       3.965   0.654   0.912  1.00  0.00    -0.351 OA
ATOM     16  H1  UNL     1       4.290   0.521   0.029  1.00  0.00     0.218 HD
ENDBRANCH   3  15
BRANCH  10  17
HETATM   17  N2  UNL     1      -3.732  -0.193   0.718  1.00  0.00    -0.045 N 
ATOM     18  H23 UNL     1      -4.173  -0.801   0.028  1.00  0.00     0.278 HD
ATOM     19  H22 UNL     1      -3.698  -0.865   1.484  1.00  0.00     0.278 HD
ATOM     20  H21 UNL     1      -4.289   0.633   0.936  1.00  0.00     0.278 HD
ENDBRANCH  10  17
BRANCH  10  21
HETATM   21  O2  UNL     1      -2.550   1.065  -0.833  1.00  0.00    -0.364 OA
ATOM     22  H2  UNL     1      -3.069   1.834  -0.630  1.00  0.00     0.212 HD
ENDBRANCH  10  21
TORSDOF 3
