REMARK  2 active torsions:
REMARK  status: ('A' for Active; 'I' for Inactive)
REMARK    1  A    between atoms: C6_12  and  N4_13 
REMARK    2  A    between atoms: C7_16  and  C8_17 
ROOT
HETATM    1  C8  UNL     1       1.288   2.280  -0.317  1.00  0.00     0.160 C 
HETATM    2  C9  UNL     1       2.530   2.547  -0.947  1.00  0.00     0.114 C 
HETATM    3  N5  UNL     1       3.540   2.804  -1.459  1.00  0.00    -0.191 NA
HETATM    4  C10 UNL     1       0.563   3.510   0.060  1.00  0.00     0.114 C 
HETATM    5  N6  UNL     1      -0.018   4.457   0.364  1.00  0.00    -0.191 NA
ENDROOT
BRANCH   1   6
HETATM    6  C7  UNL     1       0.715   1.152  -0.032  1.00  0.00     0.133 C 
HETATM    7  C5  UNL     1       1.230  -0.174  -0.299  1.00  0.00     0.114 A 
HETATM    8  C4  UNL     1       0.542  -1.348   0.044  1.00  0.00     0.107 A 
HETATM    9  N2  UNL     1       2.353  -0.620  -0.870  1.00  0.00    -0.294 N 
HETATM   10  N1  UNL     1      -0.725  -1.180   0.686  1.00  0.00    -0.354 N 
HETATM   11  C6  UNL     1       1.273  -2.456  -0.332  1.00  0.00     0.143 A 
HETATM   12  C2  UNL     1      -1.432   0.083   0.599  1.00  0.00     0.133 C 
ATOM     13  H1  UNL     1      -1.134  -1.954   1.209  1.00  0.00     0.163 HD
HETATM   14  C1  UNL     1      -2.210   0.161  -0.718  1.00  0.00     0.071 C 
HETATM   15  C3  UNL     1      -2.415   0.244   1.715  1.00  0.00     0.071 C 
HETATM   16  O1  UNL     1      -0.549   1.174   0.609  1.00  0.00    -0.316 OA
HETATM   17  N3  UNL     1       2.382  -1.963  -0.890  1.00  0.00    -0.283 N 
ATOM     18  H3  UNL     1       3.141  -2.525  -1.275  1.00  0.00     0.188 HD
ATOM     19  H2  UNL     1       3.090  -0.021  -1.241  1.00  0.00     0.187 HD
BRANCH  11  20
HETATM   20  N4  UNL     1       0.935  -3.690  -0.166  1.00  0.00    -0.383 N 
ATOM     21  H42 UNL     1       0.088  -4.066   0.260  1.00  0.00     0.157 HD
ATOM     22  H41 UNL     1       1.475  -4.509  -0.444  1.00  0.00     0.157 HD
ENDBRANCH  11  20
ENDBRANCH   1   6
TORSDOF 2
