REMARK  8 active torsions:
REMARK  status: ('A' for Active; 'I' for Inactive)
REMARK    1  A    between atoms: N2_5  and  C3_6 
REMARK    2  A    between atoms: C5_8  and  C6_9 
REMARK    3  A    between atoms: C9_12  and  O1_13 
REMARK    4  A    between atoms: C11_15  and  O2_16 
REMARK    5  A    between atoms: C15_21  and  C16_22 
REMARK    6  A    between atoms: C16_22  and  C17_23 
REMARK    7  A    between atoms: C18_24  and  O4_25 
REMARK    8  A    between atoms: C22_32  and  O5_33 
ROOT
HETATM    1  C6  UNL     1      -4.884  -1.242  -1.906  1.00  0.00    -0.064 C 
HETATM    2  C7  UNL     1      -5.332  -1.985  -2.742  1.00  0.00    -0.105 C 
HETATM    3  C8  UNL     1      -5.868  -2.914  -3.749  1.00  0.00     0.112 C 
ENDROOT
BRANCH   1   4
HETATM    4  C5  UNL     1      -4.323  -0.354  -0.909  1.00  0.00     0.056 A 
HETATM    5  C4  UNL     1      -2.956  -0.248  -0.727  1.00  0.00     0.055 A 
HETATM    6  C3  UNL     1      -2.395   0.588   0.214  1.00  0.00     0.064 A 
HETATM    7  C13 UNL     1      -3.246   1.349   1.001  1.00  0.00     0.071 A 
HETATM    8  C11 UNL     1      -4.596   1.277   0.857  1.00  0.00     0.105 A 
HETATM    9  C9  UNL     1      -5.116   0.426  -0.097  1.00  0.00     0.120 A 
BRANCH   6  10
HETATM   10  N2  UNL     1      -0.997   0.720   0.431  1.00  0.00    -0.219 N 
HETATM   11  N1  UNL     1      -0.218   1.743   0.150  1.00  0.00    -0.291 N 
HETATM   12  C2  UNL     1       1.065   1.490   0.509  1.00  0.00     0.055 A 
ATOM     13  H1  UNL     1      -0.537   2.611  -0.281  1.00  0.00     0.187 HD
HETATM   14  C1  UNL     1       2.020   2.378   0.318  1.00  0.00     0.045 C 
HETATM   15  C15 UNL     1       1.118   0.239   1.050  1.00  0.00     0.062 A 
HETATM   16  C14 UNL     1      -0.215  -0.214   0.980  1.00  0.00     0.279 A 
HETATM   17  O3  UNL     1      -0.640  -1.332   1.371  1.00  0.00    -0.265 OA
BRANCH  15  18
HETATM   18  C16 UNL     1       2.109  -0.420   1.532  1.00  0.00     0.036 C 
BRANCH  18  19
HETATM   19  C17 UNL     1       3.496  -0.117   1.687  1.00  0.00     0.028 A 
HETATM   20  C18 UNL     1       4.102   0.489   2.785  1.00  0.00     0.151 A 
HETATM   21  N3  UNL     1       5.411   0.555   2.539  1.00  0.00    -0.336 N 
HETATM   22  C19 UNL     1       5.670   0.020   1.338  1.00  0.00     0.045 A 
ATOM     23  H3  UNL     1       6.108   0.952   3.169  1.00  0.00     0.168 HD
HETATM   24  C20 UNL     1       6.838  -0.158   0.621  1.00  0.00     0.033 A 
HETATM   25  C25 UNL     1       4.503  -0.418   0.759  1.00  0.00     0.008 A 
HETATM   26  C21 UNL     1       6.812  -0.753  -0.622  1.00  0.00     0.039 A 
HETATM   27  C22 UNL     1       5.637  -1.188  -1.192  1.00  0.00     0.069 A 
HETATM   28  C24 UNL     1       4.460  -1.017  -0.489  1.00  0.00     0.051 A 
BRANCH  20  29
HETATM   29  O4  UNL     1       3.414   0.936   3.928  1.00  0.00    -0.345 OA
ATOM     30  H4  UNL     1       3.827   1.349   4.677  1.00  0.00     0.219 HD
ENDBRANCH  20  29
BRANCH  27  31
HETATM   31  O5  UNL     1       5.602  -1.793  -2.455  1.00  0.00    -0.356 OA
HETATM   32  C23 UNL     1       6.810  -1.954  -3.146  1.00  0.00     0.210 C 
ENDBRANCH  27  31
ENDBRANCH  18  19
ENDBRANCH  15  18
ENDBRANCH   6  10
BRANCH   8  33
HETATM   33  O2  UNL     1      -5.449   2.032   1.640  1.00  0.00    -0.353 OA
HETATM   34  C12 UNL     1      -4.919   2.904   2.617  1.00  0.00     0.210 C 
ENDBRANCH   8  33
BRANCH   9  35
HETATM   35  O1  UNL     1      -6.494   0.350  -0.248  1.00  0.00    -0.352 OA
HETATM   36  C10 UNL     1      -7.168  -0.621   0.537  1.00  0.00     0.210 C 
ENDBRANCH   9  35
ENDBRANCH   1   4
TORSDOF 8
