REMARK  2 active torsions:
REMARK  status: ('A' for Active; 'I' for Inactive)
REMARK    1  A    between atoms: C3_3  and  N1_4 
REMARK    2  A    between atoms: N4_12  and  C8_13 
ROOT
HETATM    1  C1  UNL     1       0.819   0.182   1.896  1.00  0.00     0.072 C 
HETATM    2  C2  UNL     1       0.842   0.058   0.443  1.00  0.00     0.059 A 
HETATM    3  C3  UNL     1      -0.224  -0.043  -0.433  1.00  0.00     0.093 A 
HETATM    4  C6  UNL     1       0.334  -0.144  -1.708  1.00  0.00     0.157 A 
HETATM    5  C7  UNL     1      -0.332  -0.269  -2.966  1.00  0.00     0.121 C 
HETATM    6  N2  UNL     1      -0.841  -0.372  -4.005  1.00  0.00    -0.190 NA
HETATM    7  N3  UNL     1       1.691  -0.100  -1.548  1.00  0.00    -0.283 N 
ATOM      8  H3  UNL     1       2.372  -0.152  -2.305  1.00  0.00     0.188 HD
HETATM    9  N4  UNL     1       1.987   0.019  -0.274  1.00  0.00    -0.241 N 
ENDROOT
BRANCH   3  10
HETATM   10  N1  UNL     1      -1.590  -0.040  -0.146  1.00  0.00    -0.386 N 
HETATM   11  C4  UNL     1      -2.594  -0.169  -1.215  1.00  0.00     0.149 C 
HETATM   12  C5  UNL     1      -2.105   0.089   1.191  1.00  0.00     0.149 C 
ENDBRANCH   3  10
BRANCH   9  13
HETATM   13  C8  UNL     1       3.318   0.096   0.222  1.00  0.00     0.286 C 
HETATM   14 CL1  UNL     1       3.650   1.500   1.252  1.00  0.00    -0.059 Cl
HETATM   15 CL2  UNL     1       4.508   0.232  -1.130  1.00  0.00    -0.059 Cl
HETATM   16 CL3  UNL     1       3.724  -1.419   1.052  1.00  0.00    -0.059 Cl
ENDBRANCH   9  13
TORSDOF 2
