REMARK  1 active torsions:
REMARK  status: ('A' for Active; 'I' for Inactive)
REMARK    1  A    between atoms: C4_10  and  C5_11 
ROOT
HETATM    1  C1  UNL     1      -3.455   0.345   1.015  1.00  0.00     0.064 C 
HETATM    2  C2  UNL     1      -1.957   0.278   0.812  1.00  0.00     0.004 A 
HETATM    3  N1  UNL     1      -1.189   0.246   1.814  1.00  0.00    -0.198 N 
ATOM      4  H1  UNL     1      -1.601   0.267   2.747  1.00  0.00     0.183 HD
HETATM    5  C3  UNL     1       0.211   0.182   1.696  1.00  0.00     0.702 A 
HETATM    6  N2  UNL     1       1.229   0.151   2.616  1.00  0.00    -0.130 N 
ATOM      7  H2  UNL     1       1.108   0.163   3.629  1.00  0.00     0.205 HD
HETATM    8  N3  UNL     1       2.388   0.104   1.988  1.00  0.00    -0.272 N 
ATOM      9  H3  UNL     1       3.309   0.073   2.426  1.00  0.00     0.189 HD
HETATM   10  C4  UNL     1       2.138   0.104   0.667  1.00  0.00     0.150 A 
HETATM   11  N4  UNL     1       0.785   0.153   0.491  1.00  0.00    -0.143 N 
HETATM   12  C6  UNL     1       0.039   0.164  -0.735  1.00  0.00     0.134 A 
HETATM   13  C7  UNL     1       0.337  -1.110  -1.541  1.00  0.00     0.058 C 
HETATM   14 CL3  UNL     1       0.532   1.525  -1.782  1.00  0.00    -0.094 Cl
HETATM   15  C8  UNL     1      -1.439   0.262  -0.564  1.00  0.00     0.101 A 
ENDROOT
BRANCH  10  16
HETATM   16  C5  UNL     1       3.169   0.063  -0.416  1.00  0.00     0.247 C 
HETATM   17 CL1  UNL     1       4.285   1.462  -0.208  1.00  0.00    -0.100 Cl
HETATM   18 CL2  UNL     1       4.177  -1.394  -0.183  1.00  0.00    -0.100 Cl
ENDBRANCH  10  16
TORSDOF 1
