REMARK  2 active torsions:
REMARK  status: ('A' for Active; 'I' for Inactive)
REMARK    1  A    between atoms: N1_2  and  C3_5 
REMARK    2  A    between atoms: C3_5  and  O1_6 
ROOT
HETATM    1  C1  UNL     1      -2.186   0.889  -1.052  1.00  0.00     0.171 C 
HETATM    2  N1  UNL     1      -1.931   0.013   0.029  1.00  0.00    -0.268 N 
HETATM    3  C2  UNL     1      -3.149  -0.453   0.729  1.00  0.00     0.185 C 
HETATM    4  N2  UNL     1      -4.069  -0.821   1.276  1.00  0.00    -0.172 NA
ENDROOT
BRANCH   2   5
HETATM    5  C3  UNL     1      -0.740  -0.462   0.522  1.00  0.00     0.170 C 
HETATM    6  C4  UNL     1       0.671  -0.373   0.283  1.00  0.00     0.081 A 
HETATM    7  S1  UNL     1       1.833  -1.259   1.291  1.00  0.00    -0.070 SA
HETATM    8  C7  UNL     1       1.524   0.242  -0.564  1.00  0.00     0.079 A 
HETATM    9  C5  UNL     1       3.273  -0.776   0.557  1.00  0.00     0.099 A 
HETATM   10 CL1  UNL     1       4.880  -1.283   1.050  1.00  0.00    -0.074 Cl
HETATM   11  C6  UNL     1       2.848   0.046  -0.435  1.00  0.00     0.086 A 
HETATM   12 CL2  UNL     1       4.107   0.783  -1.472  1.00  0.00    -0.080 Cl
HETATM   13 CL3  UNL     1       0.938   1.318  -1.859  1.00  0.00    -0.081 Cl
BRANCH   5  14
HETATM   14  O1  UNL     1      -0.973  -1.277   1.569  1.00  0.00    -0.344 OA
ATOM     15  H1  UNL     1      -0.149  -1.605   1.910  1.00  0.00     0.219 HD
ENDBRANCH   5  14
ENDBRANCH   2   5
TORSDOF 2
