REMARK  8 active torsions:
REMARK  status: ('A' for Active; 'I' for Inactive)
REMARK    1  A    between atoms: O1_2  and  C2_3 
REMARK    2  A    between atoms: C4_5  and  C5_6 
REMARK    3  A    between atoms: C12_13  and  O2_14 
REMARK    4  A    between atoms: C14_18  and  C15_19 
REMARK    5  A    between atoms: C15_19  and  O3_20 
REMARK    6  A    between atoms: C15_19  and  O4_22 
REMARK    7  A    between atoms: C21_31  and  O6_32 
REMARK    8  A    between atoms: C23_34  and  O7_35 
ROOT
HETATM    1  C5  UNL     1      -1.273  -1.363   0.251  1.00  0.00    -0.022 A 
HETATM    2  C6  UNL     1      -1.386  -2.694   0.497  1.00  0.00     0.013 A 
HETATM    3  C7  UNL     1      -0.264  -3.477   0.511  1.00  0.00     0.011 A 
HETATM    4  C8  UNL     1       0.975  -2.923   0.278  1.00  0.00    -0.023 A 
HETATM    5  C9  UNL     1       1.087  -1.550   0.025  1.00  0.00    -0.011 A 
HETATM    6  C10 UNL     1      -0.027  -0.767   0.010  1.00  0.00     0.025 A 
HETATM    7  C11 UNL     1       2.415  -0.970  -0.223  1.00  0.00     0.045 A 
HETATM    8  C12 UNL     1       2.548   0.364  -0.471  1.00  0.00     0.102 A 
HETATM    9  C13 UNL     1       3.835   0.872  -0.702  1.00  0.00     0.081 A 
HETATM   10 CL1  UNL     1       4.078   2.569  -1.039  1.00  0.00    -0.081 Cl
HETATM   11  C14 UNL     1       4.928   0.039  -0.676  1.00  0.00     0.045 A 
HETATM   12  C17 UNL     1       4.775  -1.304  -0.423  1.00  0.00     0.081 A 
HETATM   13 CL2  UNL     1       6.147  -2.393  -0.383  1.00  0.00    -0.081 Cl
HETATM   14  C18 UNL     1       3.505  -1.833  -0.191  1.00  0.00     0.105 A 
HETATM   15  O5  UNL     1       3.356  -3.175   0.060  1.00  0.00    -0.344 OA
HETATM   16  C19 UNL     1       2.147  -3.803   0.304  1.00  0.00     0.215 A 
ENDROOT
BRANCH   1  17
HETATM   17  C4  UNL     1      -2.476  -0.500   0.236  1.00  0.00     0.018 A 
HETATM   18  C3  UNL     1      -2.682   0.406  -0.784  1.00  0.00     0.055 A 
HETATM   19  C2  UNL     1      -3.785   1.226  -0.845  1.00  0.00     0.105 A 
HETATM   20  C23 UNL     1      -4.725   1.125   0.175  1.00  0.00     0.138 A 
HETATM   21  C21 UNL     1      -4.563   0.235   1.215  1.00  0.00     0.144 A 
HETATM   22  C20 UNL     1      -3.432  -0.567   1.225  1.00  0.00     0.163 A 
HETATM   23  F1  UNL     1      -3.295  -1.420   2.246  1.00  0.00    -0.202 F 
BRANCH  19  24
HETATM   24  O1  UNL     1      -4.005   2.143  -1.865  1.00  0.00    -0.353 OA
HETATM   25  C1  UNL     1      -3.030   2.222  -2.889  1.00  0.00     0.210 C 
ENDBRANCH  19  24
BRANCH  20  26
HETATM   26  O7  UNL     1      -5.849   1.933   0.151  1.00  0.00    -0.351 OA
HETATM   27  C24 UNL     1      -5.910   3.203   0.745  1.00  0.00     0.210 C 
ENDBRANCH  20  26
BRANCH  21  28
HETATM   28  O6  UNL     1      -5.539   0.186   2.199  1.00  0.00    -0.350 OA
HETATM   29  C22 UNL     1      -6.610  -0.741   1.962  1.00  0.00     0.210 C 
ENDBRANCH  21  28
ENDBRANCH   1  17
BRANCH   8  30
HETATM   30  O2  UNL     1       1.540   1.287  -0.523  1.00  0.00    -0.358 OA
ATOM     31  H2  UNL     1       1.633   2.217  -0.696  1.00  0.00     0.217 HD
ENDBRANCH   8  30
BRANCH  11  32
HETATM   32  C15 UNL     1       6.325   0.533  -0.904  1.00  0.00     0.294 C 
BRANCH  32  33
HETATM   33  O3  UNL     1       6.988  -0.320  -1.800  1.00  0.00    -0.367 OA
ATOM     34  H3  UNL     1       7.873  -0.007  -1.944  1.00  0.00     0.213 HD
ENDBRANCH  32  33
BRANCH  32  35
HETATM   35  O4  UNL     1       7.033   0.663   0.276  1.00  0.00    -0.362 OA
HETATM   36  C16 UNL     1       7.452   1.963   0.500  1.00  0.00     0.205 C 
ENDBRANCH  32  35
ENDBRANCH  11  32
TORSDOF 8
