REMARK  5 active torsions:
REMARK  status: ('A' for Active; 'I' for Inactive)
REMARK    1  A    between atoms: N3_6  and  C4_7 
REMARK    2  A    between atoms: C4_7  and  C5_8 
REMARK    3  A    between atoms: C4_7  and  C10_14 
REMARK    4  A    between atoms: C5_8  and  C6_9 
REMARK    5  A    between atoms: C12_16  and  C13_17 
ROOT
HETATM    1  N1  UNL     1      -1.327   4.448   4.155  1.00  0.00    -0.191 NA
HETATM    2  C1  UNL     1      -1.471   3.748   3.252  1.00  0.00     0.105 C 
HETATM    3  C2  UNL     1      -1.635   2.858   2.133  1.00  0.00     0.115 A 
HETATM    4  C3  UNL     1      -0.902   1.735   1.854  1.00  0.00     0.143 A 
HETATM    5  N2  UNL     1       0.168   1.277   2.684  1.00  0.00    -0.081 NA
HETATM    6  N3  UNL     1      -1.374   1.163   0.693  1.00  0.00    -0.321 N 
HETATM    7  C17 UNL     1      -2.399   1.931   0.255  1.00  0.00     0.065 A 
HETATM    8  C18 UNL     1      -3.245   1.859  -0.828  1.00  0.00     0.035 A 
HETATM    9  C19 UNL     1      -4.242   2.810  -1.038  1.00  0.00     0.044 A 
HETATM   10  C20 UNL     1      -4.384   3.844  -0.140  1.00  0.00     0.104 A 
HETATM   11 CL3  UNL     1      -5.642   5.058  -0.391  1.00  0.00    -0.065 Cl
HETATM   12  N6  UNL     1      -3.551   3.890   0.901  1.00  0.00    -0.344 N 
ATOM     13  H6  UNL     1      -3.662   4.660   1.561  1.00  0.00     0.167 HD
HETATM   14  C21 UNL     1      -2.576   2.998   1.145  1.00  0.00     0.085 A 
ENDROOT
BRANCH   6  15
HETATM   15  C4  UNL     1      -0.797  -0.021   0.169  1.00  0.00     0.143 C 
BRANCH  15  16
HETATM   16  C5  UNL     1      -1.479  -0.732  -0.936  1.00  0.00     0.038 C 
BRANCH  16  17
HETATM   17  C6  UNL     1      -0.675  -2.010  -1.304  1.00  0.00     0.014 C 
HETATM   18  C7  UNL     1      -1.456  -2.651  -2.432  1.00  0.00     0.033 C 
HETATM   19  C8  UNL     1      -1.300  -4.106  -2.109  1.00  0.00     0.168 C 
HETATM   20  O1  UNL     1      -1.163  -4.224  -0.751  1.00  0.00    -0.391 OA
HETATM   21  C9  UNL     1      -0.767  -3.027  -0.224  1.00  0.00     0.172 C 
ENDBRANCH  16  17
ENDBRANCH  15  16
BRANCH  15  22
HETATM   22  C10 UNL     1       0.665   0.179  -0.154  1.00  0.00     0.051 A 
HETATM   23  C11 UNL     1       1.771  -0.345   0.496  1.00  0.00     0.061 A 
HETATM   24  C12 UNL     1       2.886   0.088  -0.120  1.00  0.00     0.069 A 
HETATM   25  N4  UNL     1       2.485   0.870  -1.140  1.00  0.00    -0.299 N 
HETATM   26  N5  UNL     1       1.176   0.917  -1.151  1.00  0.00    -0.302 N 
ATOM     27  H4  UNL     1       3.101   1.348  -1.798  1.00  0.00     0.187 HD
ATOM     28  H5  UNL     1       0.621   1.443  -1.826  1.00  0.00     0.186 HD
BRANCH  24  29
HETATM   29  C13 UNL     1       4.324  -0.157   0.149  1.00  0.00     0.056 A 
HETATM   30  S1  UNL     1       5.662   0.476  -0.741  1.00  0.00    -0.096 SA
HETATM   31  C14 UNL     1       6.934  -0.224   0.136  1.00  0.00     0.076 A 
HETATM   32  C15 UNL     1       6.291  -0.935   1.103  1.00  0.00     0.063 A 
HETATM   33 CL1  UNL     1       7.254  -1.864   2.295  1.00  0.00    -0.082 Cl
HETATM   34  C16 UNL     1       4.940  -0.901   1.110  1.00  0.00     0.075 A 
HETATM   35 CL2  UNL     1       3.961  -1.790   2.324  1.00  0.00    -0.081 Cl
ENDBRANCH  24  29
ENDBRANCH  15  22
ENDBRANCH   6  15
TORSDOF 5
