REMARK  7 active torsions:
REMARK  status: ('A' for Active; 'I' for Inactive)
REMARK    1  A    between atoms: C7_8  and  O2_9 
REMARK    2  A    between atoms: C13_17  and  O4_18 
REMARK    3  A    between atoms: O4_18  and  C14_19 
REMARK    4  A    between atoms: C14_19  and  C15_21 
REMARK    5  A    between atoms: C16_22  and  O6_23 
REMARK    6  A    between atoms: C20_31  and  O7_32 
REMARK    7  A    between atoms: O7_32  and  C21_33 
ROOT
HETATM    1  C1  UNL     1      -1.193  -2.434   1.150  1.00  0.00     0.017 C 
HETATM    2  C2  UNL     1      -1.298  -1.573   0.164  1.00  0.00    -0.059 C 
HETATM    3  C3  UNL     1      -2.303  -2.107  -0.811  1.00  0.00     0.037 C 
HETATM    4  C4  UNL     1      -3.683  -1.431  -0.655  1.00  0.00     0.020 C 
HETATM    5  C5  UNL     1      -3.424  -0.219   0.010  1.00  0.00     0.095 C 
HETATM    6  C6  UNL     1      -2.518   0.609  -0.891  1.00  0.00     0.196 C 
HETATM    7  O1  UNL     1      -2.285   0.463  -2.042  1.00  0.00    -0.291 OA
HETATM    8  C7  UNL     1      -2.106   1.559   0.164  1.00  0.00     0.232 C 
HETATM    9  O3  UNL     1      -3.297   1.779   0.862  1.00  0.00    -0.337 OA
HETATM   10  C8  UNL     1      -4.295   0.920   0.315  1.00  0.00     0.068 C 
HETATM   11  C9  UNL     1      -4.904   1.544  -0.908  1.00  0.00     0.046 C 
HETATM   12  C10 UNL     1      -5.360   0.672   1.331  1.00  0.00     0.046 C 
HETATM   13  C11 UNL     1      -1.073   0.810   0.980  1.00  0.00     0.086 C 
HETATM   14  C12 UNL     1       0.064   1.826   1.185  1.00  0.00     0.019 C 
HETATM   15  C13 UNL     1      -0.429  -0.357   0.276  1.00  0.00     0.170 C 
ENDROOT
BRANCH  15  16
HETATM   16  O4  UNL     1       0.858  -0.650   0.754  1.00  0.00    -0.307 OA
BRANCH  16  17
HETATM   17  C14 UNL     1       2.019  -0.536   0.076  1.00  0.00     0.299 C 
HETATM   18  O5  UNL     1       1.872  -0.114  -1.122  1.00  0.00    -0.259 OA
BRANCH  17  19
HETATM   19  C15 UNL     1       3.352  -0.841   0.577  1.00  0.00     0.109 A 
HETATM   20  C16 UNL     1       3.526  -1.301   1.869  1.00  0.00     0.108 A 
HETATM   21  C17 UNL     1       4.808  -1.635   2.342  1.00  0.00     0.091 A 
HETATM   22 CL1  UNL     1       5.026  -2.222   3.993  1.00  0.00    -0.079 Cl
HETATM   23  C18 UNL     1       5.885  -1.501   1.516  1.00  0.00     0.083 A 
HETATM   24 CL2  UNL     1       7.487  -1.928   2.129  1.00  0.00    -0.081 Cl
HETATM   25  C19 UNL     1       5.711  -1.041   0.226  1.00  0.00     0.092 A 
HETATM   26 CL3  UNL     1       7.153  -0.902  -0.764  1.00  0.00    -0.079 Cl
HETATM   27  C20 UNL     1       4.462  -0.706  -0.260  1.00  0.00     0.111 A 
BRANCH  20  28
HETATM   28  O6  UNL     1       2.516  -1.468   2.773  1.00  0.00    -0.358 OA
ATOM     29  H6  UNL     1       2.636  -1.784   3.661  1.00  0.00     0.217 HD
ENDBRANCH  20  28
BRANCH  27  30
HETATM   30  O7  UNL     1       4.365  -0.243  -1.557  1.00  0.00    -0.349 OA
BRANCH  30  31
HETATM   31  C21 UNL     1       4.576   1.110  -1.912  1.00  0.00     0.171 C 
HETATM   32  C22 UNL     1       4.388   1.362  -3.371  1.00  0.00     0.034 C 
ENDBRANCH  30  31
ENDBRANCH  27  30
ENDBRANCH  17  19
ENDBRANCH  16  17
ENDBRANCH  15  16
BRANCH   8  33
HETATM   33  O2  UNL     1      -1.612   2.691  -0.440  1.00  0.00    -0.359 OA
ATOM     34  H2  UNL     1      -1.347   3.302   0.238  1.00  0.00     0.213 HD
ENDBRANCH   8  33
TORSDOF 7
