REMARK  7 active torsions:
REMARK  status: ('A' for Active; 'I' for Inactive)
REMARK    1  A    between atoms: O1_2  and  C2_3 
REMARK    2  A    between atoms: C2_3  and  C3_5 
REMARK    3  A    between atoms: C7_10  and  N1_11 
REMARK    4  A    between atoms: C9_16  and  O6_17 
REMARK    5  A    between atoms: C10_19  and  N2_20 
REMARK    6  A    between atoms: N2_20  and  S1_22 
REMARK    7  A    between atoms: C14_28  and  C15_29 
ROOT
HETATM    1  C3  UNL     1       2.030   0.525   1.063  1.00  0.00     0.054 A 
HETATM    2  C4  UNL     1       0.963   0.972   1.854  1.00  0.00     0.056 A 
HETATM    3  C5  UNL     1      -0.355   0.687   1.565  1.00  0.00     0.088 A 
HETATM    4  O3  UNL     1      -1.502   0.975   2.126  1.00  0.00    -0.306 OA
HETATM    5  C6  UNL     1      -2.497   0.459   1.454  1.00  0.00     0.124 A 
HETATM    6  C7  UNL     1      -3.872   0.499   1.671  1.00  0.00     0.162 A 
HETATM    7  C8  UNL     1      -4.706  -0.141   0.799  1.00  0.00     0.105 A 
HETATM    8 CL1  UNL     1      -6.437  -0.100   1.057  1.00  0.00    -0.079 Cl
HETATM    9  C9  UNL     1      -4.209  -0.826  -0.295  1.00  0.00     0.118 A 
HETATM   10  C10 UNL     1      -2.858  -0.875  -0.525  1.00  0.00     0.092 A 
HETATM   11  C11 UNL     1      -2.011  -0.242   0.338  1.00  0.00     0.044 A 
HETATM   12  C12 UNL     1      -0.631  -0.072   0.445  1.00  0.00     0.014 A 
HETATM   13  C13 UNL     1       0.379  -0.536  -0.364  1.00  0.00     0.029 A 
HETATM   14  C14 UNL     1       1.714  -0.218  -0.024  1.00  0.00     0.004 A 
ENDROOT
BRANCH  10  15
HETATM   15  N2  UNL     1      -2.377  -1.554  -1.654  1.00  0.00    -0.267 N 
ATOM     16  H2  UNL     1      -2.106  -2.535  -1.589  1.00  0.00     0.180 HD
BRANCH  15  17
HETATM   17  S1  UNL     1      -2.246  -0.700  -3.175  1.00  0.00     0.359 S 
HETATM   18  O7  UNL     1      -1.156  -1.285  -4.026  1.00  0.00    -0.187 OA
HETATM   19  O8  UNL     1      -1.904   0.737  -2.928  1.00  0.00    -0.187 OA
ENDBRANCH  15  17
ENDBRANCH  10  15
BRANCH   9  20
HETATM   20  O6  UNL     1      -5.117  -1.458  -1.147  1.00  0.00    -0.357 OA
ATOM     21  H6  UNL     1      -4.776  -1.928  -1.898  1.00  0.00     0.218 HD
ENDBRANCH   9  20
BRANCH   6  22
HETATM   22  N1  UNL     1      -4.404   1.199   2.789  1.00  0.00    -0.111 N 
HETATM   23  O4  UNL     1      -3.654   1.786   3.591  1.00  0.00    -0.532 OA
HETATM   24  O5  UNL     1      -5.752   1.257   3.028  1.00  0.00    -0.532 OA
ENDBRANCH   6  22
BRANCH  14  25
HETATM   25  C15 UNL     1       2.726  -0.818  -0.875  1.00  0.00     0.062 C 
HETATM   26 CL2  UNL     1       3.799  -2.037  -0.158  1.00  0.00    -0.082 Cl
HETATM   27  C16 UNL     1       2.864  -0.577  -2.140  1.00  0.00     0.030 C 
HETATM   28  C17 UNL     1       3.915  -1.226  -2.938  1.00  0.00     0.064 C 
HETATM   29 CL3  UNL     1       1.787   0.554  -2.917  1.00  0.00    -0.088 Cl
ENDBRANCH  14  25
BRANCH   1  30
HETATM   30  C2  UNL     1       3.385   0.916   1.378  1.00  0.00     0.293 C 
HETATM   31  O2  UNL     1       4.416   0.688   0.733  1.00  0.00    -0.259 OA
BRANCH  30  32
HETATM   32  O1  UNL     1       3.599   1.653   2.564  1.00  0.00    -0.322 OA
HETATM   33  C1  UNL     1       4.890   2.080   2.956  1.00  0.00     0.213 C 
ENDBRANCH  30  32
ENDBRANCH   1  30
TORSDOF 7
