REMARK  7 active torsions:
REMARK  status: ('A' for Active; 'I' for Inactive)
REMARK    1  A    between atoms: C3_4  and  C4_5 
REMARK    2  A    between atoms: C5_9  and  C6_10 
REMARK    3  A    between atoms: C9_13  and  C10_14 
REMARK    4  A    between atoms: C10_14  and  N3_15 
REMARK    5  A    between atoms: N3_15  and  C11_17 
REMARK    6  A    between atoms: C11_17  and  C12_18 
REMARK    7  A    between atoms: C22_35  and  C23_36 
ROOT
HETATM    1  C4  UNL     1       3.092  -0.296  -0.096  1.00  0.00     0.139 A 
HETATM    2  N2  UNL     1       2.335  -0.543  -1.177  1.00  0.00    -0.242 N 
ATOM      3  H2  UNL     1       2.649  -0.472  -2.145  1.00  0.00     0.196 HD
HETATM    4  O1  UNL     1       1.145  -0.886  -0.800  1.00  0.00    -0.222 OA
HETATM    5  C5  UNL     1       1.066  -0.881   0.518  1.00  0.00     0.152 A 
HETATM    6  N4  UNL     1       2.284  -0.512   0.955  1.00  0.00    -0.322 N 
ATOM      7  H4  UNL     1       2.552  -0.412   1.934  1.00  0.00     0.169 HD
ENDROOT
BRANCH   5   8
HETATM    8  C6  UNL     1      -0.154  -1.223   1.296  1.00  0.00     0.063 C 
HETATM    9  C7  UNL     1      -1.178  -0.111   1.164  1.00  0.00     0.013 C 
HETATM   10  C8  UNL     1      -1.798  -0.040  -0.196  1.00  0.00     0.007 C 
HETATM   11  C9  UNL     1      -2.147  -1.412  -0.715  1.00  0.00     0.003 C 
HETATM   12  C19 UNL     1      -2.089  -2.439   0.373  1.00  0.00     0.007 C 
HETATM   13  C20 UNL     1      -0.676  -2.562   0.902  1.00  0.00     0.013 C 
BRANCH  11  14
HETATM   14  C10 UNL     1      -3.621  -1.354  -1.195  1.00  0.00     0.119 C 
BRANCH  14  15
HETATM   15  N3  UNL     1      -4.468  -1.009  -0.127  1.00  0.00    -0.405 N 
ATOM     16  H3  UNL     1      -4.090  -0.936   0.818  1.00  0.00     0.154 HD
BRANCH  15  17
HETATM   17  C11 UNL     1      -5.840  -0.763  -0.356  1.00  0.00     0.124 C 
HETATM   18  C13 UNL     1      -6.522  -0.446   0.979  1.00  0.00     0.040 C 
HETATM   19  C14 UNL     1      -5.967   0.784   1.636  1.00  0.00     0.003 C 
HETATM   20  C15 UNL     1      -6.860   1.997   1.352  1.00  0.00     0.000 C 
HETATM   21  C16 UNL     1      -6.526   2.406  -0.078  1.00  0.00     0.000 C 
HETATM   22  C17 UNL     1      -7.131   1.323  -0.968  1.00  0.00     0.003 C 
HETATM   23  C18 UNL     1      -6.057   0.365  -1.355  1.00  0.00     0.040 C 
BRANCH  17  24
HETATM   24  C12 UNL     1      -6.544  -1.984  -0.886  1.00  0.00     0.412 C 
HETATM   25  F1  UNL     1      -7.904  -1.723  -1.081  1.00  0.00    -0.168 F 
HETATM   26  F2  UNL     1      -6.448  -2.993   0.031  1.00  0.00    -0.168 F 
HETATM   27  F3  UNL     1      -6.083  -2.350  -2.156  1.00  0.00    -0.168 F 
ENDBRANCH  17  24
ENDBRANCH  15  17
ENDBRANCH  14  15
ENDBRANCH  11  14
ENDBRANCH   5   8
BRANCH   1  28
HETATM   28  C3  UNL     1       4.484   0.110  -0.154  1.00  0.00     0.027 A 
HETATM   29  C2  UNL     1       5.146   0.249  -1.353  1.00  0.00     0.045 A 
HETATM   30  C1  UNL     1       6.476   0.646  -1.380  1.00  0.00     0.070 A 
HETATM   31  N1  UNL     1       7.077   0.767  -2.649  1.00  0.00    -0.100 NA
HETATM   32  C22 UNL     1       7.178   0.911  -0.225  1.00  0.00     0.040 A 
HETATM   33  N5  UNL     1       6.522   0.771   0.938  1.00  0.00    -0.366 N 
HETATM   34  C21 UNL     1       5.216   0.384   1.003  1.00  0.00     0.103 A 
ATOM     35  H5  UNL     1       7.020   0.962   1.807  1.00  0.00     0.165 HD
BRANCH  32  36
HETATM   36  C23 UNL     1       8.582   1.321  -0.305  1.00  0.00     0.063 C 
HETATM   37  C24 UNL     1       9.107   1.726   1.078  1.00  0.00     0.039 C 
HETATM   38  C25 UNL     1      10.594   1.458   0.859  1.00  0.00     0.168 C 
HETATM   39  O2  UNL     1      10.664   0.318   0.106  1.00  0.00    -0.390 OA
HETATM   40  C26 UNL     1       9.512   0.173  -0.623  1.00  0.00     0.178 C 
ENDBRANCH  32  36
ENDBRANCH   1  28
TORSDOF 7
