REMARK  6 active torsions:
REMARK  status: ('A' for Active; 'I' for Inactive)
REMARK    1  A    between atoms: O1_2  and  C2_3 
REMARK    2  A    between atoms: C4_5  and  C5_6 
REMARK    3  A    between atoms: C9_13  and  O3_14 
REMARK    4  A    between atoms: C18_25  and  O4_26 
REMARK    5  A    between atoms: C21_31  and  O5_32 
REMARK    6  A    between atoms: C23_34  and  O6_35 
ROOT
HETATM    1  C5  UNL     1      -0.224   0.442  -0.975  1.00  0.00     0.149 C 
HETATM    2  N1  UNL     1       0.473  -0.801  -1.120  1.00  0.00    -0.376 N 
ATOM      3  H1  UNL     1      -0.040  -1.681  -1.164  1.00  0.00     0.160 HD
HETATM    4  C6  UNL     1       1.875  -0.787  -1.201  1.00  0.00     0.044 C 
HETATM    5  C7  UNL     1       2.417  -2.001  -1.560  1.00  0.00     0.087 C 
HETATM    6  C8  UNL     1       3.671  -2.495  -1.221  1.00  0.00     0.208 C 
HETATM    7  O2  UNL     1       3.837  -3.736  -1.299  1.00  0.00    -0.285 OA
HETATM    8  C9  UNL     1       4.774  -1.755  -0.799  1.00  0.00     0.140 C 
HETATM    9  C11 UNL     1       4.941  -0.371  -0.975  1.00  0.00     0.072 C 
HETATM   10 CL1  UNL     1       6.633   0.098  -1.106  1.00  0.00    -0.081 Cl
HETATM   11  C12 UNL     1       3.960   0.581  -1.090  1.00  0.00     0.041 C 
HETATM   12  C13 UNL     1       2.610   0.376  -0.879  1.00  0.00     0.005 C 
HETATM   13  C14 UNL     1       1.937   1.581  -0.455  1.00  0.00     0.010 A 
HETATM   14  C15 UNL     1       0.536   1.557  -0.414  1.00  0.00    -0.015 A 
HETATM   15  C16 UNL     1      -0.126   2.663   0.112  1.00  0.00     0.055 A 
HETATM   16  C17 UNL     1       0.574   3.736   0.570  1.00  0.00     0.151 A 
HETATM   17  F1  UNL     1      -0.104   4.790   1.068  1.00  0.00    -0.203 F 
HETATM   18  C18 UNL     1       1.949   3.733   0.517  1.00  0.00     0.127 A 
HETATM   19  C19 UNL     1       2.645   2.648   0.004  1.00  0.00     0.082 A 
HETATM   20 CL2  UNL     1       4.363   2.730   0.170  1.00  0.00    -0.080 Cl
ENDROOT
BRANCH   1  21
HETATM   21  C4  UNL     1      -1.561   0.263  -0.378  1.00  0.00    -0.026 A 
HETATM   22  C3  UNL     1      -1.734  -0.443   0.790  1.00  0.00     0.049 A 
HETATM   23  C2  UNL     1      -2.981  -0.633   1.340  1.00  0.00     0.104 A 
HETATM   24  C23 UNL     1      -4.080  -0.085   0.677  1.00  0.00     0.135 A 
HETATM   25  C21 UNL     1      -3.958   0.628  -0.494  1.00  0.00     0.104 A 
HETATM   26  C20 UNL     1      -2.670   0.779  -0.989  1.00  0.00     0.049 A 
BRANCH  23  27
HETATM   27  O1  UNL     1      -3.117  -1.345   2.511  1.00  0.00    -0.353 OA
HETATM   28  C1  UNL     1      -1.970  -1.875   3.136  1.00  0.00     0.210 C 
ENDBRANCH  23  27
BRANCH  24  29
HETATM   29  O6  UNL     1      -5.324  -0.288   1.247  1.00  0.00    -0.351 OA
HETATM   30  C24 UNL     1      -6.145  -1.387   0.954  1.00  0.00     0.210 C 
ENDBRANCH  24  29
BRANCH  25  31
HETATM   31  O5  UNL     1      -5.077   1.154  -1.119  1.00  0.00    -0.353 OA
HETATM   32  C22 UNL     1      -5.046   1.888  -2.304  1.00  0.00     0.210 C 
ENDBRANCH  25  31
ENDBRANCH   1  21
BRANCH  18  33
HETATM   33  O4  UNL     1       2.658   4.829   0.983  1.00  0.00    -0.356 OA
ATOM     34  H4  UNL     1       3.607   4.827   0.946  1.00  0.00     0.218 HD
ENDBRANCH  18  33
BRANCH   8  35
HETATM   35  O3  UNL     1       5.808  -2.395  -0.153  1.00  0.00    -0.351 OA
HETATM   36  C10 UNL     1       5.838  -2.547   1.253  1.00  0.00     0.210 C 
ENDBRANCH   8  35
TORSDOF 6
