REMARK  6 active torsions:
REMARK  status: ('A' for Active; 'I' for Inactive)
REMARK    1  A    between atoms: O1_1  and  C1_3 
REMARK    2  A    between atoms: C4_6  and  O2_7 
REMARK    3  A    between atoms: N1_9  and  C5_10 
REMARK    4  A    between atoms: C5_10  and  O3_11 
REMARK    5  A    between atoms: O3_11  and  C6_12 
REMARK    6  A    between atoms: C6_12  and  C7_13 
ROOT
HETATM    1  C1  UNL     1      -1.671   0.571   1.168  1.00  0.00     0.156 A 
HETATM    2  C2  UNL     1      -0.392   0.250   1.616  1.00  0.00     0.045 A 
HETATM    3  C3  UNL     1       0.398  -0.065   0.501  1.00  0.00     0.047 A 
HETATM    4  C4  UNL     1      -0.442   0.080  -0.588  1.00  0.00     0.156 A 
HETATM    5  N1  UNL     1      -1.659   0.457  -0.161  1.00  0.00    -0.285 N 
HETATM    6  C8  UNL     1       1.761  -0.406   1.038  1.00  0.00     0.138 C 
HETATM    7  O4  UNL     1       1.756   0.380   2.200  1.00  0.00    -0.348 OA
HETATM    8  C9  UNL     1       0.489   0.096   2.768  1.00  0.00     0.223 C 
HETATM    9  S1  UNL     1       0.771  -1.713   2.991  1.00  0.00    -0.123 SA
HETATM   10  C10 UNL     1       1.716  -1.839   1.407  1.00  0.00     0.104 C 
HETATM   11  C11 UNL     1       2.995  -2.522   1.709  1.00  0.00     0.098 C 
HETATM   12  S2  UNL     1       3.895  -2.529   0.097  1.00  0.00    -0.128 SA
HETATM   13  C12 UNL     1       3.789  -0.814  -0.398  1.00  0.00     0.012 A 
HETATM   14  C13 UNL     1       4.727  -0.353  -1.276  1.00  0.00     0.021 A 
HETATM   15  C14 UNL     1       4.728   0.949  -1.696  1.00  0.00     0.022 A 
HETATM   16  C15 UNL     1       3.753   1.793  -1.211  1.00  0.00     0.033 A 
HETATM   17 BR1  UNL     1       3.762   3.616  -1.805  1.00  0.00    -0.049 Br
HETATM   18  C16 UNL     1       2.802   1.320  -0.319  1.00  0.00     0.062 A 
HETATM   19 CL2  UNL     1       1.631   2.512   0.226  1.00  0.00    -0.082 Cl
HETATM   20  C17 UNL     1       2.813   0.005   0.096  1.00  0.00     0.022 A 
ENDROOT
BRANCH   5  21
HETATM   21  C5  UNL     1      -2.832   0.715  -1.013  1.00  0.00     0.303 C 
BRANCH  21  22
HETATM   22  O3  UNL     1      -3.519  -0.452  -1.154  1.00  0.00    -0.370 OA
BRANCH  22  23
HETATM   23  C6  UNL     1      -4.633  -0.464  -1.924  1.00  0.00     0.185 C 
BRANCH  23  24
HETATM   24  C7  UNL     1      -5.662   0.491  -1.380  1.00  0.00     0.141 C 
HETATM   25 CL1  UNL     1      -6.083   0.022   0.283  1.00  0.00    -0.128 Cl
ENDBRANCH  23  24
ENDBRANCH  22  23
ENDBRANCH  21  22
ENDBRANCH   5  21
BRANCH   1  26
HETATM   26  O1  UNL     1      -2.746   0.939   1.969  1.00  0.00    -0.345 OA
ATOM     27  H1  UNL     1      -3.618   1.158   1.663  1.00  0.00     0.219 HD
ENDBRANCH   1  26
BRANCH   4  28
HETATM   28  O2  UNL     1      -0.060  -0.137  -1.904  1.00  0.00    -0.345 OA
ATOM     29  H2  UNL     1      -0.637  -0.037  -2.652  1.00  0.00     0.219 HD
ENDBRANCH   4  28
TORSDOF 6
