REMARK  4 active torsions:
REMARK  status: ('A' for Active; 'I' for Inactive)
REMARK    1  A    between atoms: N2_4  and  N3_6 
REMARK    2  A    between atoms: N3_6  and  C2_8 
REMARK    3  A    between atoms: C2_8  and  C3_9 
REMARK    4  A    between atoms: C3_9  and  C4_10 
ROOT
HETATM    1  N3  UNL     1      -0.381  -0.761  -0.466  1.00  0.00    -0.322 N 
ATOM      2  H3  UNL     1      -0.395  -1.285  -1.341  1.00  0.00     0.181 HD
ENDROOT
BRANCH   1   3
HETATM    3  N2  UNL     1      -1.174  -1.188   0.584  1.00  0.00    -0.252 N 
HETATM    4  N1  UNL     1      -2.390  -0.873   0.702  1.00  0.00    -0.327 N 
HETATM    5  C1  UNL     1      -2.978  -0.025  -0.311  1.00  0.00     0.169 C 
ATOM      6  H1  UNL     1      -2.943  -1.208   1.491  1.00  0.00     0.181 HD
ATOM      7  H2  UNL     1      -0.756  -1.786   1.297  1.00  0.00     0.207 HD
ENDBRANCH   1   3
BRANCH   1   8
HETATM    8  C2  UNL     1       0.466   0.403  -0.362  1.00  0.00     0.141 C 
BRANCH   8   9
HETATM    9  C3  UNL     1       1.488   0.307   0.711  1.00  0.00     0.032 C 
BRANCH   9  10
HETATM   10  C4  UNL     1       2.441  -0.852   0.538  1.00  0.00     0.086 C 
HETATM   11 BR1  UNL     1       3.426  -0.767  -1.094  1.00  0.00    -0.096 Br
ENDBRANCH   9  10
ENDBRANCH   8   9
ENDBRANCH   1   8
TORSDOF 4
