REMARK  4 active torsions:
REMARK  status: ('A' for Active; 'I' for Inactive)
REMARK    1  A    between atoms: N1_1  and  C1_5 
REMARK    2  A    between atoms: C1_5  and  C2_6 
REMARK    3  A    between atoms: C2_6  and  N2_7 
REMARK    4  A    between atoms: N2_7  and  C3_10 
ROOT
HETATM    1  N2  UNL     1       1.105  -0.103   0.597  1.00  0.00    -0.069 N 
ATOM      2  H21 UNL     1       1.496   0.168   1.499  1.00  0.00     0.277 HD
ATOM      3  H22 UNL     1       1.019  -1.109   0.740  1.00  0.00     0.277 HD
ENDROOT
BRANCH   1   4
HETATM    4  C2  UNL     1       2.036   0.175  -0.456  1.00  0.00     0.260 C 
BRANCH   4   5
HETATM    5  C1  UNL     1       3.349  -0.513  -0.122  1.00  0.00     0.257 C 
BRANCH   5   6
HETATM    6  N1  UNL     1       4.347  -0.280  -1.142  1.00  0.00    -0.078 N 
ATOM      7  H13 UNL     1       4.008  -0.553  -2.064  1.00  0.00     0.274 HD
ATOM      8  H12 UNL     1       4.481   0.717  -1.311  1.00  0.00     0.274 HD
ATOM      9  H11 UNL     1       5.228  -0.742  -0.918  1.00  0.00     0.274 HD
ENDBRANCH   5   6
ENDBRANCH   4   5
ENDBRANCH   1   4
BRANCH   1  10
HETATM   10  C3  UNL     1      -0.185   0.487   0.415  1.00  0.00     0.193 C 
HETATM   11  C4  UNL     1      -1.032   0.082   1.631  1.00  0.00     0.038 C 
HETATM   12  C5  UNL     1      -2.306  -0.432   0.986  1.00  0.00    -0.009 C 
HETATM   13  C6  UNL     1      -2.990   0.668   0.224  1.00  0.00     0.042 C 
HETATM   14  C9  UNL     1      -1.680  -1.221  -0.175  1.00  0.00     0.014 C 
HETATM   15  C7  UNL     1      -2.110   0.903  -1.013  1.00  0.00     0.176 C 
HETATM   16  F1  UNL     1      -2.775   0.455  -2.125  1.00  0.00    -0.249 F 
HETATM   17  C8  UNL     1      -0.934  -0.016  -0.772  1.00  0.00     0.051 C 
ENDBRANCH   1  10
TORSDOF 4
