REMARK  4 active torsions:
REMARK  status: ('A' for Active; 'I' for Inactive)
REMARK    1  A    between atoms: N1_2  and  C2_5 
REMARK    2  A    between atoms: C2_5  and  C3_6 
REMARK    3  A    between atoms: C7_10  and  C8_11 
REMARK    4  A    between atoms: C9_13  and  N2_14 
ROOT
HETATM    1  C3  UNL     1       0.360  -0.294  -1.089  1.00  0.00     0.042 C 
HETATM    2  C4  UNL     1      -0.328  -1.598  -1.291  1.00  0.00     0.008 C 
HETATM    3  C5  UNL     1      -1.229  -2.011  -0.172  1.00  0.00     0.001 C 
HETATM    4  C6  UNL     1      -2.194  -0.892   0.204  1.00  0.00     0.009 C 
HETATM    5  C7  UNL     1      -1.297   0.282   0.618  1.00  0.00     0.045 C 
HETATM    6  C9  UNL     1      -0.618   0.760  -0.627  1.00  0.00     0.195 C 
ENDROOT
BRANCH   1   7
HETATM    7  C2  UNL     1       1.510  -0.474  -0.140  1.00  0.00     0.238 C 
BRANCH   7   8
HETATM    8  N1  UNL     1       2.234   0.759   0.109  1.00  0.00    -0.079 N 
HETATM    9  C1  UNL     1       3.306   0.429   1.035  1.00  0.00     0.267 C 
ATOM     10  H12 UNL     1       1.637   1.519   0.436  1.00  0.00     0.276 HD
ATOM     11  H11 UNL     1       2.562   1.214  -0.743  1.00  0.00     0.276 HD
ENDBRANCH   7   8
ENDBRANCH   1   7
BRANCH   6  12
HETATM   12  N2  UNL     1      -0.050   2.065  -0.539  1.00  0.00    -0.074 N 
ATOM     13  H23 UNL     1       0.780   2.058   0.054  1.00  0.00     0.274 HD
ATOM     14  H22 UNL     1       0.377   2.333  -1.426  1.00  0.00     0.274 HD
ATOM     15  H21 UNL     1      -0.711   2.777  -0.227  1.00  0.00     0.274 HD
ENDBRANCH   6  12
BRANCH   5  16
HETATM   16  C8  UNL     1      -2.098   1.349   1.318  1.00  0.00     0.229 C 
HETATM   17  F1  UNL     1      -1.221   2.361   1.655  1.00  0.00    -0.255 F 
ENDBRANCH   5  16
TORSDOF 4
