REMARK  10 active torsions:
REMARK  status: ('A' for Active; 'I' for Inactive)
REMARK    1  A    between atoms: C2_2  and  C4_4 
REMARK    2  A    between atoms: C4_4  and  O1_5 
REMARK    3  A    between atoms: C4_4  and  C25_35 
REMARK    4  A    between atoms: O1_5  and  C5_6 
REMARK    5  A    between atoms: C5_6  and  C6_8 
REMARK    6  A    between atoms: C6_8  and  N1_9 
REMARK       I    between atoms: N1_9  and  C7_11 
REMARK    7  A    between atoms: C7_11  and  O4_13 
REMARK    8  A    between atoms: O4_13  and  C8_14 
REMARK    9  A    between atoms: C21_29  and  C22_30 
REMARK   10  A    between atoms: C27_37  and  N2_38 
ROOT
HETATM    1  C8  UNL     1      -0.620   0.031  -2.164  1.00  0.00     0.164 C 
HETATM    2  C9  UNL     1      -1.639  -0.437  -3.169  1.00  0.00     0.201 C 
HETATM    3  O5  UNL     1      -2.353   0.736  -3.402  1.00  0.00    -0.382 OA
HETATM    4  C10 UNL     1      -2.496   1.417  -2.226  1.00  0.00     0.139 C 
HETATM    5  C11 UNL     1      -1.461   0.865  -1.253  1.00  0.00     0.048 C 
HETATM    6  C12 UNL     1      -2.321   0.039  -0.325  1.00  0.00     0.016 C 
HETATM    7  C13 UNL     1      -3.581   0.848  -0.165  1.00  0.00     0.009 C 
HETATM    8  C14 UNL     1      -3.828   1.329  -1.565  1.00  0.00     0.089 C 
HETATM    9  C15 UNL     1      -4.732   0.501  -2.362  1.00  0.00     0.134 C 
HETATM   10  O6  UNL     1      -4.690   0.517  -3.561  1.00  0.00    -0.297 OA
HETATM   11  C16 UNL     1      -5.742  -0.393  -1.699  1.00  0.00     0.084 C 
HETATM   12  C17 UNL     1      -5.971   0.213  -0.366  1.00  0.00     0.002 C 
HETATM   13  C18 UNL     1      -6.929  -0.469   0.538  1.00  0.00     0.011 C 
HETATM   14  C19 UNL     1      -6.656   0.234   1.875  1.00  0.00    -0.003 C 
HETATM   15  C20 UNL     1      -7.672   1.359   1.961  1.00  0.00     0.011 C 
HETATM   16  C21 UNL     1      -5.273   0.884   1.716  1.00  0.00     0.099 C 
HETATM   17  C23 UNL     1      -4.701   0.168   0.507  1.00  0.00    -0.022 C 
HETATM   18  C24 UNL     1      -4.407  -1.252   0.910  1.00  0.00     0.017 C 
ENDROOT
BRANCH   1  19
HETATM   19  O4  UNL     1       0.067  -1.007  -1.528  1.00  0.00    -0.296 OA
BRANCH  19  20
HETATM   20  C7  UNL     1       1.445  -1.189  -1.550  1.00  0.00     0.361 C 
HETATM   21  N1  UNL     1       2.100  -2.259  -0.889  1.00  0.00    -0.328 N 
ATOM     22  H1  UNL     1       1.562  -2.950  -0.366  1.00  0.00     0.165 HD
HETATM   23  O3  UNL     1       2.094  -0.339  -2.199  1.00  0.00    -0.238 OA
BRANCH  21  24
HETATM   24  C6  UNL     1       3.532  -2.358  -0.965  1.00  0.00     0.235 C 
BRANCH  24  25
HETATM   25  C5  UNL     1       4.262  -1.220  -0.385  1.00  0.00     0.277 C 
HETATM   26  O2  UNL     1       3.666  -0.282   0.152  1.00  0.00    -0.263 OA
BRANCH  25  27
HETATM   27  O1  UNL     1       5.641  -1.143  -0.411  1.00  0.00    -0.314 OA
BRANCH  27  28
HETATM   28  C4  UNL     1       6.395  -0.069   0.134  1.00  0.00     0.141 C 
BRANCH  28  29
HETATM   29  C2  UNL     1       7.108   0.716  -0.914  1.00  0.00     0.007 C 
HETATM   30  C1  UNL     1       8.087  -0.032  -1.735  1.00  0.00     0.012 C 
HETATM   31  C3  UNL     1       7.684   1.997  -0.362  1.00  0.00     0.012 C 
ENDBRANCH  28  29
BRANCH  28  32
HETATM   32  C25 UNL     1       7.210  -0.544   1.289  1.00  0.00     0.048 A 
HETATM   33  C26 UNL     1       7.945   0.276   2.233  1.00  0.00     0.042 A 
HETATM   34  C27 UNL     1       6.684  -0.326   2.724  1.00  0.00     0.190 A 
BRANCH  34  35
HETATM   35  N2  UNL     1       6.672  -1.421   3.639  1.00  0.00    -0.075 N 
ATOM     36  H23 UNL     1       6.157  -2.193   3.217  1.00  0.00     0.274 HD
ATOM     37  H22 UNL     1       7.613  -1.812   3.692  1.00  0.00     0.274 HD
ATOM     38  H21 UNL     1       6.324  -1.277   4.587  1.00  0.00     0.274 HD
ENDBRANCH  34  35
ENDBRANCH  28  32
ENDBRANCH  27  28
ENDBRANCH  25  27
ENDBRANCH  24  25
ENDBRANCH  21  24
ENDBRANCH  19  20
ENDBRANCH   1  19
BRANCH  16  39
HETATM   39  C22 UNL     1      -4.530   0.687   2.953  1.00  0.00     0.178 C 
HETATM   40  O7  UNL     1      -3.423   0.105   3.020  1.00  0.00    -0.648 OA
HETATM   41  O8  UNL     1      -5.072   1.170   4.134  1.00  0.00    -0.648 OA
ENDBRANCH  16  39
TORSDOF 10
