REMARK  10 active torsions:
REMARK  status: ('A' for Active; 'I' for Inactive)
REMARK    1  A    between atoms: C2_2  and  C3_3 
REMARK    2  A    between atoms: C2_2  and  C8_11 
REMARK    3  A    between atoms: C3_3  and  N1_4 
REMARK    4  A    between atoms: C10_13  and  C11_14 
REMARK    5  A    between atoms: C11_14  and  O4_16 
REMARK    6  A    between atoms: O4_16  and  C12_17 
REMARK    7  A    between atoms: C18_23  and  C19_24 
REMARK    8  A    between atoms: C19_24  and  O5_27 
REMARK    9  A    between atoms: C25_32  and  O6_33 
REMARK   10  A    between atoms: C28_37  and  O7_38 
ROOT
HETATM    1  C12 UNL     1      -0.884   0.392   0.305  1.00  0.00     0.097 C 
HETATM    2  C13 UNL     1      -1.465  -0.918   0.720  1.00  0.00    -0.041 C 
HETATM    3  C14 UNL     1      -1.151  -2.051  -0.224  1.00  0.00     0.047 C 
HETATM    4  C15 UNL     1      -2.837  -0.820   1.210  1.00  0.00    -0.004 C 
HETATM    5  C16 UNL     1      -3.651  -2.080   1.302  1.00  0.00     0.015 C 
HETATM    6  C17 UNL     1      -4.356  -2.086  -0.027  1.00  0.00     0.009 C 
HETATM    7  C18 UNL     1      -4.737  -0.600  -0.137  1.00  0.00     0.032 C 
HETATM    8  C22 UNL     1      -3.774   0.192   0.644  1.00  0.00     0.012 C 
HETATM    9  C23 UNL     1      -4.142   0.493   2.097  1.00  0.00     0.015 C 
HETATM   10  C24 UNL     1      -2.863  -0.174   2.604  1.00  0.00     0.016 C 
HETATM   11  C25 UNL     1      -3.150   1.405   0.051  1.00  0.00     0.104 C 
HETATM   12  C26 UNL     1      -3.500   1.798  -1.357  1.00  0.00     0.046 C 
HETATM   13  C27 UNL     1      -2.264   1.029  -1.796  1.00  0.00     0.051 C 
HETATM   14  C28 UNL     1      -1.753   1.307  -0.447  1.00  0.00     0.138 C 
ENDROOT
BRANCH   1  15
HETATM   15  O4  UNL     1       0.449   0.344  -0.071  1.00  0.00    -0.279 OA
BRANCH  15  16
HETATM   16  C11 UNL     1       1.544   0.830   0.546  1.00  0.00     0.270 C 
HETATM   17  O3  UNL     1       1.371   1.419   1.620  1.00  0.00    -0.264 OA
BRANCH  16  18
HETATM   18  C10 UNL     1       2.937   0.716   0.040  1.00  0.00     0.112 C 
HETATM   19  C9  UNL     1       3.932   1.364   0.971  1.00  0.00     0.049 C 
HETATM   20  C8  UNL     1       4.968   1.822  -0.030  1.00  0.00     0.127 C 
HETATM   21  O8  UNL     1       4.203   2.360  -1.063  1.00  0.00    -0.385 OA
HETATM   22  C29 UNL     1       3.089   1.548  -1.211  1.00  0.00     0.183 C 
BRANCH  20  23
HETATM   23  C2  UNL     1       5.787   0.692  -0.610  1.00  0.00     0.029 C 
HETATM   24  C1  UNL     1       6.763   1.358  -1.592  1.00  0.00     0.014 C 
BRANCH  23  25
HETATM   25  C3  UNL     1       6.589  -0.016   0.436  1.00  0.00     0.142 C 
BRANCH  25  26
HETATM   26  N1  UNL     1       7.463  -1.036  -0.071  1.00  0.00    -0.281 N 
HETATM   27  C4  UNL     1       7.052  -2.409  -0.248  1.00  0.00     0.250 A 
HETATM   28  O1  UNL     1       5.913  -2.892  -0.000  1.00  0.00    -0.268 OA
HETATM   29  C5  UNL     1       8.203  -3.132  -0.767  1.00  0.00     0.080 A 
HETATM   30  C6  UNL     1       9.231  -2.337  -0.910  1.00  0.00     0.080 A 
HETATM   31  C7  UNL     1       8.807  -1.000  -0.482  1.00  0.00     0.250 A 
HETATM   32  O2  UNL     1       9.529   0.041  -0.475  1.00  0.00    -0.268 OA
ENDBRANCH  25  26
ENDBRANCH  23  25
ENDBRANCH  20  23
ENDBRANCH  16  18
ENDBRANCH  15  16
ENDBRANCH   1  15
BRANCH  14  33
HETATM   33  O7  UNL     1      -1.122   2.585  -0.470  1.00  0.00    -0.380 OA
ATOM     34  H7  UNL     1      -1.684   3.177  -0.956  1.00  0.00     0.211 HD
ENDBRANCH  14  33
BRANCH  11  35
HETATM   35  O6  UNL     1      -3.272   2.566   0.864  1.00  0.00    -0.385 OA
ATOM     36  H6  UNL     1      -2.873   3.341   0.485  1.00  0.00     0.210 HD
ENDBRANCH  11  35
BRANCH   7  37
HETATM   37  C19 UNL     1      -6.182  -0.512   0.090  1.00  0.00     0.055 C 
HETATM   38  C20 UNL     1      -6.854  -1.346  -1.023  1.00  0.00     0.045 C 
HETATM   39  C21 UNL     1      -6.840   0.804   0.067  1.00  0.00     0.045 C 
BRANCH  37  40
HETATM   40  O5  UNL     1      -6.640  -1.185   1.254  1.00  0.00    -0.390 OA
ATOM     41  H5  UNL     1      -7.577  -1.128   1.401  1.00  0.00     0.210 HD
ENDBRANCH  37  40
ENDBRANCH   7  37
TORSDOF 10
