REMARK  9 active torsions:
REMARK  status: ('A' for Active; 'I' for Inactive)
REMARK    1  A    between atoms: C2_2  and  C3_4 
REMARK    2  A    between atoms: N1_8  and  C7_9 
REMARK    3  A    between atoms: C8_12  and  N3_13 
REMARK    4  A    between atoms: C13_20  and  N5_21 
REMARK    5  A    between atoms: N5_21  and  C14_23 
REMARK    6  A    between atoms: C17_26  and  N6_27 
REMARK    7  A    between atoms: C21_36  and  C22_37 
REMARK       I    between atoms: C22_37  and  N8_39 
REMARK    8  A    between atoms: N8_39  and  C23_41 
REMARK    9  A    between atoms: C23_41  and  C25_44 
ROOT
HETATM    1  C23 UNL     1       5.113  -2.203   2.346  1.00  0.00     0.196 C 
HETATM    2  C24 UNL     1       4.905  -1.929   3.761  1.00  0.00     0.085 C 
HETATM    3  N9  UNL     1       4.723  -1.724   4.902  1.00  0.00    -0.195 NA
ENDROOT
BRANCH   1   4
HETATM    4  N8  UNL     1       4.371  -1.229   1.579  1.00  0.00    -0.343 N 
HETATM    5  C22 UNL     1       3.385  -1.579   0.638  1.00  0.00     0.225 C 
HETATM    6  O2  UNL     1       3.123  -2.786   0.435  1.00  0.00    -0.273 OA
ATOM      7  H8  UNL     1       4.572  -0.240   1.727  1.00  0.00     0.163 HD
BRANCH   5   8
HETATM    8  C21 UNL     1       2.660  -0.536  -0.107  1.00  0.00     0.108 C 
HETATM    9  C3  UNL     1       3.570   0.367  -0.914  1.00  0.00     0.071 C 
HETATM   10  C4  UNL     1       3.427   1.816  -0.621  1.00  0.00     0.038 C 
HETATM   11  C5  UNL     1       2.003   2.314  -0.461  1.00  0.00     0.099 C 
HETATM   12  C6  UNL     1       1.473   2.918  -1.716  1.00  0.00     0.033 C 
HETATM   13  N1  UNL     1       1.188   1.303   0.124  1.00  0.00    -0.211 N 
HETATM   14  C20 UNL     1       1.916   0.296   0.920  1.00  0.00     0.156 C 
BRANCH   9  15
HETATM   15  C2  UNL     1       3.555   0.027  -2.354  1.00  0.00     0.128 C 
HETATM   16  C1  UNL     1       3.675  -1.386  -2.782  1.00  0.00     0.091 C 
HETATM   17  O1  UNL     1       3.446   0.895  -3.180  1.00  0.00    -0.298 OA
ENDBRANCH   9  15
BRANCH  13  18
HETATM   18  C7  UNL     1      -0.214   1.250   0.006  1.00  0.00     0.709 A 
HETATM   19  N2  UNL     1      -0.881   2.287  -0.493  1.00  0.00    -0.021 N 
HETATM   20  C8  UNL     1      -2.201   2.300  -0.651  1.00  0.00     0.709 A 
ATOM     21  H2  UNL     1      -0.353   3.115  -0.769  1.00  0.00     0.203 HD
HETATM   22  N4  UNL     1      -2.918   1.202  -0.290  1.00  0.00    -0.021 N 
HETATM   23  C13 UNL     1      -2.299   0.134   0.216  1.00  0.00     0.707 A 
ATOM     24  H4  UNL     1      -3.931   1.195  -0.406  1.00  0.00     0.203 HD
HETATM   25  N7  UNL     1      -0.946   0.165   0.361  1.00  0.00    -0.021 N 
ATOM     26  H7  UNL     1      -0.470  -0.650   0.747  1.00  0.00     0.203 HD
BRANCH  20  27
HETATM   27  N3  UNL     1      -2.866   3.447  -1.184  1.00  0.00    -0.217 N 
HETATM   28  C9  UNL     1      -4.237   3.482  -1.559  1.00  0.00     0.141 C 
HETATM   29  C10 UNL     1      -4.635   4.910  -1.656  1.00  0.00     0.022 C 
HETATM   30  C11 UNL     1      -3.331   5.631  -1.911  1.00  0.00     0.022 C 
HETATM   31  C12 UNL     1      -2.250   4.712  -1.401  1.00  0.00     0.141 C 
ENDBRANCH  20  27
BRANCH  23  32
HETATM   32  N5  UNL     1      -2.909  -0.939   0.581  1.00  0.00    -0.220 N 
ATOM     33  H5  UNL     1      -2.370  -1.718   0.960  1.00  0.00     0.178 HD
BRANCH  32  34
HETATM   34  C14 UNL     1      -4.370  -1.060   0.461  1.00  0.00     0.099 C 
HETATM   35  C15 UNL     1      -4.644  -1.692  -0.868  1.00  0.00     0.027 C 
HETATM   36  C16 UNL     1      -4.474  -3.206  -0.680  1.00  0.00     0.035 C 
HETATM   37  C17 UNL     1      -5.689  -3.640   0.111  1.00  0.00     0.183 C 
HETATM   38  C18 UNL     1      -5.839  -2.894   1.397  1.00  0.00     0.035 C 
HETATM   39  C19 UNL     1      -4.851  -1.819   1.645  1.00  0.00     0.027 C 
BRANCH  37  40
HETATM   40  N6  UNL     1      -5.662  -5.078   0.260  1.00  0.00    -0.075 N 
ATOM     41  H63 UNL     1      -5.588  -5.561  -0.636  1.00  0.00     0.274 HD
ATOM     42  H62 UNL     1      -4.790  -5.410   0.673  1.00  0.00     0.274 HD
ATOM     43  H61 UNL     1      -6.481  -5.371   0.793  1.00  0.00     0.274 HD
ENDBRANCH  37  40
ENDBRANCH  32  34
ENDBRANCH  23  32
ENDBRANCH  13  18
ENDBRANCH   5   8
ENDBRANCH   1   4
BRANCH   1  44
HETATM   44  C25 UNL     1       6.574  -2.094   2.002  1.00  0.00     0.022 A 
HETATM   45  C26 UNL     1       7.531  -3.038   2.714  1.00  0.00     0.008 A 
HETATM   46  C27 UNL     1       7.488  -1.596   3.073  1.00  0.00     0.008 A 
ENDBRANCH   1  44
TORSDOF 9
