REMARK  11 active torsions:
REMARK  status: ('A' for Active; 'I' for Inactive)
REMARK    1  A    between atoms: C2_2  and  C3_3 
REMARK    2  A    between atoms: C4_4  and  C5_5 
REMARK    3  A    between atoms: N1_6  and  C6_8 
REMARK    4  A    between atoms: C6_8  and  O1_9 
REMARK    5  A    between atoms: C6_8  and  C7_11 
REMARK    6  A    between atoms: C7_11  and  C9_13 
REMARK    7  A    between atoms: C13_18  and  N2_19 
REMARK       I    between atoms: N2_19  and  C14_21 
REMARK    8  A    between atoms: C14_21  and  O4_23 
REMARK    9  A    between atoms: O4_23  and  C15_24 
REMARK   10  A    between atoms: C23_33  and  O6_34 
REMARK   11  A    between atoms: C25_38  and  N3_39 
ROOT
HETATM    1  C3  UNL     1      -0.186  -0.720  -0.864  1.00  0.00     0.014 C 
HETATM    2  C4  UNL     1       0.939  -0.425   0.077  1.00  0.00     0.108 C 
HETATM    3  C12 UNL     1      -0.086  -0.242   1.117  1.00  0.00     0.166 C 
HETATM    4  O2  UNL     1      -0.092   0.122   2.266  1.00  0.00    -0.294 OA
HETATM    5  C13 UNL     1      -1.241  -0.700   0.193  1.00  0.00     0.111 C 
HETATM    6  C19 UNL     1      -1.552  -2.115   0.598  1.00  0.00     0.064 C 
HETATM    7  C20 UNL     1      -0.349  -2.834   0.037  1.00  0.00     0.018 C 
HETATM    8  C21 UNL     1      -0.201  -2.219  -1.310  1.00  0.00     0.034 C 
HETATM    9  C22 UNL     1      -1.350  -2.349  -2.208  1.00  0.00     0.201 A 
HETATM   10  O5  UNL     1      -1.759  -3.134  -3.173  1.00  0.00    -0.335 OA
HETATM   11  C23 UNL     1      -1.751  -3.834  -2.016  1.00  0.00     0.255 A 
HETATM   12  C24 UNL     1      -2.608  -3.815  -0.864  1.00  0.00     0.225 C 
HETATM   13  O7  UNL     1      -3.261  -4.800  -0.645  1.00  0.00    -0.289 OA
HETATM   14  C25 UNL     1      -2.839  -2.719   0.165  1.00  0.00     0.303 C 
ENDROOT
BRANCH   2  15
HETATM   15  C5  UNL     1       1.727   0.808  -0.197  1.00  0.00     0.071 C 
HETATM   16  N1  UNL     1       2.940   0.977   0.102  1.00  0.00    -0.376 N 
ATOM     17  H1  UNL     1       3.342   1.879  -0.152  1.00  0.00     0.161 HD
BRANCH  16  18
HETATM   18  C6  UNL     1       3.809   0.073   0.744  1.00  0.00     0.221 C 
BRANCH  18  19
HETATM   19  O1  UNL     1       3.263  -0.431   1.943  1.00  0.00    -0.377 OA
ATOM     20  H1  UNL     1       3.849  -1.041   2.376  1.00  0.00     0.212 HD
ENDBRANCH  18  19
BRANCH  18  21
HETATM   21  C7  UNL     1       5.116   0.707   1.099  1.00  0.00     0.033 C 
HETATM   22  C8  UNL     1       4.952   1.891   2.029  1.00  0.00     0.015 C 
BRANCH  21  23
HETATM   23  C9  UNL     1       5.913   1.053  -0.123  1.00  0.00    -0.015 C 
HETATM   24  C10 UNL     1       5.258   2.016  -1.059  1.00  0.00     0.010 C 
HETATM   25  C11 UNL     1       7.304   1.558   0.271  1.00  0.00     0.010 C 
ENDBRANCH  21  23
ENDBRANCH  18  21
ENDBRANCH  16  18
ENDBRANCH   2  15
BRANCH   1  26
HETATM   26  C2  UNL     1      -0.311   0.174  -2.049  1.00  0.00     0.009 C 
HETATM   27  C1  UNL     1       0.950   0.112  -2.912  1.00  0.00     0.006 C 
ENDBRANCH   1  26
BRANCH   5  28
HETATM   28  N2  UNL     1      -2.304   0.216   0.210  1.00  0.00    -0.319 N 
HETATM   29  C14 UNL     1      -2.275   1.603   0.438  1.00  0.00     0.362 C 
HETATM   30  O3  UNL     1      -1.254   2.239   0.683  1.00  0.00    -0.238 OA
ATOM     31  H2  UNL     1      -3.227  -0.180   0.032  1.00  0.00     0.166 HD
BRANCH  29  32
HETATM   32  O4  UNL     1      -3.454   2.379   0.398  1.00  0.00    -0.294 OA
BRANCH  32  33
HETATM   33  C15 UNL     1      -3.435   3.768   0.625  1.00  0.00     0.061 C 
HETATM   34  C16 UNL     1      -4.860   4.264   0.506  1.00  0.00     0.046 C 
HETATM   35  C17 UNL     1      -2.604   4.508  -0.391  1.00  0.00     0.046 C 
HETATM   36  C18 UNL     1      -2.941   4.136   1.996  1.00  0.00     0.046 C 
ENDBRANCH  32  33
ENDBRANCH  29  32
ENDBRANCH   5  28
BRANCH  14  37
HETATM   37  N3  UNL     1      -3.655  -3.183   1.262  1.00  0.00     0.092 N 
HETATM   38  C26 UNL     1      -4.951  -3.595   0.808  1.00  0.00     0.310 C 
HETATM   39  C27 UNL     1      -2.999  -4.164   2.081  1.00  0.00     0.310 C 
ENDBRANCH  14  37
BRANCH  11  40
HETATM   40  O6  UNL     1      -0.757  -4.808  -2.164  1.00  0.00    -0.357 OA
ATOM     41  H6  UNL     1      -1.003  -5.718  -2.046  1.00  0.00     0.213 HD
ENDBRANCH  11  40
TORSDOF 11
