REMARK  3 active torsions:
REMARK  status: ('A' for Active; 'I' for Inactive)
REMARK    1  A    between atoms: C3_3  and  S1_4 
REMARK    2  A    between atoms: S1_4  and  S2_5 
REMARK    3  A    between atoms: S2_5  and  C4_6 
ROOT
HETATM    1  C1  UNL     1       5.246   0.204   0.586  1.00  0.00     0.113 C 
HETATM    2  C2  UNL     1       3.992  -0.464   0.241  1.00  0.00    -0.098 C 
HETATM    3  C3  UNL     1       2.962  -1.013  -0.065  1.00  0.00    -0.023 C 
ENDROOT
BRANCH   3   4
HETATM    4  S1  UNL     1       1.463  -1.813  -0.541  1.00  0.00    -0.005 SA
BRANCH   4   5
HETATM    5  S2  UNL     1      -0.112  -1.295   0.766  1.00  0.00    -0.077 SA
BRANCH   5   6
HETATM    6  C4  UNL     1      -1.005   0.167   0.219  1.00  0.00     0.086 C 
HETATM    7  C5  UNL     1      -2.106   0.457   1.212  1.00  0.00     0.045 C 
HETATM    8  C6  UNL     1      -3.386   0.133   0.436  1.00  0.00     0.233 C 
HETATM    9  N1  UNL     1      -3.021   0.630  -0.888  1.00  0.00    -0.074 N 
HETATM   10  C7  UNL     1      -1.716  -0.003  -1.075  1.00  0.00     0.248 C 
ATOM     11  H12 UNL     1      -3.703   0.454  -1.626  1.00  0.00     0.277 HD
ATOM     12  H11 UNL     1      -3.035   1.644  -0.994  1.00  0.00     0.277 HD
ENDBRANCH   5   6
ENDBRANCH   4   5
ENDBRANCH   3   4
TORSDOF 3
