REMARK  2 active torsions:
REMARK  status: ('A' for Active; 'I' for Inactive)
REMARK    1  A    between atoms: C2_2  and  S1_5 
REMARK    2  A    between atoms: S1_5  and  C5_6 
ROOT
HETATM    1  C5  UNL     1       0.935   0.381   0.112  1.00  0.00     0.089 C 
HETATM    2  C6  UNL     1       2.018   1.373  -0.235  1.00  0.00     0.133 C 
HETATM    3  N1  UNL     1       3.228   1.063   0.468  1.00  0.00    -0.400 N 
ATOM      4  H1  UNL     1       3.778   1.772   0.952  1.00  0.00     0.155 HD
HETATM    5  C7  UNL     1       3.607  -0.318   0.439  1.00  0.00     0.285 C 
HETATM    6  O1  UNL     1       2.569  -1.205   0.626  1.00  0.00    -0.371 OA
HETATM    7  C8  UNL     1       1.488  -1.003  -0.208  1.00  0.00     0.186 C 
ENDROOT
BRANCH   1   8
HETATM    8  S1  UNL     1      -0.523   0.647  -0.900  1.00  0.00    -0.152 SA
BRANCH   8   9
HETATM    9  C2  UNL     1      -2.033  -0.019  -0.199  1.00  0.00    -0.003 C 
HETATM   10  C1  UNL     1      -2.624  -0.994  -1.211  1.00  0.00     0.026 C 
HETATM   11  C3  UNL     1      -1.836  -0.783   1.074  1.00  0.00     0.026 C 
HETATM   12  C4  UNL     1      -2.992   1.132   0.063  1.00  0.00     0.026 C 
ENDBRANCH   8   9
ENDBRANCH   1   8
TORSDOF 2
