REMARK  14 active torsions:
REMARK  status: ('A' for Active; 'I' for Inactive)
REMARK    1  A    between atoms: C2_2  and  C3_3 
REMARK    2  A    between atoms: C3_3  and  C4_4 
REMARK    3  A    between atoms: C6_7  and  C7_8 
REMARK    4  A    between atoms: C7_8  and  C8_9 
REMARK    5  A    between atoms: C8_9  and  C9_10 
REMARK    6  A    between atoms: C9_10  and  C22_28 
REMARK    7  A    between atoms: C10_11  and  C11_12 
REMARK    8  A    between atoms: C11_12  and  C12_13 
REMARK    9  A    between atoms: C12_13  and  C13_14 
REMARK   10  A    between atoms: C13_14  and  C15_16 
REMARK   11  A    between atoms: C18_19  and  O2_20 
REMARK   12  A    between atoms: C19_22  and  O3_23 
REMARK   13  A    between atoms: C22_28  and  C23_29 
REMARK   14  A    between atoms: C23_29  and  C24_30 
ROOT
HETATM    1  C9  UNL     1      -1.200  -0.831  -1.413  1.00  0.00    -0.083 C 
HETATM    2  C10 UNL     1      -2.017   0.178  -1.373  1.00  0.00    -0.021 C 
ENDROOT
BRANCH   1   3
HETATM    3  C8  UNL     1       0.256  -0.635  -1.186  1.00  0.00     0.038 C 
BRANCH   3   4
HETATM    4  C7  UNL     1       0.675   0.765  -0.922  1.00  0.00     0.065 C 
BRANCH   4   5
HETATM    5  C6  UNL     1       2.197   0.868  -0.699  1.00  0.00     0.261 C 
HETATM    6  O1  UNL     1       2.789   0.422  -1.819  1.00  0.00    -0.350 OA
HETATM    7  C4  UNL     1       4.108  -0.139  -1.640  1.00  0.00     0.075 C 
HETATM    8  C5  UNL     1       4.768   0.354  -2.937  1.00  0.00     0.047 C 
HETATM    9  C35 UNL     1       4.613   0.552  -0.441  1.00  0.00     0.149 C 
HETATM   10  C28 UNL     1       3.815   0.069   0.746  1.00  0.00     0.141 C 
HETATM   11  C34 UNL     1       6.044   0.625  -0.197  1.00  0.00     0.268 C 
HETATM   12  O5  UNL     1       2.475   0.226   0.476  1.00  0.00    -0.355 OA
HETATM   13  C29 UNL     1       4.256   0.690   2.042  1.00  0.00     0.033 C 
HETATM   14  C30 UNL     1       4.357   2.163   2.069  1.00  0.00     0.005 C 
HETATM   15  C31 UNL     1       5.741   2.509   2.638  1.00  0.00     0.032 C 
HETATM   16  C32 UNL     1       6.681   2.563   1.480  1.00  0.00     0.127 C 
HETATM   17  C33 UNL     1       8.091   2.888   1.963  1.00  0.00     0.040 C 
HETATM   18  O6  UNL     1       6.771   1.367   0.748  1.00  0.00    -0.316 OA
HETATM   19  O7  UNL     1       6.840  -0.044  -0.884  1.00  0.00    -0.265 OA
BRANCH   7  20
HETATM   20  C3  UNL     1       3.839  -1.574  -1.611  1.00  0.00     0.038 C 
BRANCH  20  21
HETATM   21  C2  UNL     1       4.849  -2.614  -1.729  1.00  0.00    -0.002 C 
HETATM   22  C1  UNL     1       5.613  -2.637  -3.032  1.00  0.00     0.005 C 
ENDBRANCH  20  21
ENDBRANCH   7  20
ENDBRANCH   4   5
ENDBRANCH   3   4
ENDBRANCH   1   3
BRANCH   1  23
HETATM   23  C22 UNL     1      -1.642  -2.221  -1.623  1.00  0.00     0.037 C 
BRANCH  23  24
HETATM   24  C23 UNL     1      -1.186  -3.162  -0.562  1.00  0.00     0.031 C 
BRANCH  24  25
HETATM   25  C24 UNL     1      -1.604  -2.890   0.821  1.00  0.00    -0.024 C 
HETATM   26  C25 UNL     1      -2.255  -3.779   1.566  1.00  0.00    -0.091 C 
HETATM   27  C26 UNL     1      -2.661  -3.482   2.955  1.00  0.00     0.042 C 
HETATM   28  C27 UNL     1      -2.567  -5.098   0.956  1.00  0.00     0.042 C 
ENDBRANCH  24  25
ENDBRANCH  23  24
ENDBRANCH   1  23
BRANCH   2  29
HETATM   29  C11 UNL     1      -3.460   0.262  -1.563  1.00  0.00     0.066 C 
BRANCH  29  30
HETATM   30  C12 UNL     1      -4.260   0.869  -0.432  1.00  0.00     0.070 C 
HETATM   31  C17 UNL     1      -5.679   1.067  -0.890  1.00  0.00     0.073 C 
HETATM   32  C18 UNL     1      -6.731   0.421  -0.049  1.00  0.00     0.152 C 
HETATM   33  C19 UNL     1      -6.291  -0.849   0.593  1.00  0.00     0.175 C 
HETATM   34  C20 UNL     1      -4.989  -0.597   1.272  1.00  0.00     0.149 C 
HETATM   35  C21 UNL     1      -5.301  -0.197   2.723  1.00  0.00     0.042 C 
HETATM   36  O4  UNL     1      -4.070   0.169   0.686  1.00  0.00    -0.372 OA
BRANCH  30  37
HETATM   37  C13 UNL     1      -3.713   2.275  -0.217  1.00  0.00     0.016 C 
HETATM   38  C14 UNL     1      -4.450   2.979   0.903  1.00  0.00     0.013 C 
BRANCH  37  39
HETATM   39  C15 UNL     1      -3.639   3.116  -1.438  1.00  0.00     0.002 C 
HETATM   40  C16 UNL     1      -3.081   4.505  -1.074  1.00  0.00     0.005 C 
ENDBRANCH  37  39
ENDBRANCH  30  37
BRANCH  32  41
HETATM   41  O2  UNL     1      -7.879   0.133  -0.811  1.00  0.00    -0.393 OA
ATOM     42  H2  UNL     1      -8.548  -0.278  -0.276  1.00  0.00     0.210 HD
ENDBRANCH  32  41
BRANCH  33  43
HETATM   43  O3  UNL     1      -6.239  -1.922  -0.301  1.00  0.00    -0.390 OA
ATOM     44  H3  UNL     1      -5.958  -2.732   0.108  1.00  0.00     0.210 HD
ENDBRANCH  33  43
ENDBRANCH  29  30
ENDBRANCH   2  29
TORSDOF 14
