REMARK  14 active torsions:
REMARK  status: ('A' for Active; 'I' for Inactive)
REMARK    1  A    between atoms: C3_3  and  C5_5 
REMARK    2  A    between atoms: C5_5  and  O2_7 
REMARK    3  A    between atoms: O2_7  and  C6_8 
REMARK    4  A    between atoms: C9_11  and  C11_13 
REMARK    5  A    between atoms: C11_13  and  C12_14 
REMARK    6  A    between atoms: C12_14  and  C13_15 
REMARK    7  A    between atoms: C14_16  and  C16_18 
REMARK    8  A    between atoms: C16_18  and  C17_19 
REMARK    9  A    between atoms: C17_19  and  C18_20 
REMARK   10  A    between atoms: C19_21  and  C21_23 
REMARK   11  A    between atoms: C21_23  and  C22_24 
REMARK   12  A    between atoms: C22_24  and  C23_25 
REMARK   13  A    between atoms: C32_37  and  O6_38 
REMARK   14  A    between atoms: C33_40  and  O7_41 
ROOT
HETATM    1  C6  UNL     1      -4.423  -1.054   0.530  1.00  0.00     0.141 C 
HETATM    2  C7  UNL     1      -3.622  -2.153  -0.153  1.00  0.00     0.034 C 
HETATM    3  C8  UNL     1      -2.189  -1.834  -0.373  1.00  0.00     0.012 C 
HETATM    4  C9  UNL     1      -1.693  -0.691   0.457  1.00  0.00    -0.039 C 
HETATM    5  C10 UNL     1      -1.489  -1.273   1.870  1.00  0.00     0.015 C 
HETATM    6  C27 UNL     1      -2.560   0.519   0.495  1.00  0.00     0.005 C 
HETATM    7  C28 UNL     1      -2.068   1.700  -0.271  1.00  0.00     0.024 C 
HETATM    8  C29 UNL     1      -2.093   2.961   0.611  1.00  0.00     0.133 C 
HETATM    9  C30 UNL     1      -1.563   4.014  -0.285  1.00  0.00     0.274 C 
HETATM   10  O3  UNL     1      -0.397   4.415  -0.337  1.00  0.00    -0.264 OA
HETATM   11  O4  UNL     1      -2.622   4.458  -1.050  1.00  0.00    -0.242 OA
HETATM   12  C31 UNL     1      -3.823   3.970  -0.526  1.00  0.00     0.304 C 
HETATM   13  O5  UNL     1      -4.916   4.019  -1.110  1.00  0.00    -0.261 OA
HETATM   14  C32 UNL     1      -3.501   3.429   0.780  1.00  0.00     0.184 C 
HETATM   15  C33 UNL     1      -4.481   2.504   1.335  1.00  0.00     0.164 C 
HETATM   16  C34 UNL     1      -4.937   1.336   0.542  1.00  0.00     0.047 C 
HETATM   17  C35 UNL     1      -3.994   0.314   0.075  1.00  0.00    -0.010 C 
HETATM   18  C36 UNL     1      -4.096   0.256  -1.465  1.00  0.00     0.018 C 
ENDROOT
BRANCH   4  19
HETATM   19  C11 UNL     1      -0.310  -0.334  -0.023  1.00  0.00     0.013 C 
BRANCH  19  20
HETATM   20  C12 UNL     1       0.694  -1.456   0.091  1.00  0.00     0.028 C 
BRANCH  20  21
HETATM   21  C13 UNL     1       2.044  -0.990  -0.411  1.00  0.00    -0.024 C 
HETATM   22  C14 UNL     1       2.663  -1.550  -1.419  1.00  0.00    -0.087 C 
HETATM   23  C15 UNL     1       2.030  -2.720  -2.151  1.00  0.00     0.043 C 
BRANCH  22  24
HETATM   24  C16 UNL     1       3.995  -1.155  -1.901  1.00  0.00     0.037 C 
BRANCH  24  25
HETATM   25  C17 UNL     1       4.736  -0.119  -1.144  1.00  0.00     0.031 C 
BRANCH  25  26
HETATM   26  C18 UNL     1       5.118  -0.629   0.195  1.00  0.00    -0.024 C 
HETATM   27  C19 UNL     1       6.332  -0.706   0.642  1.00  0.00    -0.087 C 
HETATM   28  C20 UNL     1       6.562  -1.251   2.038  1.00  0.00     0.043 C 
BRANCH  27  29
HETATM   29  C21 UNL     1       7.603  -0.312  -0.089  1.00  0.00     0.037 C 
BRANCH  29  30
HETATM   30  C22 UNL     1       8.315   0.757   0.647  1.00  0.00     0.031 C 
BRANCH  30  31
HETATM   31  C23 UNL     1       9.543   1.260   0.073  1.00  0.00    -0.024 C 
HETATM   32  C24 UNL     1      10.210   1.063  -1.006  1.00  0.00    -0.091 C 
HETATM   33  C25 UNL     1       9.866   0.156  -2.101  1.00  0.00     0.042 C 
HETATM   34  C26 UNL     1      11.506   1.849  -1.193  1.00  0.00     0.042 C 
ENDBRANCH  30  31
ENDBRANCH  29  30
ENDBRANCH  27  29
ENDBRANCH  25  26
ENDBRANCH  24  25
ENDBRANCH  22  24
ENDBRANCH  20  21
ENDBRANCH  19  20
ENDBRANCH   4  19
BRANCH   1  35
HETATM   35  O2  UNL     1      -5.804  -1.162   0.136  1.00  0.00    -0.311 OA
BRANCH  35  36
HETATM   36  C5  UNL     1      -6.818  -1.469   1.002  1.00  0.00     0.289 C 
HETATM   37  O1  UNL     1      -6.517  -1.666   2.195  1.00  0.00    -0.260 OA
BRANCH  36  38
HETATM   38  C3  UNL     1      -8.174  -1.545   0.489  1.00  0.00     0.009 C 
HETATM   39  C2  UNL     1      -8.459  -1.328  -0.785  1.00  0.00    -0.018 C 
HETATM   40  C1  UNL     1      -9.856  -1.406  -1.301  1.00  0.00     0.036 C 
HETATM   41  C4  UNL     1      -9.281  -1.871   1.411  1.00  0.00     0.054 C 
ENDBRANCH  36  38
ENDBRANCH  35  36
ENDBRANCH   1  35
BRANCH  14  42
HETATM   42  O6  UNL     1      -3.426   4.542   1.661  1.00  0.00    -0.376 OA
ATOM     43  H6  UNL     1      -4.322   4.840   1.769  1.00  0.00     0.211 HD
ENDBRANCH  14  42
BRANCH  15  44
HETATM   44  O7  UNL     1      -4.236   2.218   2.701  1.00  0.00    -0.392 OA
ATOM     45  H7  UNL     1      -4.875   1.615   3.063  1.00  0.00     0.210 HD
ENDBRANCH  15  44
TORSDOF 14
