REMARK  8 active torsions:
REMARK  status: ('A' for Active; 'I' for Inactive)
REMARK    1  A    between atoms: N1_1  and  C1_5 
REMARK    2  A    between atoms: C3_7  and  N2_8 
REMARK    3  A    between atoms: N3_13  and  C5_14 
REMARK    4  A    between atoms: C6_17  and  N5_18 
REMARK    5  A    between atoms: N5_18  and  C7_20 
REMARK    6  A    between atoms: N8_30  and  C13_32 
REMARK    7  A    between atoms: C16_35  and  C17_36 
REMARK    8  A    between atoms: C21_44  and  N10_45 
ROOT
HETATM    1  C5  UNL     1      -3.123  -0.647   0.461  1.00  0.00     0.709 A 
HETATM    2  N4  UNL     1      -1.880  -0.747   0.982  1.00  0.00    -0.021 N 
ATOM      3  H4  UNL     1      -1.594  -1.638   1.388  1.00  0.00     0.203 HD
HETATM    4  C6  UNL     1      -0.997   0.277   0.991  1.00  0.00     0.711 A 
HETATM    5  N9  UNL     1      -1.395   1.437   0.454  1.00  0.00    -0.021 N 
ATOM      6  H9  UNL     1      -0.747   2.225   0.451  1.00  0.00     0.203 HD
HETATM    7  C21 UNL     1      -2.621   1.603  -0.083  1.00  0.00     0.709 A 
HETATM    8  N12 UNL     1      -3.457   0.535  -0.060  1.00  0.00    -0.021 N 
ATOM      9  H12 UNL     1      -4.389   0.641  -0.462  1.00  0.00     0.203 HD
ENDROOT
BRANCH   4  10
HETATM   10  N5  UNL     1       0.148   0.049   1.518  1.00  0.00    -0.191 N 
ATOM     11  H5  UNL     1       0.330  -0.881   1.895  1.00  0.00     0.184 HD
BRANCH  10  12
HETATM   12  C7  UNL     1       1.173   1.021   1.604  1.00  0.00     0.050 A 
HETATM   13  C8  UNL     1       0.973   2.307   2.067  1.00  0.00     0.032 A 
HETATM   14  C9  UNL     1       1.986   3.236   2.151  1.00  0.00     0.033 A 
HETATM   15  C10 UNL     1       3.256   2.864   1.754  1.00  0.00     0.047 A 
HETATM   16  N6  UNL     1       4.287   3.713   1.808  1.00  0.00    -0.352 N 
HETATM   17  C19 UNL     1       3.500   1.576   1.280  1.00  0.00     0.037 A 
HETATM   18  C11 UNL     1       5.515   3.347   1.422  1.00  0.00     0.182 A 
ATOM     19  H6  UNL     1       4.134   4.661   2.151  1.00  0.00     0.166 HD
HETATM   20  N7  UNL     1       5.749   2.087   0.959  1.00  0.00    -0.338 N 
HETATM   21  C12 UNL     1       4.772   1.173   0.872  1.00  0.00     0.115 A 
ATOM     22  H7  UNL     1       6.694   1.832   0.671  1.00  0.00     0.168 HD
HETATM   23  N8  UNL     1       4.898  -0.028   0.454  1.00  0.00    -0.371 N 
ATOM     24  H8  UNL     1       4.080  -0.637   0.432  1.00  0.00     0.161 HD
HETATM   25  C20 UNL     1       2.456   0.679   1.213  1.00  0.00     0.047 A 
BRANCH  23  26
HETATM   26  C13 UNL     1       6.156  -0.536   0.018  1.00  0.00     0.084 C 
HETATM   27  C14 UNL     1       6.389  -0.373  -1.475  1.00  0.00     0.026 C 
HETATM   28  C15 UNL     1       7.305  -1.468  -1.907  1.00  0.00     0.017 C 
HETATM   29  C16 UNL     1       7.177  -2.525  -0.865  1.00  0.00     0.089 C 
HETATM   30  C18 UNL     1       6.272  -2.040   0.228  1.00  0.00     0.040 C 
BRANCH  29  31
HETATM   31  C17 UNL     1       8.522  -2.864  -0.328  1.00  0.00     0.177 C 
HETATM   32  O1  UNL     1       9.584  -2.289  -0.728  1.00  0.00    -0.648 OA
HETATM   33  O2  UNL     1       8.599  -3.847   0.645  1.00  0.00    -0.648 OA
ENDBRANCH  29  31
ENDBRANCH  23  26
ENDBRANCH  10  12
ENDBRANCH   4  10
BRANCH   1  34
HETATM   34  N3  UNL     1      -3.963  -1.794   0.510  1.00  0.00    -0.213 N 
HETATM   35  C4  UNL     1      -5.288  -1.719  -0.003  1.00  0.00     0.174 C 
HETATM   36  C3  UNL     1      -6.284  -2.670   0.560  1.00  0.00     0.204 C 
HETATM   37  C2  UNL     1      -5.774  -3.984   1.021  1.00  0.00     0.069 C 
HETATM   38  C1  UNL     1      -4.308  -4.207   0.906  1.00  0.00     0.204 C 
HETATM   39  C26 UNL     1      -3.449  -3.009   1.073  1.00  0.00     0.174 C 
BRANCH  36  40
HETATM   40  N2  UNL     1      -7.335  -2.821  -0.466  1.00  0.00    -0.073 N 
ATOM     41  H23 UNL     1      -7.012  -3.390  -1.249  1.00  0.00     0.274 HD
ATOM     42  H22 UNL     1      -8.093  -3.419  -0.137  1.00  0.00     0.274 HD
ATOM     43  H21 UNL     1      -7.686  -1.917  -0.783  1.00  0.00     0.274 HD
ENDBRANCH  36  40
BRANCH  38  44
HETATM   44  N1  UNL     1      -4.008  -4.892  -0.350  1.00  0.00    -0.073 N 
ATOM     45  H13 UNL     1      -4.537  -5.759  -0.450  1.00  0.00     0.274 HD
ATOM     46  H12 UNL     1      -4.385  -4.395  -1.157  1.00  0.00     0.274 HD
ATOM     47  H11 UNL     1      -3.003  -5.045  -0.429  1.00  0.00     0.274 HD
ENDBRANCH  38  44
ENDBRANCH   1  34
BRANCH   7  48
HETATM   48  N10 UNL     1      -3.059   2.827  -0.656  1.00  0.00    -0.213 N 
HETATM   49  C22 UNL     1      -3.653   3.866   0.179  1.00  0.00     0.168 C 
HETATM   50  C23 UNL     1      -3.946   5.059  -0.698  1.00  0.00     0.252 C 
HETATM   51  N11 UNL     1      -4.764   4.707  -1.837  1.00  0.00    -0.072 N 
HETATM   52  C24 UNL     1      -4.182   3.681  -2.660  1.00  0.00     0.252 C 
ATOM     53 2H11 UNL     1      -5.704   4.444  -1.541  1.00  0.00     0.277 HD
ATOM     54 1H11 UNL     1      -4.987   5.533  -2.392  1.00  0.00     0.277 HD
HETATM   55  C25 UNL     1      -2.933   3.067  -2.059  1.00  0.00     0.168 C 
ENDBRANCH   7  48
TORSDOF 8
