REMARK  11 active torsions:
REMARK  status: ('A' for Active; 'I' for Inactive)
REMARK    1  A    between atoms: C2_2  and  O1_3 
REMARK    2  A    between atoms: C2_2  and  C3_5 
REMARK    3  A    between atoms: C3_5  and  O2_6 
REMARK    4  A    between atoms: C3_5  and  N1_8 
REMARK    5  A    between atoms: C6_11  and  N2_12 
REMARK    6  A    between atoms: N3_15  and  C8_16 
REMARK    7  A    between atoms: C9_18  and  C10_19 
REMARK       I    between atoms: C10_19  and  N4_21 
REMARK    8  A    between atoms: N4_21  and  C11_23 
REMARK    9  A    between atoms: C17_29  and  O5_30 
REMARK   10  A    between atoms: C18_32  and  O6_33 
REMARK   11  A    between atoms: C21_41  and  N7_42 
ROOT
HETATM    1  N2  UNL     1       2.966   0.040   0.524  1.00  0.00    -0.264 N 
HETATM    2  C7  UNL     1       1.711  -0.295   0.086  1.00  0.00     0.336 A 
HETATM    3  O3  UNL     1       1.543  -0.917  -1.014  1.00  0.00    -0.246 OA
HETATM    4  N3  UNL     1       0.769   0.107   0.936  1.00  0.00    -0.266 N 
HETATM    5  C19 UNL     1       1.384   0.712   1.946  1.00  0.00     0.145 A 
HETATM    6  N5  UNL     1       0.947   1.303   3.072  1.00  0.00    -0.336 N 
ATOM      7  H5  UNL     1      -0.054   1.337   3.267  1.00  0.00     0.168 HD
HETATM    8  C20 UNL     1       1.803   1.843   3.934  1.00  0.00     0.183 A 
HETATM    9  N6  UNL     1       3.129   1.830   3.737  1.00  0.00    -0.337 N 
ATOM     10  H6  UNL     1       3.759   2.252   4.419  1.00  0.00     0.168 HD
HETATM   11  C21 UNL     1       3.619   1.243   2.611  1.00  0.00     0.131 A 
HETATM   12  C22 UNL     1       2.758   0.676   1.701  1.00  0.00     0.132 A 
ENDROOT
BRANCH   4  13
HETATM   13  C8  UNL     1      -0.619  -0.094   0.753  1.00  0.00     0.190 C 
HETATM   14  S1  UNL     1      -1.384   1.573   0.545  1.00  0.00    -0.123 SA
HETATM   15  C9  UNL     1      -3.063   1.075   1.102  1.00  0.00     0.172 C 
HETATM   16  C17 UNL     1      -2.833  -0.207   1.815  1.00  0.00     0.172 C 
HETATM   17  C18 UNL     1      -1.409  -0.575   1.884  1.00  0.00     0.181 C 
BRANCH  15  18
HETATM   18  C10 UNL     1      -3.974   0.939  -0.061  1.00  0.00     0.234 C 
HETATM   19  O4  UNL     1      -3.527   1.206  -1.194  1.00  0.00    -0.272 OA
HETATM   20  N4  UNL     1      -5.306   0.511   0.178  1.00  0.00    -0.355 N 
ATOM     21  H4  UNL     1      -5.585   0.315   1.139  1.00  0.00     0.162 HD
BRANCH  20  22
HETATM   22  C11 UNL     1      -6.292   0.337  -0.871  1.00  0.00     0.084 C 
HETATM   23  C12 UNL     1      -7.485   1.247  -0.674  1.00  0.00     0.025 C 
HETATM   24  C13 UNL     1      -8.306   1.156  -1.961  1.00  0.00     0.002 C 
HETATM   25  C14 UNL     1      -8.819  -0.252  -2.158  1.00  0.00     0.000 C 
HETATM   26  C15 UNL     1      -7.668  -1.214  -2.157  1.00  0.00     0.002 C 
HETATM   27  C16 UNL     1      -6.786  -1.093  -0.938  1.00  0.00     0.025 C 
ENDBRANCH  20  22
ENDBRANCH  15  18
BRANCH  16  28
HETATM   28  O5  UNL     1      -3.483  -0.244   3.053  1.00  0.00    -0.391 OA
ATOM     29  H5  UNL     1      -3.336  -1.064   3.509  1.00  0.00     0.210 HD
ENDBRANCH  16  28
BRANCH  17  30
HETATM   30  O6  UNL     1      -1.337  -1.996   1.852  1.00  0.00    -0.390 OA
ATOM     31  H6  UNL     1      -1.851  -2.309   2.587  1.00  0.00     0.210 HD
ENDBRANCH  17  30
ENDBRANCH   4  13
BRANCH   1  32
HETATM   32  C6  UNL     1       4.224  -0.216  -0.119  1.00  0.00     0.003 C 
HETATM   33  C5  UNL     1       5.128  -1.259   0.400  1.00  0.00     0.073 C 
HETATM   34  C4  UNL     1       5.753  -2.001  -0.824  1.00  0.00     0.130 C 
HETATM   35  N1  UNL     1       6.460  -0.841  -1.497  1.00  0.00    -0.359 N 
HETATM   36  C24 UNL     1       5.640   0.191  -2.004  1.00  0.00     0.130 C 
HETATM   37  C23 UNL     1       4.914   0.913  -0.816  1.00  0.00     0.073 C 
BRANCH  35  38
HETATM   38  C3  UNL     1       7.836  -0.942  -1.567  1.00  0.00     0.171 C 
BRANCH  38  39
HETATM   39  C2  UNL     1       8.883  -0.074  -1.988  1.00  0.00     0.106 C 
HETATM   40  C1  UNL     1       8.773   1.141  -2.405  1.00  0.00     0.055 C 
BRANCH  39  41
HETATM   41  O1  UNL     1      10.237  -0.625  -1.948  1.00  0.00    -0.357 OA
ATOM     42  H1  UNL     1      10.318  -1.520  -1.641  1.00  0.00     0.217 HD
ENDBRANCH  39  41
ENDBRANCH  38  39
BRANCH  38  43
HETATM   43  O2  UNL     1       8.347  -2.121  -1.145  1.00  0.00    -0.344 OA
ATOM     44  H2  UNL     1       7.648  -2.700  -0.864  1.00  0.00     0.219 HD
ENDBRANCH  38  43
ENDBRANCH  35  38
ENDBRANCH   1  32
BRANCH  11  45
HETATM   45  N7  UNL     1       4.878   1.215   2.399  1.00  0.00    -0.383 N 
ATOM     46  H72 UNL     1       5.517   1.636   3.074  1.00  0.00     0.157 HD
ATOM     47  H71 UNL     1       5.245   0.775   1.555  1.00  0.00     0.157 HD
ENDBRANCH  11  45
TORSDOF 11
