REMARK  8 active torsions:
REMARK  status: ('A' for Active; 'I' for Inactive)
REMARK    1  A    between atoms: C2_3  and  C3_4 
REMARK       I    between atoms: C3_4  and  N2_6 
REMARK    2  A    between atoms: N2_6  and  C4_8 
REMARK    3  A    between atoms: C5_9  and  N3_10 
REMARK    4  A    between atoms: N3_10  and  N4_12 
REMARK    5  A    between atoms: N4_12  and  C6_14 
REMARK    6  A    between atoms: C11_28  and  C12_29 
REMARK    7  A    between atoms: C12_29  and  O2_30 
REMARK    8  A    between atoms: O2_30  and  C13_31 
REMARK       I    between atoms: C13_31  and  N10_33 
ROOT
HETATM    1  C4  UNL     1       2.012   0.201   1.681  1.00  0.00     0.186 C 
HETATM    2  C5  UNL     1       1.239   1.064   0.697  1.00  0.00     0.121 C 
HETATM    3  N9  UNL     1       0.002   0.451   1.068  1.00  0.00    -0.344 N 
HETATM    4  C11 UNL     1      -1.367  -0.027   1.066  1.00  0.00     0.120 C 
HETATM    5  C18 UNL     1      -1.318  -1.527   1.327  1.00  0.00     0.103 C 
HETATM    6  S1  UNL     1       0.054  -1.609   2.519  1.00  0.00    -0.139 SA
HETATM    7  C19 UNL     1       0.677   0.096   2.320  1.00  0.00     0.178 C 
ENDROOT
BRANCH   2   8
HETATM    8  N3  UNL     1       1.716   1.968  -0.072  1.00  0.00    -0.286 N 
ATOM      9  H3  UNL     1       2.718   2.156  -0.045  1.00  0.00     0.188 HD
BRANCH   8  10
HETATM   10  N4  UNL     1       0.933   2.694  -0.931  1.00  0.00    -0.282 N 
ATOM     11  H4  UNL     1       0.539   2.267  -1.769  1.00  0.00     0.188 HD
BRANCH  10  12
HETATM   12  C6  UNL     1       0.708   3.940  -0.647  1.00  0.00     0.152 A 
HETATM   13  N5  UNL     1       1.229   4.515   0.465  1.00  0.00    -0.336 N 
HETATM   14  C7  UNL     1       1.014   5.798   0.766  1.00  0.00     0.183 A 
ATOM     15  H5  UNL     1       1.803   3.950   1.091  1.00  0.00     0.168 HD
HETATM   16  N6  UNL     1       0.260   6.559  -0.052  1.00  0.00    -0.337 N 
HETATM   17  C8  UNL     1      -0.272   6.035  -1.158  1.00  0.00     0.138 A 
ATOM     18  H6  UNL     1       0.095   7.540   0.175  1.00  0.00     0.168 HD
HETATM   19  N7  UNL     1      -1.049   6.587  -2.121  1.00  0.00    -0.337 N 
HETATM   20  C10 UNL     1      -0.064   4.702  -1.492  1.00  0.00     0.123 A 
HETATM   21  C9  UNL     1      -1.297   5.618  -3.000  1.00  0.00     0.182 A 
ATOM     22  H7  UNL     1      -1.378   7.552  -2.164  1.00  0.00     0.168 HD
HETATM   23  N8  UNL     1      -0.718   4.463  -2.654  1.00  0.00    -0.346 N 
ATOM     24  H8  UNL     1      -0.760   3.580  -3.163  1.00  0.00     0.167 HD
ENDBRANCH  10  12
ENDBRANCH   8  10
ENDBRANCH   2   8
BRANCH   1  25
HETATM   25  N2  UNL     1       2.479  -0.953   0.943  1.00  0.00    -0.341 N 
HETATM   26  C3  UNL     1       3.879  -1.239   0.892  1.00  0.00     0.269 C 
HETATM   27  O1  UNL     1       4.654  -0.446   1.506  1.00  0.00    -0.266 OA
ATOM     28  H2  UNL     1       1.814  -1.558   0.462  1.00  0.00     0.163 HD
BRANCH  26  29
HETATM   29  C2  UNL     1       4.317  -2.403   0.152  1.00  0.00     0.104 A 
HETATM   30  N1  UNL     1       5.640  -2.604  -0.100  1.00  0.00    -0.332 N 
HETATM   31  C1  UNL     1       6.586  -1.599   0.312  1.00  0.00     0.158 C 
HETATM   32  C23 UNL     1       6.089  -3.708  -0.756  1.00  0.00     0.126 A 
HETATM   33  C22 UNL     1       5.195  -4.698  -1.208  1.00  0.00     0.090 A 
HETATM   34  N12 UNL     1       7.306  -3.969  -1.013  1.00  0.00    -0.384 N 
HETATM   35  C21 UNL     1       3.874  -4.518  -0.970  1.00  0.00     0.033 A 
HETATM   36  N11 UNL     1       5.641  -5.857  -1.890  1.00  0.00    -0.098 NA
HETATM   37  C20 UNL     1       3.446  -3.376  -0.294  1.00  0.00     0.037 A 
ATOM     38 2H12 UNL     1       7.953  -3.252  -0.686  1.00  0.00     0.157 HD
ATOM     39 1H12 UNL     1       7.643  -4.797  -1.505  1.00  0.00     0.157 HD
ENDBRANCH  26  29
ENDBRANCH   1  25
BRANCH   4  40
HETATM   40  C12 UNL     1      -1.934   0.116  -0.321  1.00  0.00     0.206 C 
BRANCH  40  41
HETATM   41  O2  UNL     1      -3.262  -0.335  -0.323  1.00  0.00    -0.302 OA
BRANCH  41  42
HETATM   42  C13 UNL     1      -4.306   0.233   0.376  1.00  0.00     0.362 C 
HETATM   43  O3  UNL     1      -4.089   1.251   1.076  1.00  0.00    -0.238 OA
HETATM   44  N10 UNL     1      -5.635  -0.295   0.335  1.00  0.00    -0.328 N 
HETATM   45  C14 UNL     1      -6.015  -1.459  -0.411  1.00  0.00     0.128 C 
HETATM   46  C17 UNL     1      -6.771   0.251   1.019  1.00  0.00     0.128 C 
HETATM   47  C15 UNL     1      -7.518  -1.569  -0.242  1.00  0.00     0.022 C 
HETATM   48  C16 UNL     1      -7.937  -0.148   0.157  1.00  0.00     0.022 C 
ENDBRANCH  41  42
ENDBRANCH  40  41
ENDBRANCH   4  40
TORSDOF 8
