REMARK  4 active torsions:
REMARK  status: ('A' for Active; 'I' for Inactive)
REMARK    1  A    between atoms: C5_10  and  C6_11 
REMARK       I    between atoms: C6_11  and  N3_13 
REMARK    2  A    between atoms: N3_13  and  C7_15 
REMARK    3  A    between atoms: C7_15  and  C8_16 
REMARK    4  A    between atoms: C8_16  and  C9_17 
ROOT
HETATM    1  C6  UNL     1       2.190  -0.740   0.461  1.00  0.00     0.256 C 
HETATM    2  O1  UNL     1       2.005  -1.001   1.676  1.00  0.00    -0.271 OA
HETATM    3  N3  UNL     1       1.045  -0.447  -0.328  1.00  0.00    -0.359 N 
ATOM      4  H3  UNL     1       1.171  -0.232  -1.317  1.00  0.00     0.162 HD
ENDROOT
BRANCH   1   5
HETATM    5  C5  UNL     1       3.547  -0.741  -0.112  1.00  0.00     0.343 C 
HETATM    6  C4  UNL     1       3.868   0.484  -0.845  1.00  0.00     0.111 C 
HETATM    7  N1  UNL     1       4.396   1.602  -0.140  1.00  0.00    -0.376 N 
HETATM    8  N2  UNL     1       3.674   0.546  -2.113  1.00  0.00    -0.387 N 
HETATM    9  C3  UNL     1       4.972   1.318   1.176  1.00  0.00     0.153 C 
ATOM     10  H1  UNL     1       4.374   2.545  -0.528  1.00  0.00     0.160 HD
HETATM   11  C2  UNL     1       5.532  -0.087   1.092  1.00  0.00     0.201 C 
HETATM   12  C1  UNL     1       6.584  -0.163   0.017  1.00  0.00     0.041 C 
HETATM   13  N4  UNL     1       4.509  -1.072   0.921  1.00  0.00    -0.050 N 
ATOM     14  H42 UNL     1       4.919  -1.990   0.750  1.00  0.00     0.279 HD
ATOM     15  H41 UNL     1       4.037  -1.258   1.806  1.00  0.00     0.279 HD
ATOM     16  H22 UNL     1       3.898   1.400  -2.624  1.00  0.00     0.157 HD
ATOM     17  H21 UNL     1       3.296  -0.255  -2.618  1.00  0.00     0.157 HD
ENDBRANCH   1   5
BRANCH   3  18
HETATM   18  C7  UNL     1      -0.297  -0.443   0.225  1.00  0.00     0.123 C 
BRANCH  18  19
HETATM   19  C8  UNL     1      -1.270  -0.097  -0.871  1.00  0.00     0.029 C 
BRANCH  19  20
HETATM   20  C9  UNL     1      -2.683  -0.060  -0.431  1.00  0.00    -0.038 C 
HETATM   21  C10 UNL     1      -2.964   0.935   0.644  1.00  0.00     0.014 C 
HETATM   22  C11 UNL     1      -4.427   1.027   0.955  1.00  0.00    -0.013 C 
HETATM   23  C12 UNL     1      -5.265   1.231  -0.312  1.00  0.00     0.010 C 
HETATM   24  C16 UNL     1      -4.936  -0.360   1.363  1.00  0.00     0.010 C 
HETATM   25  C13 UNL     1      -4.936  -0.078  -1.044  1.00  0.00    -0.009 C 
HETATM   26  C14 UNL     1      -3.554   0.166  -1.667  1.00  0.00     0.014 C 
HETATM   27  C15 UNL     1      -4.714  -1.108   0.043  1.00  0.00    -0.009 C 
HETATM   28  C17 UNL     1      -3.210  -1.413   0.018  1.00  0.00     0.014 C 
ENDBRANCH  19  20
ENDBRANCH  18  19
ENDBRANCH   3  18
TORSDOF 4
