REMARK  6 active torsions:
REMARK  status: ('A' for Active; 'I' for Inactive)
REMARK    1  A    between atoms: C6_6  and  C7_7 
REMARK    2  A    between atoms: C7_7  and  N1_8 
REMARK    3  A    between atoms: N1_8  and  C8_10 
REMARK    4  A    between atoms: C9_13  and  N3_14 
REMARK    5  A    between atoms: N3_14  and  C10_16 
REMARK    6  A    between atoms: C10_16  and  C11_17 
ROOT
HETATM    1  C1  UNL     1      -6.870   1.903  -0.411  1.00  0.00     0.012 C 
HETATM    2  C2  UNL     1      -6.163   1.226   0.288  1.00  0.00    -0.113 C 
HETATM    3  C3  UNL     1      -5.310   0.377   1.153  1.00  0.00     0.064 C 
HETATM    4  C4  UNL     1      -3.946   1.055   1.181  1.00  0.00     0.017 C 
HETATM    5  C5  UNL     1      -3.413   1.007  -0.236  1.00  0.00     0.007 C 
HETATM    6  C6  UNL     1      -3.289  -0.399  -0.760  1.00  0.00     0.004 C 
HETATM    7  C16 UNL     1      -3.765  -1.352   0.313  1.00  0.00     0.007 C 
HETATM    8  C17 UNL     1      -5.220  -1.016   0.603  1.00  0.00     0.017 C 
ENDROOT
BRANCH   6   9
HETATM    9  C7  UNL     1      -1.884  -0.724  -1.217  1.00  0.00     0.142 C 
BRANCH   9  10
HETATM   10  N1  UNL     1      -0.941  -0.595  -0.144  1.00  0.00    -0.226 N 
ATOM     11  H1  UNL     1      -1.266  -0.460   0.814  1.00  0.00     0.177 HD
BRANCH  10  12
HETATM   12  C8  UNL     1       0.323  -0.651  -0.402  1.00  0.00     0.681 A 
HETATM   13  N2  UNL     1       1.235  -0.534   0.574  1.00  0.00    -0.175 N 
HETATM   14  C9  UNL     1       2.559  -0.586   0.356  1.00  0.00     0.149 A 
ATOM     15  H2  UNL     1       0.907  -0.399   1.530  1.00  0.00     0.186 HD
HETATM   16  C14 UNL     1       2.992  -0.768  -0.935  1.00  0.00     0.138 A 
HETATM   17  N4  UNL     1       3.929  -0.909  -1.864  1.00  0.00    -0.292 N 
HETATM   18  C15 UNL     1       2.076  -0.892  -1.968  1.00  0.00     0.167 A 
HETATM   19  N5  UNL     1       3.069  -1.030  -2.860  1.00  0.00    -0.282 N 
ATOM     20  H4  UNL     1       4.948  -0.920  -1.824  1.00  0.00     0.187 HD
ATOM     21  H5  UNL     1       3.132  -1.168  -3.869  1.00  0.00     0.188 HD
HETATM   22  N6  UNL     1       0.772  -0.829  -1.659  1.00  0.00    -0.173 N 
ATOM     23  H6  UNL     1       0.089  -0.920  -2.411  1.00  0.00     0.186 HD
BRANCH  14  24
HETATM   24  N3  UNL     1       3.349  -0.467   1.333  1.00  0.00    -0.373 N 
ATOM     25  H3  UNL     1       2.899  -0.337   2.239  1.00  0.00     0.161 HD
BRANCH  24  26
HETATM   26  C10 UNL     1       4.764  -0.486   1.363  1.00  0.00     0.126 C 
BRANCH  26  27
HETATM   27  C11 UNL     1       5.280   0.954   1.370  1.00  0.00     0.003 A 
HETATM   28  C12 UNL     1       6.784   1.149   1.401  1.00  0.00     0.007 A 
HETATM   29  C13 UNL     1       5.975   1.522   0.218  1.00  0.00     0.007 A 
ENDBRANCH  26  27
ENDBRANCH  24  26
ENDBRANCH  14  24
ENDBRANCH  10  12
ENDBRANCH   9  10
ENDBRANCH   6   9
TORSDOF 6
