REMARK  3 active torsions:
REMARK  status: ('A' for Active; 'I' for Inactive)
REMARK    1  A    between atoms: C5_5  and  C6_6 
REMARK    2  A    between atoms: C6_6  and  C7_7 
REMARK       I    between atoms: N1_8  and  C8_10 
REMARK       I    between atoms: C8_10  and  N2_12 
REMARK    3  A    between atoms: N2_12  and  C9_14 
ROOT
HETATM    1  C6  UNL     1      -0.951   1.376   0.390  1.00  0.00     0.069 C 
ENDROOT
BRANCH   1   2
HETATM    2  C5  UNL     1      -1.924   0.598  -0.506  1.00  0.00     0.085 C 
HETATM    3  C4  UNL     1      -2.114  -0.800  -0.033  1.00  0.00     0.054 C 
HETATM    4  C2  UNL     1      -3.493  -1.325  -0.422  1.00  0.00     0.022 C 
HETATM    5  C1  UNL     1      -3.611  -2.702   0.241  1.00  0.00     0.037 C 
HETATM    6  C3  UNL     1      -3.623  -1.533  -1.895  1.00  0.00     0.037 C 
HETATM    7  N4  UNL     1      -4.465  -0.476   0.163  1.00  0.00    -0.389 N 
HETATM    8  C15 UNL     1      -4.251   0.920   0.041  1.00  0.00     0.088 C 
ATOM      9  H4  UNL     1      -5.280  -0.851   0.649  1.00  0.00     0.156 HD
HETATM   10  N3  UNL     1      -3.127   1.327  -0.721  1.00  0.00    -0.393 N 
HETATM   11  C16 UNL     1      -5.498   1.516  -0.630  1.00  0.00     0.062 C 
HETATM   12  C17 UNL     1      -4.247   1.511   1.454  1.00  0.00     0.062 C 
ATOM     13  H3  UNL     1      -3.178   2.099  -1.386  1.00  0.00     0.156 HD
ENDBRANCH   1   2
BRANCH   1  14
HETATM   14  C7  UNL     1       0.369   0.684   0.377  1.00  0.00     0.067 C 
HETATM   15  N1  UNL     1       0.696  -0.138   1.298  1.00  0.00    -0.323 N 
HETATM   16  C8  UNL     1       1.940  -0.784   1.276  1.00  0.00     0.320 C 
ATOM     17  H1  UNL     1       0.044  -0.327   2.059  1.00  0.00     0.169 HD
HETATM   18  O1  UNL     1       2.076  -1.934   1.762  1.00  0.00    -0.247 OA
HETATM   19  N2  UNL     1       3.085  -0.175   0.713  1.00  0.00    -0.338 N 
ATOM     20  H2  UNL     1       2.992   0.759   0.314  1.00  0.00     0.164 HD
BRANCH  19  21
HETATM   21  C9  UNL     1       4.376  -0.811   0.676  1.00  0.00     0.086 C 
HETATM   22  C10 UNL     1       4.809  -1.084  -0.745  1.00  0.00     0.025 C 
HETATM   23  C11 UNL     1       5.102   0.228  -1.413  1.00  0.00     0.002 C 
HETATM   24  C12 UNL     1       6.256   0.895  -0.705  1.00  0.00     0.000 C 
HETATM   25  C13 UNL     1       5.973   1.128   0.756  1.00  0.00     0.002 C 
HETATM   26  C14 UNL     1       5.432  -0.089   1.447  1.00  0.00     0.025 C 
ENDBRANCH  19  21
ENDBRANCH   1  14
TORSDOF 3
