REMARK  7 active torsions:
REMARK  status: ('A' for Active; 'I' for Inactive)
REMARK    1  A    between atoms: C2_2  and  C3_3 
REMARK    2  A    between atoms: C3_3  and  N1_5 
REMARK    3  A    between atoms: C3_3  and  N2_9 
REMARK    4  A    between atoms: N2_9  and  C5_11 
REMARK    5  A    between atoms: C6_16  and  N5_17 
REMARK    6  A    between atoms: N5_17  and  C7_19 
REMARK    7  A    between atoms: C7_19  and  C8_20 
ROOT
HETATM    1  C5  UNL     1      -2.477  -0.189  -0.486  1.00  0.00     0.709 A 
HETATM    2  N3  UNL     1      -1.979  -0.154   0.752  1.00  0.00    -0.117 N 
ATOM      3  H3  UNL     1      -2.477   0.161   1.584  1.00  0.00     0.206 HD
HETATM    4  N4  UNL     1      -0.732  -0.595   0.721  1.00  0.00    -0.117 N 
ATOM      5  H4  UNL     1      -0.121  -0.671   1.534  1.00  0.00     0.206 HD
HETATM    6  C6  UNL     1      -0.386  -0.927  -0.530  1.00  0.00     0.707 A 
HETATM    7  N6  UNL     1      -1.494  -0.666  -1.279  1.00  0.00    -0.020 N 
ATOM      8  H6  UNL     1      -1.569  -0.809  -2.286  1.00  0.00     0.203 HD
ENDROOT
BRANCH   6   9
HETATM    9  N5  UNL     1       0.741  -1.390  -0.934  1.00  0.00    -0.224 N 
ATOM     10  H5  UNL     1       0.851  -1.596  -1.927  1.00  0.00     0.177 HD
BRANCH   9  11
HETATM   11  C7  UNL     1       1.844  -1.630  -0.069  1.00  0.00     0.148 C 
BRANCH  11  12
HETATM   12  C8  UNL     1       2.924  -0.599  -0.140  1.00  0.00    -0.019 C 
HETATM   13  C9  UNL     1       3.527  -0.481  -1.531  1.00  0.00     0.016 C 
HETATM   14  C10 UNL     1       4.927   0.028  -1.150  1.00  0.00    -0.013 C 
HETATM   15  C11 UNL     1       4.812   1.352  -0.470  1.00  0.00     0.009 C 
HETATM   16  C15 UNL     1       5.310  -1.058  -0.134  1.00  0.00     0.010 C 
HETATM   17  C12 UNL     1       3.896   1.334   0.709  1.00  0.00    -0.013 C 
HETATM   18  C13 UNL     1       4.319   0.218   1.677  1.00  0.00     0.010 C 
HETATM   19  C16 UNL     1       2.525   0.777   0.291  1.00  0.00     0.016 C 
HETATM   20  C14 UNL     1       4.070  -0.994   0.768  1.00  0.00    -0.004 C 
ENDBRANCH  11  12
ENDBRANCH   9  11
ENDBRANCH   6   9
BRANCH   1  21
HETATM   21  N2  UNL     1      -3.648   0.160  -0.845  1.00  0.00    -0.190 N 
ATOM     22  H2  UNL     1      -3.893   0.080  -1.832  1.00  0.00     0.180 HD
BRANCH  21  23
HETATM   23  C3  UNL     1      -4.635   0.657   0.056  1.00  0.00     0.206 C 
HETATM   24  C4  UNL     1      -4.984  -0.452   1.046  1.00  0.00     0.071 C 
BRANCH  23  25
HETATM   25  C2  UNL     1      -5.908   1.032  -0.671  1.00  0.00     0.057 C 
HETATM   26  C1  UNL     1      -6.510  -0.115  -1.421  1.00  0.00     0.009 C 
ENDBRANCH  23  25
BRANCH  23  27
HETATM   27  N1  UNL     1      -4.185   1.859   0.746  1.00  0.00    -0.053 N 
ATOM     28  H13 UNL     1      -4.076   2.663   0.128  1.00  0.00     0.277 HD
ATOM     29  H12 UNL     1      -4.895   2.264   1.356  1.00  0.00     0.277 HD
ATOM     30  H11 UNL     1      -3.327   1.606   1.236  1.00  0.00     0.277 HD
ENDBRANCH  23  27
ENDBRANCH  21  23
ENDBRANCH   1  21
TORSDOF 7
