REMARK  11 active torsions:
REMARK  status: ('A' for Active; 'I' for Inactive)
REMARK    1  A    between atoms: C5_5  and  O1_6 
REMARK    2  A    between atoms: C8_10  and  N1_11 
REMARK    3  A    between atoms: N1_11  and  C9_13 
REMARK    4  A    between atoms: C9_13  and  C10_14 
REMARK    5  A    between atoms: C10_14  and  C11_15 
REMARK    6  A    between atoms: C11_15  and  C12_16 
REMARK    7  A    between atoms: C12_16  and  C13_17 
REMARK    8  A    between atoms: C13_17  and  N2_18 
REMARK       I    between atoms: N2_18  and  C14_19 
REMARK    9  A    between atoms: C14_19  and  O3_21 
REMARK   10  A    between atoms: O3_21  and  C15_22 
REMARK   11  A    between atoms: C20_27  and  O4_28 
ROOT
HETATM    1  N1  UNL     1      -1.233   0.393  -0.751  1.00  0.00    -0.417 N 
ATOM      2  H1  UNL     1      -0.746   0.801  -1.549  1.00  0.00     0.153 HD
ENDROOT
BRANCH   1   3
HETATM    3  C8  UNL     1      -2.699   0.325  -0.679  1.00  0.00     0.079 C 
HETATM    4  C7  UNL     1      -3.187   1.198   0.423  1.00  0.00     0.028 C 
HETATM    5  C6  UNL     1      -4.043   2.380  -0.049  1.00  0.00     0.037 C 
HETATM    6  C5  UNL     1      -5.504   2.029  -0.137  1.00  0.00     0.140 C 
HETATM    7  C4  UNL     1      -5.900   1.186   1.027  1.00  0.00     0.001 C 
HETATM    8  C3  UNL     1      -5.922  -0.098   0.872  1.00  0.00    -0.021 C 
HETATM    9  C2  UNL     1      -5.588  -0.854  -0.337  1.00  0.00     0.033 C 
HETATM   10  C1  UNL     1      -6.760  -1.854  -0.484  1.00  0.00     0.017 C 
HETATM   11  C20 UNL     1      -4.310  -1.652  -0.253  1.00  0.00     0.127 C 
HETATM   12  C19 UNL     1      -3.095  -1.062  -0.793  1.00  0.00     0.057 C 
BRANCH   6  13
HETATM   13  O1  UNL     1      -6.203   3.257   0.007  1.00  0.00    -0.392 OA
ATOM     14  H1  UNL     1      -5.951   3.794  -0.735  1.00  0.00     0.210 HD
ENDBRANCH   6  13
BRANCH  11  15
HETATM   15  O4  UNL     1      -4.136  -2.234   1.026  1.00  0.00    -0.395 OA
ATOM     16  H4  UNL     1      -3.331  -2.736   1.079  1.00  0.00     0.210 HD
ENDBRANCH  11  15
ENDBRANCH   1   3
BRANCH   1  17
HETATM   17  C9  UNL     1      -0.536  -0.148   0.367  1.00  0.00     0.114 C 
BRANCH  17  18
HETATM   18  C10 UNL     1       0.899   0.301   0.301  1.00  0.00     0.019 C 
BRANCH  18  19
HETATM   19  C11 UNL     1       1.766  -0.222   1.398  1.00  0.00     0.004 C 
BRANCH  19  20
HETATM   20  C12 UNL     1       1.983  -1.726   1.418  1.00  0.00     0.034 C 
BRANCH  20  21
HETATM   21  C13 UNL     1       2.742  -2.197   0.156  1.00  0.00     0.224 C 
BRANCH  21  22
HETATM   22  N2  UNL     1       3.995  -1.471   0.237  1.00  0.00    -0.391 NA
HETATM   23  C14 UNL     1       5.116  -0.823   0.312  1.00  0.00     0.435 C 
HETATM   24  O2  UNL     1       6.040  -0.787   1.216  1.00  0.00    -0.221 OA
BRANCH  23  25
HETATM   25  O3  UNL     1       5.540   0.047  -0.786  1.00  0.00    -0.283 OA
BRANCH  25  26
HETATM   26  C15 UNL     1       6.765   0.712  -0.658  1.00  0.00     0.062 C 
HETATM   27  C16 UNL     1       6.852   1.606   0.572  1.00  0.00     0.046 C 
HETATM   28  C17 UNL     1       7.933  -0.264  -0.688  1.00  0.00     0.046 C 
HETATM   29  C18 UNL     1       6.904   1.599  -1.901  1.00  0.00     0.046 C 
ENDBRANCH  25  26
ENDBRANCH  23  25
ENDBRANCH  21  22
ENDBRANCH  20  21
ENDBRANCH  19  20
ENDBRANCH  18  19
ENDBRANCH  17  18
ENDBRANCH   1  17
TORSDOF 11
