REMARK  9 active torsions:
REMARK  status: ('A' for Active; 'I' for Inactive)
REMARK    1  A    between atoms: C2_2  and  C3_3 
REMARK    2  A    between atoms: C3_3  and  C4_4 
REMARK    3  A    between atoms: C4_4  and  C5_5 
REMARK    4  A    between atoms: C5_5  and  C6_6 
REMARK    5  A    between atoms: C5_5  and  N1_8 
REMARK    6  A    between atoms: C10_11  and  N2_12 
REMARK    7  A    between atoms: C12_14  and  C13_15 
REMARK    8  A    between atoms: C14_18  and  N4_19 
REMARK    9  A    between atoms: C15_24  and  N6_25 
ROOT
HETATM    1  N2  UNL     1       2.450   1.115   0.199  1.00  0.00    -0.187 N 
HETATM    2  C11 UNL     1       3.263   0.395  -0.636  1.00  0.00     0.130 A 
HETATM    3  C12 UNL     1       4.547   0.758  -0.963  1.00  0.00     0.089 A 
HETATM    4  C14 UNL     1       5.021   1.915  -0.407  1.00  0.00     0.131 A 
HETATM    5  N5  UNL     1       4.179   2.625   0.435  1.00  0.00    -0.176 N 
ATOM      6  H5  UNL     1       4.529   3.488   0.852  1.00  0.00     0.186 HD
HETATM    7  C15 UNL     1       2.936   2.240   0.729  1.00  0.00     0.679 A 
ENDROOT
BRANCH   1   8
HETATM    8  C10 UNL     1       1.156   0.635   0.456  1.00  0.00     0.118 C 
HETATM    9  C9  UNL     1       0.129   1.642   0.850  1.00  0.00     0.046 C 
HETATM   10  C8  UNL     1      -1.298   1.066   0.752  1.00  0.00     0.119 C 
HETATM   11  N1  UNL     1      -1.318  -0.313   0.603  1.00  0.00    -0.407 N 
HETATM   12  C19 UNL     1      -0.402  -0.966   1.457  1.00  0.00     0.128 C 
HETATM   13  C16 UNL     1       1.020  -0.500   1.448  1.00  0.00    -0.010 C 
HETATM   14  C17 UNL     1       1.528  -0.087   2.826  1.00  0.00     0.018 C 
HETATM   15  C18 UNL     1       1.833  -1.713   1.104  1.00  0.00     0.018 C 
BRANCH  11  16
HETATM   16  C5  UNL     1      -1.986  -1.002  -0.380  1.00  0.00     0.078 C 
BRANCH  16  17
HETATM   17  C4  UNL     1      -3.471  -0.938  -0.344  1.00  0.00     0.025 C 
BRANCH  17  18
HETATM   18  C3  UNL     1      -4.089   0.400  -0.291  1.00  0.00     0.002 C 
BRANCH  18  19
HETATM   19  C2  UNL     1      -5.621   0.213  -0.324  1.00  0.00    -0.004 C 
HETATM   20  C1  UNL     1      -6.222   1.587  -0.268  1.00  0.00     0.005 C 
ENDBRANCH  18  19
ENDBRANCH  17  18
ENDBRANCH  16  17
BRANCH  16  21
HETATM   21  C6  UNL     1      -1.642  -2.497  -0.446  1.00  0.00     0.020 C 
HETATM   22  C7  UNL     1      -2.308  -3.002  -1.735  1.00  0.00     0.007 C 
ENDBRANCH  16  21
ENDBRANCH  11  16
ENDBRANCH   1   8
BRANCH   7  23
HETATM   23  N6  UNL     1       2.244   3.005   1.541  1.00  0.00    -0.234 N 
ATOM     24  H62 UNL     1       1.294   2.711   1.766  1.00  0.00     0.174 HD
ATOM     25  H61 UNL     1       2.615   3.864   1.946  1.00  0.00     0.174 HD
ENDBRANCH   7  23
BRANCH   3  26
HETATM   26  C13 UNL     1       5.316  -0.074  -1.856  1.00  0.00     0.270 C 
HETATM   27  N3  UNL     1       4.730  -1.248  -2.387  1.00  0.00    -0.057 NA
HETATM   28  O1  UNL     1       6.474   0.179  -2.191  1.00  0.00    -0.271 OA
ENDBRANCH   3  26
BRANCH   4  29
HETATM   29  N4  UNL     1       6.160   2.376  -0.603  1.00  0.00    -0.384 N 
ATOM     30  H42 UNL     1       6.779   1.854  -1.222  1.00  0.00     0.157 HD
ATOM     31  H41 UNL     1       6.513   3.238  -0.189  1.00  0.00     0.157 HD
ENDBRANCH   4  29
TORSDOF 9
