REMARK  10 active torsions:
REMARK  status: ('A' for Active; 'I' for Inactive)
REMARK    1  A    between atoms: C2_2  and  C13_15 
REMARK    2  A    between atoms: C3_3  and  C4_4 
REMARK    3  A    between atoms: C11_11  and  C12_12 
REMARK    4  A    between atoms: C12_12  and  O1_13 
REMARK    5  A    between atoms: C13_15  and  C14_16 
REMARK    6  A    between atoms: C14_16  and  C15_17 
REMARK    7  A    between atoms: C15_17  and  C16_18 
REMARK    8  A    between atoms: C18_21  and  C19_22 
REMARK    9  A    between atoms: C19_22  and  O3_23 
REMARK   10  A    between atoms: C20_25  and  O4_26 
ROOT
HETATM    1  C14 UNL     1       1.290  -0.849   0.290  1.00  0.00     0.002 C 
ENDROOT
BRANCH   1   2
HETATM    2  C13 UNL     1      -0.005  -1.377   0.019  1.00  0.00     0.006 C 
BRANCH   2   3
HETATM    3  C2  UNL     1      -1.172  -0.711   0.087  1.00  0.00    -0.062 C 
HETATM    4  C1  UNL     1      -1.099   0.688   0.479  1.00  0.00     0.048 C 
HETATM    5  C3  UNL     1      -2.368  -1.427  -0.188  1.00  0.00     0.007 C 
BRANCH   5   6
HETATM    6  C4  UNL     1      -3.601  -1.240  -0.264  1.00  0.00     0.008 C 
HETATM    7  C5  UNL     1      -4.677  -0.291  -0.160  1.00  0.00    -0.052 C 
HETATM    8  C6  UNL     1      -4.506   1.140  -0.270  1.00  0.00     0.010 C 
HETATM    9  C11 UNL     1      -5.643  -0.603   0.981  1.00  0.00     0.042 C 
HETATM   10  C7  UNL     1      -5.662   1.858  -0.394  1.00  0.00    -0.083 C 
HETATM   11  C8  UNL     1      -5.640   3.330  -0.515  1.00  0.00     0.043 C 
HETATM   12  C9  UNL     1      -6.892   1.062  -0.397  1.00  0.00     0.034 C 
HETATM   13  C10 UNL     1      -6.963   0.053   0.692  1.00  0.00     0.016 C 
BRANCH   9  14
HETATM   14  C12 UNL     1      -5.829  -2.089   1.205  1.00  0.00     0.173 C 
BRANCH  14  15
HETATM   15  O1  UNL     1      -6.347  -2.761   0.129  1.00  0.00    -0.400 OA
ATOM     16  H1  UNL     1      -6.464  -3.693   0.270  1.00  0.00     0.209 HD
ENDBRANCH  14  15
ENDBRANCH   9  14
ENDBRANCH   5   6
ENDBRANCH   2   3
ENDBRANCH   1   2
BRANCH   1  17
HETATM   17  C15 UNL     1       2.398  -1.614   0.194  1.00  0.00     0.040 C 
BRANCH  17  18
HETATM   18  C16 UNL     1       3.725  -1.032   0.483  1.00  0.00     0.181 C 
HETATM   19  C17 UNL     1       4.390  -1.973   1.496  1.00  0.00     0.084 C 
HETATM   20  O2  UNL     1       3.557   0.169   1.102  1.00  0.00    -0.342 OA
HETATM   21  C18 UNL     1       4.460   1.150   0.832  1.00  0.00     0.180 C 
HETATM   22  C20 UNL     1       5.796   0.688   0.357  1.00  0.00     0.183 C 
HETATM   23  C21 UNL     1       5.658  -0.415  -0.647  1.00  0.00     0.086 C 
HETATM   24  C22 UNL     1       5.942   0.176  -2.036  1.00  0.00     0.048 C 
HETATM   25  C23 UNL     1       6.775  -1.409  -0.392  1.00  0.00     0.048 C 
HETATM   26  O5  UNL     1       4.424  -0.991  -0.703  1.00  0.00    -0.339 OA
BRANCH  21  27
HETATM   27  C19 UNL     1       3.803   2.157  -0.093  1.00  0.00     0.199 C 
BRANCH  27  28
HETATM   28  O3  UNL     1       4.649   3.204  -0.427  1.00  0.00    -0.398 OA
ATOM     29  H3  UNL     1       4.238   3.835  -1.006  1.00  0.00     0.209 HD
ENDBRANCH  27  28
ENDBRANCH  21  27
BRANCH  22  30
HETATM   30  O4  UNL     1       6.512   1.747  -0.196  1.00  0.00    -0.390 OA
ATOM     31  H4  UNL     1       7.363   1.453  -0.499  1.00  0.00     0.210 HD
ENDBRANCH  22  30
ENDBRANCH  17  18
ENDBRANCH   1  17
TORSDOF 10
