REMARK  5 active torsions:
REMARK  status: ('A' for Active; 'I' for Inactive)
REMARK    1  A    between atoms: C2_2  and  N1_3 
REMARK    2  A    between atoms: N1_3  and  C5_6 
REMARK    3  A    between atoms: C5_6  and  C6_7 
REMARK    4  A    between atoms: C8_9  and  C9_10 
REMARK    5  A    between atoms: C9_10  and  C10_11 
ROOT
HETATM    1  C6  UNL     1       1.669  -0.794   0.211  1.00  0.00     0.106 C 
HETATM    2  C7  UNL     1       1.082   0.568   0.051  1.00  0.00     0.041 C 
HETATM    3  C8  UNL     1      -0.363   0.345  -0.435  1.00  0.00     0.085 C 
HETATM    4  N2  UNL     1      -0.291  -0.931  -1.076  1.00  0.00    -0.356 N 
ATOM      5  H2  UNL     1      -1.053  -1.337  -1.619  1.00  0.00     0.162 HD
HETATM    6  C17 UNL     1       0.962  -1.570  -0.872  1.00  0.00     0.223 C 
HETATM    7  O1  UNL     1       1.400  -2.588  -1.476  1.00  0.00    -0.273 OA
ENDROOT
BRANCH   3   8
HETATM    8  C9  UNL     1      -1.228   0.415   0.765  1.00  0.00     0.029 C 
BRANCH   8   9
HETATM    9  C10 UNL     1      -2.686   0.229   0.550  1.00  0.00    -0.013 C 
HETATM   10  C11 UNL     1      -3.298   1.251  -0.377  1.00  0.00     0.005 C 
HETATM   11  C12 UNL     1      -4.614   1.761   0.099  1.00  0.00     0.000 C 
HETATM   12  C13 UNL     1      -5.448   0.751   0.821  1.00  0.00     0.000 C 
HETATM   13  C14 UNL     1      -5.468  -0.601   0.197  1.00  0.00     0.000 C 
HETATM   14  C15 UNL     1      -4.387  -1.516   0.787  1.00  0.00     0.000 C 
HETATM   15  C16 UNL     1      -3.098  -1.128   0.085  1.00  0.00     0.005 C 
ENDBRANCH   8   9
ENDBRANCH   3   8
BRANCH   1  16
HETATM   16  C5  UNL     1       3.124  -0.920  -0.052  1.00  0.00     0.250 C 
BRANCH  16  17
HETATM   17  N1  UNL     1       4.011  -0.157   0.746  1.00  0.00    -0.074 N 
HETATM   18  C3  UNL     1       5.217  -0.960   1.026  1.00  0.00     0.272 C 
HETATM   19  C4  UNL     1       3.502   0.263   2.014  1.00  0.00     0.272 C 
BRANCH  17  20
HETATM   20  C2  UNL     1       4.474   1.033   0.056  1.00  0.00     0.232 C 
HETATM   21  C1  UNL     1       4.769   0.823  -1.389  1.00  0.00     0.034 C 
ENDBRANCH  17  20
ENDBRANCH  16  17
ENDBRANCH   1  16
TORSDOF 5
