REMARK  5 active torsions:
REMARK  status: ('A' for Active; 'I' for Inactive)
REMARK       I    between atoms: C1_2  and  N3_13 
REMARK    1  A    between atoms: N2_3  and  C2_5 
REMARK    2  A    between atoms: C2_5  and  C3_6 
REMARK    3  A    between atoms: C3_6  and  C4_7 
REMARK    4  A    between atoms: C4_7  and  C5_8 
REMARK    5  A    between atoms: N3_13  and  C10_15 
ROOT
HETATM    1  N1  UNL     1      -0.760  -1.562   0.391  1.00  0.00    -0.064 NA
HETATM    2  C1  UNL     1      -0.713  -0.388  -0.391  1.00  0.00     0.184 C 
HETATM    3  N2  UNL     1       0.418   0.142  -0.663  1.00  0.00    -0.365 N 
ATOM      4  H2  UNL     1       0.416   0.989  -1.231  1.00  0.00     0.162 HD
HETATM    5  N3  UNL     1      -1.909   0.181  -0.859  1.00  0.00    -0.355 N 
ATOM      6  H3  UNL     1      -1.872   0.676  -1.750  1.00  0.00     0.163 HD
ENDROOT
BRANCH   3   7
HETATM    7  C2  UNL     1       1.688  -0.362  -0.232  1.00  0.00     0.122 C 
BRANCH   7   8
HETATM    8  C3  UNL     1       2.716  -0.324  -1.332  1.00  0.00     0.020 C 
BRANCH   8   9
HETATM    9  C4  UNL     1       4.019  -0.863  -0.824  1.00  0.00     0.006 C 
BRANCH   9  10
HETATM   10  C5  UNL     1       4.573  -0.080   0.338  1.00  0.00    -0.014 C 
HETATM   11  C6  UNL     1       4.839   1.352   0.029  1.00  0.00     0.004 C 
HETATM   12  C7  UNL     1       6.016   1.292  -0.916  1.00  0.00     0.000 C 
HETATM   13  C8  UNL     1       6.758   0.049  -0.550  1.00  0.00     0.000 C 
HETATM   14  C9  UNL     1       5.990  -0.616   0.580  1.00  0.00     0.004 C 
ENDBRANCH   9  10
ENDBRANCH   8   9
ENDBRANCH   7   8
ENDBRANCH   3   7
BRANCH   5  15
HETATM   15  C10 UNL     1      -3.167   0.126  -0.197  1.00  0.00     0.037 C 
HETATM   16  C11 UNL     1      -3.664  -1.310   0.016  1.00  0.00     0.036 C 
HETATM   17  C12 UNL     1      -5.172  -1.031   0.104  1.00  0.00    -0.011 C 
HETATM   18  C13 UNL     1      -5.475  -0.180   1.293  1.00  0.00     0.009 C 
HETATM   19  C17 UNL     1      -5.337  -0.218  -1.189  1.00  0.00     0.012 C 
HETATM   20  C14 UNL     1      -4.645   1.066   1.347  1.00  0.00    -0.011 C 
HETATM   21  C15 UNL     1      -4.880   1.828   0.041  1.00  0.00     0.012 C 
HETATM   22  C18 UNL     1      -3.152   0.748   1.190  1.00  0.00     0.036 C 
HETATM   23  C16 UNL     1      -4.248   0.839  -0.948  1.00  0.00     0.014 C 
ENDBRANCH   5  15
TORSDOF 5
