REMARK  8 active torsions:
REMARK  status: ('A' for Active; 'I' for Inactive)
REMARK    1  A    between atoms: C3_4  and  N2_5 
REMARK    2  A    between atoms: N2_5  and  C4_7 
REMARK    3  A    between atoms: N8_21  and  C8_22 
REMARK    4  A    between atoms: C8_22  and  C9_23 
REMARK    5  A    between atoms: C9_23  and  C10_24 
REMARK    6  A    between atoms: C10_24  and  N9_25 
REMARK    7  A    between atoms: C10_24  and  N10_29 
REMARK    8  A    between atoms: N10_29  and  N11_30 
ROOT
HETATM    1  C4  UNL     1       2.029   0.109  -0.547  1.00  0.00     0.153 A 
HETATM    2  N3  UNL     1       2.118   0.065   0.789  1.00  0.00    -0.174 N 
ATOM      3  H3  UNL     1       3.035  -0.019   1.227  1.00  0.00     0.186 HD
HETATM    4  C5  UNL     1       1.003   0.131   1.574  1.00  0.00     0.679 A 
HETATM    5  N4  UNL     1       1.131   0.086   2.854  1.00  0.00    -0.234 N 
ATOM      6  H41 UNL     1       0.298   0.135   3.441  1.00  0.00     0.174 HD
ATOM      7  H42 UNL     1       2.051   0.002   3.286  1.00  0.00     0.174 HD
HETATM    8  N5  UNL     1      -0.208   0.242   1.006  1.00  0.00    -0.173 N 
ATOM      9  H5  UNL     1      -1.031   0.290   1.607  1.00  0.00     0.186 HD
HETATM   10  C6  UNL     1      -0.375   0.292  -0.332  1.00  0.00     0.168 A 
HETATM   11  C7  UNL     1       0.785   0.222  -1.113  1.00  0.00     0.137 A 
HETATM   12  N6  UNL     1       0.322   0.294  -2.385  1.00  0.00    -0.277 N 
ATOM     13  H6  UNL     1       0.904   0.272  -3.222  1.00  0.00     0.184 HD
HETATM   14  N7  UNL     1      -1.000   0.398  -2.380  1.00  0.00    -0.018 NA
HETATM   15  N8  UNL     1      -1.453   0.400  -1.140  1.00  0.00    -0.258 N 
ENDROOT
BRANCH  15  16
HETATM   16  C8  UNL     1      -2.819   0.494  -0.658  1.00  0.00     0.152 C 
BRANCH  16  17
HETATM   17  C9  UNL     1      -3.424  -0.890  -0.522  1.00  0.00     0.073 C 
BRANCH  17  18
HETATM   18  C10 UNL     1      -4.849  -0.690  -0.013  1.00  0.00     0.296 C 
BRANCH  18  19
HETATM   19  N9  UNL     1      -5.437  -2.005   0.121  1.00  0.00    -0.060 N 
ATOM     20  H93 UNL     1      -5.391  -2.554  -0.737  1.00  0.00     0.276 HD
ATOM     21  H92 UNL     1      -4.886  -2.633   0.707  1.00  0.00     0.276 HD
ATOM     22  H91 UNL     1      -6.389  -1.871   0.461  1.00  0.00     0.276 HD
ENDBRANCH  18  19
BRANCH  18  23
HETATM   23  N10 UNL     1      -5.583   0.144  -0.952  1.00  0.00    -0.115 NA
BRANCH  23  24
HETATM   24  N11 UNL     1      -6.899   0.356  -0.526  1.00  0.00    -0.346 N 
ATOM     25 2H11 UNL     1      -7.280  -0.032   0.337  1.00  0.00     0.172 HD
ATOM     26 1H11 UNL     1      -7.414   0.941  -1.184  1.00  0.00     0.172 HD
ENDBRANCH  23  24
ENDBRANCH  18  23
ENDBRANCH  17  18
ENDBRANCH  16  17
ENDBRANCH  15  16
BRANCH   1  27
HETATM   27  N2  UNL     1       3.084   0.045  -1.267  1.00  0.00    -0.338 N 
ATOM     28  H2  UNL     1       2.957   0.082  -2.278  1.00  0.00     0.167 HD
BRANCH  27  29
HETATM   29  C3  UNL     1       4.390  -0.071  -0.798  1.00  0.00     0.068 A 
HETATM   30  C2  UNL     1       5.179   0.947  -0.325  1.00  0.00     0.140 A 
HETATM   31  N1  UNL     1       6.351   0.391   0.017  1.00  0.00    -0.306 N 
HETATM   32  C1  UNL     1       7.510   1.063   0.568  1.00  0.00     0.177 C 
HETATM   33  N12 UNL     1       6.317  -0.909  -0.222  1.00  0.00    -0.308 N 
HETATM   34  C11 UNL     1       5.124  -1.229  -0.725  1.00  0.00     0.138 A 
ATOM     35  H12 UNL     1       7.081  -1.562  -0.049  1.00  0.00     0.186 HD
ENDBRANCH  27  29
ENDBRANCH   1  27
TORSDOF 8
