REMARK  7 active torsions:
REMARK  status: ('A' for Active; 'I' for Inactive)
REMARK    1  A    between atoms: N1_1  and  N2_4 
REMARK    2  A    between atoms: C2_11  and  C3_12 
REMARK    3  A    between atoms: N5_13  and  N6_15 
REMARK    4  A    between atoms: N6_15  and  C4_17 
REMARK    5  A    between atoms: C4_17  and  O2_18 
REMARK    6  A    between atoms: C4_17  and  C5_20 
REMARK    7  A    between atoms: C7_27  and  O4_28 
ROOT
HETATM    1  C3  UNL     1       1.078  -0.813   0.008  1.00  0.00     0.143 C 
HETATM    2  N5  UNL     1       0.406   0.138  -0.544  1.00  0.00    -0.311 N 
ATOM      3  H5  UNL     1       0.884   0.990  -0.836  1.00  0.00     0.185 HD
ENDROOT
BRANCH   2   4
HETATM    4  N6  UNL     1      -0.965   0.014  -0.746  1.00  0.00    -0.302 N 
ATOM      5  H6  UNL     1      -1.335  -0.052  -1.694  1.00  0.00     0.183 HD
BRANCH   4   6
HETATM    6  C4  UNL     1      -1.867  -0.022   0.384  1.00  0.00     0.288 C 
BRANCH   6   7
HETATM    7  O2  UNL     1      -1.616  -1.079   1.244  1.00  0.00    -0.370 OA
ATOM      8  H2  UNL     1      -2.208  -1.103   1.986  1.00  0.00     0.212 HD
ENDBRANCH   6   7
BRANCH   6   9
HETATM    9  C5  UNL     1      -3.281   0.028  -0.069  1.00  0.00     0.114 A 
HETATM   10  N7  UNL     1      -3.863  -0.666  -1.076  1.00  0.00    -0.304 N 
HETATM   11  C6  UNL     1      -5.162  -0.324  -1.152  1.00  0.00     0.326 A 
ATOM     12  H7  UNL     1      -3.392  -1.340  -1.680  1.00  0.00     0.170 HD
HETATM   13  O3  UNL     1      -5.970  -0.817  -2.009  1.00  0.00    -0.247 OA
HETATM   14  N8  UNL     1      -5.445   0.589  -0.205  1.00  0.00    -0.287 N 
HETATM   15  C7  UNL     1      -4.284   0.806   0.462  1.00  0.00     0.171 A 
ATOM     16  H8  UNL     1      -6.348   1.028  -0.025  1.00  0.00     0.172 HD
BRANCH  15  17
HETATM   17  O4  UNL     1      -4.142   1.694   1.534  1.00  0.00    -0.344 OA
ATOM     18  H4  UNL     1      -4.835   2.231   1.901  1.00  0.00     0.219 HD
ENDBRANCH  15  17
ENDBRANCH   6   9
ENDBRANCH   4   6
ENDBRANCH   2   4
BRANCH   1  19
HETATM   19  C2  UNL     1       2.506  -0.703   0.227  1.00  0.00     0.135 A 
HETATM   20  N4  UNL     1       3.194  -1.704   0.804  1.00  0.00    -0.290 N 
HETATM   21  N3  UNL     1       4.496  -1.625   1.014  1.00  0.00    -0.249 N 
ATOM     22  H4  UNL     1       2.697  -2.548   1.088  1.00  0.00     0.187 HD
HETATM   23  C1  UNL     1       5.124  -0.501   0.629  1.00  0.00     0.362 A 
ATOM     24  H3  UNL     1       5.007  -2.391   1.453  1.00  0.00     0.192 HD
HETATM   25  N2  UNL     1       4.489   0.533   0.048  1.00  0.00    -0.172 N 
HETATM   26  O1  UNL     1       6.378  -0.408   0.824  1.00  0.00    -0.243 OA
HETATM   27  C8  UNL     1       3.166   0.463  -0.170  1.00  0.00     0.299 A 
HETATM   28  O5  UNL     1       2.514   1.401  -0.712  1.00  0.00    -0.263 OA
BRANCH  25  29
HETATM   29  N1  UNL     1       5.160   1.697  -0.347  1.00  0.00    -0.331 N 
ATOM     30  H12 UNL     1       6.165   1.750  -0.181  1.00  0.00     0.177 HD
ATOM     31  H11 UNL     1       4.679   2.481  -0.787  1.00  0.00     0.177 HD
ENDBRANCH  25  29
ENDBRANCH   1  19
TORSDOF 7
