REMARK  9 active torsions:
REMARK  status: ('A' for Active; 'I' for Inactive)
REMARK    1  A    between atoms: N2_3  and  C2_5 
REMARK    2  A    between atoms: C5_12  and  N5_13 
REMARK    3  A    between atoms: N8_22  and  C7_23 
REMARK    4  A    between atoms: C7_23  and  C8_24 
REMARK    5  A    between atoms: C7_23  and  C9_27 
REMARK    6  A    between atoms: C8_24  and  O1_25 
REMARK    7  A    between atoms: C9_27  and  O2_28 
REMARK    8  A    between atoms: C9_27  and  C10_30 
REMARK    9  A    between atoms: C10_30  and  O3_31 
ROOT
HETATM    1  N1  UNL     1      -0.936  -4.489  -1.340  1.00  0.00    -0.172 NA
HETATM    2  C1  UNL     1      -0.797  -3.381  -1.014  1.00  0.00     0.183 C 
HETATM    3  N2  UNL     1      -0.635  -2.059  -0.601  1.00  0.00    -0.277 N 
ATOM      4  H2  UNL     1       0.270  -1.761  -0.238  1.00  0.00     0.179 HD
ENDROOT
BRANCH   3   5
HETATM    5  C2  UNL     1      -1.562  -1.234  -0.663  1.00  0.00     0.145 A 
HETATM    6  N3  UNL     1      -2.752  -1.694  -1.157  1.00  0.00    -0.336 N 
HETATM    7  C3  UNL     1      -3.801  -0.881  -1.228  1.00  0.00     0.182 A 
ATOM      8  H3  UNL     1      -2.834  -2.661  -1.471  1.00  0.00     0.168 HD
HETATM    9  N4  UNL     1      -3.672   0.386  -0.810  1.00  0.00    -0.347 N 
HETATM   10  C4  UNL     1      -2.513   0.865  -0.318  1.00  0.00     0.109 A 
ATOM     11  H4  UNL     1      -4.478   1.008  -0.866  1.00  0.00     0.167 HD
HETATM   12  C5  UNL     1      -2.425   2.167   0.116  1.00  0.00     0.144 A 
HETATM   13  C11 UNL     1      -1.387   0.049  -0.226  1.00  0.00     0.127 A 
HETATM   14  N6  UNL     1      -1.253   2.572   0.605  1.00  0.00    -0.175 N 
HETATM   15  C6  UNL     1      -0.162   1.751   0.684  1.00  0.00     0.680 A 
ATOM     16  H6  UNL     1      -1.166   3.534   0.934  1.00  0.00     0.186 HD
HETATM   17  N7  UNL     1       0.852   2.346   1.215  1.00  0.00    -0.234 N 
HETATM   18  N8  UNL     1      -0.189   0.468   0.272  1.00  0.00    -0.168 N 
ATOM     19  H72 UNL     1       0.872   3.317   1.527  1.00  0.00     0.174 HD
ATOM     20  H71 UNL     1       1.666   1.734   1.274  1.00  0.00     0.174 HD
BRANCH  12  21
HETATM   21  N5  UNL     1      -3.465   2.932   0.034  1.00  0.00    -0.383 N 
ATOM     22  H52 UNL     1      -4.362   2.622  -0.340  1.00  0.00     0.157 HD
ATOM     23  H51 UNL     1      -3.400   3.898   0.356  1.00  0.00     0.157 HD
ENDBRANCH  12  21
BRANCH  18  24
HETATM   24  C7  UNL     1       0.999  -0.334   0.356  1.00  0.00     0.162 C 
BRANCH  24  25
HETATM   25  C8  UNL     1       1.462  -0.534   1.775  1.00  0.00     0.193 C 
BRANCH  25  26
HETATM   26  O1  UNL     1       0.463  -1.136   2.580  1.00  0.00    -0.399 OA
ATOM     27  H1  UNL     1       0.755  -1.262   3.475  1.00  0.00     0.209 HD
ENDBRANCH  25  26
ENDBRANCH  24  25
BRANCH  24  28
HETATM   28  C9  UNL     1       2.141   0.531  -0.291  1.00  0.00     0.167 C 
BRANCH  28  29
HETATM   29  O2  UNL     1       1.720   0.849  -1.590  1.00  0.00    -0.391 OA
ATOM     30  H2  UNL     1       2.410   1.372  -1.981  1.00  0.00     0.210 HD
ENDBRANCH  28  29
BRANCH  28  31
HETATM   31  C10 UNL     1       3.371  -0.380  -0.628  1.00  0.00     0.197 C 
BRANCH  31  32
HETATM   32  O3  UNL     1       4.029  -0.755   0.514  1.00  0.00    -0.398 OA
ATOM     33  H3  UNL     1       4.775  -1.307   0.310  1.00  0.00     0.209 HD
ENDBRANCH  31  32
ENDBRANCH  28  31
ENDBRANCH  24  28
ENDBRANCH  18  24
ENDBRANCH   3   5
TORSDOF 9
