REMARK  4 active torsions:
REMARK  status: ('A' for Active; 'I' for Inactive)
REMARK    1  A    between atoms: C1_2  and  C2_3 
REMARK       I    between atoms: C1_2  and  N2_12 
REMARK    2  A    between atoms: C2_3  and  N1_4 
REMARK    3  A    between atoms: N1_4  and  C3_6 
REMARK    4  A    between atoms: N2_12  and  C9_14 
ROOT
HETATM    1  O1  UNL     1       0.263  -2.720  -0.838  1.00  0.00    -0.271 OA
HETATM    2  C1  UNL     1      -0.493  -2.039  -0.113  1.00  0.00     0.239 C 
HETATM    3  N2  UNL     1      -0.050  -0.929   0.607  1.00  0.00    -0.324 N 
ATOM      4  H2  UNL     1      -0.757  -0.458   1.171  1.00  0.00     0.169 HD
ENDROOT
BRANCH   3   5
HETATM    5  C9  UNL     1       1.254  -0.367   0.660  1.00  0.00     0.059 A 
HETATM    6  C10 UNL     1       2.353  -0.855   0.001  1.00  0.00     0.071 A 
HETATM    7  C11 UNL     1       3.588  -0.244   0.119  1.00  0.00     0.104 A 
HETATM    8  C12 UNL     1       3.786   0.877   0.896  1.00  0.00     0.103 A 
HETATM    9  O3  UNL     1       4.595  -0.862  -0.611  1.00  0.00    -0.348 OA
HETATM   10  C13 UNL     1       2.707   1.372   1.555  1.00  0.00     0.065 A 
HETATM   11  O2  UNL     1       4.970   1.600   1.113  1.00  0.00    -0.348 OA
HETATM   12  C14 UNL     1       1.475   0.775   1.446  1.00  0.00     0.063 A 
HETATM   13 CL1  UNL     1       0.090   1.451   2.321  1.00  0.00    -0.082 Cl
HETATM   14  C15 UNL     1       6.253   1.085   0.794  1.00  0.00     0.178 C 
HETATM   15  C16 UNL     1       6.451   0.760  -0.637  1.00  0.00     0.053 C 
HETATM   16  C17 UNL     1       5.728  -0.371  -1.224  1.00  0.00     0.178 C 
ENDBRANCH   3   5
BRANCH   2  17
HETATM   17  C2  UNL     1      -1.902  -2.486  -0.057  1.00  0.00     0.218 C 
BRANCH  17  18
HETATM   18  N1  UNL     1      -2.805  -1.694   0.685  1.00  0.00    -0.409 N 
ATOM     19  H1  UNL     1      -3.161  -2.002   1.590  1.00  0.00     0.154 HD
BRANCH  18  20
HETATM   20  C3  UNL     1      -3.198  -0.449   0.119  1.00  0.00     0.077 C 
HETATM   21  C4  UNL     1      -3.971  -0.635  -1.185  1.00  0.00     0.024 C 
HETATM   22  C5  UNL     1      -5.186   0.226  -1.273  1.00  0.00     0.002 C 
HETATM   23  C6  UNL     1      -4.986   1.638  -0.767  1.00  0.00     0.000 C 
HETATM   24  C7  UNL     1      -4.321   1.644   0.596  1.00  0.00     0.002 C 
HETATM   25  C8  UNL     1      -4.176   0.209   1.095  1.00  0.00     0.024 C 
ENDBRANCH  18  20
ENDBRANCH  17  18
ENDBRANCH   2  17
TORSDOF 4
