REMARK  10 active torsions:
REMARK  status: ('A' for Active; 'I' for Inactive)
REMARK    1  A    between atoms: C1_4  and  C2_6 
REMARK    2  A    between atoms: C2_6  and  S1_7 
REMARK    3  A    between atoms: S1_7  and  C3_8 
REMARK    4  A    between atoms: N6_13  and  C4_14 
REMARK    5  A    between atoms: C7_17  and  N7_18 
REMARK    6  A    between atoms: C10_26  and  N10_27 
REMARK    7  A    between atoms: C11_32  and  C12_33 
REMARK    8  A    between atoms: C11_32  and  C13_36 
REMARK    9  A    between atoms: C12_33  and  O1_34 
REMARK       I    between atoms: C13_36  and  N12_38 
REMARK   10  A    between atoms: N12_38  and  N13_40 
ROOT
HETATM    1  C4  UNL     1       1.857   1.216  -1.693  1.00  0.00     0.130 A 
HETATM    2  C5  UNL     1       1.502   1.024  -0.376  1.00  0.00     0.068 A 
HETATM    3  C6  UNL     1       0.194   0.762   0.012  1.00  0.00     0.043 A 
HETATM    4  C7  UNL     1      -0.133   0.574   1.333  1.00  0.00     0.132 A 
HETATM    5  N8  UNL     1      -1.427   0.321   1.650  1.00  0.00    -0.230 N 
HETATM    6  C8  UNL     1      -2.351   0.259   0.689  1.00  0.00     0.124 A 
HETATM    7  N9  UNL     1      -2.032   0.445  -0.628  1.00  0.00    -0.340 N 
ATOM      8  H9  UNL     1      -2.758   0.393  -1.342  1.00  0.00     0.167 HD
HETATM    9  C9  UNL     1      -0.764   0.696  -0.977  1.00  0.00     0.092 A 
HETATM   10  C10 UNL     1      -0.400   0.892  -2.315  1.00  0.00     0.128 A 
HETATM   11  N11 UNL     1       0.884   1.142  -2.620  1.00  0.00    -0.326 N 
ATOM     12  H11 UNL     1       1.133   1.282  -3.599  1.00  0.00     0.169 HD
HETATM   13  C11 UNL     1      -3.652  -0.019   1.360  1.00  0.00     0.138 C 
HETATM   14  C14 UNL     1      -3.225  -0.704   2.628  1.00  0.00     0.165 C 
HETATM   15  N14 UNL     1      -2.016   0.081   2.927  1.00  0.00    -0.129 NA
ENDROOT
BRANCH   1  16
HETATM   16  N6  UNL     1       3.214   1.481  -2.027  1.00  0.00    -0.203 N 
HETATM   17  C3  UNL     1       4.124   0.539  -2.330  1.00  0.00     0.179 A 
HETATM   18  N3  UNL     1       5.303   1.173  -2.593  1.00  0.00    -0.264 N 
HETATM   19  N4  UNL     1       5.103   2.474  -2.449  1.00  0.00    -0.006 NA
ATOM     20  H3  UNL     1       6.181   0.725  -2.854  1.00  0.00     0.186 HD
HETATM   21  N5  UNL     1       3.836   2.655  -2.107  1.00  0.00     0.002 NA
BRANCH  17  22
HETATM   22  S1  UNL     1       3.793  -1.217  -2.368  1.00  0.00    -0.084 SA
BRANCH  22  23
HETATM   23  C2  UNL     1       4.112  -1.962  -0.743  1.00  0.00     0.155 C 
BRANCH  23  24
HETATM   24  C1  UNL     1       5.521  -1.928  -0.359  1.00  0.00     0.096 C 
HETATM   25  N1  UNL     1       6.151  -3.021  -0.136  1.00  0.00    -0.390 N 
ATOM     26  H12 UNL     1       7.135  -2.997   0.132  1.00  0.00     0.157 HD
ATOM     27  H11 UNL     1       5.662  -3.911  -0.230  1.00  0.00     0.157 HD
HETATM   28  N2  UNL     1       6.197  -0.697  -0.229  1.00  0.00    -0.087 NA
ENDBRANCH  23  24
ENDBRANCH  22  23
ENDBRANCH  17  22
ENDBRANCH   1  16
BRANCH  10  29
HETATM   29  N10 UNL     1      -1.299   0.829  -3.232  1.00  0.00    -0.384 N 
ATOM     30 2H10 UNL     1      -2.274   0.639  -3.000  1.00  0.00     0.157 HD
ATOM     31 1H10 UNL     1      -1.034   0.972  -4.207  1.00  0.00     0.157 HD
ENDBRANCH  10  29
BRANCH   4  32
HETATM   32  N7  UNL     1       0.769   0.636   2.251  1.00  0.00    -0.383 N 
ATOM     33  H72 UNL     1       1.742   0.826   2.013  1.00  0.00     0.157 HD
ATOM     34  H71 UNL     1       0.526   0.496   3.232  1.00  0.00     0.157 HD
ENDBRANCH   4  32
BRANCH  13  35
HETATM   35  C12 UNL     1      -4.341   1.255   1.743  1.00  0.00     0.193 C 
BRANCH  35  36
HETATM   36  O1  UNL     1      -3.583   2.021   2.616  1.00  0.00    -0.399 OA
ATOM     37  H1  UNL     1      -4.020   2.829   2.859  1.00  0.00     0.209 HD
ENDBRANCH  35  36
ENDBRANCH  13  35
BRANCH  13  38
HETATM   38  C13 UNL     1      -4.547  -0.845   0.527  1.00  0.00     0.255 C 
HETATM   39  O2  UNL     1      -5.675  -0.369   0.190  1.00  0.00    -0.270 OA
HETATM   40  N12 UNL     1      -4.224  -2.139   0.078  1.00  0.00    -0.276 N 
ATOM     41  H12 UNL     1      -3.326  -2.552   0.329  1.00  0.00     0.189 HD
BRANCH  40  42
HETATM   42  N13 UNL     1      -5.114  -2.855  -0.700  1.00  0.00    -0.343 N 
ATOM     43 2H13 UNL     1      -6.008  -2.428  -0.942  1.00  0.00     0.176 HD
ATOM     44 1H13 UNL     1      -4.880  -3.793  -1.025  1.00  0.00     0.176 HD
ENDBRANCH  40  42
ENDBRANCH  13  38
TORSDOF 10
