REMARK  12 active torsions:
REMARK  status: ('A' for Active; 'I' for Inactive)
REMARK    1  A    between atoms: C2_2  and  O2_4 
REMARK    2  A    between atoms: O2_4  and  C3_5 
REMARK    3  A    between atoms: C4_7  and  O4_8 
REMARK    4  A    between atoms: O4_8  and  N1_9 
REMARK    5  A    between atoms: N1_9  and  C5_10 
REMARK    6  A    between atoms: C8_16  and  C9_17 
REMARK    7  A    between atoms: C9_17  and  O5_18 
REMARK    8  A    between atoms: C9_17  and  C10_20 
REMARK    9  A    between atoms: C10_20  and  O6_21 
REMARK   10  A    between atoms: C15_30  and  O7_31 
REMARK   11  A    between atoms: C16_36  and  O8_37 
REMARK   12  A    between atoms: C17_39  and  O9_40 
ROOT
HETATM    1  C5  UNL     1      -0.486  -0.442  -0.011  1.00  0.00     0.182 C 
HETATM    2  C6  UNL     1      -1.495  -0.503   1.037  1.00  0.00     0.028 C 
HETATM    3  N2  UNL     1      -1.391  -1.136   2.149  1.00  0.00    -0.299 N 
ATOM      4  H2  UNL     1      -0.525  -1.646   2.323  1.00  0.00     0.177 HD
HETATM    5  C7  UNL     1      -2.377  -1.178   3.139  1.00  0.00     0.181 C 
HETATM    6  N3  UNL     1      -3.201  -1.198   3.956  1.00  0.00    -0.172 NA
HETATM    7  C8  UNL     1      -2.730   0.296   0.657  1.00  0.00     0.068 C 
HETATM    8  C14 UNL     1      -2.000   1.378  -0.151  1.00  0.00     0.047 C 
HETATM    9  C15 UNL     1      -1.025   0.563  -0.972  1.00  0.00     0.146 C 
ENDROOT
BRANCH   1  10
HETATM   10  N1  UNL     1       0.764   0.052   0.522  1.00  0.00    -0.083 NA
BRANCH  10  11
HETATM   11  O4  UNL     1       1.733   0.134  -0.380  1.00  0.00    -0.225 OA
BRANCH  11  12
HETATM   12  C4  UNL     1       2.938  -0.419   0.042  1.00  0.00     0.493 C 
HETATM   13  O3  UNL     1       3.922   0.569  -0.010  1.00  0.00    -0.304 OA
HETATM   14  C3  UNL     1       5.207   0.034  -0.088  1.00  0.00     0.307 C 
HETATM   15  C17 UNL     1       5.182  -1.316   0.544  1.00  0.00     0.230 C 
HETATM   16  C16 UNL     1       4.359  -2.226  -0.349  1.00  0.00     0.358 C 
HETATM   17  N5  UNL     1       3.255  -1.496  -0.887  1.00  0.00     0.005 N 
ATOM     18  H52 UNL     1       2.452  -2.089  -1.094  1.00  0.00     0.286 HD
ATOM     19  H51 UNL     1       3.425  -1.163  -1.836  1.00  0.00     0.286 HD
BRANCH  14  20
HETATM   20  O2  UNL     1       6.079   0.953   0.511  1.00  0.00    -0.287 OA
BRANCH  20  21
HETATM   21  C2  UNL     1       7.068   1.601  -0.184  1.00  0.00     0.257 C 
HETATM   22  C1  UNL     1       8.009   2.580   0.416  1.00  0.00     0.126 C 
HETATM   23  O1  UNL     1       7.152   1.324  -1.405  1.00  0.00    -0.266 OA
ENDBRANCH  20  21
ENDBRANCH  14  20
BRANCH  15  24
HETATM   24  O9  UNL     1       6.471  -1.899   0.566  1.00  0.00    -0.386 OA
ATOM     25  H9  UNL     1       6.455  -2.759   0.969  1.00  0.00     0.210 HD
ENDBRANCH  15  24
BRANCH  16  26
HETATM   26  O8  UNL     1       3.879  -3.315   0.405  1.00  0.00    -0.367 OA
ATOM     27  H8  UNL     1       4.613  -3.800   0.763  1.00  0.00     0.212 HD
ENDBRANCH  16  26
ENDBRANCH  11  12
ENDBRANCH  10  11
ENDBRANCH   1  10
BRANCH   7  28
HETATM   28  C9  UNL     1      -3.616  -0.508  -0.227  1.00  0.00     0.164 C 
BRANCH  28  29
HETATM   29  O5  UNL     1      -3.913  -1.731   0.513  1.00  0.00    -0.392 OA
ATOM     30  H5  UNL     1      -4.479  -2.244  -0.052  1.00  0.00     0.210 HD
ENDBRANCH  28  29
BRANCH  28  31
HETATM   31  C10 UNL     1      -4.963   0.021  -0.524  1.00  0.00     0.109 C 
HETATM   32  C11 UNL     1      -5.145   1.339  -1.156  1.00  0.00     0.069 C 
HETATM   33  C12 UNL     1      -6.687   1.433  -1.109  1.00  0.00     0.235 C 
HETATM   34  N4  UNL     1      -7.072   0.724   0.079  1.00  0.00    -0.072 N 
HETATM   35  C13 UNL     1      -5.858   0.188   0.711  1.00  0.00     0.272 C 
ATOM     36  H42 UNL     1      -7.626   1.297   0.716  1.00  0.00     0.277 HD
ATOM     37  H41 UNL     1      -7.771   0.004  -0.103  1.00  0.00     0.277 HD
BRANCH  31  38
HETATM   38  O6  UNL     1      -5.625  -0.930  -1.330  1.00  0.00    -0.385 OA
ATOM     39  H6  UNL     1      -6.491  -0.590  -1.521  1.00  0.00     0.210 HD
ENDBRANCH  31  38
ENDBRANCH  28  31
ENDBRANCH   7  28
BRANCH   9  40
HETATM   40  O7  UNL     1       0.010   1.372  -1.458  1.00  0.00    -0.393 OA
ATOM     41  H7  UNL     1      -0.333   2.012  -2.070  1.00  0.00     0.210 HD
ENDBRANCH   9  40
TORSDOF 12
