REMARK  12 active torsions:
REMARK  status: ('A' for Active; 'I' for Inactive)
REMARK    1  A    between atoms: C2_2  and  C3_4 
REMARK    2  A    between atoms: C4_5  and  O2_6 
REMARK    3  A    between atoms: O2_6  and  C5_7 
REMARK    4  A    between atoms: N2_13  and  C8_14 
REMARK    5  A    between atoms: C8_14  and  C9_15 
REMARK    6  A    between atoms: C9_15  and  O4_16 
REMARK    7  A    between atoms: C9_15  and  C10_18 
REMARK    8  A    between atoms: C10_18  and  O5_19 
REMARK    9  A    between atoms: C12_25  and  N4_26 
REMARK   10  A    between atoms: N5_30  and  N6_31 
REMARK   11  A    between atoms: C16_39  and  O7_40 
REMARK   12  A    between atoms: C16_39  and  O8_42 
ROOT
HETATM    1  C5  UNL     1      -0.946  -1.308   0.482  1.00  0.00     0.170 A 
HETATM    2  C6  UNL     1      -1.571  -2.534   0.566  1.00  0.00     0.149 A 
HETATM    3  N1  UNL     1      -0.689  -3.442   1.077  1.00  0.00    -0.314 N 
ATOM      4  H1  UNL     1      -0.872  -4.430   1.252  1.00  0.00     0.170 HD
HETATM    5  C7  UNL     1       0.465  -2.792   1.306  1.00  0.00     0.328 A 
HETATM    6  O3  UNL     1       1.524  -3.298   1.780  1.00  0.00    -0.246 OA
HETATM    7  N2  UNL     1       0.303  -1.491   0.942  1.00  0.00    -0.276 N 
ENDROOT
BRANCH   7   8
HETATM    8  C8  UNL     1       1.318  -0.469   1.036  1.00  0.00     0.174 C 
BRANCH   8   9
HETATM    9  C9  UNL     1       2.094  -0.449  -0.260  1.00  0.00     0.218 C 
BRANCH   9  10
HETATM   10  O4  UNL     1       1.228  -0.168  -1.306  1.00  0.00    -0.387 OA
ATOM     11  H4  UNL     1       1.716  -0.155  -2.121  1.00  0.00     0.210 HD
ENDBRANCH   9  10
BRANCH   9  12
HETATM   12  C10 UNL     1       3.198   0.558  -0.267  1.00  0.00     0.331 C 
HETATM   13  N3  UNL     1       4.160   0.350   0.792  1.00  0.00    -0.021 N 
HETATM   14  C11 UNL     1       5.305   1.125   0.301  1.00  0.00     0.288 C 
ATOM     15  H32 UNL     1       3.837   0.595   1.728  1.00  0.00     0.282 HD
ATOM     16  H31 UNL     1       4.358  -0.625   1.015  1.00  0.00     0.282 HD
HETATM   17  C12 UNL     1       5.234   1.089  -1.195  1.00  0.00     0.306 C 
HETATM   18  N5  UNL     1       4.015   0.324  -1.450  1.00  0.00    -0.144 NA
BRANCH  12  19
HETATM   19  O5  UNL     1       2.749   1.867  -0.199  1.00  0.00    -0.350 OA
ATOM     20  H5  UNL     1       3.451   2.507  -0.203  1.00  0.00     0.214 HD
ENDBRANCH  12  19
BRANCH  17  21
HETATM   21  N4  UNL     1       5.222   2.377  -1.817  1.00  0.00    -0.059 N 
ATOM     22  H43 UNL     1       4.466   2.948  -1.439  1.00  0.00     0.276 HD
ATOM     23  H42 UNL     1       6.025   2.927  -1.512  1.00  0.00     0.276 HD
ATOM     24  H41 UNL     1       5.174   2.352  -2.836  1.00  0.00     0.276 HD
ENDBRANCH  17  21
BRANCH  18  25
HETATM   25  N6  UNL     1       4.394  -1.027  -1.424  1.00  0.00    -0.357 NA
ATOM     26  H62 UNL     1       3.543  -1.561  -1.602  1.00  0.00     0.171 HD
ATOM     27  H61 UNL     1       4.966  -1.191  -2.252  1.00  0.00     0.171 HD
ENDBRANCH  18  25
ENDBRANCH   9  12
ENDBRANCH   8   9
ENDBRANCH   7   8
BRANCH   1  28
HETATM   28  O2  UNL     1      -1.478  -0.098   0.016  1.00  0.00    -0.287 OA
BRANCH  28  29
HETATM   29  C4  UNL     1      -2.783  -0.021  -0.439  1.00  0.00     0.141 C 
HETATM   30  C3  UNL     1      -3.781   0.619   0.163  1.00  0.00     0.088 C 
HETATM   31  C16 UNL     1      -5.042   0.462  -0.642  1.00  0.00     0.221 C 
HETATM   32  C14 UNL     1      -4.533   0.106  -1.995  1.00  0.00     0.144 A 
HETATM   33  C13 UNL     1      -3.290  -0.641  -1.679  1.00  0.00     0.209 C 
HETATM   34  C15 UNL     1      -5.496  -0.486  -3.001  1.00  0.00     0.110 A 
HETATM   35  S1  UNL     1      -4.764   1.106  -3.355  1.00  0.00    -0.142 SA
HETATM   36  O6  UNL     1      -2.800  -1.587  -2.338  1.00  0.00    -0.288 OA
BRANCH  30  37
HETATM   37  C2  UNL     1      -3.721   1.365   1.406  1.00  0.00     0.160 C 
HETATM   38  C1  UNL     1      -2.480   1.516   2.197  1.00  0.00     0.096 C 
HETATM   39  O1  UNL     1      -4.760   1.914   1.844  1.00  0.00    -0.293 OA
ENDBRANCH  30  37
BRANCH  31  40
HETATM   40  O7  UNL     1      -5.819   1.599  -0.612  1.00  0.00    -0.360 OA
ATOM     41  H7  UNL     1      -6.615   1.500  -1.120  1.00  0.00     0.213 HD
ENDBRANCH  31  40
BRANCH  31  42
HETATM   42  O8  UNL     1      -5.803  -0.605  -0.167  1.00  0.00    -0.360 OA
ATOM     43  H8  UNL     1      -6.599  -0.704  -0.675  1.00  0.00     0.213 HD
ENDBRANCH  31  42
ENDBRANCH  28  29
ENDBRANCH   1  28
TORSDOF 12
