REMARK  21 active torsions:
REMARK  status: ('A' for Active; 'I' for Inactive)
REMARK    1  A    between atoms: C2_2  and  O1_6 
REMARK    2  A    between atoms: O1_6  and  C3_7 
REMARK    3  A    between atoms: C3_7  and  C4_8 
REMARK    4  A    between atoms: C5_12  and  S1_13 
REMARK    5  A    between atoms: C6_15  and  O2_16 
REMARK    6  A    between atoms: C7_18  and  O3_19 
REMARK    7  A    between atoms: O3_19  and  C8_20 
REMARK    8  A    between atoms: C9_22  and  C10_23 
REMARK    9  A    between atoms: C10_23  and  O5_24 
REMARK   10  A    between atoms: O5_24  and  C11_25 
REMARK   11  A    between atoms: C12_27  and  C13_28 
REMARK   12  A    between atoms: C13_28  and  O7_29 
REMARK   13  A    between atoms: C13_28  and  C14_31 
REMARK   14  A    between atoms: C14_31  and  O8_32 
REMARK   15  A    between atoms: C14_31  and  C15_34 
REMARK   16  A    between atoms: C15_34  and  O9_35 
REMARK   17  A    between atoms: C16_37  and  O10_38 
REMARK   18  A    between atoms: C17_40  and  O11_41 
REMARK   19  A    between atoms: C18_43  and  O12_44 
REMARK   20  A    between atoms: C19_46  and  N3_47 
REMARK   21  A    between atoms: C20_51  and  O13_52 
ROOT
HETATM    1  C8  UNL     1      -1.819  -0.983  -0.606  1.00  0.00     0.294 C 
HETATM    2  O4  UNL     1      -0.715  -0.495   0.036  1.00  0.00    -0.348 OA
HETATM    3  C9  UNL     1       0.380  -0.203  -0.724  1.00  0.00     0.179 C 
HETATM    4  C18 UNL     1       0.834  -1.448  -1.448  1.00  0.00     0.182 C 
HETATM    5  C19 UNL     1      -0.282  -1.824  -2.398  1.00  0.00     0.247 C 
HETATM    6  C20 UNL     1      -1.501  -2.102  -1.566  1.00  0.00     0.206 C 
ENDROOT
BRANCH   1   7
HETATM    7  O3  UNL     1      -2.642  -1.515   0.406  1.00  0.00    -0.326 OA
BRANCH   7   8
HETATM    8  C7  UNL     1      -3.910  -0.883   0.422  1.00  0.00     0.297 C 
HETATM    9  C6  UNL     1      -3.976  -0.157   1.717  1.00  0.00     0.215 C 
HETATM   10  C5  UNL     1      -5.396  -0.107   2.208  1.00  0.00     0.295 C 
HETATM   11  N2  UNL     1      -6.247  -0.196   1.004  1.00  0.00    -0.030 N 
HETATM   12  C4  UNL     1      -6.128  -1.536   0.516  1.00  0.00     0.349 C 
ATOM     13  H22 UNL     1      -6.026   0.510   0.301  1.00  0.00     0.281 HD
ATOM     14  H21 UNL     1      -7.212   0.088   1.171  1.00  0.00     0.281 HD
HETATM   15  O14 UNL     1      -4.818  -1.879   0.210  1.00  0.00    -0.324 OA
BRANCH   9  16
HETATM   16  O2  UNL     1      -3.570   1.181   1.538  1.00  0.00    -0.388 OA
ATOM     17  H2  UNL     1      -2.673   1.149   1.228  1.00  0.00     0.210 HD
ENDBRANCH   9  16
BRANCH  10  18
HETATM   18  S1  UNL     1      -5.751   1.420   3.083  1.00  0.00    -0.049 SA
HETATM   19  S2  UNL     1      -7.710   1.436   3.878  1.00  0.00    -0.011 SA
ENDBRANCH  10  18
BRANCH  12  20
HETATM   20  C3  UNL     1      -7.128  -1.925  -0.525  1.00  0.00     0.238 C 
BRANCH  20  21
HETATM   21  O1  UNL     1      -7.116  -1.164  -1.702  1.00  0.00    -0.336 OA
BRANCH  21  22
HETATM   22  C2  UNL     1      -7.368   0.178  -1.795  1.00  0.00     0.107 C 
HETATM   23  C1  UNL     1      -6.543   1.081  -2.629  1.00  0.00     0.097 C 
HETATM   24  N1  UNL     1      -8.391   0.611  -1.095  1.00  0.00    -0.384 N 
ATOM     25  H12 UNL     1      -8.579   1.611  -1.164  1.00  0.00     0.157 HD
ATOM     26  H11 UNL     1      -8.959  -0.011  -0.520  1.00  0.00     0.157 HD
ENDBRANCH  21  22
ENDBRANCH  20  21
ENDBRANCH  12  20
ENDBRANCH   7   8
ENDBRANCH   1   7
BRANCH   6  27
HETATM   27  O13 UNL     1      -1.266  -3.306  -0.874  1.00  0.00    -0.388 OA
ATOM     28  H13 UNL     1      -1.066  -4.011  -1.479  1.00  0.00     0.210 HD
ENDBRANCH   6  27
BRANCH   3  29
HETATM   29  C10 UNL     1       1.489   0.214   0.254  1.00  0.00     0.205 C 
BRANCH  29  30
HETATM   30  O5  UNL     1       2.615   0.504  -0.486  1.00  0.00    -0.356 OA
BRANCH  30  31
HETATM   31  C11 UNL     1       3.690   0.901   0.291  1.00  0.00     0.291 C 
HETATM   32  O6  UNL     1       4.791   0.031   0.122  1.00  0.00    -0.348 OA
HETATM   33  C12 UNL     1       5.762   0.775   0.838  1.00  0.00     0.187 C 
HETATM   34  C16 UNL     1       5.734   2.069   0.102  1.00  0.00     0.183 C 
HETATM   35  C17 UNL     1       4.228   2.251  -0.129  1.00  0.00     0.204 C 
BRANCH  33  36
HETATM   36  C13 UNL     1       7.068   0.059   0.855  1.00  0.00     0.180 C 
BRANCH  36  37
HETATM   37  O7  UNL     1       7.559  -0.158  -0.443  1.00  0.00    -0.390 OA
ATOM     38  H7  UNL     1       8.392  -0.615  -0.432  1.00  0.00     0.210 HD
ENDBRANCH  36  37
BRANCH  36  39
HETATM   39  C14 UNL     1       8.126   0.813   1.588  1.00  0.00     0.173 C 
BRANCH  39  40
HETATM   40  O8  UNL     1       8.356   2.037   0.953  1.00  0.00    -0.391 OA
ATOM     41  H8  UNL     1       9.030   2.517   1.420  1.00  0.00     0.210 HD
ENDBRANCH  39  40
BRANCH  39  42
HETATM   42  C15 UNL     1       7.897   1.063   3.036  1.00  0.00     0.198 C 
BRANCH  42  43
HETATM   43  O9  UNL     1       6.848   1.898   3.351  1.00  0.00    -0.398 OA
ATOM     44  H9  UNL     1       6.702   2.058   4.276  1.00  0.00     0.209 HD
ENDBRANCH  42  43
ENDBRANCH  39  42
ENDBRANCH  36  39
ENDBRANCH  33  36
BRANCH  34  45
HETATM   45  O10 UNL     1       6.369   2.043  -1.124  1.00  0.00    -0.390 OA
ATOM     46  H10 UNL     1       6.351   2.869  -1.594  1.00  0.00     0.210 HD
ENDBRANCH  34  45
BRANCH  35  47
HETATM   47  O11 UNL     1       3.955   2.510  -1.473  1.00  0.00    -0.388 OA
ATOM     48  H11 UNL     1       4.293   3.358  -1.737  1.00  0.00     0.210 HD
ENDBRANCH  35  47
ENDBRANCH  30  31
ENDBRANCH  29  30
ENDBRANCH   3  29
BRANCH   5  49
HETATM   49  N3  UNL     1       0.042  -3.028  -3.149  1.00  0.00    -0.070 N 
ATOM     50  H33 UNL     1       0.933  -2.935  -3.637  1.00  0.00     0.274 HD
ATOM     51  H32 UNL     1       0.282  -3.802  -2.529  1.00  0.00     0.274 HD
ATOM     52  H31 UNL     1      -0.710  -3.281  -3.789  1.00  0.00     0.274 HD
ENDBRANCH   5  49
BRANCH   4  53
HETATM   53  O12 UNL     1       0.952  -2.464  -0.509  1.00  0.00    -0.391 OA
ATOM     54  H12 UNL     1       1.238  -3.247  -0.964  1.00  0.00     0.210 HD
ENDBRANCH   4  53
TORSDOF 21
