REMARK  18 active torsions:
REMARK  status: ('A' for Active; 'I' for Inactive)
REMARK    1  A    between atoms: N5_15  and  C6_16 
REMARK    2  A    between atoms: C6_16  and  O1_17 
REMARK    3  A    between atoms: C7_21  and  N7_22 
REMARK    4  A    between atoms: N7_22  and  C8_24 
REMARK    5  A    between atoms: C8_24  and  C9_25 
REMARK    6  A    between atoms: C8_24  and  C10_30 
REMARK    7  A    between atoms: C9_25  and  O2_26 
REMARK    8  A    between atoms: C9_25  and  O3_28 
REMARK    9  A    between atoms: C10_30  and  O4_31 
REMARK   10  A    between atoms: C10_30  and  C11_33 
REMARK   11  A    between atoms: C11_33  and  C12_34 
REMARK   12  A    between atoms: C12_34  and  O5_35 
REMARK   13  A    between atoms: C13_37  and  O6_38 
REMARK   14  A    between atoms: C14_40  and  O7_41 
REMARK   15  A    between atoms: C15_43  and  N8_44 
REMARK   16  A    between atoms: C17_46  and  C18_47 
REMARK   17  A    between atoms: C20_51  and  S1_52 
REMARK   18  A    between atoms: S1_52  and  C21_53 
ROOT
HETATM    1  C6  UNL     1       0.427  -1.240  -0.168  1.00  0.00     0.249 C 
HETATM    2  N6  UNL     1      -0.864  -1.568  -0.534  1.00  0.00    -0.326 N 
ATOM      3  H6  UNL     1      -1.316  -2.385  -0.124  1.00  0.00     0.165 HD
HETATM    4  C7  UNL     1      -1.576  -0.757  -1.496  1.00  0.00     0.109 C 
HETATM    5  C13 UNL     1      -0.787   0.100  -2.362  1.00  0.00     0.216 C 
HETATM    6  C14 UNL     1       0.735   0.108  -2.096  1.00  0.00     0.185 C 
HETATM    7  C15 UNL     1       0.857   0.172  -0.591  1.00  0.00     0.219 C 
ENDROOT
BRANCH   1   8
HETATM    8  N5  UNL     1       0.779  -1.397   1.243  1.00  0.00    -0.274 N 
HETATM    9  C3  UNL     1       0.108  -0.878   2.286  1.00  0.00     0.144 A 
HETATM   10  N3  UNL     1      -0.997  -0.127   2.388  1.00  0.00    -0.336 N 
HETATM   11  C4  UNL     1       0.750  -1.234   3.445  1.00  0.00     0.122 A 
HETATM   12  C2  UNL     1      -1.484   0.279   3.571  1.00  0.00     0.183 A 
ATOM     13  H3  UNL     1      -1.486   0.146   1.535  1.00  0.00     0.168 HD
HETATM   14  N2  UNL     1      -0.849  -0.074   4.704  1.00  0.00    -0.337 N 
HETATM   15  C1  UNL     1       0.266  -0.826   4.695  1.00  0.00     0.131 A 
ATOM     16  H2  UNL     1      -1.226   0.239   5.599  1.00  0.00     0.168 HD
HETATM   17  N1  UNL     1       0.877  -1.163   5.776  1.00  0.00    -0.383 N 
ATOM     18  H12 UNL     1       0.525  -0.866   6.686  1.00  0.00     0.157 HD
ATOM     19  H11 UNL     1       1.723  -1.733   5.769  1.00  0.00     0.157 HD
HETATM   20  N4  UNL     1       1.797  -1.964   3.061  1.00  0.00    -0.346 N 
HETATM   21  C5  UNL     1       1.818  -2.065   1.729  1.00  0.00     0.190 A 
ATOM     22  H4  UNL     1       2.481  -2.383   3.691  1.00  0.00     0.167 HD
ENDBRANCH   1   8
BRANCH   1  23
HETATM   23  O1  UNL     1       1.312  -2.084  -0.879  1.00  0.00    -0.352 OA
ATOM     24  H1  UNL     1       1.083  -1.982  -1.795  1.00  0.00     0.214 HD
ENDBRANCH   1  23
BRANCH   7  25
HETATM   25  N8  UNL     1       2.196   0.410  -0.150  1.00  0.00    -0.273 N 
HETATM   26  C16 UNL     1       3.318  -0.004  -0.723  1.00  0.00     0.145 A 
HETATM   27  C17 UNL     1       4.367   0.434   0.038  1.00  0.00     0.094 A 
HETATM   28  N11 UNL     1       3.845   1.114   1.070  1.00  0.00    -0.283 N 
HETATM   29  N12 UNL     1       2.534   1.081   0.928  1.00  0.00    -0.240 N 
ATOM     30  H11 UNL     1       4.363   1.570   1.821  1.00  0.00     0.188 HD
ATOM     31  H12 UNL     1       1.872   1.518   1.569  1.00  0.00     0.208 HD
BRANCH  27  32
HETATM   32  C18 UNL     1       5.797   0.232  -0.159  1.00  0.00     0.079 A 
HETATM   33  C19 UNL     1       6.410  -0.457  -1.197  1.00  0.00     0.122 A 
HETATM   34  N9  UNL     1       7.722  -0.397  -0.986  1.00  0.00    -0.344 N 
HETATM   35  C20 UNL     1       7.997   0.299   0.141  1.00  0.00     0.151 A 
ATOM     36  H9  UNL     1       8.426  -0.819  -1.592  1.00  0.00     0.167 HD
HETATM   37  N10 UNL     1       6.782   0.665   0.612  1.00  0.00    -0.333 N 
ATOM     38  H10 UNL     1       6.642   1.211   1.462  1.00  0.00     0.168 HD
BRANCH  35  39
HETATM   39  S1  UNL     1       9.573   0.677   0.889  1.00  0.00    -0.025 SA
BRANCH  39  40
HETATM   40  C21 UNL     1      10.870  -0.041  -0.099  1.00  0.00     0.312 C 
HETATM   41  O8  UNL     1      10.945   0.261  -1.266  1.00  0.00    -0.295 OA
ENDBRANCH  39  40
ENDBRANCH  35  39
ENDBRANCH  27  32
ENDBRANCH   7  25
BRANCH   4  42
HETATM   42  N7  UNL     1      -2.711  -0.249  -0.855  1.00  0.00    -0.366 N 
ATOM     43  H7  UNL     1      -2.694  -0.202   0.164  1.00  0.00     0.161 HD
BRANCH  42  44
HETATM   44  C8  UNL     1      -3.880   0.204  -1.510  1.00  0.00     0.166 C 
BRANCH  44  45
HETATM   45  C9  UNL     1      -3.778   1.451  -2.324  1.00  0.00     0.278 C 
BRANCH  45  46
HETATM   46  O2  UNL     1      -3.383   2.568  -1.546  1.00  0.00    -0.369 OA
ATOM     47  H2  UNL     1      -3.318   3.362  -2.064  1.00  0.00     0.212 HD
ENDBRANCH  45  46
BRANCH  45  48
HETATM   48  O3  UNL     1      -5.026   1.867  -2.861  1.00  0.00    -0.369 OA
ATOM     49  H3  UNL     1      -4.961   2.661  -3.379  1.00  0.00     0.212 HD
ENDBRANCH  45  48
ENDBRANCH  44  45
BRANCH  44  50
HETATM   50  C10 UNL     1      -4.995   0.307  -0.461  1.00  0.00     0.147 C 
BRANCH  50  51
HETATM   51  O4  UNL     1      -4.703   1.220   0.515  1.00  0.00    -0.393 OA
ATOM     52  H4  UNL     1      -5.393   1.284   1.164  1.00  0.00     0.210 HD
ENDBRANCH  50  51
BRANCH  50  53
HETATM   53  C11 UNL     1      -6.373   0.232  -0.964  1.00  0.00     0.060 C 
BRANCH  53  54
HETATM   54  C12 UNL     1      -7.303   0.323   0.265  1.00  0.00     0.166 C 
BRANCH  54  55
HETATM   55  O5  UNL     1      -7.095   1.525   0.924  1.00  0.00    -0.401 OA
ATOM     56  H5  UNL     1      -7.667   1.581   1.680  1.00  0.00     0.209 HD
ENDBRANCH  54  55
ENDBRANCH  53  54
ENDBRANCH  50  53
ENDBRANCH  44  50
ENDBRANCH  42  44
ENDBRANCH   4  42
BRANCH   6  57
HETATM   57  O7  UNL     1       1.301   1.202  -2.734  1.00  0.00    -0.390 OA
ATOM     58  H7  UNL     1       2.237   1.207  -2.570  1.00  0.00     0.210 HD
ENDBRANCH   6  57
BRANCH   5  59
HETATM   59  O6  UNL     1      -0.952  -0.208  -3.752  1.00  0.00    -0.385 OA
ATOM     60  H6  UNL     1      -0.436   0.353  -4.319  1.00  0.00     0.210 HD
ENDBRANCH   5  59
TORSDOF 18
