REMARK  19 active torsions:
REMARK  status: ('A' for Active; 'I' for Inactive)
REMARK    1  A    between atoms: N1_1  and  N2_4 
REMARK    2  A    between atoms: N2_4  and  C1_5 
REMARK    3  A    between atoms: C2_9  and  S1_10 
REMARK    4  A    between atoms: S1_10  and  C3_11 
REMARK    5  A    between atoms: C3_11  and  C4_12 
REMARK    6  A    between atoms: C5_14  and  O2_15 
REMARK    7  A    between atoms: C5_14  and  O3_17 
REMARK    8  A    between atoms: C6_19  and  O4_20 
REMARK    9  A    between atoms: O4_20  and  C7_21 
REMARK   10  A    between atoms: C9_23  and  S2_24 
REMARK   11  A    between atoms: S2_24  and  C10_25 
REMARK   12  A    between atoms: C11_28  and  C12_29 
REMARK   13  A    between atoms: C13_37  and  C14_38 
REMARK   14  A    between atoms: C14_38  and  O8_39 
REMARK   15  A    between atoms: C15_41  and  O9_42 
REMARK   16  A    between atoms: C16_44  and  O10_45 
REMARK   17  A    between atoms: C17_47  and  O11_48 
REMARK   18  A    between atoms: C18_50  and  C19_51 
REMARK   19  A    between atoms: C19_51  and  O12_52 
ROOT
HETATM    1  C4  UNL     1      -1.541   0.676  -0.311  1.00  0.00     0.168 C 
HETATM    2  O1  UNL     1      -1.190   0.110   0.888  1.00  0.00    -0.322 OA
HETATM    3  C5  UNL     1       0.163   0.205   1.080  1.00  0.00     0.308 C 
HETATM    4  C6  UNL     1       0.805   0.494  -0.238  1.00  0.00     0.246 C 
HETATM    5  C16 UNL     1      -0.333   0.442  -1.201  1.00  0.00     0.185 C 
ENDROOT
BRANCH   4   6
HETATM    6  O4  UNL     1       1.739  -0.533  -0.494  1.00  0.00    -0.367 OA
BRANCH   6   7
HETATM    7  C7  UNL     1       3.015   0.012  -0.713  1.00  0.00     0.157 C 
HETATM    8  C8  UNL     1       4.045  -0.671   0.133  1.00  0.00     0.078 C 
HETATM    9  C9  UNL     1       4.845  -1.677  -0.633  1.00  0.00     0.194 C 
HETATM   10  O7  UNL     1       4.107  -2.450  -1.493  1.00  0.00    -0.365 OA
HETATM   11  C13 UNL     1       3.333  -1.751  -2.376  1.00  0.00     0.177 C 
HETATM   12  C15 UNL     1       3.304  -0.271  -2.195  1.00  0.00     0.178 C 
BRANCH   9  13
HETATM   13  S2  UNL     1       5.752  -2.722   0.570  1.00  0.00    -0.060 SA
BRANCH  13  14
HETATM   14  C10 UNL     1       6.960  -1.754   1.449  1.00  0.00     0.163 A 
HETATM   15  N4  UNL     1       7.202  -0.440   1.310  1.00  0.00    -0.315 N 
HETATM   16  C11 UNL     1       8.187  -0.062   2.149  1.00  0.00     0.200 A 
ATOM     17  H4  UNL     1       6.713   0.180   0.665  1.00  0.00     0.169 HD
HETATM   18  N5  UNL     1       8.554  -1.160   2.811  1.00  0.00    -0.278 N 
HETATM   19  N6  UNL     1       7.819  -2.171   2.391  1.00  0.00    -0.278 N 
ATOM     20  H5  UNL     1       9.282  -1.210   3.524  1.00  0.00     0.189 HD
ATOM     21  H6  UNL     1       7.893  -3.129   2.732  1.00  0.00     0.189 HD
BRANCH  16  22
HETATM   22  C12 UNL     1       8.692   1.295   2.251  1.00  0.00     0.246 C 
HETATM   23  O5  UNL     1       8.233   2.224   1.546  1.00  0.00    -0.642 OA
HETATM   24  O6  UNL     1       9.710   1.588   3.145  1.00  0.00    -0.642 OA
ENDBRANCH  16  22
ENDBRANCH  13  14
ENDBRANCH   9  13
BRANCH  11  25
HETATM   25  C14 UNL     1       3.662  -2.052  -3.822  1.00  0.00     0.198 C 
BRANCH  25  26
HETATM   26  O8  UNL     1       3.476  -3.409  -4.111  1.00  0.00    -0.398 OA
ATOM     27  H8  UNL     1       3.683  -3.598  -5.019  1.00  0.00     0.209 HD
ENDBRANCH  25  26
ENDBRANCH  11  25
BRANCH  12  28
HETATM   28  O9  UNL     1       4.409   0.404  -2.653  1.00  0.00    -0.390 OA
ATOM     29  H9  UNL     1       4.588   0.229  -3.569  1.00  0.00     0.210 HD
ENDBRANCH  12  28
ENDBRANCH   6   7
ENDBRANCH   4   6
BRANCH   3  30
HETATM   30  O2  UNL     1       0.591  -1.023   1.623  1.00  0.00    -0.341 OA
ATOM     31  H2  UNL     1       1.529  -0.957   1.756  1.00  0.00     0.215 HD
ENDBRANCH   3  30
BRANCH   3  32
HETATM   32  O3  UNL     1       0.544   1.181   1.995  1.00  0.00    -0.341 OA
ATOM     33  H3  UNL     1       1.482   1.247   2.128  1.00  0.00     0.215 HD
ENDBRANCH   3  32
BRANCH   5  34
HETATM   34  O10 UNL     1      -0.273   1.459  -2.155  1.00  0.00    -0.390 OA
ATOM     35  H10 UNL     1       0.483   1.313  -2.712  1.00  0.00     0.210 HD
ENDBRANCH   5  34
BRANCH   1  36
HETATM   36  C3  UNL     1      -1.860   2.127  -0.170  1.00  0.00     0.110 C 
BRANCH  36  37
HETATM   37  S1  UNL     1      -3.231   2.348   0.979  1.00  0.00    -0.131 SA
BRANCH  37  38
HETATM   38  C2  UNL     1      -4.737   1.654   0.314  1.00  0.00     0.282 C 
HETATM   39  N3  UNL     1      -4.731   0.213   0.189  1.00  0.00    -0.017 N 
HETATM   40  C1  UNL     1      -5.934  -0.198  -0.472  1.00  0.00     0.439 C 
ATOM     41  H32 UNL     1      -4.599  -0.255   1.086  1.00  0.00     0.283 HD
ATOM     42  H31 UNL     1      -3.892  -0.134  -0.276  1.00  0.00     0.283 HD
HETATM   43  O13 UNL     1      -6.843   0.787  -0.709  1.00  0.00    -0.336 OA
HETATM   44  C18 UNL     1      -7.170   1.580   0.366  1.00  0.00     0.180 C 
HETATM   45  C17 UNL     1      -5.952   1.988   1.180  1.00  0.00     0.190 C 
BRANCH  40  46
HETATM   46  N2  UNL     1      -6.510  -1.354   0.210  1.00  0.00    -0.087 NA
BRANCH  46  47
HETATM   47  N1  UNL     1      -5.622  -2.434   0.216  1.00  0.00    -0.344 N 
ATOM     48  H12 UNL     1      -4.694  -2.403  -0.206  1.00  0.00     0.172 HD
ATOM     49  H11 UNL     1      -6.024  -3.241   0.692  1.00  0.00     0.172 HD
ENDBRANCH  46  47
ENDBRANCH  40  46
BRANCH  44  50
HETATM   50  C19 UNL     1      -8.228   0.992   1.260  1.00  0.00     0.198 C 
BRANCH  50  51
HETATM   51  O12 UNL     1      -9.399   0.785   0.535  1.00  0.00    -0.398 OA
ATOM     52  H12 UNL     1     -10.067   0.414   1.099  1.00  0.00     0.209 HD
ENDBRANCH  50  51
ENDBRANCH  44  50
BRANCH  45  53
HETATM   53  O11 UNL     1      -5.894   1.141   2.288  1.00  0.00    -0.390 OA
ATOM     54  H11 UNL     1      -6.649   1.349   2.826  1.00  0.00     0.210 HD
ENDBRANCH  45  53
ENDBRANCH  37  38
ENDBRANCH  36  37
ENDBRANCH   1  36
TORSDOF 19
