REMARK  20 active torsions:
REMARK  status: ('A' for Active; 'I' for Inactive)
REMARK    1  A    between atoms: C2_3  and  O2_5 
REMARK    2  A    between atoms: O2_5  and  C3_6 
REMARK    3  A    between atoms: C3_6  and  C4_7 
REMARK    4  A    between atoms: C4_7  and  C5_8 
REMARK    5  A    between atoms: C5_8  and  N2_9 
REMARK    6  A    between atoms: C7_13  and  C8_14 
REMARK    7  A    between atoms: C8_14  and  N4_15 
REMARK    8  A    between atoms: C8_14  and  O3_19 
REMARK    9  A    between atoms: C9_21  and  N5_22 
REMARK   10  A    between atoms: N5_22  and  C10_24 
REMARK   11  A    between atoms: C11_27  and  N7_28 
REMARK   12  A    between atoms: C15_40  and  N11_41 
REMARK   13  A    between atoms: C16_44  and  N12_45 
REMARK   14  A    between atoms: N12_45  and  C17_47 
REMARK   15  A    between atoms: C18_48  and  O4_49 
REMARK   16  A    between atoms: C19_52  and  C20_53 
REMARK   17  A    between atoms: C20_53  and  O6_54 
REMARK   18  A    between atoms: C20_53  and  C21_56 
REMARK   19  A    between atoms: C21_56  and  O7_57 
REMARK   20  A    between atoms: C22_59  and  O8_60 
ROOT
HETATM    1  N1  UNL     1       3.162   7.584   1.478  1.00  0.00    -0.186 NA
HETATM    2  C1  UNL     1       2.954   6.780   0.663  1.00  0.00     0.170 C 
HETATM    3  C2  UNL     1       2.681   5.784  -0.335  1.00  0.00     0.365 C 
HETATM    4  O1  UNL     1       3.080   5.866  -1.521  1.00  0.00    -0.247 OA
ENDROOT
BRANCH   3   5
HETATM    5  O2  UNL     1       1.940   4.671   0.011  1.00  0.00    -0.310 OA
BRANCH   5   6
HETATM    6  C3  UNL     1       1.634   3.647  -0.932  1.00  0.00     0.181 C 
BRANCH   6   7
HETATM    7  C4  UNL     1       0.814   2.581  -0.231  1.00  0.00     0.047 C 
BRANCH   7   8
HETATM    8  C5  UNL     1       0.511   1.516  -1.261  1.00  0.00     0.134 C 
BRANCH   8   9
HETATM    9  N2  UNL     1      -0.275   0.428  -0.719  1.00  0.00    -0.317 N 
HETATM   10  C6  UNL     1      -1.627   0.373  -0.703  1.00  0.00     0.122 A 
HETATM   11  N3  UNL     1      -2.602   1.193  -1.126  1.00  0.00    -0.339 N 
HETATM   12  C13 UNL     1      -1.984  -0.819  -0.105  1.00  0.00     0.041 A 
HETATM   13  C7  UNL     1      -3.940   0.890  -0.985  1.00  0.00     0.094 A 
ATOM     14  H3  UNL     1      -2.343   2.075  -1.569  1.00  0.00     0.167 HD
HETATM   15  C9  UNL     1      -4.348  -0.275  -0.398  1.00  0.00     0.063 A 
HETATM   16  C12 UNL     1      -3.313  -1.122   0.037  1.00  0.00     0.049 A 
HETATM   17  C14 UNL     1      -0.803  -1.452   0.224  1.00  0.00     0.092 A 
HETATM   18  N10 UNL     1      -0.538  -2.625   0.818  1.00  0.00    -0.336 N 
HETATM   19  C23 UNL     1       0.268  -0.665  -0.163  1.00  0.00     0.139 A 
HETATM   20  C15 UNL     1       0.738  -3.050   1.043  1.00  0.00     0.144 A 
ATOM     21  H10 UNL     1      -1.315  -3.218   1.110  1.00  0.00     0.168 HD
HETATM   22  C16 UNL     1       1.817  -2.272   0.660  1.00  0.00     0.147 A 
HETATM   23  N13 UNL     1       1.516  -1.102   0.068  1.00  0.00    -0.324 N 
ATOM     24  H13 UNL     1       2.290  -0.506  -0.226  1.00  0.00     0.169 HD
BRANCH  13  25
HETATM   25  C8  UNL     1      -4.941   1.833  -1.544  1.00  0.00     0.369 C 
BRANCH  25  26
HETATM   26  N4  UNL     1      -5.853   1.106  -2.386  1.00  0.00    -0.047 N 
ATOM     27  H43 UNL     1      -5.372   0.576  -3.112  1.00  0.00     0.277 HD
ATOM     28  H42 UNL     1      -6.288   0.322  -1.900  1.00  0.00     0.277 HD
ATOM     29  H41 UNL     1      -6.541   1.754  -2.770  1.00  0.00     0.277 HD
ENDBRANCH  25  26
BRANCH  25  30
HETATM   30  O3  UNL     1      -5.617   2.517  -0.519  1.00  0.00    -0.365 OA
ATOM     31  H3  UNL     1      -6.258   3.120  -0.877  1.00  0.00     0.212 HD
ENDBRANCH  25  30
ENDBRANCH  13  25
BRANCH  15  32
HETATM   32  N5  UNL     1      -5.690  -0.626  -0.165  1.00  0.00    -0.326 N 
ATOM     33  H5  UNL     1      -6.431   0.040  -0.384  1.00  0.00     0.169 HD
BRANCH  32  34
HETATM   34  C10 UNL     1      -6.031  -1.922   0.383  1.00  0.00     0.194 C 
HETATM   35  N6  UNL     1      -6.485  -2.160   1.559  1.00  0.00    -0.319 N 
HETATM   36  C11 UNL     1      -6.708  -3.569   1.751  1.00  0.00     0.399 C 
ATOM     37  H6  UNL     1      -6.664  -1.445   2.264  1.00  0.00     0.166 HD
HETATM   38  N8  UNL     1      -6.048  -4.204   0.635  1.00  0.00    -0.084 NA
HETATM   39  N9  UNL     1      -5.925  -3.172  -0.280  1.00  0.00    -0.271 N 
ATOM     40  H9  UNL     1      -5.780  -3.293  -1.282  1.00  0.00     0.185 HD
BRANCH  36  41
HETATM   41  N7  UNL     1      -8.155  -3.782   1.629  1.00  0.00    -0.042 N 
ATOM     42  H73 UNL     1      -8.704  -3.197   2.259  1.00  0.00     0.278 HD
ATOM     43  H72 UNL     1      -8.543  -3.427   0.755  1.00  0.00     0.278 HD
ATOM     44  H71 UNL     1      -8.313  -4.780   1.765  1.00  0.00     0.278 HD
ENDBRANCH  36  41
ENDBRANCH  32  34
ENDBRANCH  15  32
BRANCH  20  45
HETATM   45  N11 UNL     1       0.861  -4.188   1.617  1.00  0.00    -0.382 N 
ATOM     46 2H11 UNL     1       0.066  -4.761   1.899  1.00  0.00     0.157 HD
ATOM     47 1H11 UNL     1       1.815  -4.506   1.785  1.00  0.00     0.157 HD
ENDBRANCH  20  45
BRANCH  22  48
HETATM   48  N12 UNL     1       3.154  -2.690   0.891  1.00  0.00    -0.361 N 
ATOM     49  H12 UNL     1       3.269  -3.589   1.358  1.00  0.00     0.162 HD
BRANCH  48  50
HETATM   50  C17 UNL     1       4.349  -2.007   0.550  1.00  0.00     0.169 C 
HETATM   51  C18 UNL     1       4.473  -1.869  -0.944  1.00  0.00     0.282 C 
HETATM   52  O5  UNL     1       5.371  -0.814  -1.085  1.00  0.00    -0.349 OA
HETATM   53  C19 UNL     1       4.825   0.142  -0.229  1.00  0.00     0.186 C 
HETATM   54  C22 UNL     1       4.432  -0.575   1.029  1.00  0.00     0.177 C 
BRANCH  51  55
HETATM   55  O4  UNL     1       4.948  -3.035  -1.540  1.00  0.00    -0.369 OA
ATOM     56  H4  UNL     1       5.026  -2.948  -2.483  1.00  0.00     0.212 HD
ENDBRANCH  51  55
BRANCH  53  57
HETATM   57  C20 UNL     1       5.882   1.200  -0.029  1.00  0.00     0.173 C 
BRANCH  57  58
HETATM   58  O6  UNL     1       7.028   0.676   0.521  1.00  0.00    -0.391 OA
ATOM     59  H6  UNL     1       7.694   1.342   0.647  1.00  0.00     0.210 HD
ENDBRANCH  57  58
BRANCH  57  60
HETATM   60  C21 UNL     1       5.317   2.347   0.781  1.00  0.00     0.198 C 
BRANCH  60  61
HETATM   61  O7  UNL     1       6.295   3.344   0.829  1.00  0.00    -0.398 OA
ATOM     62  H7  UNL     1       5.940   4.064   1.337  1.00  0.00     0.209 HD
ENDBRANCH  60  61
ENDBRANCH  57  60
ENDBRANCH  53  57
BRANCH  54  63
HETATM   63  O8  UNL     1       5.493  -0.422   1.953  1.00  0.00    -0.391 OA
ATOM     64  H8  UNL     1       5.545   0.478   2.254  1.00  0.00     0.210 HD
ENDBRANCH  54  63
ENDBRANCH  48  50
ENDBRANCH  22  48
ENDBRANCH   8   9
ENDBRANCH   7   8
ENDBRANCH   6   7
ENDBRANCH   5   6
ENDBRANCH   3   5
TORSDOF 20
