REMARK  11 active torsions:
REMARK  status: ('A' for Active; 'I' for Inactive)
REMARK    1  A    between atoms: C2_2  and  N1_5 
REMARK       I    between atoms: N1_5  and  C5_7 
REMARK    2  A    between atoms: C5_7  and  C6_9 
REMARK    3  A    between atoms: C7_15  and  S1_16 
REMARK    4  A    between atoms: S1_16  and  N4_19 
REMARK    5  A    between atoms: N4_19  and  C8_21 
REMARK    6  A    between atoms: C8_21  and  C9_26 
REMARK    7  A    between atoms: N5_22  and  O5_24 
REMARK       I    between atoms: C9_26  and  N6_28 
REMARK    8  A    between atoms: N6_28  and  C10_30 
REMARK    9  A    between atoms: C10_30  and  C11_31 
REMARK   10  A    between atoms: C14_34  and  C15_35 
REMARK   11  A    between atoms: C17_43  and  O7_44 
ROOT
HETATM    1  C8  UNL     1      -0.003  -2.531  -0.426  1.00  0.00     0.204 C 
HETATM    2  N5  UNL     1      -0.612  -2.385  -1.520  1.00  0.00    -0.248 N 
ATOM      3  H5  UNL     1      -0.029  -2.251  -2.346  1.00  0.00     0.196 HD
ENDROOT
BRANCH   1   4
HETATM    4  N4  UNL     1      -0.649  -2.722   0.798  1.00  0.00    -0.259 N 
ATOM      5  H4  UNL     1      -0.648  -3.674   1.163  1.00  0.00     0.180 HD
BRANCH   4   6
HETATM    6  S1  UNL     1      -1.445  -1.542   1.762  1.00  0.00     0.284 S 
HETATM    7  O3  UNL     1      -0.834  -1.709   3.162  1.00  0.00    -0.199 OA
HETATM    8  O4  UNL     1      -1.100  -0.149   1.367  1.00  0.00    -0.199 OA
BRANCH   6   9
HETATM    9  C7  UNL     1      -3.113  -1.904   1.886  1.00  0.00     0.206 A 
HETATM   10  C6  UNL     1      -4.190  -1.460   1.219  1.00  0.00     0.166 A 
HETATM   11  N2  UNL     1      -5.253  -2.150   1.733  1.00  0.00    -0.233 N 
HETATM   12  O2  UNL     1      -4.848  -2.956   2.650  1.00  0.00    -0.155 OA
ATOM     13  H2  UNL     1      -6.222  -2.042   1.434  1.00  0.00     0.197 HD
HETATM   14  N3  UNL     1      -3.589  -2.837   2.768  1.00  0.00    -0.227 N 
ATOM     15  H3  UNL     1      -3.014  -3.362   3.427  1.00  0.00     0.197 HD
BRANCH  10  16
HETATM   16  C5  UNL     1      -4.287  -0.476   0.166  1.00  0.00     0.273 C 
HETATM   17  N1  UNL     1      -5.534  -0.343  -0.553  1.00  0.00    -0.347 N 
ATOM     18  H1  UNL     1      -6.307  -0.953  -0.289  1.00  0.00     0.163 HD
HETATM   19  O1  UNL     1      -3.374   0.294  -0.199  1.00  0.00    -0.266 OA
BRANCH  17  20
HETATM   20  C2  UNL     1      -5.748   0.594  -1.614  1.00  0.00     0.022 C 
HETATM   21  C1  UNL     1      -5.593   2.028  -1.166  1.00  0.00     0.037 C 
HETATM   22  C3  UNL     1      -7.129   0.384  -2.185  1.00  0.00     0.037 C 
HETATM   23  C4  UNL     1      -4.725   0.325  -2.711  1.00  0.00     0.037 C 
ENDBRANCH  17  20
ENDBRANCH  10  16
ENDBRANCH   6   9
ENDBRANCH   4   6
ENDBRANCH   1   4
BRANCH   1  24
HETATM   24  C9  UNL     1       1.456  -2.533  -0.467  1.00  0.00     0.288 C 
HETATM   25  O6  UNL     1       2.053  -2.359  -1.562  1.00  0.00    -0.264 OA
HETATM   26  N6  UNL     1       2.193  -2.736   0.719  1.00  0.00    -0.350 N 
ATOM     27  H6  UNL     1       1.686  -2.870   1.594  1.00  0.00     0.163 HD
BRANCH  26  28
HETATM   28  C10 UNL     1       3.642  -2.762   0.742  1.00  0.00     0.162 C 
BRANCH  28  29
HETATM   29  C11 UNL     1       4.172  -1.398   0.667  1.00  0.00    -0.025 A 
HETATM   30  C12 UNL     1       4.101  -0.592   1.778  1.00  0.00     0.012 A 
HETATM   31  C13 UNL     1       4.631   0.691   1.681  1.00  0.00     0.031 A 
HETATM   32  C14 UNL     1       5.203   1.148   0.535  1.00  0.00     0.053 A 
HETATM   33  N9  UNL     1       5.257   0.331  -0.549  1.00  0.00    -0.364 N 
HETATM   34  C18 UNL     1       4.760  -0.915  -0.501  1.00  0.00     0.097 A 
ATOM     35  H9  UNL     1       5.682   0.669  -1.412  1.00  0.00     0.165 HD
BRANCH  32  36
HETATM   36  C15 UNL     1       5.801   2.495   0.436  1.00  0.00     0.086 A 
HETATM   37  S2  UNL     1       6.493   3.188  -1.004  1.00  0.00    -0.048 SA
HETATM   38  C16 UNL     1       6.976   4.677  -0.350  1.00  0.00     0.144 A 
HETATM   39  N7  UNL     1       7.586   5.716  -0.887  1.00  0.00    -0.380 N 
HETATM   40  N8  UNL     1       6.593   4.586   0.927  1.00  0.00    -0.317 N 
ATOM     41  H72 UNL     1       7.878   5.785  -1.862  1.00  0.00     0.158 HD
ATOM     42  H71 UNL     1       7.876   6.611  -0.494  1.00  0.00     0.158 HD
HETATM   43  C17 UNL     1       6.002   3.491   1.326  1.00  0.00     0.161 A 
ATOM     44  H8  UNL     1       6.758   5.355   1.576  1.00  0.00     0.170 HD
BRANCH  43  45
HETATM   45  O7  UNL     1       5.572   3.350   2.685  1.00  0.00    -0.345 OA
ATOM     46  H7  UNL     1       5.713   4.051   3.311  1.00  0.00     0.219 HD
ENDBRANCH  43  45
ENDBRANCH  32  36
ENDBRANCH  28  29
ENDBRANCH  26  28
ENDBRANCH   1  24
BRANCH   2  47
HETATM   47  O5  UNL     1      -1.942  -2.385  -1.724  1.00  0.00    -0.288 OA
ATOM     48  H5  UNL     1      -2.401  -2.275  -2.548  1.00  0.00     0.244 HD
ENDBRANCH   2  47
TORSDOF 11
