REMARK  10 active torsions:
REMARK  status: ('A' for Active; 'I' for Inactive)
REMARK    1  A    between atoms: O1_2  and  C2_3 
REMARK    2  A    between atoms: N1_7  and  C5_9 
REMARK    3  A    between atoms: C7_15  and  N4_16 
REMARK    4  A    between atoms: C8_19  and  C9_20 
REMARK    5  A    between atoms: C9_20  and  N5_21 
REMARK    6  A    between atoms: N5_21  and  N6_22 
REMARK       I    between atoms: N6_22  and  C10_24 
REMARK    7  A    between atoms: C13_28  and  C14_29 
REMARK    8  A    between atoms: C15_30  and  N7_31 
REMARK    9  A    between atoms: C16_32  and  N8_33 
REMARK   10  A    between atoms: C22_44  and  N11_45 
ROOT
HETATM    1  C2  UNL     1       0.300  -1.753   1.016  1.00  0.00     0.101 A 
HETATM    2  C3  UNL     1       1.350  -2.559   1.389  1.00  0.00     0.181 A 
HETATM    3  O2  UNL     1       2.565  -2.273   1.034  1.00  0.00    -0.303 OA
HETATM    4  C4  UNL     1       2.835  -1.207   0.309  1.00  0.00     0.149 A 
HETATM    5  N1  UNL     1       4.053  -0.977  -0.012  1.00  0.00    -0.322 N 
ATOM      6  H1  UNL     1       4.243  -0.147  -0.574  1.00  0.00     0.169 HD
HETATM    7  C12 UNL     1       1.841  -0.356  -0.101  1.00  0.00     0.070 A 
HETATM    8  C13 UNL     1       0.515  -0.632   0.262  1.00  0.00     0.004 A 
ENDROOT
BRANCH   8   9
HETATM    9  C14 UNL     1      -0.523   0.279  -0.193  1.00  0.00     0.032 C 
HETATM   10  C15 UNL     1      -1.814   0.218   0.003  1.00  0.00     0.118 C 
BRANCH  10  11
HETATM   11  N7  UNL     1      -2.758   1.175  -0.494  1.00  0.00    -0.141 N 
HETATM   12  C16 UNL     1      -4.103   1.053  -0.272  1.00  0.00     0.689 A 
HETATM   13  N10 UNL     1      -4.656   2.121  -0.878  1.00  0.00    -0.184 N 
HETATM   14  C21 UNL     1      -3.727   2.883  -1.454  1.00  0.00     0.137 A 
ATOM     15  H10 UNL     1      -5.656   2.321  -0.894  1.00  0.00     0.184 HD
HETATM   16  C22 UNL     1      -3.730   4.054  -2.183  1.00  0.00     0.131 A 
HETATM   17  C24 UNL     1      -2.491   2.276  -1.209  1.00  0.00     0.160 A 
HETATM   18  N12 UNL     1      -2.608   4.630  -2.662  1.00  0.00    -0.337 N 
HETATM   19  C23 UNL     1      -1.422   4.032  -2.417  1.00  0.00     0.183 A 
ATOM     20  H12 UNL     1      -2.654   5.497  -3.197  1.00  0.00     0.168 HD
HETATM   21  N13 UNL     1      -1.411   2.898  -1.713  1.00  0.00    -0.336 N 
ATOM     22  H13 UNL     1      -0.503   2.465  -1.542  1.00  0.00     0.168 HD
BRANCH  12  23
HETATM   23  N8  UNL     1      -4.783   0.029   0.441  1.00  0.00    -0.214 N 
HETATM   24  C17 UNL     1      -5.265  -1.155  -0.212  1.00  0.00     0.168 C 
HETATM   25  C18 UNL     1      -6.666  -1.472   0.190  1.00  0.00     0.252 C 
HETATM   26  N9  UNL     1      -6.958  -1.237   1.574  1.00  0.00    -0.072 N 
HETATM   27  C19 UNL     1      -6.515   0.038   2.054  1.00  0.00     0.252 C 
ATOM     28  H92 UNL     1      -7.954  -1.362   1.756  1.00  0.00     0.277 HD
ATOM     29  H91 UNL     1      -6.581  -1.988   2.152  1.00  0.00     0.277 HD
HETATM   30  C20 UNL     1      -4.998   0.180   1.852  1.00  0.00     0.168 C 
ENDBRANCH  12  23
BRANCH  16  31
HETATM   31  N11 UNL     1      -4.875   4.627  -2.417  1.00  0.00    -0.383 N 
ATOM     32 2H11 UNL     1      -5.723   4.192  -2.055  1.00  0.00     0.157 HD
ATOM     33 1H11 UNL     1      -4.877   5.493  -2.956  1.00  0.00     0.157 HD
ENDBRANCH  16  31
ENDBRANCH  10  11
ENDBRANCH   8   9
BRANCH   1  34
HETATM   34  O1  UNL     1      -1.000  -2.106   1.428  1.00  0.00    -0.353 OA
HETATM   35  C1  UNL     1      -1.177  -3.254   2.195  1.00  0.00     0.210 C 
ENDBRANCH   1  34
BRANCH   5  36
HETATM   36  C5  UNL     1       5.150  -1.782   0.351  1.00  0.00     0.124 A 
HETATM   37  N2  UNL     1       5.017  -2.846   1.193  1.00  0.00    -0.338 N 
HETATM   38  C6  UNL     1       6.046  -3.630   1.541  1.00  0.00     0.183 A 
ATOM     39  H2  UNL     1       4.094  -3.054   1.574  1.00  0.00     0.168 HD
HETATM   40  N3  UNL     1       7.283  -3.396   1.064  1.00  0.00    -0.338 N 
HETATM   41  C7  UNL     1       7.450  -2.340   0.220  1.00  0.00     0.116 A 
ATOM     42  H3  UNL     1       8.070  -3.990   1.326  1.00  0.00     0.168 HD
HETATM   43  C8  UNL     1       6.404  -1.532  -0.141  1.00  0.00     0.082 A 
BRANCH  41  44
HETATM   44  N4  UNL     1       8.638  -2.129  -0.230  1.00  0.00    -0.385 N 
ATOM     45  H42 UNL     1       9.417  -2.731   0.039  1.00  0.00     0.157 HD
ATOM     46  H41 UNL     1       8.763  -1.338  -0.862  1.00  0.00     0.157 HD
ENDBRANCH  41  44
BRANCH  43  47
HETATM   47  C9  UNL     1       6.624  -0.387  -1.048  1.00  0.00     0.228 C 
BRANCH  47  48
HETATM   48  N5  UNL     1       5.851   0.400  -1.441  1.00  0.00    -0.335 NA
BRANCH  48  49
HETATM   49  N6  UNL     1       4.978   1.270  -1.870  1.00  0.00    -0.204 N 
HETATM   50  C10 UNL     1       4.960   2.607  -1.346  1.00  0.00     0.242 C 
HETATM   51  C11 UNL     1       3.969   3.567  -1.839  1.00  0.00     0.119 C 
HETATM   52  O3  UNL     1       5.786   2.930  -0.482  1.00  0.00    -0.271 OA
ATOM     53  H6  UNL     1       4.302   0.998  -2.584  1.00  0.00     0.205 HD
ENDBRANCH  48  49
ENDBRANCH  47  48
ENDBRANCH  43  47
ENDBRANCH   5  36
TORSDOF 10
