REMARK  12 active torsions:
REMARK  status: ('A' for Active; 'I' for Inactive)
REMARK    1  A    between atoms: O1_2  and  C2_3 
REMARK    2  A    between atoms: C7_8  and  O2_9 
REMARK    3  A    between atoms: C9_11  and  O3_12 
REMARK    4  A    between atoms: N1_14  and  C10_15 
REMARK    5  A    between atoms: C10_15  and  C11_16 
REMARK    6  A    between atoms: C11_16  and  C17_37 
REMARK    7  A    between atoms: N2_17  and  N3_19 
REMARK    8  A    between atoms: N3_19  and  C12_21 
REMARK    9  A    between atoms: N7_29  and  N8_31 
REMARK   10  A    between atoms: N8_31  and  C15_32 
REMARK   11  A    between atoms: C19_39  and  O4_40 
REMARK   12  A    between atoms: C20_42  and  O5_43 
ROOT
HETATM    1  C11 UNL     1      -0.674  -1.956   0.819  1.00  0.00     0.081 C 
HETATM    2  N2  UNL     1       0.447  -1.559   1.276  1.00  0.00    -0.287 N 
ATOM      3  H2  UNL     1       0.485  -0.581   1.564  1.00  0.00     0.187 HD
ENDROOT
BRANCH   1   4
HETATM    4  C10 UNL     1      -1.788  -0.980   0.750  1.00  0.00     0.337 C 
BRANCH   4   5
HETATM    5  N1  UNL     1      -1.219   0.362   0.733  1.00  0.00     0.127 N 
HETATM    6  C9  UNL     1      -2.273   1.367   0.827  1.00  0.00     0.392 C 
HETATM    7  C5  UNL     1      -2.907   1.687  -0.455  1.00  0.00     0.009 A 
HETATM    8  C4  UNL     1      -2.524   1.180  -1.674  1.00  0.00    -0.043 A 
HETATM    9  C6  UNL     1      -3.982   2.585  -0.387  1.00  0.00     0.051 A 
HETATM   10  C3  UNL     1      -3.200   1.559  -2.801  1.00  0.00     0.047 A 
HETATM   11  C23 UNL     1      -1.378   0.255  -1.709  1.00  0.00     0.069 C 
HETATM   12  C2  UNL     1      -4.259   2.432  -2.791  1.00  0.00     0.102 A 
HETATM   13  C7  UNL     1      -4.634   2.938  -1.549  1.00  0.00     0.102 A 
HETATM   14  C22 UNL     1      -0.498   0.602  -0.514  1.00  0.00     0.281 C 
BRANCH   6  15
HETATM   15  O3  UNL     1      -1.693   2.521   1.376  1.00  0.00    -0.364 OA
ATOM     16  H3  UNL     1      -1.282   2.314   2.207  1.00  0.00     0.212 HD
ENDBRANCH   6  15
BRANCH  12  17
HETATM   17  O1  UNL     1      -4.959   2.833  -3.906  1.00  0.00    -0.353 OA
HETATM   18  C1  UNL     1      -4.611   2.343  -5.176  1.00  0.00     0.210 C 
ENDBRANCH  12  17
BRANCH  13  19
HETATM   19  O2  UNL     1      -5.708   3.826  -1.530  1.00  0.00    -0.353 OA
HETATM   20  C8  UNL     1      -6.144   4.380  -0.295  1.00  0.00     0.210 C 
ENDBRANCH  13  19
ENDBRANCH   4   5
ENDBRANCH   1   4
BRANCH   1  21
HETATM   21  C17 UNL     1      -0.818  -3.349   0.411  1.00  0.00     0.060 A 
HETATM   22  C18 UNL     1      -1.995  -3.881  -0.067  1.00  0.00     0.071 A 
HETATM   23  C19 UNL     1      -2.139  -5.180  -0.472  1.00  0.00     0.102 A 
HETATM   24  C20 UNL     1      -1.041  -6.017  -0.403  1.00  0.00     0.114 A 
HETATM   25  C21 UNL     1       0.139  -5.481   0.078  1.00  0.00     0.127 A 
HETATM   26  N11 UNL     1       0.236  -4.205   0.466  1.00  0.00    -0.361 N 
ATOM     27  H11 UNL     1       1.131  -3.863   0.815  1.00  0.00     0.165 HD
BRANCH  23  28
HETATM   28  O4  UNL     1      -3.341  -5.699  -0.958  1.00  0.00    -0.358 OA
ATOM     29  H4  UNL     1      -3.441  -6.601  -1.239  1.00  0.00     0.217 HD
ENDBRANCH  23  28
BRANCH  24  30
HETATM   30  O5  UNL     1      -1.111  -7.358  -0.805  1.00  0.00    -0.357 OA
ATOM     31  H5  UNL     1      -0.356  -7.933  -0.758  1.00  0.00     0.218 HD
ENDBRANCH  24  30
ENDBRANCH   1  21
BRANCH   2  32
HETATM   32  N3  UNL     1       1.604  -2.267   1.432  1.00  0.00    -0.131 N 
ATOM     33  H3  UNL     1       1.527  -3.284   1.444  1.00  0.00     0.205 HD
BRANCH  32  34
HETATM   34  C12 UNL     1       2.781  -1.769   1.565  1.00  0.00     0.713 A 
HETATM   35  N4  UNL     1       3.881  -2.488   1.714  1.00  0.00    -0.161 N 
HETATM   36  C13 UNL     1       5.120  -1.963   1.846  1.00  0.00     0.221 A 
ATOM     37  H4  UNL     1       3.789  -3.504   1.730  1.00  0.00     0.187 HD
HETATM   38  N5  UNL     1       6.273  -2.761   2.000  1.00  0.00    -0.062 NA
HETATM   39  N6  UNL     1       5.221  -0.606   1.823  1.00  0.00    -0.160 N 
HETATM   40  C14 UNL     1       4.126   0.165   1.674  1.00  0.00     0.724 A 
ATOM     41  H6  UNL     1       6.137  -0.167   1.920  1.00  0.00     0.187 HD
HETATM   42  N7  UNL     1       4.237   1.434   1.642  1.00  0.00    -0.063 N 
HETATM   43  N10 UNL     1       2.899  -0.435   1.545  1.00  0.00    -0.018 N 
ATOM     44  H7  UNL     1       3.346   1.918   1.527  1.00  0.00     0.221 HD
ATOM     45  H10 UNL     1       2.066   0.142   1.432  1.00  0.00     0.203 HD
BRANCH  42  46
HETATM   46  N8  UNL     1       5.236   2.221   1.725  1.00  0.00    -0.301 NA
BRANCH  46  47
HETATM   47  C15 UNL     1       6.214   2.883   1.905  1.00  0.00     0.186 C 
HETATM   48  C16 UNL     1       7.204   2.540   2.989  1.00  0.00     0.104 C 
HETATM   49  N9  UNL     1       6.588   4.074   1.153  1.00  0.00    -0.070 NA
ENDBRANCH  46  47
ENDBRANCH  42  46
ENDBRANCH  32  34
ENDBRANCH   2  32
TORSDOF 12
