REMARK  10 active torsions:
REMARK  status: ('A' for Active; 'I' for Inactive)
REMARK    1  A    between atoms: C4_10  and  C5_11 
REMARK    2  A    between atoms: C5_11  and  N4_12 
REMARK    3  A    between atoms: N4_12  and  C6_14 
REMARK    4  A    between atoms: C7_17  and  N6_18 
REMARK    5  A    between atoms: N6_18  and  C8_20 
REMARK    6  A    between atoms: C9_25  and  C10_26 
REMARK    7  A    between atoms: C10_26  and  C11_27 
REMARK    8  A    between atoms: C13_30  and  N9_31 
REMARK    9  A    between atoms: C14_39  and  N12_40 
REMARK   10  A    between atoms: C17_43  and  N13_44 
ROOT
HETATM    1  N1  UNL     1      -5.533   4.726   0.697  1.00  0.00    -0.190 NA
HETATM    2  C1  UNL     1      -4.477   4.602   0.255  1.00  0.00     0.120 C 
HETATM    3  C2  UNL     1      -3.172   4.427  -0.280  1.00  0.00     0.142 A 
HETATM    4  N2  UNL     1      -2.716   5.012  -1.407  1.00  0.00    -0.298 N 
ATOM      5  H2  UNL     1      -3.235   5.646  -2.015  1.00  0.00     0.171 HD
HETATM    6  C3  UNL     1      -1.450   4.602  -1.577  1.00  0.00     0.325 A 
HETATM    7  O1  UNL     1      -0.712   4.954  -2.537  1.00  0.00    -0.247 OA
HETATM    8  N3  UNL     1      -1.127   3.762  -0.552  1.00  0.00    -0.308 N 
ATOM      9  H3  UNL     1      -0.226   3.301  -0.427  1.00  0.00     0.170 HD
HETATM   10  C4  UNL     1      -2.184   3.639   0.267  1.00  0.00     0.069 A 
ENDROOT
BRANCH  10  11
HETATM   11  C5  UNL     1      -2.277   2.836   1.491  1.00  0.00     0.198 C 
BRANCH  11  12
HETATM   12  N4  UNL     1      -1.080   2.122   1.805  1.00  0.00    -0.219 N 
ATOM     13  H4  UNL     1      -0.351   2.608   2.327  1.00  0.00     0.178 HD
BRANCH  12  14
HETATM   14  C6  UNL     1      -0.870   0.885   1.461  1.00  0.00     0.707 A 
HETATM   15  N5  UNL     1       0.292   0.301   1.805  1.00  0.00    -0.021 N 
HETATM   16  C7  UNL     1       0.584  -0.973   1.487  1.00  0.00     0.713 A 
ATOM     17  H5  UNL     1       0.978   0.845   2.327  1.00  0.00     0.203 HD
HETATM   18  N11 UNL     1      -0.366  -1.659   0.788  1.00  0.00    -0.021 N 
HETATM   19  C14 UNL     1      -1.535  -1.120   0.424  1.00  0.00     0.709 A 
ATOM     20  H11 UNL     1      -0.176  -2.628   0.531  1.00  0.00     0.203 HD
HETATM   21  N14 UNL     1      -1.782   0.179   0.773  1.00  0.00    -0.021 N 
ATOM     22  H14 UNL     1      -2.666   0.615   0.509  1.00  0.00     0.203 HD
BRANCH  16  23
HETATM   23  N6  UNL     1       1.773  -1.634   1.816  1.00  0.00    -0.168 N 
ATOM     24  H6  UNL     1       1.721  -2.576   2.205  1.00  0.00     0.186 HD
BRANCH  23  25
HETATM   25  C8  UNL     1       2.952  -1.085   1.642  1.00  0.00     0.180 A 
HETATM   26  N7  UNL     1       4.151  -1.603   1.913  1.00  0.00    -0.279 N 
HETATM   27  N8  UNL     1       5.184  -0.910   1.672  1.00  0.00    -0.296 N 
ATOM     28  H7  UNL     1       4.235  -2.540   2.307  1.00  0.00     0.189 HD
HETATM   29  C9  UNL     1       5.077   0.306   1.161  1.00  0.00     0.075 A 
ATOM     30  H8  UNL     1       6.107  -1.293   1.874  1.00  0.00     0.187 HD
HETATM   31  S2  UNL     1       3.381   0.460   1.019  1.00  0.00    -0.037 SA
BRANCH  29  32
HETATM   32  C10 UNL     1       6.148   1.291   0.800  1.00  0.00     0.124 C 
BRANCH  32  33
HETATM   33  C11 UNL     1       6.578   1.079  -0.647  1.00  0.00     0.024 A 
HETATM   34  C12 UNL     1       5.923   1.752  -1.651  1.00  0.00     0.078 A 
HETATM   35  S1  UNL     1       6.743   1.203  -3.043  1.00  0.00    -0.064 SA
HETATM   36  C13 UNL     1       7.856   0.165  -2.282  1.00  0.00     0.142 A 
HETATM   37  N10 UNL     1       7.548   0.286  -0.990  1.00  0.00    -0.340 N 
ATOM     38  H10 UNL     1       8.066  -0.236  -0.283  1.00  0.00     0.168 HD
BRANCH  36  39
HETATM   39  N9  UNL     1       8.801  -0.587  -2.809  1.00  0.00    -0.380 N 
ATOM     40  H92 UNL     1       9.037  -0.680  -3.797  1.00  0.00     0.158 HD
ATOM     41  H91 UNL     1       9.468  -1.209  -2.353  1.00  0.00     0.158 HD
ENDBRANCH  36  39
ENDBRANCH  32  33
ENDBRANCH  29  32
ENDBRANCH  23  25
ENDBRANCH  16  23
BRANCH  19  42
HETATM   42  N12 UNL     1      -2.529  -1.827  -0.304  1.00  0.00    -0.217 N 
HETATM   43  C15 UNL     1      -3.768  -1.145  -0.647  1.00  0.00     0.143 C 
HETATM   44  C16 UNL     1      -4.980  -1.966  -0.283  1.00  0.00     0.053 C 
HETATM   45  C17 UNL     1      -4.814  -3.428  -0.490  1.00  0.00     0.186 C 
HETATM   46  C18 UNL     1      -3.494  -3.974   0.008  1.00  0.00     0.053 C 
HETATM   47  C19 UNL     1      -2.409  -3.182  -0.736  1.00  0.00     0.143 C 
BRANCH  45  48
HETATM   48  N13 UNL     1      -5.859  -4.110   0.283  1.00  0.00    -0.075 N 
ATOM     49 3H13 UNL     1      -5.859  -3.847   1.268  1.00  0.00     0.274 HD
ATOM     50 2H13 UNL     1      -6.798  -3.782   0.056  1.00  0.00     0.274 HD
ATOM     51 1H13 UNL     1      -5.745  -5.114   0.141  1.00  0.00     0.274 HD
ENDBRANCH  45  48
ENDBRANCH  19  42
ENDBRANCH  12  14
ENDBRANCH  11  12
ENDBRANCH  10  11
TORSDOF 10
