REMARK  10 active torsions:
REMARK  status: ('A' for Active; 'I' for Inactive)
REMARK    1  A    between atoms: C2_2  and  C3_3 
REMARK    2  A    between atoms: C4_7  and  N2_8 
REMARK    3  A    between atoms: C6_13  and  N5_14 
REMARK    4  A    between atoms: C7_19  and  N7_20 
REMARK    5  A    between atoms: C10_26  and  C11_27 
REMARK       I    between atoms: C11_27  and  N9_29 
REMARK    6  A    between atoms: N9_29  and  N10_30 
REMARK    7  A    between atoms: N10_30  and  C12_32 
REMARK    8  A    between atoms: C14_34  and  O3_35 
REMARK    9  A    between atoms: C16_38  and  O4_39 
REMARK   10  A    between atoms: C18_41  and  O5_42 
ROOT
HETATM    1  C3  UNL     1       1.549  -1.730  -1.546  1.00  0.00     0.097 A 
HETATM    2  O1  UNL     1       2.447  -1.067  -2.251  1.00  0.00    -0.239 OA
HETATM    3  N1  UNL     1       3.287  -0.443  -1.444  1.00  0.00    -0.242 N 
ATOM      4  H1  UNL     1       4.065   0.144  -1.745  1.00  0.00     0.196 HD
HETATM    5  C4  UNL     1       2.961  -0.699  -0.167  1.00  0.00     0.167 A 
HETATM    6  C10 UNL     1       1.844  -1.511  -0.207  1.00  0.00     0.127 A 
ENDROOT
BRANCH   6   7
HETATM    7  C11 UNL     1       0.980  -1.934   0.925  1.00  0.00     0.352 C 
HETATM    8  O2  UNL     1       1.718  -2.471   1.849  1.00  0.00    -0.249 OA
HETATM    9  N9  UNL     1      -0.354  -1.807   1.036  1.00  0.00    -0.281 NA
BRANCH   9  10
HETATM   10  N10 UNL     1      -1.692  -1.681   1.151  1.00  0.00    -0.235 N 
ATOM     11  H10 UNL     1      -2.073  -1.852   2.082  1.00  0.00     0.201 HD
BRANCH  10  12
HETATM   12  C12 UNL     1      -2.658  -1.337   0.134  1.00  0.00     0.056 C 
HETATM   13  C13 UNL     1      -3.291  -0.146   0.116  1.00  0.00     0.035 A 
HETATM   14  C14 UNL     1      -3.039   0.795   1.114  1.00  0.00     0.081 A 
HETATM   15  C19 UNL     1      -4.274   0.088  -0.774  1.00  0.00     0.011 A 
HETATM   16  C15 UNL     1      -3.834   1.906   1.164  1.00  0.00     0.077 A 
HETATM   17  C16 UNL     1      -4.869   2.161   0.279  1.00  0.00     0.104 A 
HETATM   18  C18 UNL     1      -5.094   1.223  -0.730  1.00  0.00     0.110 A 
HETATM   19  C20 UNL     1      -4.491  -0.663  -1.859  1.00  0.00    -0.011 C 
HETATM   20  C21 UNL     1      -3.553  -1.872  -2.106  1.00  0.00     0.038 C 
HETATM   21  C22 UNL     1      -3.206  -2.411  -0.767  1.00  0.00     0.038 C 
HETATM   22  C23 UNL     1      -4.496  -2.925  -0.097  1.00  0.00     0.017 C 
BRANCH  14  23
HETATM   23  O3  UNL     1      -1.993   0.565   1.989  1.00  0.00    -0.360 OA
ATOM     24  H3  UNL     1      -1.821   1.206   2.669  1.00  0.00     0.217 HD
ENDBRANCH  14  23
BRANCH  17  25
HETATM   25  O4  UNL     1      -5.764   3.180   0.279  1.00  0.00    -0.353 OA
HETATM   26  C17 UNL     1      -6.085   4.228   1.154  1.00  0.00     0.210 C 
ENDBRANCH  17  25
BRANCH  18  27
HETATM   27  O5  UNL     1      -6.107   1.433  -1.683  1.00  0.00    -0.357 OA
ATOM     28  H5  UNL     1      -6.260   0.795  -2.370  1.00  0.00     0.217 HD
ENDBRANCH  18  27
ENDBRANCH  10  12
ENDBRANCH   9  10
ENDBRANCH   6   7
BRANCH   1  29
HETATM   29  C2  UNL     1       0.429  -2.592  -2.108  1.00  0.00     0.064 C 
HETATM   30  C1  UNL     1       1.060  -4.032  -1.927  1.00  0.00     0.012 C 
ENDBRANCH   1  29
BRANCH   5  31
HETATM   31  N2  UNL     1       3.807  -0.371   0.955  1.00  0.00    -0.202 N 
HETATM   32  N3  UNL     1       3.943  -1.104   2.071  1.00  0.00    -0.011 NA
HETATM   33  N4  UNL     1       4.997  -0.637   2.810  1.00  0.00    -0.277 N 
HETATM   34  C5  UNL     1       5.510   0.402   2.151  1.00  0.00     0.136 A 
ATOM     35  H4  UNL     1       5.328  -1.014   3.698  1.00  0.00     0.184 HD
HETATM   36  C6  UNL     1       6.618   1.223   2.475  1.00  0.00     0.146 A 
HETATM   37  C9  UNL     1       4.779   0.573   1.011  1.00  0.00     0.174 A 
HETATM   38  N6  UNL     1       6.934   2.156   1.655  1.00  0.00    -0.174 N 
HETATM   39  C7  UNL     1       6.173   2.353   0.441  1.00  0.00     0.684 A 
ATOM     40  H6  UNL     1       7.727   2.763   1.860  1.00  0.00     0.186 HD
HETATM   41  N8  UNL     1       5.129   1.560   0.177  1.00  0.00    -0.172 N 
ATOM     42  H8  UNL     1       4.589   1.710  -0.676  1.00  0.00     0.186 HD
BRANCH  36  43
HETATM   43  N5  UNL     1       7.246   1.046   3.540  1.00  0.00    -0.383 N 
ATOM     44  H52 UNL     1       6.995   0.303   4.193  1.00  0.00     0.157 HD
ATOM     45  H51 UNL     1       8.044   1.637   3.773  1.00  0.00     0.157 HD
ENDBRANCH  36  43
BRANCH  39  46
HETATM   46  N7  UNL     1       6.565   3.311  -0.209  1.00  0.00    -0.211 N 
HETATM   47  C8  UNL     1       6.506   4.141  -1.281  1.00  0.00     0.136 C 
ATOM     48  H7  UNL     1       7.341   3.678   0.341  1.00  0.00     0.182 HD
ENDBRANCH  39  46
ENDBRANCH   5  31
TORSDOF 10
