REMARK  9 active torsions:
REMARK  status: ('A' for Active; 'I' for Inactive)
REMARK    1  A    between atoms: O1_2  and  C2_3 
REMARK    2  A    between atoms: C2_3  and  C3_5 
REMARK    3  A    between atoms: C4_6  and  C5_7 
REMARK       I    between atoms: C5_7  and  N1_9 
REMARK    4  A    between atoms: N1_9  and  C6_11 
REMARK    5  A    between atoms: C11_19  and  O5_20 
REMARK    6  A    between atoms: C12_22  and  O6_23 
REMARK    7  A    between atoms: O6_23  and  C13_24 
REMARK    8  A    between atoms: C14_25  and  S1_26 
REMARK    9  A    between atoms: C21_40  and  O9_41 
ROOT
HETATM    1  C13 UNL     1      -3.396   0.101   1.498  1.00  0.00     0.118 C 
HETATM    2  C14 UNL     1      -4.319  -0.465   2.326  1.00  0.00     0.101 C 
HETATM    3  C16 UNL     1      -5.454   0.221   3.015  1.00  0.00     0.268 C 
HETATM    4  O7  UNL     1      -5.797  -0.224   4.151  1.00  0.00    -0.267 OA
HETATM    5  N3  UNL     1      -6.194   1.328   2.521  1.00  0.00    -0.275 N 
ATOM      6  H3  UNL     1      -6.985   1.641   3.083  1.00  0.00     0.173 HD
HETATM    7  C17 UNL     1      -5.934   2.054   1.297  1.00  0.00     0.324 C 
HETATM    8  O8  UNL     1      -6.862   2.747   0.815  1.00  0.00    -0.247 OA
HETATM    9  N4  UNL     1      -4.675   2.013   0.622  1.00  0.00    -0.315 N 
ATOM     10  H4  UNL     1      -4.657   2.340  -0.344  1.00  0.00     0.166 HD
HETATM   11  C18 UNL     1      -3.401   1.542   1.191  1.00  0.00     0.171 C 
HETATM   12  C19 UNL     1      -2.330   2.042   0.314  1.00  0.00     0.063 C 
HETATM   13  C20 UNL     1      -3.288   2.326   2.461  1.00  0.00     0.098 C 
HETATM   14  N5  UNL     1      -3.189   2.917   3.449  1.00  0.00    -0.194 NA
ENDROOT
BRANCH   1  15
HETATM   15  O6  UNL     1      -2.530  -0.788   1.030  1.00  0.00    -0.304 OA
BRANCH  15  16
HETATM   16  C12 UNL     1      -1.406  -0.851   0.298  1.00  0.00     0.143 A 
HETATM   17  C11 UNL     1      -1.360  -0.980  -1.077  1.00  0.00     0.103 A 
HETATM   18  C10 UNL     1      -0.167  -1.039  -1.731  1.00  0.00     0.057 A 
HETATM   19  C4  UNL     1       1.051  -0.971  -1.045  1.00  0.00     0.053 A 
HETATM   20  C3  UNL     1       1.048  -0.848   0.308  1.00  0.00     0.091 A 
HETATM   21  C21 UNL     1      -0.194  -0.788   0.958  1.00  0.00     0.119 A 
BRANCH  17  22
HETATM   22  O5  UNL     1      -2.574  -1.048  -1.771  1.00  0.00    -0.358 OA
ATOM     23  H5  UNL     1      -3.406  -1.007  -1.315  1.00  0.00     0.217 HD
ENDBRANCH  17  22
BRANCH  19  24
HETATM   24  C5  UNL     1       2.234  -0.926  -1.863  1.00  0.00     0.254 C 
HETATM   25  O3  UNL     1       2.401  -1.947  -2.636  1.00  0.00    -0.268 OA
HETATM   26  N1  UNL     1       3.207   0.071  -1.935  1.00  0.00    -0.336 N 
ATOM     27  H1  UNL     1       3.115   0.902  -1.351  1.00  0.00     0.164 HD
BRANCH  26  28
HETATM   28  C6  UNL     1       4.341  -0.049  -2.818  1.00  0.00     0.187 C 
HETATM   29  C7  UNL     1       5.643   0.127  -2.097  1.00  0.00     0.056 C 
HETATM   30  C8  UNL     1       6.581   0.648  -3.141  1.00  0.00     0.106 C 
HETATM   31  C9  UNL     1       5.724   1.145  -4.229  1.00  0.00     0.219 C 
HETATM   32  O4  UNL     1       6.068   1.585  -5.360  1.00  0.00    -0.274 OA
HETATM   33  N2  UNL     1       4.373   1.049  -3.783  1.00  0.00    -0.340 N 
ATOM     34  H2  UNL     1       3.588   1.629  -4.078  1.00  0.00     0.164 HD
ENDBRANCH  26  28
ENDBRANCH  19  24
BRANCH  20  35
HETATM   35  C2  UNL     1       2.260  -0.837   1.138  1.00  0.00     0.296 C 
HETATM   36  O2  UNL     1       3.392  -0.889   0.693  1.00  0.00    -0.259 OA
BRANCH  35  37
HETATM   37  O1  UNL     1       2.121  -0.761   2.525  1.00  0.00    -0.322 OA
HETATM   38  C1  UNL     1       3.283  -0.748   3.325  1.00  0.00     0.213 C 
ENDBRANCH  35  37
ENDBRANCH  20  35
BRANCH  21  39
HETATM   39  O9  UNL     1      -0.151  -0.657   2.346  1.00  0.00    -0.357 OA
ATOM     40  H9  UNL     1      -0.992  -0.616   2.786  1.00  0.00     0.218 HD
ENDBRANCH  21  39
ENDBRANCH  15  16
ENDBRANCH   1  15
BRANCH   2  41
HETATM   41  S1  UNL     1      -4.283  -2.178   2.678  1.00  0.00    -0.126 SA
HETATM   42  C15 UNL     1      -3.043  -3.205   1.999  1.00  0.00     0.096 C 
ENDBRANCH   2  41
TORSDOF 9
