REMARK  6 active torsions:
REMARK  status: ('A' for Active; 'I' for Inactive)
REMARK    1  A    between atoms: C2_2  and  N1_4 
REMARK    2  A    between atoms: N1_4  and  C4_6 
REMARK    3  A    between atoms: C5_11  and  C6_12 
REMARK    4  A    between atoms: C13_22  and  C14_23 
REMARK       I    between atoms: C14_23  and  N4_25 
REMARK    5  A    between atoms: N4_25  and  C15_27 
REMARK    6  A    between atoms: C16_33  and  N7_34 
ROOT
HETATM    1  C4  UNL     1       0.566  -1.622  -0.056  1.00  0.00     0.135 A 
HETATM    2  N2  UNL     1      -0.679  -2.062  -0.317  1.00  0.00    -0.285 N 
ATOM      3  H2  UNL     1      -0.802  -3.016  -0.656  1.00  0.00     0.188 HD
HETATM    4  N3  UNL     1      -1.756  -1.296  -0.149  1.00  0.00    -0.299 N 
ATOM      5  H3  UNL     1      -2.674  -1.685  -0.364  1.00  0.00     0.186 HD
HETATM    6  C5  UNL     1      -1.676  -0.031   0.293  1.00  0.00     0.082 A 
HETATM    7  C12 UNL     1      -0.416   0.472   0.577  1.00  0.00     0.161 A 
HETATM    8  F1  UNL     1      -0.369   1.736   1.015  1.00  0.00    -0.203 F 
HETATM    9  C13 UNL     1       0.693  -0.322   0.402  1.00  0.00     0.117 A 
ENDROOT
BRANCH   9  10
HETATM   10  C14 UNL     1       2.033   0.192   0.696  1.00  0.00     0.264 C 
HETATM   11  O3  UNL     1       2.465   0.027   1.875  1.00  0.00    -0.267 OA
HETATM   12  N4  UNL     1       2.839   0.838  -0.239  1.00  0.00    -0.304 N 
ATOM     13  H4  UNL     1       2.999   0.308  -1.096  1.00  0.00     0.171 HD
BRANCH  12  14
HETATM   14  C15 UNL     1       3.406   1.966  -0.210  1.00  0.00     0.176 A 
HETATM   15  N5  UNL     1       4.181   2.475  -1.223  1.00  0.00    -0.222 N 
HETATM   16  O4  UNL     1       4.600   3.639  -0.866  1.00  0.00    -0.153 OA
ATOM     17  H5  UNL     1       4.389   2.010  -2.107  1.00  0.00     0.198 HD
HETATM   18  N6  UNL     1       4.182   3.969   0.297  1.00  0.00    -0.222 N 
HETATM   19  C16 UNL     1       3.422   2.946   0.757  1.00  0.00     0.167 A 
ATOM     20  H6  UNL     1       4.383   4.841   0.787  1.00  0.00     0.198 HD
BRANCH  19  21
HETATM   21  N7  UNL     1       2.848   2.951   1.899  1.00  0.00    -0.381 N 
ATOM     22  H72 UNL     1       2.276   2.181   2.245  1.00  0.00     0.157 HD
ATOM     23  H71 UNL     1       2.860   3.677   2.615  1.00  0.00     0.157 HD
ENDBRANCH  19  21
ENDBRANCH  12  14
ENDBRANCH   9  10
BRANCH   1  24
HETATM   24  N1  UNL     1       1.598  -2.377  -0.224  1.00  0.00    -0.370 N 
ATOM     25  H1  UNL     1       2.517  -1.989  -0.009  1.00  0.00     0.161 HD
BRANCH  24  26
HETATM   26  C2  UNL     1       1.529  -3.730  -0.695  1.00  0.00     0.075 C 
HETATM   27  C1  UNL     1       2.847  -4.449  -0.429  1.00  0.00     0.031 C 
HETATM   28  C3  UNL     1       1.288  -3.814  -2.193  1.00  0.00     0.031 C 
ENDBRANCH  24  26
ENDBRANCH   1  24
BRANCH   6  29
HETATM   29  C6  UNL     1      -2.894   0.751   0.454  1.00  0.00     0.074 C 
HETATM   30  C7  UNL     1      -2.940   2.104  -0.198  1.00  0.00     0.050 C 
HETATM   31  C8  UNL     1      -4.425   2.472  -0.328  1.00  0.00     0.170 C 
HETATM   32  O1  UNL     1      -5.129   2.069   0.802  1.00  0.00    -0.378 OA
HETATM   33  C9  UNL     1      -4.815   0.784   1.197  1.00  0.00     0.193 C 
HETATM   34  C10 UNL     1      -3.440   0.847   1.876  1.00  0.00     0.064 C 
HETATM   35  C11 UNL     1      -4.127   0.018   0.093  1.00  0.00     0.170 C 
HETATM   36  O2  UNL     1      -4.405  -0.813  -0.728  1.00  0.00    -0.294 OA
ENDBRANCH   6  29
TORSDOF 6
