REMARK  2 active torsions:
REMARK  status: ('A' for Active; 'I' for Inactive)
REMARK    1  A    between atoms: N4_15  and  N5_16 
REMARK    2  A    between atoms: N5_16  and  C9_18 
ROOT
HETATM    1  C1  UNL     1      -4.408  -2.485   1.140  1.00  0.00     0.310 C 
HETATM    2  N1  UNL     1      -3.518  -1.780   0.250  1.00  0.00     0.086 N 
HETATM    3  C2  UNL     1      -3.219  -0.473   0.802  1.00  0.00     0.277 C 
HETATM    4  C3  UNL     1      -3.126   0.562  -0.314  1.00  0.00     0.074 C 
HETATM    5  C4  UNL     1      -3.668   1.889   0.097  1.00  0.00     0.057 C 
HETATM    6  N2  UNL     1      -2.943   2.635   1.022  1.00  0.00    -0.401 N 
ATOM      7  H2  UNL     1      -3.410   3.353   1.576  1.00  0.00     0.158 HD
HETATM    8  C5  UNL     1      -1.569   2.400   1.194  1.00  0.00     0.146 C 
HETATM    9  C6  UNL     1      -0.697   3.563   0.715  1.00  0.00     0.251 C 
HETATM   10  N3  UNL     1      -0.110   3.272  -0.576  1.00  0.00    -0.072 N 
ATOM     11  H31 UNL     1      -0.037   4.111  -1.151  1.00  0.00     0.277 HD
ATOM     12  H32 UNL     1      -0.747   2.733  -1.163  1.00  0.00     0.277 HD
HETATM   13  C7  UNL     1       1.179   2.607  -0.438  1.00  0.00     0.249 C 
HETATM   14  C8  UNL     1       1.178   1.434  -1.391  1.00  0.00     0.159 C 
HETATM   15  N4  UNL     1       2.004   0.347  -0.927  1.00  0.00    -0.117 NA
HETATM   16  S1  UNL     1       1.579  -1.081  -1.805  1.00  0.00     0.253 S 
HETATM   17  O1  UNL     1       2.767  -1.988  -1.941  1.00  0.00    -0.208 OA
HETATM   18  O2  UNL     1       1.069  -0.689  -3.166  1.00  0.00    -0.208 OA
HETATM   19  C15 UNL     1       0.265  -1.859  -0.894  1.00  0.00     0.390 C 
HETATM   20  N6  UNL     1      -0.543  -2.716  -1.729  1.00  0.00    -0.059 N 
ATOM     21  H61 UNL     1      -0.259  -3.692  -1.638  1.00  0.00     0.278 HD
ATOM     22  H62 UNL     1      -0.329  -2.575  -2.716  1.00  0.00     0.278 HD
HETATM   23  C16 UNL     1      -1.953  -2.559  -1.475  1.00  0.00     0.263 C 
HETATM   24  C17 UNL     1      -2.301  -2.543  -0.015  1.00  0.00     0.299 C 
ENDROOT
BRANCH  15  25
HETATM   25  N5  UNL     1       3.351   0.613  -0.944  1.00  0.00    -0.306 N 
ATOM     26  H5  UNL     1       3.732   1.263  -1.632  1.00  0.00     0.182 HD
BRANCH  25  27
HETATM   27  C9  UNL     1       4.217  -0.014  -0.006  1.00  0.00     0.044 A 
HETATM   28  C10 UNL     1       3.754  -0.899   0.941  1.00  0.00     0.033 A 
HETATM   29  C11 UNL     1       4.578  -1.520   1.860  1.00  0.00     0.044 A 
HETATM   30  C12 UNL     1       5.928  -1.254   1.844  1.00  0.00     0.116 A 
HETATM   31  F1  UNL     1       6.725  -1.870   2.753  1.00  0.00    -0.206 F 
HETATM   32  C13 UNL     1       6.419  -0.372   0.908  1.00  0.00     0.044 A 
HETATM   33  C14 UNL     1       5.583   0.237  -0.000  1.00  0.00     0.033 A 
ENDBRANCH  25  27
ENDBRANCH  15  25
TORSDOF 2
