REMARK  5 active torsions:
REMARK  status: ('A' for Active; 'I' for Inactive)
REMARK    1  A    between atoms: C2_2  and  C9_29 
REMARK    2  A    between atoms: N1_3  and  N2_5 
REMARK    3  A    between atoms: N2_5  and  C3_7 
REMARK    4  A    between atoms: C5_12  and  N4_13 
REMARK    5  A    between atoms: N4_13  and  N5_15 
REMARK       I    between atoms: C9_29  and  N9_31 
ROOT
HETATM    1  C3  UNL     1       0.601  -0.294   0.032  1.00  0.00     0.141 A 
HETATM    2  N3  UNL     1       0.488   0.438  -1.077  1.00  0.00    -0.310 N 
ATOM      3  H3  UNL     1      -0.353   0.864  -1.466  1.00  0.00     0.176 HD
HETATM    4  S1  UNL     1       2.058   0.495  -1.685  1.00  0.00    -0.008 SA
HETATM    5  C4  UNL     1       2.857  -0.428  -0.501  1.00  0.00     0.084 A 
HETATM    6  C5  UNL     1       4.200  -0.727  -0.481  1.00  0.00     0.154 C 
HETATM    7  N6  UNL     1       4.822  -1.779   0.137  1.00  0.00    -0.174 N 
ATOM      8  H6  UNL     1       5.758  -2.035  -0.177  1.00  0.00     0.186 HD
HETATM    9  C6  UNL     1       4.271  -2.495   1.134  1.00  0.00     0.678 C 
HETATM   10  N7  UNL     1       4.971  -3.514   1.485  1.00  0.00    -0.234 N 
ATOM     11  H71 UNL     1       4.553  -4.057   2.241  1.00  0.00     0.174 HD
ATOM     12  H72 UNL     1       5.842  -3.651   0.973  1.00  0.00     0.174 HD
HETATM   13  N8  UNL     1       3.110  -2.312   1.816  1.00  0.00    -0.180 N 
ATOM     14  H8  UNL     1       3.028  -2.831   2.690  1.00  0.00     0.185 HD
HETATM   15  C7  UNL     1       2.053  -1.542   1.500  1.00  0.00     0.135 C 
HETATM   16 CL1  UNL     1       0.808  -1.559   2.731  1.00  0.00    -0.063 Cl
HETATM   17  C8  UNL     1       1.826  -0.755   0.350  1.00  0.00     0.071 A 
ENDROOT
BRANCH   1  18
HETATM   18  N2  UNL     1      -0.451  -0.547   0.779  1.00  0.00    -0.284 N 
ATOM     19  H2  UNL     1      -0.363  -1.106   1.627  1.00  0.00     0.188 HD
BRANCH  18  20
HETATM   20  N1  UNL     1      -1.674  -0.043   0.395  1.00  0.00    -0.298 N 
HETATM   21  C2  UNL     1      -2.259   0.968   0.912  1.00  0.00     0.089 C 
HETATM   22  C1  UNL     1      -1.665   1.753   2.035  1.00  0.00     0.076 C 
ATOM     23  H1  UNL     1      -2.154  -0.519  -0.369  1.00  0.00     0.187 HD
BRANCH  21  24
HETATM   24  C9  UNL     1      -3.550   1.380   0.396  1.00  0.00     0.266 C 
HETATM   25  O1  UNL     1      -4.099   2.396   0.943  1.00  0.00    -0.266 OA
HETATM   26  N9  UNL     1      -4.216   0.720  -0.663  1.00  0.00    -0.356 N 
HETATM   27  C10 UNL     1      -3.725  -0.421  -1.362  1.00  0.00     0.152 C 
HETATM   28  C11 UNL     1      -5.516   1.254  -1.072  1.00  0.00     0.152 C 
ENDBRANCH  21  24
ENDBRANCH  18  20
ENDBRANCH   1  18
BRANCH   6  29
HETATM   29  N4  UNL     1       4.944   0.081  -1.113  1.00  0.00    -0.290 N 
ATOM     30  H4  UNL     1       5.948  -0.099  -1.127  1.00  0.00     0.188 HD
BRANCH  29  31
HETATM   31  N5  UNL     1       4.472   1.191  -1.783  1.00  0.00    -0.344 N 
ATOM     32  H52 UNL     1       3.466   1.356  -1.758  1.00  0.00     0.176 HD
ATOM     33  H51 UNL     1       5.071   1.841  -2.292  1.00  0.00     0.176 HD
ENDBRANCH  29  31
ENDBRANCH   6  29
TORSDOF 5
