REMARK  3 active torsions:
REMARK  status: ('A' for Active; 'I' for Inactive)
REMARK    1  A    between atoms: N3_7  and  C3_8 
REMARK    2  A    between atoms: C6_11  and  O1_12 
REMARK    3  A    between atoms: C8_18  and  N5_19 
REMARK       I    between atoms: N5_19  and  C9_21 
REMARK       I    between atoms: C9_21  and  N8_26 
ROOT
HETATM    1  N5  UNL     1       1.156   0.501  -0.185  1.00  0.00    -0.171 N 
ATOM      2  H5  UNL     1       0.443   0.781  -0.859  1.00  0.00     0.186 HD
HETATM    3  C9  UNL     1       2.439   1.039  -0.390  1.00  0.00     0.702 C 
HETATM    4  N6  UNL     1       2.786   2.151   0.147  1.00  0.00    -0.125 N 
ATOM      5  H6  UNL     1       3.718   2.536  -0.007  1.00  0.00     0.197 HD
HETATM    6  C10 UNL     1       1.860   2.823   0.946  1.00  0.00     0.196 C 
HETATM    7  N7  UNL     1       1.111   3.383   1.611  1.00  0.00    -0.171 NA
HETATM    8  N8  UNL     1       3.367   0.363  -1.215  1.00  0.00    -0.125 N 
ATOM      9  H8  UNL     1       4.255   0.804  -1.456  1.00  0.00     0.197 HD
HETATM   10  C11 UNL     1       3.062  -0.912  -1.699  1.00  0.00     0.196 C 
HETATM   11  N9  UNL     1       2.792  -1.983  -2.098  1.00  0.00    -0.171 NA
ENDROOT
BRANCH   1  12
HETATM   12  C8  UNL     1       0.731  -0.371   0.828  1.00  0.00     0.169 A 
HETATM   13  C2  UNL     1       1.495  -0.885   1.843  1.00  0.00     0.070 A 
HETATM   14  C1  UNL     1       2.921  -0.706   2.189  1.00  0.00     0.074 C 
HETATM   15  N1  UNL     1       0.646  -1.672   2.565  1.00  0.00    -0.287 N 
HETATM   16  N2  UNL     1      -0.540  -1.625   2.011  1.00  0.00    -0.233 N 
ATOM     17  H1  UNL     1       0.893  -2.207   3.397  1.00  0.00     0.188 HD
HETATM   18  N3  UNL     1      -0.550  -0.850   0.951  1.00  0.00    -0.207 N 
ATOM     19  H2  UNL     1      -1.356  -2.128   2.360  1.00  0.00     0.209 HD
BRANCH  18  20
HETATM   20  C3  UNL     1      -1.657  -0.549   0.084  1.00  0.00     0.133 A 
HETATM   21  C4  UNL     1      -2.471   0.536   0.346  1.00  0.00     0.053 A 
HETATM   22  C5  UNL     1      -3.544   0.860  -0.461  1.00  0.00     0.046 A 
HETATM   23  C6  UNL     1      -3.814   0.077  -1.564  1.00  0.00     0.134 A 
HETATM   24  C7  UNL     1      -2.990  -0.991  -1.796  1.00  0.00     0.280 A 
HETATM   25  O2  UNL     1      -3.245  -1.707  -2.814  1.00  0.00    -0.265 OA
HETATM   26  N4  UNL     1      -1.943  -1.295  -0.998  1.00  0.00    -0.306 N 
ATOM     27  H4  UNL     1      -1.361  -2.103  -1.219  1.00  0.00     0.170 HD
BRANCH  23  28
HETATM   28  O1  UNL     1      -4.887   0.346  -2.428  1.00  0.00    -0.356 OA
ATOM     29  H1  UNL     1      -5.073  -0.193  -3.188  1.00  0.00     0.218 HD
ENDBRANCH  23  28
ENDBRANCH  18  20
ENDBRANCH   1  12
TORSDOF 3
