REMARK  4 active torsions:
REMARK  status: ('A' for Active; 'I' for Inactive)
REMARK    1  A    between atoms: N1_1  and  C1_4 
REMARK    2  A    between atoms: C2_7  and  N3_8 
REMARK    3  A    between atoms: N3_8  and  C3_10 
REMARK    4  A    between atoms: C5_23  and  C6_24 
REMARK       I    between atoms: C6_24  and  N9_26 
ROOT
HETATM    1  C1  UNL     1      -0.615  -0.251  -1.653  1.00  0.00     0.135 A 
HETATM    2  N2  UNL     1       0.606  -0.768  -1.872  1.00  0.00    -0.175 N 
ATOM      3  H2  UNL     1       0.837  -1.090  -2.812  1.00  0.00     0.186 HD
HETATM    4  C2  UNL     1       1.539  -0.880  -0.907  1.00  0.00     0.700 A 
HETATM    5  N8  UNL     1       1.204  -0.445   0.320  1.00  0.00    -0.164 N 
ATOM      6  H8  UNL     1       1.889  -0.516   1.072  1.00  0.00     0.186 HD
HETATM    7  C4  UNL     1      -0.023   0.089   0.593  1.00  0.00     0.222 A 
HETATM    8  F1  UNL     1      -0.280   0.537   1.854  1.00  0.00    -0.184 F 
HETATM    9  C5  UNL     1      -0.973   0.202  -0.388  1.00  0.00     0.133 A 
ENDROOT
BRANCH   4  10
HETATM   10  N3  UNL     1       2.830  -1.434  -1.167  1.00  0.00    -0.019 N 
ATOM     11  H3  UNL     1       2.886  -2.360  -1.591  1.00  0.00     0.203 HD
BRANCH  10  12
HETATM   12  C3  UNL     1       3.924  -0.818  -0.891  1.00  0.00     0.728 A 
HETATM   13  N4  UNL     1       5.160  -1.330  -1.131  1.00  0.00    -0.115 N 
HETATM   14  N5  UNL     1       6.054  -0.441  -0.729  1.00  0.00    -0.213 N 
ATOM     15  H4  UNL     1       5.363  -2.239  -1.547  1.00  0.00     0.207 HD
HETATM   16  N6  UNL     1       5.456   0.628  -0.238  1.00  0.00    -0.213 N 
ATOM     17  H5  UNL     1       7.065  -0.565  -0.790  1.00  0.00     0.210 HD
HETATM   18  N7  UNL     1       4.148   0.384  -0.343  1.00  0.00    -0.115 N 
ATOM     19  H6  UNL     1       5.900   1.464   0.142  1.00  0.00     0.210 HD
ATOM     20  H7  UNL     1       3.415   1.028  -0.045  1.00  0.00     0.207 HD
ENDBRANCH  10  12
ENDBRANCH   4  10
BRANCH   1  21
HETATM   21  N1  UNL     1      -1.458  -0.177  -2.628  1.00  0.00    -0.384 N 
ATOM     22  H12 UNL     1      -1.195  -0.509  -3.556  1.00  0.00     0.157 HD
ATOM     23  H11 UNL     1      -2.385   0.215  -2.462  1.00  0.00     0.157 HD
ENDBRANCH   1  21
BRANCH   9  24
HETATM   24  C6  UNL     1      -2.291   0.778  -0.222  1.00  0.00     0.271 C 
HETATM   25  O1  UNL     1      -2.570   1.718  -1.058  1.00  0.00    -0.266 OA
HETATM   26  N9  UNL     1      -3.257   0.421   0.728  1.00  0.00    -0.283 N 
HETATM   27  C7  UNL     1      -3.261  -0.506   1.682  1.00  0.00     0.118 A 
HETATM   28  C9  UNL     1      -4.460   1.056   0.829  1.00  0.00     0.191 A 
HETATM   29  C8  UNL     1      -4.452  -0.472   2.397  1.00  0.00     0.106 A 
HETATM   30  N10 UNL     1      -5.166   0.513   1.832  1.00  0.00    -0.360 N 
ATOM     31  H10 UNL     1      -6.100   0.804   2.120  1.00  0.00     0.166 HD
ENDBRANCH   9  24
TORSDOF 4
