REMARK  5 active torsions:
REMARK  status: ('A' for Active; 'I' for Inactive)
REMARK    1  A    between atoms: O1_2  and  N1_3 
REMARK       I    between atoms: N1_3  and  C2_5 
REMARK    2  A    between atoms: C2_5  and  C3_7 
REMARK    3  A    between atoms: C6_12  and  N3_13 
REMARK    4  A    between atoms: N3_13  and  C7_15 
REMARK    5  A    between atoms: N6_23  and  O3_24 
ROOT
HETATM    1  C3  UNL     1       2.165  -0.319  -0.781  1.00  0.00     0.174 A 
HETATM    2  N2  UNL     1       1.380  -0.535   0.294  1.00  0.00    -0.348 N 
ATOM      3  H2  UNL     1       1.835  -0.747   1.182  1.00  0.00     0.166 HD
HETATM    4  C4  UNL     1       0.018  -0.489   0.271  1.00  0.00     0.053 A 
HETATM    5  C5  UNL     1      -0.710  -0.822   1.545  1.00  0.00     0.072 C 
HETATM    6  C6  UNL     1      -0.628  -0.207  -0.898  1.00  0.00     0.162 A 
HETATM    7  N6  UNL     1       0.157   0.018  -2.022  1.00  0.00    -0.167 N 
HETATM    8  C10 UNL     1       1.489  -0.037  -1.953  1.00  0.00     0.305 A 
HETATM    9  O4  UNL     1       2.125   0.184  -3.034  1.00  0.00    -0.263 OA
ENDROOT
BRANCH   6  10
HETATM   10  N3  UNL     1      -2.003  -0.018  -1.071  1.00  0.00    -0.311 N 
ATOM     11  H3  UNL     1      -2.323   0.017  -2.039  1.00  0.00     0.170 HD
BRANCH  10  12
HETATM   12  C7  UNL     1      -3.002   0.130  -0.098  1.00  0.00     0.179 C 
HETATM   13  N4  UNL     1      -3.112   1.117   0.745  1.00  0.00    -0.358 N 
HETATM   14  C8  UNL     1      -4.253   0.959   1.609  1.00  0.00     0.181 C 
ATOM     15  H4  UNL     1      -2.468   1.907   0.788  1.00  0.00     0.162 HD
HETATM   16  C9  UNL     1      -5.169   0.110   0.711  1.00  0.00     0.289 C 
HETATM   17  F1  UNL     1      -5.612   0.964  -0.287  1.00  0.00    -0.225 F 
HETATM   18  N5  UNL     1      -4.136  -0.748   0.121  1.00  0.00    -0.330 N 
ATOM     19  H5  UNL     1      -4.201  -1.744  -0.089  1.00  0.00     0.165 HD
ENDBRANCH  10  12
ENDBRANCH   6  10
BRANCH   7  20
HETATM   20  O3  UNL     1      -0.487   0.305  -3.214  1.00  0.00    -0.278 OA
ATOM     21  H3  UNL     1       0.050   0.459  -3.983  1.00  0.00     0.245 HD
ENDBRANCH   7  20
BRANCH   1  22
HETATM   22  C2  UNL     1       3.598  -0.374  -0.697  1.00  0.00     0.297 C 
HETATM   23  N1  UNL     1       4.279  -0.631   0.489  1.00  0.00    -0.230 N 
ATOM     24  H1  UNL     1       3.734  -0.798   1.335  1.00  0.00     0.197 HD
HETATM   25  O2  UNL     1       4.262  -0.176  -1.762  1.00  0.00    -0.264 OA
BRANCH  23  26
HETATM   26  O1  UNL     1       5.635  -0.670   0.574  1.00  0.00    -0.282 OA
HETATM   27  C1  UNL     1       6.145   0.627   0.411  1.00  0.00     0.237 C 
ENDBRANCH  23  26
ENDBRANCH   1  22
TORSDOF 5
