REMARK  4 active torsions:
REMARK  status: ('A' for Active; 'I' for Inactive)
REMARK    1  A    between atoms: C3_4  and  N2_5 
REMARK    2  A    between atoms: C9_18  and  N6_19 
REMARK    3  A    between atoms: N6_19  and  N7_21 
REMARK    4  A    between atoms: N7_21  and  N8_22 
ROOT
HETATM    1  N1  UNL     1      -0.187   2.792   2.207  1.00  0.00    -0.191 NA
HETATM    2  C1  UNL     1       0.268   2.038   1.464  1.00  0.00     0.105 C 
HETATM    3  C2  UNL     1       0.857   1.123   0.552  1.00  0.00     0.116 C 
HETATM    4  C3  UNL     1       0.102   0.275  -0.120  1.00  0.00     0.128 C 
HETATM    5  N4  UNL     1       0.723  -0.662  -1.027  1.00  0.00    -0.327 N 
ATOM      6  H4  UNL     1       0.136  -1.316  -1.545  1.00  0.00     0.169 HD
HETATM    7  C8  UNL     1       2.146  -0.697  -1.218  1.00  0.00     0.135 C 
HETATM    8  N5  UNL     1       2.687  -1.151  -2.259  1.00  0.00    -0.385 N 
ATOM      9  H51 UNL     1       3.698  -1.176  -2.395  1.00  0.00     0.157 HD
ATOM     10  H52 UNL     1       2.134  -1.522  -3.031  1.00  0.00     0.157 HD
HETATM   11  C9  UNL     1       2.940  -0.164  -0.109  1.00  0.00     0.237 A 
HETATM   12  N9  UNL     1       4.298   0.135  -0.288  1.00  0.00    -0.312 N 
ATOM     13  H9  UNL     1       5.003  -0.515  -0.636  1.00  0.00     0.166 HD
HETATM   14  C10 UNL     1       4.517   1.356   0.055  1.00  0.00     0.264 A 
HETATM   15  F1  UNL     1       5.730   1.989   0.016  1.00  0.00    -0.165 F 
HETATM   16  N10 UNL     1       3.274   1.959   0.438  1.00  0.00    -0.316 N 
ATOM     17  H10 UNL     1       3.172   2.924   0.753  1.00  0.00     0.169 HD
HETATM   18  C11 UNL     1       2.329   1.141   0.333  1.00  0.00     0.096 A 
ENDROOT
BRANCH   4  19
HETATM   19  N2  UNL     1      -1.302   0.262   0.054  1.00  0.00    -0.363 N 
HETATM   20  C4  UNL     1      -2.247   1.105  -0.643  1.00  0.00     0.143 C 
HETATM   21  C5  UNL     1      -3.676   0.801  -0.242  1.00  0.00     0.133 C 
HETATM   22  N3  UNL     1      -4.000  -0.571  -0.190  1.00  0.00    -0.418 N 
HETATM   23  C6  UNL     1      -2.932  -1.453   0.227  1.00  0.00     0.133 C 
ATOM     24  H3  UNL     1      -4.928  -0.919  -0.431  1.00  0.00     0.153 HD
HETATM   25  C7  UNL     1      -1.911  -0.654   0.998  1.00  0.00     0.143 C 
ENDBRANCH   4  19
BRANCH  11  26
HETATM   26  N6  UNL     1       2.866  -1.111   1.038  1.00  0.00    -0.209 N 
ATOM     27  H6  UNL     1       2.197  -0.966   1.794  1.00  0.00     0.201 HD
BRANCH  26  28
HETATM   28  N7  UNL     1       3.634  -2.074   1.050  1.00  0.00    -0.245 NA
BRANCH  28  29
HETATM   29  N8  UNL     1       4.298  -3.118   1.125  1.00  0.00    -0.261 N 
ATOM     30  H82 UNL     1       3.452  -3.496   1.552  1.00  0.00     0.193 HD
ATOM     31  H81 UNL     1       4.934  -3.915   1.135  1.00  0.00     0.193 HD
ENDBRANCH  28  29
ENDBRANCH  26  28
ENDBRANCH  11  26
TORSDOF 4
