REMARK  3 active torsions:
REMARK  status: ('A' for Active; 'I' for Inactive)
REMARK    1  A    between atoms: C2_5  and  C3_6 
REMARK    2  A    between atoms: C2_5  and  C5_13 
REMARK    3  A    between atoms: C3_6  and  N4_7 
ROOT
HETATM    1  C3  UNL     1       0.910  -1.946  -0.066  1.00  0.00     0.322 C 
HETATM    2  C4  UNL     1       2.236  -2.489   0.332  1.00  0.00     0.095 C 
HETATM    3  N5  UNL     1       3.266  -2.921   0.662  1.00  0.00    -0.195 NA
ENDROOT
BRANCH   1   4
HETATM    4  C2  UNL     1       1.011  -0.482  -0.199  1.00  0.00     0.170 C 
HETATM    5  N3  UNL     1       2.145  -0.194  -1.087  1.00  0.00    -0.110 NA
HETATM    6  N2  UNL     1       2.401   1.139  -0.745  1.00  0.00    -0.053 NA
HETATM    7  N1  UNL     1       2.677   0.981   0.634  1.00  0.00    -0.186 NA
HETATM    8  C1  UNL     1       2.641   2.313   1.210  1.00  0.00     0.136 C 
HETATM    9  C10 UNL     1       1.508   0.206   1.071  1.00  0.00     0.294 C 
HETATM   10  F1  UNL     1       1.817  -0.655   2.075  1.00  0.00    -0.229 F 
BRANCH   4  11
HETATM   11  C5  UNL     1      -0.139   0.268  -0.699  1.00  0.00     0.233 C 
HETATM   12  N6  UNL     1      -0.572  -0.019  -2.052  1.00  0.00    -0.112 NA
HETATM   13  N7  UNL     1      -1.853   0.547  -2.134  1.00  0.00    -0.289 N 
HETATM   14  C6  UNL     1      -2.336   0.695  -0.925  1.00  0.00     0.116 C 
ATOM     15  H7  UNL     1      -2.332   0.803  -2.997  1.00  0.00     0.183 HD
HETATM   16  C7  UNL     1      -3.668   1.258  -0.516  1.00  0.00     0.245 C 
HETATM   17  N8  UNL     1      -1.367   0.218   0.010  1.00  0.00    -0.344 N 
HETATM   18  O1  UNL     1      -3.959   0.932   0.803  1.00  0.00    -0.382 OA
HETATM   19  C8  UNL     1      -3.416  -0.295   1.076  1.00  0.00     0.188 C 
HETATM   20  C9  UNL     1      -1.900  -0.147   1.311  1.00  0.00     0.152 C 
ENDBRANCH   4  11
ENDBRANCH   1   4
BRANCH   1  21
HETATM   21  N4  UNL     1       0.686  -2.515  -1.390  1.00  0.00    -0.060 N 
ATOM     22  H43 UNL     1      -0.122  -2.108  -1.860  1.00  0.00     0.276 HD
ATOM     23  H42 UNL     1       1.397  -2.231  -2.064  1.00  0.00     0.276 HD
ATOM     24  H41 UNL     1       0.616  -3.528  -1.298  1.00  0.00     0.276 HD
ENDBRANCH   1  21
TORSDOF 3
