REMARK  3 active torsions:
REMARK  status: ('A' for Active; 'I' for Inactive)
REMARK    1  A    between atoms: N1_1  and  C1_4 
REMARK    2  A    between atoms: C3_6  and  C4_7 
REMARK    3  A    between atoms: N6_16  and  C5_17 
ROOT
HETATM    1  C1  UNL     1      -2.848  -0.916   0.663  1.00  0.00     0.104 A 
HETATM    2  C2  UNL     1      -2.143   0.235   0.917  1.00  0.00     0.083 A 
HETATM    3  C3  UNL     1      -0.818   0.280   0.454  1.00  0.00     0.112 A 
HETATM    4  N6  UNL     1      -0.275  -0.736  -0.196  1.00  0.00    -0.091 N 
HETATM    5  C7  UNL     1      -1.016  -1.877  -0.433  1.00  0.00     0.347 A 
HETATM    6  O1  UNL     1      -0.454  -2.828  -1.060  1.00  0.00    -0.245 OA
HETATM    7  N10 UNL     1      -2.270  -1.938  -0.002  1.00  0.00    -0.294 N 
ATOM      8  H10 UNL     1      -2.813  -2.783  -0.179  1.00  0.00     0.172 HD
ENDROOT
BRANCH   3   9
HETATM    9  C4  UNL     1      -0.088   1.504   0.731  1.00  0.00     0.165 A 
HETATM   10  N2  UNL     1      -0.528   2.604   1.381  1.00  0.00    -0.267 N 
HETATM   11  N3  UNL     1       0.463   3.467   1.403  1.00  0.00    -0.227 N 
ATOM     12  H2  UNL     1      -1.457   2.739   1.780  1.00  0.00     0.190 HD
HETATM   13  N4  UNL     1       1.539   2.979   0.793  1.00  0.00    -0.227 N 
ATOM     14  H3  UNL     1       0.413   4.391   1.832  1.00  0.00     0.210 HD
HETATM   15  N5  UNL     1       1.173   1.787   0.397  1.00  0.00    -0.267 N 
ATOM     16  H4  UNL     1       2.444   3.431   0.663  1.00  0.00     0.210 HD
ATOM     17  H5  UNL     1       1.783   1.146  -0.110  1.00  0.00     0.190 HD
ENDBRANCH   3   9
BRANCH   4  18
HETATM   18  C5  UNL     1       1.063  -0.720  -0.677  1.00  0.00     0.710 A 
HETATM   19  N7  UNL     1       2.198  -1.111  -0.065  1.00  0.00    -0.129 N 
HETATM   20  N8  UNL     1       3.244  -0.981  -0.848  1.00  0.00    -0.261 N 
ATOM     21  H7  UNL     1       2.240  -1.465   0.891  1.00  0.00     0.205 HD
HETATM   22  C6  UNL     1       2.828  -0.491  -2.020  1.00  0.00     0.208 A 
ATOM     23  H8  UNL     1       4.207  -1.214  -0.604  1.00  0.00     0.190 HD
HETATM   24 CL1  UNL     1       3.803  -0.120  -3.434  1.00  0.00    -0.043 Cl
HETATM   25  N9  UNL     1       1.480  -0.332  -1.907  1.00  0.00    -0.162 N 
ATOM     26  H9  UNL     1       0.872   0.027  -2.642  1.00  0.00     0.187 HD
ENDBRANCH   4  18
BRANCH   1  27
HETATM   27  N1  UNL     1      -4.079  -1.063   1.047  1.00  0.00    -0.385 N 
ATOM     28  H12 UNL     1      -4.516  -0.290   1.550  1.00  0.00     0.157 HD
ATOM     29  H11 UNL     1      -4.603  -1.918   0.858  1.00  0.00     0.157 HD
ENDBRANCH   1  27
TORSDOF 3
