REMARK  5 active torsions:
REMARK  status: ('A' for Active; 'I' for Inactive)
REMARK    1  A    between atoms: N1_1  and  C1_4 
REMARK    2  A    between atoms: C2_7  and  O1_8 
REMARK    3  A    between atoms: O1_8  and  N3_9 
REMARK    4  A    between atoms: N3_9  and  O2_10 
REMARK    5  A    between atoms: N3_9  and  N4_12 
ROOT
HETATM    1  C1  UNL     1       1.021   0.966  -0.534  1.00  0.00     0.133 A 
HETATM    2  N2  UNL     1       2.089   0.699   0.233  1.00  0.00    -0.305 N 
ATOM      3  H2  UNL     1       2.981   1.128  -0.013  1.00  0.00     0.171 HD
HETATM    4  C2  UNL     1       2.042  -0.105   1.308  1.00  0.00     0.255 A 
HETATM    5  N5  UNL     1       0.860  -0.656   1.613  1.00  0.00    -0.304 N 
ATOM      6  H5  UNL     1       0.803  -1.268   2.427  1.00  0.00     0.171 HD
HETATM    7  C3  UNL     1      -0.271  -0.434   0.883  1.00  0.00     0.141 A 
HETATM    8  N6  UNL     1      -1.434  -1.029   1.252  1.00  0.00    -0.325 N 
ATOM      9  H6  UNL     1      -1.484  -1.642   2.066  1.00  0.00     0.169 HD
HETATM   10  C4  UNL     1      -2.536  -0.770   0.484  1.00  0.00     0.134 A 
HETATM   11  C5  UNL     1      -2.464   0.053  -0.609  1.00  0.00     0.125 A 
HETATM   12  N7  UNL     1      -1.284   0.644  -0.967  1.00  0.00    -0.344 N 
ATOM     13  H7  UNL     1      -1.227   1.257  -1.780  1.00  0.00     0.166 HD
HETATM   14  C6  UNL     1      -0.207   0.391  -0.216  1.00  0.00     0.121 A 
HETATM   15  C7  UNL     1      -3.798   0.130  -1.217  1.00  0.00     0.197 C 
HETATM   16  O3  UNL     1      -4.063   0.533  -2.379  1.00  0.00    -0.289 OA
HETATM   17  C8  UNL     1      -4.745  -0.366  -0.174  1.00  0.00     0.207 C 
HETATM   18  N8  UNL     1      -3.877  -1.239   0.616  1.00  0.00    -0.367 N 
ATOM     19  H8  UNL     1      -4.178  -2.044   1.166  1.00  0.00     0.161 HD
ENDROOT
BRANCH   4  20
HETATM   20  O1  UNL     1       3.183  -0.362   2.089  1.00  0.00    -0.156 OA
BRANCH  20  21
HETATM   21  N3  UNL     1       4.394   0.177   1.814  1.00  0.00    -0.022 N 
BRANCH  21  22
HETATM   22  O2  UNL     1       4.741   1.305   2.207  1.00  0.00    -0.246 OA
ATOM     23  H2  UNL     1       5.591   1.683   2.014  1.00  0.00     0.249 HD
ENDBRANCH  21  22
BRANCH  21  24
HETATM   24  N4  UNL     1       5.307  -0.556   1.055  1.00  0.00    -0.116 N 
HETATM   25  F1  UNL     1       6.630  -0.369   1.253  1.00  0.00    -0.081 F 
ATOM     26  H4  UNL     1       4.979  -1.225   0.359  1.00  0.00     0.226 HD
ENDBRANCH  21  24
ENDBRANCH  20  21
ENDBRANCH   4  20
BRANCH   1  27
HETATM   27  N1  UNL     1       1.109   1.742  -1.557  1.00  0.00    -0.383 N 
ATOM     28  H12 UNL     1       2.008   2.163  -1.790  1.00  0.00     0.157 HD
ATOM     29  H11 UNL     1       0.297   1.945  -2.140  1.00  0.00     0.157 HD
ENDBRANCH   1  27
TORSDOF 5
