REMARK  4 active torsions:
REMARK  status: ('A' for Active; 'I' for Inactive)
REMARK    1  A    between atoms: C3_4  and  N2_5 
REMARK    2  A    between atoms: C4_12  and  N6_13 
REMARK    3  A    between atoms: C5_18  and  N8_19 
REMARK    4  A    between atoms: C10_26  and  N10_27 
ROOT
HETATM    1  N1  UNL     1      -3.979  -0.898   3.087  1.00  0.00    -0.191 NA
HETATM    2  C1  UNL     1      -2.971  -0.724   2.546  1.00  0.00     0.107 C 
HETATM    3  C2  UNL     1      -1.712  -0.486   1.867  1.00  0.00     0.135 A 
HETATM    4  C3  UNL     1      -1.706  -0.010   0.577  1.00  0.00     0.186 A 
HETATM    5  N7  UNL     1      -0.518   0.191   0.001  1.00  0.00    -0.172 N 
ATOM      6  H7  UNL     1      -0.495   0.544  -0.956  1.00  0.00     0.186 HD
HETATM    7  C5  UNL     1       0.666  -0.054   0.632  1.00  0.00     0.683 A 
HETATM    8  N9  UNL     1       0.618  -0.516   1.886  1.00  0.00    -0.175 N 
ATOM      9  H9  UNL     1       1.498  -0.702   2.367  1.00  0.00     0.186 HD
HETATM   10  C10 UNL     1      -0.521  -0.746   2.539  1.00  0.00     0.139 A 
ENDROOT
BRANCH   4  11
HETATM   11  N2  UNL     1      -2.914   0.250  -0.096  1.00  0.00    -0.051 N 
HETATM   12  N3  UNL     1      -3.996   0.896   0.303  1.00  0.00    -0.205 N 
HETATM   13  N4  UNL     1      -4.923   0.930  -0.617  1.00  0.00    -0.213 N 
ATOM     14  H3  UNL     1      -4.096   1.320   1.225  1.00  0.00     0.211 HD
HETATM   15  N5  UNL     1      -4.409   0.272  -1.658  1.00  0.00    -0.115 N 
ATOM     16  H4  UNL     1      -5.843   1.366  -0.553  1.00  0.00     0.210 HD
HETATM   17  C4  UNL     1      -3.171  -0.152  -1.351  1.00  0.00     0.716 A 
ATOM     18  H5  UNL     1      -4.882   0.115  -2.548  1.00  0.00     0.207 HD
BRANCH  17  19
HETATM   19  N6  UNL     1      -2.422  -0.821  -2.163  1.00  0.00    -0.231 N 
ATOM     20  H62 UNL     1      -1.483  -1.143  -1.930  1.00  0.00     0.174 HD
ATOM     21  H61 UNL     1      -2.617  -1.126  -3.116  1.00  0.00     0.174 HD
ENDBRANCH  17  19
ENDBRANCH   4  11
BRANCH  10  22
HETATM   22  N10 UNL     1      -0.537  -1.199   3.767  1.00  0.00    -0.384 N 
ATOM     23 2H10 UNL     1      -1.409  -1.375   4.267  1.00  0.00     0.157 HD
ATOM     24 1H10 UNL     1       0.336  -1.390   4.259  1.00  0.00     0.157 HD
ENDBRANCH  10  22
BRANCH   7  25
HETATM   25  N8  UNL     1       1.905   0.173  -0.017  1.00  0.00    -0.217 N 
HETATM   26  C6  UNL     1       3.195  -0.062   0.585  1.00  0.00     0.141 C 
HETATM   27  C7  UNL     1       4.210  -0.015  -0.516  1.00  0.00     0.022 C 
HETATM   28  C8  UNL     1       3.561   0.857  -1.559  1.00  0.00     0.022 C 
HETATM   29  C9  UNL     1       2.074   0.667  -1.360  1.00  0.00     0.141 C 
ENDBRANCH   7  25
TORSDOF 4
