REMARK  4 active torsions:
REMARK  status: ('A' for Active; 'I' for Inactive)
REMARK    1  A    between atoms: O1_2  and  C2_3 
REMARK    2  A    between atoms: C2_3  and  C3_5 
REMARK    3  A    between atoms: C6_13  and  N3_14 
REMARK       I    between atoms: N5_20  and  C8_21 
REMARK    4  A    between atoms: C8_21  and  O5_23 
ROOT
HETATM    1  C3  UNL     1       0.967  -0.147  -0.334  1.00  0.00     0.195 A 
HETATM    2  N1  UNL     1       0.818  -1.476  -0.694  1.00  0.00    -0.329 N 
ATOM      3  H1  UNL     1       1.551  -2.067  -1.087  1.00  0.00     0.168 HD
HETATM    4  C4  UNL     1      -0.429  -1.861  -0.447  1.00  0.00     0.149 A 
HETATM    5  C5  UNL     1      -1.062  -3.079  -0.632  1.00  0.00     0.290 A 
HETATM    6  O3  UNL     1      -0.374  -4.013  -1.116  1.00  0.00    -0.265 OA
HETATM    7  N2  UNL     1      -2.337  -3.164  -0.285  1.00  0.00    -0.154 N 
ATOM      8  H2  UNL     1      -2.812  -4.057  -0.417  1.00  0.00     0.187 HD
HETATM    9  C6  UNL     1      -3.039  -2.148   0.228  1.00  0.00     0.680 A 
HETATM   10  N4  UNL     1      -2.413  -0.961   0.406  1.00  0.00    -0.174 N 
ATOM     11  H4  UNL     1      -2.935  -0.177   0.797  1.00  0.00     0.186 HD
HETATM   12  C7  UNL     1      -1.122  -0.790   0.081  1.00  0.00     0.166 A 
HETATM   13  N5  UNL     1      -0.221   0.261   0.136  1.00  0.00    -0.220 N 
HETATM   14  C8  UNL     1      -0.604   1.517   0.629  1.00  0.00     0.374 C 
HETATM   15  O4  UNL     1      -1.795   1.708   1.035  1.00  0.00    -0.237 OA
ENDROOT
BRANCH   1  16
HETATM   16  C2  UNL     1       2.195   0.591  -0.469  1.00  0.00     0.328 C 
HETATM   17  O2  UNL     1       2.431   1.753  -0.185  1.00  0.00    -0.256 OA
BRANCH  16  18
HETATM   18  O1  UNL     1       3.308  -0.116  -1.009  1.00  0.00    -0.320 OA
HETATM   19  C1  UNL     1       4.564   0.518  -1.183  1.00  0.00     0.213 C 
ENDBRANCH  16  18
ENDBRANCH   1  16
BRANCH  14  20
HETATM   20  O5  UNL     1       0.201   2.611   0.726  1.00  0.00    -0.308 OA
HETATM   21  C9  UNL     1      -0.190   3.875   1.224  1.00  0.00     0.215 C 
ENDBRANCH  14  20
BRANCH   9  22
HETATM   22  N3  UNL     1      -4.296  -2.294   0.551  1.00  0.00    -0.234 N 
ATOM     23  H32 UNL     1      -4.768  -3.188   0.417  1.00  0.00     0.174 HD
ATOM     24  H31 UNL     1      -4.831  -1.519   0.942  1.00  0.00     0.174 HD
ENDBRANCH   9  22
TORSDOF 4
