REMARK  2 active torsions:
REMARK  status: ('A' for Active; 'I' for Inactive)
REMARK       I    between atoms: N1_2  and  C2_4 
REMARK    1  A    between atoms: C2_4  and  C3_6 
REMARK    2  A    between atoms: C4_9  and  N3_10 
ROOT
HETATM    1  C3  UNL     1       0.136   1.631   1.003  1.00  0.00     0.153 C 
HETATM    2  N2  UNL     1      -1.009   1.132   0.460  1.00  0.00    -0.332 N 
ATOM      3  H2  UNL     1      -1.776   1.802   0.400  1.00  0.00     0.168 HD
HETATM    4  C4  UNL     1      -1.301  -0.094  -0.011  1.00  0.00     0.146 C 
HETATM    5  C9  UNL     1      -0.443  -1.170  -0.054  1.00  0.00     0.187 C 
HETATM    6  F1  UNL     1      -0.973  -2.273  -0.620  1.00  0.00    -0.200 F 
HETATM    7  C10 UNL     1       0.878  -1.288   0.395  1.00  0.00     0.089 C 
HETATM    8  C11 UNL     1       1.657  -0.328   1.013  1.00  0.00     0.051 C 
HETATM    9  C12 UNL     1       1.298   0.965   1.334  1.00  0.00     0.214 C 
HETATM   10  O2  UNL     1       2.115   1.648   2.013  1.00  0.00    -0.285 OA
HETATM   11  C13 UNL     1       3.001  -0.894   1.306  1.00  0.00     0.182 C 
HETATM   12  N5  UNL     1       3.989  -0.026   0.668  1.00  0.00    -0.380 N 
ATOM     13  H5  UNL     1       4.414   0.800   1.090  1.00  0.00     0.160 HD
HETATM   14  C14 UNL     1       4.265  -0.528  -0.656  1.00  0.00     0.002 C 
HETATM   15  C15 UNL     1       5.066   0.233  -1.672  1.00  0.00     0.067 C 
HETATM   16  C16 UNL     1       3.719  -1.718  -0.817  1.00  0.00     0.061 C 
HETATM   17  C17 UNL     1       3.034  -2.090   0.408  1.00  0.00     0.248 C 
HETATM   18  N6  UNL     1       3.237  -3.383   0.962  1.00  0.00    -0.026 N 
ATOM     19  H61 UNL     1       3.221  -3.544   1.969  1.00  0.00     0.282 HD
ATOM     20  H62 UNL     1       4.149  -3.839   0.941  1.00  0.00     0.282 HD
HETATM   21  C18 UNL     1       2.126  -3.819   0.085  1.00  0.00     0.363 C 
HETATM   22  N7  UNL     1       1.616  -2.487   0.257  1.00  0.00    -0.315 N 
ENDROOT
BRANCH   4  23
HETATM   23  N3  UNL     1      -2.625  -0.240  -0.495  1.00  0.00    -0.361 N 
HETATM   24  C5  UNL     1      -2.966  -0.605  -1.843  1.00  0.00     0.152 C 
HETATM   25  C6  UNL     1      -4.099  -1.625  -1.752  1.00  0.00     0.252 C 
HETATM   26  N4  UNL     1      -5.281  -0.953  -1.253  1.00  0.00    -0.072 N 
HETATM   27  C7  UNL     1      -4.984   0.192  -0.438  1.00  0.00     0.252 C 
ATOM     28  H42 UNL     1      -5.904  -0.700  -2.020  1.00  0.00     0.277 HD
ATOM     29  H41 UNL     1      -5.885  -1.606  -0.754  1.00  0.00     0.277 HD
HETATM   30  C8  UNL     1      -3.749  -0.009   0.425  1.00  0.00     0.152 C 
ENDBRANCH   4  23
BRANCH   1  31
HETATM   31  C2  UNL     1       0.146   3.067   1.276  1.00  0.00     0.272 C 
HETATM   32  N1  UNL     1      -0.963   3.890   0.994  1.00  0.00    -0.360 N 
HETATM   33  C1  UNL     1      -0.926   5.294   1.273  1.00  0.00     0.149 C 
ATOM     34  H1  UNL     1      -1.803   3.480   0.586  1.00  0.00     0.162 HD
HETATM   35  O1  UNL     1       1.171   3.590   1.776  1.00  0.00    -0.266 OA
ENDBRANCH   1  31
TORSDOF 2
