REMARK  3 active torsions:
REMARK  status: ('A' for Active; 'I' for Inactive)
REMARK    1  A    between atoms: N1_2  and  C2_4 
REMARK    2  A    between atoms: C7_12  and  C8_13 
REMARK    3  A    between atoms: C9_16  and  N4_17 
ROOT
HETATM    1  C8  UNL     1       1.887  -0.493   0.428  1.00  0.00     0.151 A 
HETATM    2  N3  UNL     1       0.902   0.408   0.118  1.00  0.00    -0.172 N 
ATOM      3  H3  UNL     1       1.067   1.373  -0.169  1.00  0.00     0.186 HD
HETATM    4  C9  UNL     1      -0.311  -0.156   0.245  1.00  0.00     0.706 A 
HETATM    5  N8  UNL     1      -0.080  -1.420   0.639  1.00  0.00    -0.126 N 
HETATM    6  C16 UNL     1      -1.105  -2.419   0.907  1.00  0.00     0.197 C 
HETATM    7  N9  UNL     1       1.225  -1.607   0.744  1.00  0.00    -0.268 N 
ATOM      8  H9  UNL     1       1.665  -2.483   1.028  1.00  0.00     0.189 HD
ENDROOT
BRANCH   4   9
HETATM    9  N4  UNL     1      -1.555   0.512  -0.003  1.00  0.00    -0.127 N 
HETATM   10  C10 UNL     1      -2.443   0.145  -1.079  1.00  0.00     0.224 C 
HETATM   11  C11 UNL     1      -3.818   0.693  -0.772  1.00  0.00     0.318 C 
HETATM   12  C12 UNL     1      -3.674   2.218  -0.736  1.00  0.00     0.196 C 
HETATM   13  N6  UNL     1      -4.184   0.246   0.537  1.00  0.00    -0.035 N 
HETATM   14  N7  UNL     1      -4.804   0.281  -1.719  1.00  0.00    -0.035 N 
HETATM   15  N5  UNL     1      -2.961   2.501   0.487  1.00  0.00    -0.338 N 
HETATM   16  C13 UNL     1      -1.927   1.606   0.868  1.00  0.00     0.337 C 
ATOM     17  H5  UNL     1      -3.192   3.315   1.057  1.00  0.00     0.164 HD
HETATM   18  O1  UNL     1      -1.300   1.715   1.949  1.00  0.00    -0.246 OA
HETATM   19  C14 UNL     1      -4.877  -0.988   0.290  1.00  0.00     0.263 C 
ATOM     20  H62 UNL     1      -3.404   0.169   1.190  1.00  0.00     0.280 HD
ATOM     21  H61 UNL     1      -4.714   0.926   1.082  1.00  0.00     0.280 HD
HETATM   22  C15 UNL     1      -5.369  -0.915  -1.134  1.00  0.00     0.263 C 
ATOM     23  H72 UNL     1      -5.490   1.000  -1.951  1.00  0.00     0.280 HD
ATOM     24  H71 UNL     1      -4.450   0.158  -2.668  1.00  0.00     0.280 HD
ENDBRANCH   4   9
BRANCH   1  25
HETATM   25  C7  UNL     1       3.272  -0.128   0.386  1.00  0.00     0.075 A 
HETATM   26  C2  UNL     1       4.086  -0.369  -0.665  1.00  0.00     0.046 A 
HETATM   27  C3  UNL     1       5.441   0.071  -0.604  1.00  0.00     0.054 A 
HETATM   28  C4  UNL     1       5.873   0.719   0.510  1.00  0.00     0.008 A 
HETATM   29  C5  UNL     1       7.299   1.203   0.613  1.00  0.00     0.068 C 
HETATM   30  N2  UNL     1       5.067   0.958   1.554  1.00  0.00    -0.350 N 
HETATM   31  C6  UNL     1       3.798   0.543   1.488  1.00  0.00     0.120 A 
ATOM     32  H2  UNL     1       5.414   1.445   2.380  1.00  0.00     0.166 HD
HETATM   33 CL1  UNL     1       2.768   0.863   2.852  1.00  0.00    -0.063 Cl
BRANCH  26  34
HETATM   34  N1  UNL     1       3.784  -0.959  -1.705  1.00  0.00    -0.393 N 
HETATM   35  C1  UNL     1       2.673  -1.566  -2.267  1.00  0.00     0.146 C 
ATOM     36  H1  UNL     1       4.585  -1.017  -2.334  1.00  0.00     0.159 HD
ENDBRANCH  26  34
ENDBRANCH   1  25
TORSDOF 3
