REMARK  6 active torsions:
REMARK  status: ('A' for Active; 'I' for Inactive)
REMARK    1  A    between atoms: N1_2  and  C2_4 
REMARK    2  A    between atoms: C4_9  and  O1_10 
REMARK    3  A    between atoms: C6_12  and  N3_13 
REMARK       I    between atoms: N3_13  and  C7_15 
REMARK       I    between atoms: C7_15  and  N4_17 
REMARK    4  A    between atoms: N4_17  and  C8_19 
REMARK    5  A    between atoms: C9_24  and  C10_25 
REMARK       I    between atoms: C10_25  and  N7_27 
REMARK    6  A    between atoms: N7_27  and  N8_29 
ROOT
HETATM    1  N3  UNL     1      -0.715  -0.488  -0.029  1.00  0.00    -0.300 N 
ATOM      2  H3  UNL     1      -0.378  -1.333   0.433  1.00  0.00     0.171 HD
HETATM    3  C7  UNL     1       0.287   0.319  -0.453  1.00  0.00     0.327 C 
HETATM    4  O2  UNL     1       0.469   0.534  -1.703  1.00  0.00    -0.247 OA
HETATM    5  N4  UNL     1       1.181   0.960   0.468  1.00  0.00    -0.287 N 
ATOM      6  H4  UNL     1       0.866   1.673   1.126  1.00  0.00     0.172 HD
ENDROOT
BRANCH   1   7
HETATM    7  C6  UNL     1      -1.964  -0.423  -0.080  1.00  0.00     0.118 A 
HETATM    8  C4  UNL     1      -2.733   0.566  -0.621  1.00  0.00     0.141 A 
HETATM    9  C3  UNL     1      -4.113   0.569  -0.700  1.00  0.00     0.141 A 
HETATM   10  N2  UNL     1      -4.940  -0.372  -0.270  1.00  0.00    -0.325 N 
HETATM   11 CL1  UNL     1      -4.840   2.000  -1.464  1.00  0.00    -0.061 Cl
HETATM   12  C2  UNL     1      -4.596  -1.519   0.330  1.00  0.00     0.147 A 
ATOM     13  H2  UNL     1      -5.937  -0.207  -0.409  1.00  0.00     0.169 HD
HETATM   14  S2  UNL     1      -2.934  -1.748   0.537  1.00  0.00    -0.033 SA
BRANCH   8  15
HETATM   15  O1  UNL     1      -2.068   1.698  -1.152  1.00  0.00    -0.350 OA
HETATM   16  C5  UNL     1      -1.883   2.852  -0.336  1.00  0.00     0.210 C 
ENDBRANCH   8  15
BRANCH  12  17
HETATM   17  N1  UNL     1      -5.501  -2.387   0.719  1.00  0.00    -0.375 N 
HETATM   18  C1  UNL     1      -6.883  -2.048   0.470  1.00  0.00     0.148 C 
ATOM     19  H1  UNL     1      -5.240  -3.261   1.176  1.00  0.00     0.161 HD
ENDBRANCH  12  17
ENDBRANCH   1   7
BRANCH   5  20
HETATM   20  C8  UNL     1       2.427   0.569   0.408  1.00  0.00     0.169 A 
HETATM   21  N5  UNL     1       3.008  -0.338  -0.378  1.00  0.00    -0.278 N 
HETATM   22  N6  UNL     1       4.252  -0.554  -0.255  1.00  0.00    -0.287 N 
ATOM     23  H5  UNL     1       2.460  -0.851  -1.069  1.00  0.00     0.189 HD
HETATM   24  C9  UNL     1       4.960   0.115   0.644  1.00  0.00     0.162 A 
ATOM     25  H6  UNL     1       4.709  -1.245  -0.850  1.00  0.00     0.188 HD
HETATM   26  S1  UNL     1       3.762   1.109   1.347  1.00  0.00    -0.028 SA
BRANCH  24  27
HETATM   27  C10 UNL     1       6.400   0.022   0.950  1.00  0.00     0.294 C 
HETATM   28  O3  UNL     1       6.828   0.759   1.842  1.00  0.00    -0.264 OA
HETATM   29  N7  UNL     1       7.181  -0.897   0.209  1.00  0.00    -0.271 N 
ATOM     30  H7  UNL     1       6.762  -1.479  -0.516  1.00  0.00     0.189 HD
BRANCH  29  31
HETATM   31  N8  UNL     1       8.544  -0.982   0.502  1.00  0.00    -0.342 N 
ATOM     32  H82 UNL     1       8.948  -0.393   1.230  1.00  0.00     0.176 HD
ATOM     33  H81 UNL     1       9.107  -1.644  -0.032  1.00  0.00     0.176 HD
ENDBRANCH  29  31
ENDBRANCH  24  27
ENDBRANCH   5  20
TORSDOF 6
