REMARK  4 active torsions:
REMARK  status: ('A' for Active; 'I' for Inactive)
REMARK       I    between atoms: C2_5  and  N3_6 
REMARK       I    between atoms: C2_5  and  N5_10 
REMARK    1  A    between atoms: N5_10  and  N6_12 
REMARK    2  A    between atoms: N6_12  and  C4_14 
REMARK    3  A    between atoms: C4_14  and  C6_19 
REMARK       I    between atoms: N9_21  and  C8_22 
REMARK    4  A    between atoms: C8_22  and  C9_24 
ROOT
HETATM    1  N1  UNL     1       6.338   0.271   2.499  1.00  0.00    -0.171 NA
HETATM    2  C1  UNL     1       6.091  -0.116   1.416  1.00  0.00     0.196 C 
HETATM    3  N2  UNL     1       5.814  -0.574   0.127  1.00  0.00    -0.124 N 
ATOM      4  H2  UNL     1       6.582  -0.718  -0.529  1.00  0.00     0.197 HD
HETATM    5  C2  UNL     1       4.612  -0.817  -0.249  1.00  0.00     0.715 C 
HETATM    6  N3  UNL     1       4.362  -1.280  -1.563  1.00  0.00    -0.124 N 
ATOM      7  H3  UNL     1       4.314  -0.606  -2.327  1.00  0.00     0.197 HD
HETATM    8  C3  UNL     1       4.177  -2.654  -1.844  1.00  0.00     0.196 C 
HETATM    9  N4  UNL     1       4.019  -3.782  -2.075  1.00  0.00    -0.171 NA
HETATM   10  N5  UNL     1       3.553  -0.613   0.669  1.00  0.00    -0.129 N 
ATOM     11  H5  UNL     1       3.101  -1.427   1.086  1.00  0.00     0.205 HD
ENDROOT
BRANCH  10  12
HETATM   12  N6  UNL     1       3.103   0.663   1.025  1.00  0.00    -0.270 N 
ATOM     13  H6  UNL     1       3.473   1.100   1.869  1.00  0.00     0.189 HD
BRANCH  12  14
HETATM   14  C4  UNL     1       2.155   1.363   0.255  1.00  0.00     0.146 C 
HETATM   15  N7  UNL     1       2.508   2.374  -0.442  1.00  0.00    -0.277 N 
HETATM   16  C5  UNL     1       3.819   2.857  -0.500  1.00  0.00     0.183 C 
ATOM     17  H7  UNL     1       1.793   2.856  -0.987  1.00  0.00     0.179 HD
HETATM   18  N8  UNL     1       4.917   3.252  -0.567  1.00  0.00    -0.172 NA
BRANCH  14  19
HETATM   19  C6  UNL     1       0.766   0.941   0.249  1.00  0.00     0.097 A 
HETATM   20  C7  UNL     1      -0.126   1.116  -0.786  1.00  0.00     0.141 A 
HETATM   21  N9  UNL     1      -1.349   0.595  -0.449  1.00  0.00    -0.227 N 
HETATM   22  C8  UNL     1      -2.495   0.630  -1.285  1.00  0.00     0.276 C 
HETATM   23  N10 UNL     1      -1.192   0.117   0.765  1.00  0.00    -0.256 N 
HETATM   24  O1  UNL     1      -2.460   1.177  -2.424  1.00  0.00    -0.265 OA
HETATM   25  C15 UNL     1       0.052   0.296   1.233  1.00  0.00     0.275 A 
ATOM     26  H10 UNL     1      -1.935  -0.340   1.294  1.00  0.00     0.191 HD
HETATM   27  O2  UNL     1       0.525  -0.047   2.359  1.00  0.00    -0.266 OA
BRANCH  22  28
HETATM   28  C9  UNL     1      -3.750   0.046  -0.875  1.00  0.00     0.034 A 
HETATM   29  C10 UNL     1      -3.876  -1.180  -0.266  1.00  0.00     0.019 A 
HETATM   30  C11 UNL     1      -5.122  -1.668   0.116  1.00  0.00     0.025 A 
HETATM   31  C12 UNL     1      -6.270  -0.958  -0.094  1.00  0.00     0.034 A 
HETATM   32 CL1  UNL     1      -7.865  -1.527   0.369  1.00  0.00    -0.084 Cl
HETATM   33  C13 UNL     1      -6.164   0.275  -0.705  1.00  0.00     0.025 A 
HETATM   34  C14 UNL     1      -4.943   0.748  -1.077  1.00  0.00     0.019 A 
ENDBRANCH  22  28
ENDBRANCH  14  19
ENDBRANCH  12  14
ENDBRANCH  10  12
TORSDOF 4
