REMARK  4 active torsions:
REMARK  status: ('A' for Active; 'I' for Inactive)
REMARK    1  A    between atoms: C2_3  and  N2_4 
REMARK    2  A    between atoms: C4_8  and  N3_9 
REMARK       I    between atoms: N3_9  and  C5_11 
REMARK    3  A    between atoms: C5_11  and  C6_13 
REMARK    4  A    between atoms: C8_17  and  N5_18 
ROOT
HETATM    1  C1  UNL     1      -4.246  -0.867   2.783  1.00  0.00     0.163 C 
HETATM    2  N1  UNL     1      -3.559  -0.515   1.569  1.00  0.00    -0.289 N 
HETATM    3  C2  UNL     1      -2.379   0.119   1.678  1.00  0.00     0.122 A 
HETATM    4  C3  UNL     1      -1.711   0.461   0.531  1.00  0.00     0.099 A 
HETATM    5  C4  UNL     1      -0.514   1.099   0.279  1.00  0.00     0.141 A 
HETATM    6  N7  UNL     1      -0.394   1.146  -1.046  1.00  0.00    -0.283 N 
ATOM      7  H7  UNL     1       0.395   1.563  -1.539  1.00  0.00     0.188 HD
HETATM    8  N8  UNL     1      -1.438   0.578  -1.642  1.00  0.00    -0.283 N 
ATOM      9  H8  UNL     1      -1.577   0.490  -2.649  1.00  0.00     0.188 HD
HETATM   10  C11 UNL     1      -2.276   0.141  -0.691  1.00  0.00     0.143 A 
HETATM   11  N9  UNL     1      -3.458  -0.493  -0.789  1.00  0.00    -0.288 N 
HETATM   12  C12 UNL     1      -4.037  -0.822  -2.092  1.00  0.00     0.163 C 
HETATM   13  C13 UNL     1      -4.100  -0.822   0.370  1.00  0.00     0.331 A 
HETATM   14  O4  UNL     1      -5.210  -1.417   0.308  1.00  0.00    -0.246 OA
ENDROOT
BRANCH   5  15
HETATM   15  N3  UNL     1       0.323   1.559   1.166  1.00  0.00    -0.304 N 
HETATM   16  C5  UNL     1       1.510   2.191   0.782  1.00  0.00     0.291 C 
HETATM   17  O1  UNL     1       1.568   3.456   0.910  1.00  0.00    -0.264 OA
ATOM     18  H3  UNL     1       0.108   1.456   2.158  1.00  0.00     0.171 HD
BRANCH  16  19
HETATM   19  C6  UNL     1       2.680   1.508   0.249  1.00  0.00     0.175 A 
HETATM   20  N4  UNL     1       3.744   2.139  -0.089  1.00  0.00    -0.345 N 
HETATM   21  C7  UNL     1       4.895   1.494  -0.611  1.00  0.00     0.128 A 
ATOM     22  H4  UNL     1       3.764   3.153   0.023  1.00  0.00     0.167 HD
HETATM   23  C8  UNL     1       4.924   0.168  -0.779  1.00  0.00     0.145 A 
HETATM   24  C9  UNL     1       3.781  -0.623  -0.429  1.00  0.00     0.079 A 
HETATM   25  C10 UNL     1       3.712  -1.928  -0.556  1.00  0.00     0.116 C 
HETATM   26  N6  UNL     1       2.635   0.102   0.100  1.00  0.00    -0.335 N 
HETATM   27 CL1  UNL     1       4.958  -2.964  -1.161  1.00  0.00    -0.095 Cl
ATOM     28  H6  UNL     1       1.792  -0.408   0.365  1.00  0.00     0.168 HD
BRANCH  23  29
HETATM   29  N5  UNL     1       6.094  -0.433  -1.303  1.00  0.00    -0.112 N 
HETATM   30  O2  UNL     1       6.995  -0.784  -0.483  1.00  0.00    -0.532 OA
HETATM   31  O3  UNL     1       6.317  -0.642  -2.619  1.00  0.00    -0.532 OA
ENDBRANCH  23  29
ENDBRANCH  16  19
ENDBRANCH   5  15
BRANCH   3  32
HETATM   32  N2  UNL     1      -1.852   0.417   2.816  1.00  0.00    -0.384 N 
ATOM     33  H22 UNL     1      -2.349   0.163   3.670  1.00  0.00     0.157 HD
ATOM     34  H21 UNL     1      -0.956   0.898   2.899  1.00  0.00     0.157 HD
ENDBRANCH   3  32
TORSDOF 4
