REMARK  5 active torsions:
REMARK  status: ('A' for Active; 'I' for Inactive)
REMARK       I    between atoms: N2_3  and  C2_5 
REMARK       I    between atoms: C2_5  and  N3_6 
REMARK       I    between atoms: C2_5  and  N12_32 
REMARK    1  A    between atoms: N3_6  and  C3_8 
REMARK    2  A    between atoms: C4_13  and  C5_14 
REMARK    3  A    between atoms: C6_16  and  N6_17 
REMARK    4  A    between atoms: N6_17  and  N7_19 
REMARK    5  A    between atoms: C7_21  and  N8_22 
ROOT
HETATM    1  N1  UNL     1      -4.832  -0.415  -3.281  1.00  0.00    -0.171 NA
HETATM    2  C1  UNL     1      -5.458  -0.642  -2.327  1.00  0.00     0.196 C 
HETATM    3  N2  UNL     1      -6.213  -0.936  -1.186  1.00  0.00    -0.125 N 
ATOM      4  H2  UNL     1      -7.206  -0.703  -1.155  1.00  0.00     0.197 HD
HETATM    5  C2  UNL     1      -5.649  -1.503  -0.173  1.00  0.00     0.702 C 
HETATM    6  N3  UNL     1      -4.289  -1.831  -0.198  1.00  0.00    -0.167 N 
ATOM      7  H3  UNL     1      -4.003  -2.792  -0.388  1.00  0.00     0.186 HD
HETATM    8  N12 UNL     1      -6.414  -1.803   0.989  1.00  0.00    -0.125 N 
ATOM      9  H12 UNL     1      -6.555  -2.768   1.289  1.00  0.00     0.197 HD
HETATM   10  C10 UNL     1      -6.968  -0.736   1.709  1.00  0.00     0.196 C 
HETATM   11  N13 UNL     1      -7.441   0.148   2.312  1.00  0.00    -0.171 NA
ENDROOT
BRANCH   6  12
HETATM   12  C3  UNL     1      -3.378  -0.911   0.021  1.00  0.00     0.180 A 
HETATM   13  N4  UNL     1      -3.567   0.388   0.283  1.00  0.00    -0.278 N 
HETATM   14  N5  UNL     1      -2.550   1.124   0.467  1.00  0.00    -0.289 N 
ATOM     15  H4  UNL     1      -4.508   0.778   0.334  1.00  0.00     0.189 HD
HETATM   16  C4  UNL     1      -1.332   0.611   0.399  1.00  0.00     0.130 A 
ATOM     17  H5  UNL     1      -2.672   2.116   0.668  1.00  0.00     0.188 HD
HETATM   18  S1  UNL     1      -1.676  -1.025   0.050  1.00  0.00    -0.030 SA
BRANCH  16  19
HETATM   19  C5  UNL     1      -0.063   1.323   0.586  1.00  0.00     0.153 A 
HETATM   20  O1  UNL     1       1.144   0.834   0.523  1.00  0.00    -0.272 OA
HETATM   21  C6  UNL     1       2.034   1.779   0.746  1.00  0.00     0.245 A 
HETATM   22  N11 UNL     1       1.354   2.925   0.961  1.00  0.00    -0.309 N 
HETATM   23  C9  UNL     1       0.053   2.665   0.867  1.00  0.00     0.143 A 
ATOM     24  H11 UNL     1       1.768   3.836   1.161  1.00  0.00     0.170 HD
HETATM   25 CL1  UNL     1      -1.267   3.795   1.059  1.00  0.00    -0.061 Cl
BRANCH  21  26
HETATM   26  N6  UNL     1       3.311   1.702   0.770  1.00  0.00    -0.264 N 
ATOM     27  H6  UNL     1       3.830   2.559   0.964  1.00  0.00     0.190 HD
BRANCH  26  28
HETATM   28  N7  UNL     1       4.041   0.553   0.555  1.00  0.00    -0.293 N 
HETATM   29  C7  UNL     1       3.938  -0.216  -0.462  1.00  0.00     0.199 C 
ATOM     30  H7  UNL     1       4.722   0.293   1.268  1.00  0.00     0.187 HD
BRANCH  29  31
HETATM   31  N8  UNL     1       4.773  -1.361  -0.518  1.00  0.00    -0.328 N 
HETATM   32  C8  UNL     1       5.951  -1.266  -1.013  1.00  0.00     0.201 C 
HETATM   33  N9  UNL     1       6.827  -2.368  -1.096  1.00  0.00    -0.066 NA
HETATM   34  N10 UNL     1       6.394  -0.009  -1.497  1.00  0.00    -0.066 NA
ATOM     35  H8  UNL     1       4.437  -2.257  -0.165  1.00  0.00     0.168 HD
ENDBRANCH  29  31
ENDBRANCH  26  28
ENDBRANCH  21  26
ENDBRANCH  16  19
ENDBRANCH   6  12
TORSDOF 5
