REMARK  8 active torsions:
REMARK  status: ('A' for Active; 'I' for Inactive)
REMARK    1  A    between atoms: O1_2  and  C2_3 
REMARK    2  A    between atoms: C2_3  and  O2_4 
REMARK    3  A    between atoms: C2_3  and  C3_6 
REMARK    4  A    between atoms: C5_9  and  S1_10 
REMARK    5  A    between atoms: S1_10  and  C6_11 
REMARK    6  A    between atoms: C6_11  and  C7_12 
REMARK    7  A    between atoms: C8_13  and  C9_14 
REMARK    8  A    between atoms: C10_17  and  O6_18 
ROOT
HETATM    1  C3  UNL     1       2.604  -1.008  -0.575  1.00  0.00     0.067 C 
HETATM    2  C4  UNL     1       1.986  -0.116  -1.601  1.00  0.00     0.178 C 
HETATM    3  O3  UNL     1       0.999   0.707  -1.040  1.00  0.00    -0.372 OA
HETATM    4  C5  UNL     1      -0.049  -0.120  -0.658  1.00  0.00     0.211 C 
HETATM    5  C10 UNL     1       0.373  -0.858   0.591  1.00  0.00     0.157 C 
HETATM    6  C11 UNL     1       1.570  -1.697   0.282  1.00  0.00     0.047 C 
ENDROOT
BRANCH   4   7
HETATM    7  S1  UNL     1      -1.578   0.822  -0.396  1.00  0.00    -0.131 SA
BRANCH   7   8
HETATM    8  C6  UNL     1      -2.934  -0.261   0.100  1.00  0.00     0.104 C 
BRANCH   8   9
HETATM    9  C7  UNL     1      -4.171   0.541   0.306  1.00  0.00    -0.010 C 
HETATM   10  C8  UNL     1      -5.244   0.290  -0.413  1.00  0.00     0.081 C 
BRANCH  10  11
HETATM   11  C9  UNL     1      -6.471   1.069  -0.223  1.00  0.00     0.198 C 
HETATM   12  O4  UNL     1      -7.491   0.823  -0.915  1.00  0.00    -0.645 OA
HETATM   13  O5  UNL     1      -6.538   2.089   0.714  1.00  0.00    -0.645 OA
ENDBRANCH  10  11
ENDBRANCH   8   9
ENDBRANCH   7   8
ENDBRANCH   4   7
BRANCH   5  14
HETATM   14  O6  UNL     1       0.594   0.042   1.642  1.00  0.00    -0.392 OA
ATOM     15  H6  UNL     1       0.859  -0.422   2.427  1.00  0.00     0.210 HD
ENDBRANCH   5  14
BRANCH   1  16
HETATM   16  C2  UNL     1       3.479  -0.190   0.350  1.00  0.00     0.262 C 
BRANCH  16  17
HETATM   17  O1  UNL     1       4.507   0.460  -0.318  1.00  0.00    -0.366 OA
HETATM   18  C1  UNL     1       4.402   1.821  -0.057  1.00  0.00     0.204 C 
ENDBRANCH  16  17
BRANCH  16  19
HETATM   19  O2  UNL     1       4.119  -1.077   1.237  1.00  0.00    -0.371 OA
ATOM     20  H2  UNL     1       3.415  -1.522   1.694  1.00  0.00     0.212 HD
ENDBRANCH  16  19
ENDBRANCH   1  16
TORSDOF 8
