REMARK  10 active torsions:
REMARK  status: ('A' for Active; 'I' for Inactive)
REMARK    1  A    between atoms: C2_2  and  C5_5 
REMARK    2  A    between atoms: C5_5  and  C6_6 
REMARK    3  A    between atoms: C6_6  and  N1_7 
REMARK    4  A    between atoms: N1_7  and  O1_8 
REMARK    5  A    between atoms: N1_7  and  C7_10 
REMARK    6  A    between atoms: C8_11  and  C9_12 
REMARK    7  A    between atoms: C10_14  and  C11_15 
REMARK    8  A    between atoms: C11_15  and  O3_16 
REMARK    9  A    between atoms: C11_15  and  C12_18 
REMARK   10  A    between atoms: C12_18  and  O4_19 
ROOT
HETATM    1  C9  UNL     1      -1.969  -0.477   0.519  1.00  0.00     0.215 C 
HETATM    2  O2  UNL     1      -3.186  -0.730   1.173  1.00  0.00    -0.366 OA
HETATM    3  C10 UNL     1      -4.154  -1.029   0.269  1.00  0.00     0.160 C 
HETATM    4  C13 UNL     1      -3.516  -0.998  -1.127  1.00  0.00     0.116 C 
HETATM    5  C14 UNL     1      -2.123  -1.257  -0.717  1.00  0.00     0.161 C 
HETATM    6  O5  UNL     1      -1.333  -1.944  -1.276  1.00  0.00    -0.295 OA
ENDROOT
BRANCH   1   7
HETATM    7  C8  UNL     1      -0.821  -0.855   1.327  1.00  0.00     0.031 C 
HETATM    8  C7  UNL     1       0.380  -0.372   1.144  1.00  0.00     0.115 C 
BRANCH   8   9
HETATM    9  N1  UNL     1       0.814   0.562   0.189  1.00  0.00    -0.272 N 
BRANCH   9  10
HETATM   10  C6  UNL     1       2.195   1.005   0.229  1.00  0.00     0.155 C 
BRANCH  10  11
HETATM   11  C5  UNL     1       3.024  -0.208  -0.167  1.00  0.00     0.030 C 
BRANCH  11  12
HETATM   12  C2  UNL     1       4.500   0.077  -0.175  1.00  0.00    -0.050 C 
HETATM   13  C1  UNL     1       4.896   1.164  -1.123  1.00  0.00     0.014 C 
HETATM   14  C3  UNL     1       5.184  -1.216  -0.623  1.00  0.00     0.014 C 
HETATM   15  C4  UNL     1       4.963   0.395   1.207  1.00  0.00     0.014 C 
ENDBRANCH  11  12
ENDBRANCH  10  11
ENDBRANCH   9  10
BRANCH   9  16
HETATM   16  O1  UNL     1       0.037   1.073  -0.761  1.00  0.00    -0.288 OA
ATOM     17  H1  UNL     1      -0.867   0.783  -0.787  1.00  0.00     0.244 HD
ENDBRANCH   9  16
ENDBRANCH   8   9
ENDBRANCH   1   7
BRANCH   3  18
HETATM   18  C11 UNL     1      -5.419  -0.244   0.344  1.00  0.00     0.171 C 
BRANCH  18  19
HETATM   19  O3  UNL     1      -6.263  -0.732  -0.682  1.00  0.00    -0.391 OA
ATOM     20  H3  UNL     1      -7.069  -0.232  -0.634  1.00  0.00     0.210 HD
ENDBRANCH  18  19
BRANCH  18  21
HETATM   21  C12 UNL     1      -5.225   1.231   0.172  1.00  0.00     0.198 C 
BRANCH  21  22
HETATM   22  O4  UNL     1      -6.489   1.846   0.248  1.00  0.00    -0.398 OA
ATOM     23  H4  UNL     1      -6.366   2.782   0.139  1.00  0.00     0.209 HD
ENDBRANCH  21  22
ENDBRANCH  18  21
ENDBRANCH   3  18
TORSDOF 10
