REMARK  10 active torsions:
REMARK  status: ('A' for Active; 'I' for Inactive)
REMARK    1  A    between atoms: C2_2  and  C3_3 
REMARK    2  A    between atoms: C3_3  and  C4_4 
REMARK    3  A    between atoms: C3_3  and  C14_19 
REMARK    4  A    between atoms: C4_4  and  O1_5 
REMARK    5  A    between atoms: C4_4  and  C5_7 
REMARK    6  A    between atoms: C7_9  and  O2_10 
REMARK    7  A    between atoms: C9_12  and  O3_13 
REMARK    8  A    between atoms: C11_15  and  O4_16 
REMARK    9  A    between atoms: C14_19  and  O5_20 
REMARK   10  A    between atoms: C14_19  and  O6_22 
ROOT
HETATM    1  C5  UNL     1       0.247   0.260   0.352  1.00  0.00     0.003 A 
HETATM    2  C6  UNL     1      -0.650   0.904   1.233  1.00  0.00     0.054 A 
HETATM    3  C7  UNL     1      -1.997   0.755   1.242  1.00  0.00     0.105 A 
HETATM    4  C9  UNL     1      -2.542  -0.100   0.311  1.00  0.00     0.135 A 
HETATM    5  C11 UNL     1      -1.749  -0.766  -0.583  1.00  0.00     0.105 A 
HETATM    6  C13 UNL     1      -0.354  -0.576  -0.552  1.00  0.00     0.054 A 
ENDROOT
BRANCH   1   7
HETATM    7  C4  UNL     1       1.632   0.587   0.358  1.00  0.00     0.086 C 
BRANCH   7   8
HETATM    8  C3  UNL     1       2.882   0.026   0.030  1.00  0.00     0.026 C 
BRANCH   8   9
HETATM    9  C2  UNL     1       3.249  -1.135  -0.340  1.00  0.00    -0.016 C 
HETATM   10  C1  UNL     1       2.522  -2.366  -0.567  1.00  0.00     0.037 C 
ENDBRANCH   8   9
BRANCH   8  11
HETATM   11  C14 UNL     1       4.090   1.024   0.120  1.00  0.00     0.290 C 
BRANCH  11  12
HETATM   12  O5  UNL     1       3.966   1.991  -0.838  1.00  0.00    -0.367 OA
ATOM     13  H5  UNL     1       4.697   2.595  -0.784  1.00  0.00     0.213 HD
ENDBRANCH  11  12
BRANCH  11  14
HETATM   14  O6  UNL     1       5.247   0.349   0.081  1.00  0.00    -0.367 OA
ATOM     15  H6  UNL     1       5.978   0.953   0.135  1.00  0.00     0.213 HD
ENDBRANCH  11  14
ENDBRANCH   8  11
ENDBRANCH   7   8
BRANCH   7  16
HETATM   16  O1  UNL     1       1.779   1.854   0.843  1.00  0.00    -0.359 OA
ATOM     17  H1  UNL     1       0.936   2.232   1.064  1.00  0.00     0.217 HD
ENDBRANCH   7  16
ENDBRANCH   1   7
BRANCH   3  18
HETATM   18  O2  UNL     1      -2.850   1.404   2.121  1.00  0.00    -0.353 OA
HETATM   19  C8  UNL     1      -2.468   2.297   3.118  1.00  0.00     0.210 C 
ENDBRANCH   3  18
BRANCH   5  20
HETATM   20  O4  UNL     1      -2.271  -1.619  -1.514  1.00  0.00    -0.353 OA
HETATM   21  C12 UNL     1      -1.461  -2.308  -2.436  1.00  0.00     0.210 C 
ENDBRANCH   5  20
BRANCH   4  22
HETATM   22  O3  UNL     1      -3.912  -0.289   0.278  1.00  0.00    -0.351 OA
HETATM   23  C10 UNL     1      -4.734   0.551  -0.536  1.00  0.00     0.210 C 
ENDBRANCH   4  22
TORSDOF 10
