REMARK  12 active torsions:
REMARK  status: ('A' for Active; 'I' for Inactive)
REMARK    1  A    between atoms: C2_2  and  C3_3 
REMARK    2  A    between atoms: C3_3  and  C4_4 
REMARK    3  A    between atoms: C4_4  and  C5_5 
REMARK    4  A    between atoms: C5_5  and  O1_6 
REMARK    5  A    between atoms: C5_5  and  N1_8 
REMARK       I    between atoms: N1_8  and  C6_10 
REMARK    6  A    between atoms: C6_10  and  C7_12 
REMARK    7  A    between atoms: C8_13  and  C9_14 
REMARK    8  A    between atoms: C9_14  and  N2_15 
REMARK    9  A    between atoms: C12_18  and  O3_19 
REMARK   10  A    between atoms: C13_21  and  O4_22 
REMARK   11  A    between atoms: C14_24  and  O5_25 
REMARK   12  A    between atoms: C15_27  and  O6_28 
ROOT
HETATM    1  N2  UNL     1      -2.829   0.359   0.066  1.00  0.00    -0.037 N 
HETATM    2  C10 UNL     1      -2.080  -0.784  -0.448  1.00  0.00     0.276 C 
HETATM    3  C11 UNL     1      -3.912   0.672  -0.816  1.00  0.00     0.274 C 
HETATM    4  C12 UNL     1      -5.014  -0.366  -0.718  1.00  0.00     0.175 C 
HETATM    5  C13 UNL     1      -5.572  -0.227   0.706  1.00  0.00     0.181 C 
HETATM    6  C14 UNL     1      -4.451  -0.629   1.634  1.00  0.00     0.206 C 
HETATM    7  C15 UNL     1      -3.202   0.150   1.428  1.00  0.00     0.355 C 
ENDROOT
BRANCH   1   8
HETATM    8  C9  UNL     1      -1.901   1.499   0.018  1.00  0.00     0.267 C 
BRANCH   8   9
HETATM    9  C8  UNL     1      -0.774   1.246  -0.890  1.00  0.00     0.006 C 
HETATM   10  C7  UNL     1       0.460   1.257  -0.446  1.00  0.00     0.072 C 
BRANCH  10  11
HETATM   11  C6  UNL     1       1.616   1.014  -1.292  1.00  0.00     0.242 C 
HETATM   12  N1  UNL     1       2.907   1.046  -0.723  1.00  0.00    -0.331 N 
ATOM     13  H1  UNL     1       3.008   1.239   0.274  1.00  0.00     0.165 HD
HETATM   14  O2  UNL     1       1.446   0.782  -2.507  1.00  0.00    -0.269 OA
BRANCH  12  15
HETATM   15  C5  UNL     1       4.086   0.813  -1.517  1.00  0.00     0.220 C 
BRANCH  15  16
HETATM   16  C4  UNL     1       4.870  -0.372  -1.059  1.00  0.00     0.053 C 
BRANCH  16  17
HETATM   17  C3  UNL     1       5.418  -0.195   0.343  1.00  0.00     0.004 C 
BRANCH  17  18
HETATM   18  C2  UNL     1       6.207  -1.404   0.785  1.00  0.00    -0.004 C 
HETATM   19  C1  UNL     1       7.376  -1.692  -0.096  1.00  0.00     0.005 C 
ENDBRANCH  17  18
ENDBRANCH  16  17
ENDBRANCH  15  16
BRANCH  15  20
HETATM   20  O1  UNL     1       4.841   1.984  -1.541  1.00  0.00    -0.377 OA
ATOM     21  H1  UNL     1       4.342   2.738  -1.832  1.00  0.00     0.212 HD
ENDBRANCH  15  20
ENDBRANCH  12  15
ENDBRANCH  10  11
ENDBRANCH   8   9
ENDBRANCH   1   8
BRANCH   7  22
HETATM   22  O6  UNL     1      -3.318   1.355   2.150  1.00  0.00    -0.367 OA
ATOM     23  H6  UNL     1      -3.566   1.216   3.056  1.00  0.00     0.212 HD
ENDBRANCH   7  22
BRANCH   4  24
HETATM   24  O3  UNL     1      -6.004  -0.141  -1.648  1.00  0.00    -0.391 OA
ATOM     25  H3  UNL     1      -6.694  -0.791  -1.587  1.00  0.00     0.210 HD
ENDBRANCH   4  24
BRANCH   6  26
HETATM   26  O5  UNL     1      -4.267  -2.011   1.559  1.00  0.00    -0.388 OA
ATOM     27  H5  UNL     1      -3.562  -2.264   2.143  1.00  0.00     0.210 HD
ENDBRANCH   6  26
BRANCH   5  28
HETATM   28  O4  UNL     1      -6.642  -1.067   0.891  1.00  0.00    -0.390 OA
ATOM     29  H4  UNL     1      -6.987  -0.981   1.772  1.00  0.00     0.210 HD
ENDBRANCH   5  28
TORSDOF 12
