REMARK  3 active torsions:
REMARK  status: ('A' for Active; 'I' for Inactive)
REMARK    1  A    between atoms: N1_1  and  N2_4 
REMARK       I    between atoms: N2_4  and  C1_6 
REMARK       I    between atoms: C1_6  and  N3_8 
REMARK    2  A    between atoms: N3_8  and  C2_10 
REMARK    3  A    between atoms: N7_20  and  C6_21 
ROOT
HETATM    1  C2  UNL     1      -0.295  -0.107  -0.310  1.00  0.00     0.155 A 
HETATM    2  N4  UNL     1       0.065  -0.743   0.815  1.00  0.00    -0.282 N 
ATOM      3  H4  UNL     1      -0.536  -1.302   1.421  1.00  0.00     0.188 HD
HETATM    4  N5  UNL     1       1.347  -0.501   0.981  1.00  0.00    -0.281 N 
ATOM      5  H5  UNL     1       1.900  -0.858   1.760  1.00  0.00     0.188 HD
HETATM    6  C3  UNL     1       1.839   0.273   0.000  1.00  0.00     0.161 A 
HETATM    7  C4  UNL     1       0.782   0.551  -0.866  1.00  0.00     0.125 A 
HETATM    8  N6  UNL     1       1.286   1.327  -1.846  1.00  0.00    -0.346 N 
ATOM      9  H6  UNL     1       0.751   1.693  -2.633  1.00  0.00     0.167 HD
HETATM   10  C5  UNL     1       2.597   1.549  -1.637  1.00  0.00     0.193 A 
HETATM   11  N7  UNL     1       2.913   0.907  -0.522  1.00  0.00    -0.268 N 
ENDROOT
BRANCH   1  12
HETATM   12  N3  UNL     1      -1.484  -0.114  -0.796  1.00  0.00    -0.290 N 
HETATM   13  C1  UNL     1      -2.532  -0.825  -0.145  1.00  0.00     0.340 C 
HETATM   14  N2  UNL     1      -3.705  -0.154   0.287  1.00  0.00    -0.258 N 
HETATM   15  O1  UNL     1      -2.420  -2.050   0.049  1.00  0.00    -0.245 OA
ATOM     16  H2  UNL     1      -3.806   0.849   0.133  1.00  0.00     0.191 HD
ATOM     17  H3  UNL     1      -1.680   0.395  -1.658  1.00  0.00     0.172 HD
BRANCH  14  18
HETATM   18  N1  UNL     1      -4.715  -0.867   0.920  1.00  0.00    -0.341 N 
ATOM     19  H12 UNL     1      -4.598  -1.870   1.066  1.00  0.00     0.177 HD
ATOM     20  H11 UNL     1      -5.558  -0.385   1.231  1.00  0.00     0.177 HD
ENDBRANCH  14  18
ENDBRANCH   1  12
BRANCH  11  21
HETATM   21  C6  UNL     1       4.204   0.869   0.076  1.00  0.00     0.362 C 
HETATM   22  O2  UNL     1       4.444   0.242   1.137  1.00  0.00    -0.283 OA
ENDBRANCH  11  21
TORSDOF 3
