REMARK  3 active torsions:
REMARK  status: ('A' for Active; 'I' for Inactive)
REMARK    1  A    between atoms: N3_7  and  C5_8 
REMARK    2  A    between atoms: C5_8  and  C6_9 
REMARK       I    between atoms: C6_9  and  N4_11 
REMARK    3  A    between atoms: N4_11  and  N5_13 
ROOT
HETATM    1  N1  UNL     1      -3.916   0.019   2.208  1.00  0.00    -0.191 NA
HETATM    2  C1  UNL     1      -3.093  -0.013   1.391  1.00  0.00     0.105 C 
HETATM    3  C2  UNL     1      -2.057  -0.048   0.383  1.00  0.00     0.111 A 
HETATM    4  C3  UNL     1      -1.960  -0.868  -0.715  1.00  0.00     0.086 A 
HETATM    5  N2  UNL     1      -2.904  -1.890  -1.059  1.00  0.00    -0.099 NA
HETATM    6  C4  UNL     1      -0.812  -0.530  -1.372  1.00  0.00     0.121 A 
HETATM    7  N3  UNL     1      -0.170   0.465  -0.744  1.00  0.00    -0.334 N 
HETATM    8  C7  UNL     1      -0.923   0.768   0.329  1.00  0.00     0.141 A 
HETATM    9  N6  UNL     1      -0.648   1.781   1.279  1.00  0.00    -0.081 NA
ENDROOT
BRANCH   7  10
HETATM   10  C5  UNL     1       1.117   1.063  -1.129  1.00  0.00     0.234 C 
BRANCH  10  11
HETATM   11  C6  UNL     1       2.239   0.246  -0.616  1.00  0.00     0.253 C 
HETATM   12  O1  UNL     1       2.932  -0.370  -1.492  1.00  0.00    -0.270 OA
HETATM   13  N4  UNL     1       2.598   0.090   0.740  1.00  0.00    -0.275 N 
ATOM     14  H4  UNL     1       2.052   0.574   1.453  1.00  0.00     0.189 HD
BRANCH  13  15
HETATM   15  N5  UNL     1       3.682  -0.710   1.142  1.00  0.00    -0.343 N 
ATOM     16  H52 UNL     1       4.217  -1.187   0.416  1.00  0.00     0.176 HD
ATOM     17  H51 UNL     1       3.941  -0.823   2.122  1.00  0.00     0.176 HD
ENDBRANCH  13  15
ENDBRANCH  10  11
ENDBRANCH   7  10
TORSDOF 3
