REMARK  11 active torsions:
REMARK  status: ('A' for Active; 'I' for Inactive)
REMARK    1  A    between atoms: C3_5  and  C4_6 
REMARK    2  A    between atoms: C8_12  and  C9_13 
REMARK    3  A    between atoms: C10_16  and  N4_17 
REMARK    4  A    between atoms: N4_17  and  C11_19 
REMARK    5  A    between atoms: C11_19  and  C12_20 
REMARK    6  A    between atoms: N6_27  and  C14_29 
REMARK    7  A    between atoms: C14_29  and  C16_31 
REMARK    8  A    between atoms: C22_37  and  O1_38 
REMARK    9  A    between atoms: O1_38  and  C23_39 
REMARK   10  A    between atoms: C26_42  and  O2_43 
REMARK   11  A    between atoms: O2_43  and  C27_44 
ROOT
HETATM    1  C9  UNL     1      -2.022  -0.022   0.328  1.00  0.00     0.115 A 
HETATM    2  N3  UNL     1      -2.492   0.054   1.616  1.00  0.00    -0.187 N 
ATOM      3  H3  UNL     1      -3.217  -0.594   1.923  1.00  0.00     0.184 HD
HETATM    4  C10 UNL     1      -2.007   0.981   2.495  1.00  0.00     0.680 A 
HETATM    5  N5  UNL     1      -1.053   1.845   2.112  1.00  0.00    -0.174 N 
ATOM      6  H5  UNL     1      -0.710   2.528   2.787  1.00  0.00     0.186 HD
HETATM    7  C13 UNL     1      -0.537   1.843   0.882  1.00  0.00     0.154 A 
HETATM    8  N6  UNL     1       0.318   2.584   0.374  1.00  0.00    -0.365 N 
ATOM      9  H6  UNL     1       0.538   2.364  -0.597  1.00  0.00     0.161 HD
HETATM   10  C22 UNL     1      -1.067   0.857  -0.008  1.00  0.00     0.149 A 
ENDROOT
BRANCH   1  11
HETATM   11  C8  UNL     1      -2.583  -1.085  -0.521  1.00  0.00     0.086 A 
HETATM   12  C2  UNL     1      -2.768  -1.187  -1.855  1.00  0.00     0.036 A 
HETATM   13  C1  UNL     1      -2.664  -0.188  -2.939  1.00  0.00     0.070 C 
HETATM   14  N1  UNL     1      -3.200  -2.458  -2.117  1.00  0.00    -0.347 N 
HETATM   15  C3  UNL     1      -3.294  -3.152  -0.985  1.00  0.00     0.089 A 
ATOM     16  H1  UNL     1      -3.418  -2.821  -3.045  1.00  0.00     0.167 HD
HETATM   17  N2  UNL     1      -2.922  -2.322  -0.017  1.00  0.00    -0.342 N 
ATOM     18  H2  UNL     1      -2.891  -2.569   0.972  1.00  0.00     0.167 HD
BRANCH  15  19
HETATM   19  C4  UNL     1      -3.716  -4.588  -0.868  1.00  0.00     0.007 C 
HETATM   20  C5  UNL     1      -3.774  -5.186  -2.258  1.00  0.00     0.022 C 
HETATM   21  C6  UNL     1      -5.053  -4.672  -0.213  1.00  0.00     0.022 C 
HETATM   22  C7  UNL     1      -2.714  -5.316  -0.014  1.00  0.00     0.022 C 
ENDBRANCH  15  19
ENDBRANCH   1  11
BRANCH  10  23
HETATM   23  O1  UNL     1      -0.465   0.893  -1.266  1.00  0.00    -0.305 OA
BRANCH  23  24
HETATM   24  C23 UNL     1       0.824   0.314  -1.279  1.00  0.00     0.076 A 
HETATM   25  C24 UNL     1       1.134  -0.881  -0.701  1.00  0.00     0.040 A 
HETATM   26  C25 UNL     1       2.414  -1.444  -0.714  1.00  0.00     0.039 A 
HETATM   27  C26 UNL     1       3.422  -0.786  -1.329  1.00  0.00     0.069 A 
HETATM   28  C30 UNL     1       3.152   0.433  -1.931  1.00  0.00     0.039 A 
HETATM   29  C31 UNL     1       1.885   0.973  -1.908  1.00  0.00     0.040 A 
BRANCH  27  30
HETATM   30  O2  UNL     1       4.698  -1.302  -1.364  1.00  0.00    -0.347 OA
BRANCH  30  31
HETATM   31  C27 UNL     1       5.167  -2.496  -0.840  1.00  0.00     0.120 C 
HETATM   32  C28 UNL     1       5.866  -3.337  -1.919  1.00  0.00     0.040 C 
HETATM   33  C29 UNL     1       6.164  -2.258   0.294  1.00  0.00     0.040 C 
ENDBRANCH  30  31
ENDBRANCH  27  30
ENDBRANCH  23  24
ENDBRANCH  10  23
BRANCH   4  34
HETATM   34  N4  UNL     1      -2.501   0.949   3.660  1.00  0.00    -0.217 N 
ATOM     35  H4  UNL     1      -3.215   0.246   3.853  1.00  0.00     0.178 HD
BRANCH  34  36
HETATM   36  C11 UNL     1      -2.132   1.822   4.718  1.00  0.00     0.255 C 
BRANCH  36  37
HETATM   37  C12 UNL     1      -1.204   0.998   5.635  1.00  0.00     0.403 C 
HETATM   38  F1  UNL     1      -0.808   1.770   6.676  1.00  0.00    -0.169 F 
HETATM   39  F2  UNL     1      -0.170   0.561   4.839  1.00  0.00    -0.169 F 
HETATM   40  F3  UNL     1      -1.988  -0.071   6.054  1.00  0.00    -0.169 F 
ENDBRANCH  36  37
ENDBRANCH  34  36
ENDBRANCH   4  34
BRANCH   8  41
HETATM   41  C14 UNL     1       1.039   3.674   0.898  1.00  0.00     0.112 C 
HETATM   42  C15 UNL     1       2.490   3.424   1.184  1.00  0.00     0.037 C 
BRANCH  41  43
HETATM   43  C16 UNL     1       0.933   4.872  -0.004  1.00  0.00    -0.036 A 
HETATM   44  C17 UNL     1       1.967   5.406  -0.711  1.00  0.00     0.009 A 
HETATM   45  C18 UNL     1       1.786   6.539  -1.525  1.00  0.00     0.001 A 
HETATM   46  C19 UNL     1       0.558   7.144  -1.630  1.00  0.00     0.000 A 
HETATM   47  C20 UNL     1      -0.489   6.605  -0.913  1.00  0.00     0.001 A 
HETATM   48  C21 UNL     1      -0.293   5.497  -0.125  1.00  0.00     0.009 A 
ENDBRANCH  41  43
ENDBRANCH   8  41
TORSDOF 11
