REMARK  4 active torsions:
REMARK  status: ('A' for Active; 'I' for Inactive)
REMARK    1  A    between atoms: C2_2  and  C3_3 
REMARK    2  A    between atoms: C3_3  and  C4_4 
REMARK       I    between atoms: C4_4  and  N1_6 
REMARK    3  A    between atoms: N1_6  and  C5_8 
REMARK    4  A    between atoms: C5_8  and  C6_9 
ROOT
HETATM    1  C6  UNL     1      -0.614  -0.241  -0.397  1.00  0.00    -0.022 C 
HETATM    2  C7  UNL     1      -0.955   1.091  -0.971  1.00  0.00     0.015 C 
HETATM    3  C8  UNL     1      -2.450   1.285  -0.881  1.00  0.00    -0.012 C 
HETATM    4  C9  UNL     1      -3.221   0.198  -1.574  1.00  0.00     0.009 C 
HETATM    5  C10 UNL     1      -2.903  -1.123  -0.898  1.00  0.00    -0.012 C 
HETATM    6  C11 UNL     1      -3.244  -1.104   0.568  1.00  0.00     0.025 C 
HETATM    7  C12 UNL     1      -2.483   0.039   1.228  1.00  0.00     0.019 C 
HETATM    8 BR1  UNL     1      -2.920   0.023   3.100  1.00  0.00    -0.085 Br
HETATM    9  C13 UNL     1      -2.887   1.323   0.567  1.00  0.00     0.025 C 
HETATM   10  C14 UNL     1      -1.000  -0.199   1.088  1.00  0.00     0.032 C 
HETATM   11  C15 UNL     1      -1.430  -1.363  -1.026  1.00  0.00     0.015 C 
ENDROOT
BRANCH   1  12
HETATM   12  C5  UNL     1       0.819  -0.627  -0.545  1.00  0.00     0.132 C 
BRANCH  12  13
HETATM   13  N1  UNL     1       1.753   0.244   0.067  1.00  0.00    -0.360 N 
HETATM   14  C4  UNL     1       3.138  -0.052  -0.027  1.00  0.00     0.221 C 
HETATM   15  O1  UNL     1       3.551  -1.089  -0.653  1.00  0.00    -0.273 OA
ATOM     16  H1  UNL     1       1.435   1.073   0.569  1.00  0.00     0.162 HD
BRANCH  14  17
HETATM   17  C3  UNL     1       4.181   0.804   0.582  1.00  0.00     0.129 C 
BRANCH  17  18
HETATM   18  C2  UNL     1       5.512   0.240   0.316  1.00  0.00    -0.028 C 
HETATM   19  C1  UNL     1       6.306  -0.113   1.317  1.00  0.00     0.007 C 
ENDBRANCH  17  18
ENDBRANCH  14  17
ENDBRANCH  12  13
ENDBRANCH   1  12
TORSDOF 4
