REMARK  4 active torsions:
REMARK  status: ('A' for Active; 'I' for Inactive)
REMARK    1  A    between atoms: C3_3  and  C4_5 
REMARK    2  A    between atoms: C4_5  and  C5_6 
REMARK    3  A    between atoms: C5_6  and  C6_7 
REMARK    4  A    between atoms: C6_7  and  C8_9 
ROOT
HETATM    1  C4  UNL     1      -1.102   0.215  -0.050  1.00  0.00     0.177 C 
HETATM    2  C11 UNL     1      -1.403   1.655   0.286  1.00  0.00     0.050 C 
HETATM    3  C12 UNL     1      -1.268   2.455  -0.992  1.00  0.00     0.031 C 
HETATM    4  C13 UNL     1      -1.373   1.408  -2.048  1.00  0.00     0.234 C 
HETATM    5  N1  UNL     1      -0.944   0.165  -1.493  1.00  0.00    -0.058 N 
ATOM      6  H11 UNL     1      -1.423  -0.633  -1.910  1.00  0.00     0.278 HD
ATOM      7  H12 UNL     1       0.006  -0.078  -1.772  1.00  0.00     0.278 HD
ENDROOT
BRANCH   1   8
HETATM    8  C3  UNL     1      -2.382  -0.518   0.234  1.00  0.00     0.024 C 
HETATM    9  C2  UNL     1      -2.410  -1.519   1.067  1.00  0.00    -0.013 C 
HETATM   10  C1  UNL     1      -3.692  -2.269   1.365  1.00  0.00     0.037 C 
HETATM   11 BR1  UNL     1      -3.963   0.044  -0.646  1.00  0.00    -0.053 Br
ENDBRANCH   1   8
BRANCH   1  12
HETATM   12  C5  UNL     1      -0.018  -0.375   0.715  1.00  0.00     0.020 C 
BRANCH  12  13
HETATM   13  C6  UNL     1       1.378   0.075   0.672  1.00  0.00    -0.079 C 
HETATM   14  C7  UNL     1       1.702   1.463   1.085  1.00  0.00     0.043 C 
BRANCH  13  15
HETATM   15  C8  UNL     1       2.113  -0.338  -0.594  1.00  0.00     0.037 C 
HETATM   16  C9  UNL     1       3.535   0.110  -0.641  1.00  0.00     0.118 C 
HETATM   17  S1  UNL     1       4.045  -1.202   0.447  1.00  0.00     0.016 S 
HETATM   18  O1  UNL     1       5.477  -1.963  -0.041  1.00  0.00    -0.258 OA
HETATM   19  C10 UNL     1       2.627  -1.786  -0.477  1.00  0.00     0.118 C 
ENDBRANCH  13  15
ENDBRANCH  12  13
ENDBRANCH   1  12
TORSDOF 4
