REMARK  4 active torsions:
REMARK  status: ('A' for Active; 'I' for Inactive)
REMARK    1  A    between atoms: C2_2  and  C4_4 
REMARK    2  A    between atoms: N1_7  and  C7_8 
REMARK    3  A    between atoms: C7_8  and  C8_9 
REMARK       I    between atoms: N2_15  and  C13_16 
REMARK       I    between atoms: C13_16  and  N3_18 
REMARK    4  A    between atoms: N3_18  and  C14_20 
ROOT
HETATM    1  C8  UNL     1      -1.444  -1.044   0.037  1.00  0.00     0.161 C 
HETATM    2  C9  UNL     1      -1.269  -2.491   0.351  1.00  0.00     0.198 C 
HETATM    3  F1  UNL     1      -2.467  -2.855   1.039  1.00  0.00    -0.247 F 
HETATM    4  C10 UNL     1      -1.226  -3.393  -0.860  1.00  0.00     0.041 C 
HETATM    5  C11 UNL     1      -2.117  -2.933  -1.965  1.00  0.00     0.023 C 
HETATM    6  C12 UNL     1      -3.146  -1.934  -1.584  1.00  0.00     0.129 C 
HETATM    7  N2  UNL     1      -2.761  -0.951  -0.623  1.00  0.00    -0.322 N 
HETATM    8  C13 UNL     1      -3.636   0.102  -0.310  1.00  0.00     0.319 C 
HETATM    9  O1  UNL     1      -4.773   0.151  -0.895  1.00  0.00    -0.247 OA
HETATM   10  N3  UNL     1      -3.381   1.140   0.610  1.00  0.00    -0.338 N 
ATOM     11  H3  UNL     1      -2.489   1.152   1.105  1.00  0.00     0.164 HD
ENDROOT
BRANCH   1  12
HETATM   12  C7  UNL     1      -0.407  -0.346  -0.745  1.00  0.00     0.086 C 
BRANCH  12  13
HETATM   13  N1  UNL     1       0.907  -0.217  -0.313  1.00  0.00    -0.391 N 
HETATM   14  C6  UNL     1       1.831  -1.251  -0.254  1.00  0.00     0.122 C 
HETATM   15  C5  UNL     1       2.962  -0.785   0.696  1.00  0.00     0.029 C 
HETATM   16  C4  UNL     1       3.781   0.182  -0.146  1.00  0.00     0.016 C 
HETATM   17  C18 UNL     1       2.886   1.161  -0.870  1.00  0.00     0.029 C 
HETATM   18  C17 UNL     1       1.463   1.108  -0.424  1.00  0.00     0.122 C 
BRANCH  16  19
HETATM   19  C2  UNL     1       4.855   0.844   0.631  1.00  0.00    -0.089 C 
HETATM   20  C1  UNL     1       4.933   0.665   1.931  1.00  0.00     0.014 C 
HETATM   21  C3  UNL     1       5.837   1.709  -0.058  1.00  0.00     0.043 C 
ENDBRANCH  16  19
ENDBRANCH  12  13
ENDBRANCH   1  12
BRANCH  10  22
HETATM   22  C14 UNL     1      -4.340   2.185   0.874  1.00  0.00     0.086 A 
HETATM   23  C15 UNL     1      -4.490   2.683   2.281  1.00  0.00     0.027 A 
HETATM   24  C16 UNL     1      -3.848   3.524   1.225  1.00  0.00     0.027 A 
ENDBRANCH  10  22
TORSDOF 4
