REMARK  4 active torsions:
REMARK  status: ('A' for Active; 'I' for Inactive)
REMARK    1  A    between atoms: C2_2  and  C3_3 
REMARK    2  A    between atoms: C3_3  and  C4_4 
REMARK       I    between atoms: C4_4  and  N1_6 
REMARK    3  A    between atoms: C7_9  and  C8_11 
REMARK       I    between atoms: C8_11  and  N2_13 
REMARK    4  A    between atoms: N2_13  and  C9_15 
ROOT
HETATM    1  C4  UNL     1      -4.182   0.410   0.244  1.00  0.00     0.219 C 
HETATM    2  O1  UNL     1      -4.985   1.127  -0.414  1.00  0.00    -0.273 OA
HETATM    3  N1  UNL     1      -2.865   0.141  -0.216  1.00  0.00    -0.352 N 
HETATM    4  C5  UNL     1      -2.457   0.723  -1.487  1.00  0.00     0.129 C 
HETATM    5  C6  UNL     1      -1.181   1.484  -1.287  1.00  0.00     0.074 C 
HETATM    6  C7  UNL     1      -0.213   0.819  -0.371  1.00  0.00     0.189 C 
HETATM    7  F1  UNL     1      -0.236   1.522   0.837  1.00  0.00    -0.232 F 
HETATM    8  C15 UNL     1      -0.582  -0.606  -0.043  1.00  0.00     0.049 C 
HETATM    9  C16 UNL     1      -0.449  -1.550  -1.179  1.00  0.00     0.015 C 
HETATM   10  C17 UNL     1      -1.971  -0.675   0.547  1.00  0.00     0.133 C 
ENDROOT
BRANCH   6  11
HETATM   11  C8  UNL     1       1.186   0.880  -0.856  1.00  0.00     0.258 C 
HETATM   12  O2  UNL     1       1.496   1.441  -1.933  1.00  0.00    -0.270 OA
HETATM   13  N2  UNL     1       2.208   0.287  -0.081  1.00  0.00    -0.354 N 
ATOM     14  H2  UNL     1       1.981  -0.175   0.799  1.00  0.00     0.163 HD
BRANCH  13  15
HETATM   15  C9  UNL     1       3.566   0.338  -0.538  1.00  0.00     0.084 C 
HETATM   16  C10 UNL     1       4.436   1.102   0.444  1.00  0.00     0.025 C 
HETATM   17  C11 UNL     1       5.885   0.928   0.069  1.00  0.00     0.002 C 
HETATM   18  C12 UNL     1       6.327  -0.513   0.192  1.00  0.00     0.000 C 
HETATM   19  C13 UNL     1       5.075  -1.344   0.389  1.00  0.00     0.002 C 
HETATM   20  C14 UNL     1       4.147  -1.036  -0.771  1.00  0.00     0.025 C 
ENDBRANCH  13  15
ENDBRANCH   6  11
BRANCH   1  21
HETATM   21  C3  UNL     1      -4.630  -0.158   1.519  1.00  0.00     0.103 C 
BRANCH  21  22
HETATM   22  C2  UNL     1      -6.050   0.239   1.834  1.00  0.00     0.005 C 
HETATM   23  C1  UNL     1      -7.013  -0.240   0.763  1.00  0.00     0.005 C 
ENDBRANCH  21  22
ENDBRANCH   1  21
TORSDOF 4
