REMARK  4 active torsions:
REMARK  status: ('A' for Active; 'I' for Inactive)
REMARK    1  A    between atoms: C10_11  and  C11_12 
REMARK    2  A    between atoms: C11_12  and  N1_13 
REMARK       I    between atoms: N1_13  and  C12_15 
REMARK    3  A    between atoms: C12_15  and  C13_17 
REMARK    4  A    between atoms: C13_17  and  N2_18 
ROOT
HETATM    1  C1  UNL     1      -4.742   0.665   0.583  1.00  0.00     0.052 C 
HETATM    2  C2  UNL     1      -3.466  -0.098   0.676  1.00  0.00     0.107 C 
HETATM    3  F1  UNL     1      -3.677  -1.128   1.607  1.00  0.00    -0.243 F 
HETATM    4  C3  UNL     1      -2.306   0.691   1.149  1.00  0.00     0.026 C 
HETATM    5  C4  UNL     1      -2.160   2.066   0.600  1.00  0.00     0.008 C 
HETATM    6  C5  UNL     1      -1.884   2.216  -0.822  1.00  0.00     0.005 C 
HETATM    7  C6  UNL     1      -1.743   0.963  -1.631  1.00  0.00    -0.013 C 
HETATM    8  C7  UNL     1      -3.054   0.196  -1.754  1.00  0.00     0.012 C 
HETATM    9  C8  UNL     1      -3.231  -0.783  -0.647  1.00  0.00     0.027 C 
HETATM   10  C9  UNL     1      -2.090  -1.715  -0.507  1.00  0.00     0.023 C 
HETATM   11  C10 UNL     1      -0.833  -0.892  -0.159  1.00  0.00    -0.007 C 
HETATM   12  C17 UNL     1      -0.585   0.110  -1.281  1.00  0.00     0.019 C 
HETATM   13  C18 UNL     1      -1.019  -0.129   1.076  1.00  0.00     0.022 C 
ENDROOT
BRANCH  11  14
HETATM   14  C11 UNL     1       0.289  -1.851  -0.175  1.00  0.00     0.073 C 
BRANCH  14  15
HETATM   15  N1  UNL     1       1.627  -1.500   0.084  1.00  0.00    -0.338 N 
HETATM   16  C12 UNL     1       2.254  -1.108   1.261  1.00  0.00     0.255 C 
HETATM   17  O1  UNL     1       1.623  -1.042   2.371  1.00  0.00    -0.271 OA
ATOM     18  H1  UNL     1       2.241  -1.540  -0.730  1.00  0.00     0.167 HD
BRANCH  16  19
HETATM   19  C13 UNL     1       3.676  -0.732   1.377  1.00  0.00     0.414 C 
BRANCH  19  20
HETATM   20  N2  UNL     1       4.411  -0.789   0.169  1.00  0.00     0.022 N 
HETATM   21  O2  UNL     1       4.573  -2.043  -0.322  1.00  0.00    -0.064 OA
HETATM   22  C14 UNL     1       5.759  -0.180   0.307  1.00  0.00     0.315 C 
HETATM   23  C15 UNL     1       5.175   1.130  -0.103  1.00  0.00     0.073 C 
HETATM   24  C16 UNL     1       4.158   0.255  -0.805  1.00  0.00     0.315 C 
ENDBRANCH  19  20
ENDBRANCH  16  19
ENDBRANCH  14  15
ENDBRANCH  11  14
TORSDOF 4
