REMARK  9 active torsions:
REMARK  status: ('A' for Active; 'I' for Inactive)
REMARK    1  A    between atoms: N1_2  and  C2_3 
REMARK    2  A    between atoms: N1_2  and  C4_7 
REMARK    3  A    between atoms: C2_3  and  C3_4 
REMARK    4  A    between atoms: C3_4  and  O1_5 
REMARK    5  A    between atoms: C4_7  and  C5_8 
REMARK    6  A    between atoms: C5_8  and  O2_9 
REMARK    7  A    between atoms: O2_9  and  C6_10 
REMARK    8  A    between atoms: N2_15  and  C11_17 
REMARK    9  A    between atoms: C15_22  and  C16_23 
ROOT
HETATM    1  C6  UNL     1      -2.460  -0.456  -0.360  1.00  0.00     0.071 A 
HETATM    2  C7  UNL     1      -1.694  -1.427   0.223  1.00  0.00     0.038 A 
HETATM    3  C8  UNL     1      -0.371  -1.249   0.585  1.00  0.00     0.020 A 
HETATM    4  C9  UNL     1       0.227  -0.025   0.350  1.00  0.00     0.035 A 
HETATM    5  C10 UNL     1       1.539   0.158   0.705  1.00  0.00     0.119 A 
HETATM    6  N2  UNL     1       2.262  -0.790   1.259  1.00  0.00    -0.340 N 
ATOM      7  H2  UNL     1       1.879  -1.715   1.455  1.00  0.00     0.167 HD
HETATM    8  N3  UNL     1       2.080   1.380   0.454  1.00  0.00    -0.338 N 
ATOM      9  H3  UNL     1       3.053   1.561   0.702  1.00  0.00     0.168 HD
HETATM   10  C23 UNL     1       1.345   2.355  -0.119  1.00  0.00     0.182 A 
HETATM   11  N4  UNL     1       0.073   2.166  -0.459  1.00  0.00    -0.351 N 
ATOM     12  H4  UNL     1      -0.454   2.926  -0.890  1.00  0.00     0.166 HD
HETATM   13  C24 UNL     1      -0.529   0.970  -0.237  1.00  0.00     0.049 A 
HETATM   14  C25 UNL     1      -1.844   0.767  -0.587  1.00  0.00     0.067 A 
ENDROOT
BRANCH   6  15
HETATM   15  C11 UNL     1       3.625  -0.449   1.573  1.00  0.00     0.056 A 
HETATM   16  C12 UNL     1       3.964  -0.245   2.888  1.00  0.00     0.033 A 
HETATM   17  C13 UNL     1       5.264   0.105   3.194  1.00  0.00     0.027 A 
HETATM   18  C14 UNL     1       6.229   0.253   2.200  1.00  0.00     0.046 A 
HETATM   19 CL1  UNL     1       7.867   0.700   2.633  1.00  0.00    -0.083 Cl
HETATM   20  C15 UNL     1       5.892   0.049   0.884  1.00  0.00     0.020 A 
HETATM   21  C22 UNL     1       4.599  -0.296   0.617  1.00  0.00     0.073 A 
HETATM   22 CL3  UNL     1       4.164  -0.566  -1.057  1.00  0.00    -0.081 Cl
BRANCH  20  23
HETATM   23  C16 UNL     1       6.869   0.217  -0.213  1.00  0.00    -0.022 A 
HETATM   24  C17 UNL     1       6.875   1.447  -0.884  1.00  0.00     0.014 A 
HETATM   25  C18 UNL     1       7.729   1.726  -1.909  1.00  0.00     0.024 A 
HETATM   26  C19 UNL     1       8.628   0.722  -2.285  1.00  0.00     0.034 A 
HETATM   27 CL2  UNL     1       9.724   1.070  -3.592  1.00  0.00    -0.084 Cl
HETATM   28  C20 UNL     1       8.630  -0.509  -1.621  1.00  0.00     0.024 A 
HETATM   29  C21 UNL     1       7.743  -0.745  -0.585  1.00  0.00     0.014 A 
ENDBRANCH  20  23
ENDBRANCH   6  15
BRANCH   1  30
HETATM   30  O2  UNL     1      -3.763  -0.633  -0.718  1.00  0.00    -0.346 OA
BRANCH  30  31
HETATM   31  C5  UNL     1      -4.465  -1.832  -0.511  1.00  0.00     0.220 C 
BRANCH  31  32
HETATM   32  C4  UNL     1      -5.878  -1.614  -1.077  1.00  0.00     0.089 C 
BRANCH  32  33
HETATM   33  N1  UNL     1      -6.597  -0.585  -0.497  1.00  0.00    -0.374 N 
HETATM   34  C1  UNL     1      -6.157   0.713  -0.737  1.00  0.00     0.154 C 
BRANCH  33  35
HETATM   35  C2  UNL     1      -7.563  -0.793   0.490  1.00  0.00     0.088 C 
BRANCH  35  36
HETATM   36  C3  UNL     1      -8.936  -0.233   0.145  1.00  0.00     0.208 C 
BRANCH  36  37
HETATM   37  O1  UNL     1      -9.837  -0.470   1.164  1.00  0.00    -0.396 OA
ATOM     38  H1  UNL     1     -10.694  -0.121   0.949  1.00  0.00     0.209 HD
ENDBRANCH  36  37
ENDBRANCH  35  36
ENDBRANCH  33  35
ENDBRANCH  32  33
ENDBRANCH  31  32
ENDBRANCH  30  31
ENDBRANCH   1  30
TORSDOF 9
