REMARK  9 active torsions:
REMARK  status: ('A' for Active; 'I' for Inactive)
REMARK    1  A    between atoms: C2_2  and  C3_3 
REMARK    2  A    between atoms: C3_3  and  C6_6 
REMARK    3  A    between atoms: C6_6  and  C7_7 
REMARK    4  A    between atoms: C7_7  and  C8_8 
REMARK    5  A    between atoms: C8_8  and  O1_9 
REMARK    6  A    between atoms: C8_8  and  C9_11 
REMARK    7  A    between atoms: C9_11  and  O2_12 
REMARK    8  A    between atoms: O2_12  and  C10_13 
REMARK    9  A    between atoms: C16_19  and  C17_20 
ROOT
HETATM    1  C9  UNL     1       0.375  -0.686  -0.050  1.00  0.00     0.207 C 
ENDROOT
BRANCH   1   2
HETATM    2  C8  UNL     1       0.891   0.175   1.046  1.00  0.00     0.142 C 
BRANCH   2   3
HETATM    3  C7  UNL     1       2.417  -0.024   1.136  1.00  0.00     0.038 C 
BRANCH   3   4
HETATM    4  C6  UNL     1       3.032   0.525  -0.113  1.00  0.00     0.041 C 
BRANCH   4   5
HETATM    5  C3  UNL     1       4.493   0.420  -0.173  1.00  0.00    -0.063 C 
HETATM    6  C4  UNL     1       5.230   1.540  -0.178  1.00  0.00    -0.024 C 
HETATM    7  C5  UNL     1       6.689   1.461  -0.259  1.00  0.00     0.036 C 
BRANCH   5   8
HETATM    8  C2  UNL     1       5.181  -0.836  -0.250  1.00  0.00    -0.004 C 
HETATM    9  C1  UNL     1       4.586  -1.996  -0.291  1.00  0.00     0.012 C 
ENDBRANCH   5   8
ENDBRANCH   4   5
ENDBRANCH   3   4
ENDBRANCH   2   3
BRANCH   2  10
HETATM   10  O1  UNL     1       0.347  -0.343   2.256  1.00  0.00    -0.393 OA
ATOM     11  H1  UNL     1      -0.593  -0.220   2.201  1.00  0.00     0.210 HD
ENDBRANCH   2  10
ENDBRANCH   1   2
BRANCH   1  12
HETATM   12  O2  UNL     1      -0.990  -0.790  -0.191  1.00  0.00    -0.348 OA
BRANCH  12  13
HETATM   13  C10 UNL     1      -1.970   0.108  -0.470  1.00  0.00     0.075 A 
HETATM   14  C11 UNL     1      -1.732   1.445  -0.702  1.00  0.00     0.038 A 
HETATM   15  C12 UNL     1      -2.794   2.265  -0.975  1.00  0.00     0.009 A 
HETATM   16  C13 UNL     1      -4.081   1.788  -1.024  1.00  0.00    -0.061 A 
HETATM   17  C14 UNL     1      -5.199   2.697  -1.321  1.00  0.00     0.048 C 
HETATM   18  C15 UNL     1      -4.292   0.444  -0.788  1.00  0.00     0.017 A 
HETATM   19  C16 UNL     1      -3.267  -0.425  -0.509  1.00  0.00    -0.021 A 
BRANCH  19  20
HETATM   20  C17 UNL     1      -3.509  -1.869  -0.257  1.00  0.00     0.013 C 
HETATM   21  C18 UNL     1      -4.982  -2.204  -0.364  1.00  0.00     0.015 C 
HETATM   22  C19 UNL     1      -2.933  -2.327   1.051  1.00  0.00     0.015 C 
ENDBRANCH  19  20
ENDBRANCH  12  13
ENDBRANCH   1  12
TORSDOF 9
