REMARK  8 active torsions:
REMARK  status: ('A' for Active; 'I' for Inactive)
REMARK    1  A    between atoms: C2_2  and  C3_3 
REMARK    2  A    between atoms: C3_3  and  C4_4 
REMARK    3  A    between atoms: C4_4  and  C5_5 
REMARK    4  A    between atoms: C5_5  and  C6_6 
REMARK    5  A    between atoms: C6_6  and  C7_7 
REMARK    6  A    between atoms: C6_6  and  C10_10 
REMARK    7  A    between atoms: C7_7  and  C8_8 
REMARK    8  A    between atoms: C11_11  and  O1_12 
ROOT
HETATM    1  C10 UNL     1      -0.828  -0.046  -1.183  1.00  0.00     0.038 A 
HETATM    2  C11 UNL     1      -1.309  -0.464  -2.442  1.00  0.00     0.079 A 
HETATM    3  C12 UNL     1      -2.526  -1.128  -2.584  1.00  0.00     0.045 A 
HETATM    4  C13 UNL     1      -3.304  -1.395  -1.519  1.00  0.00    -0.046 A 
HETATM    5  C14 UNL     1      -4.578  -2.156  -1.624  1.00  0.00     0.049 C 
HETATM    6  C15 UNL     1      -2.855  -0.978  -0.263  1.00  0.00     0.007 A 
HETATM    7  C16 UNL     1      -3.466  -1.090   0.960  1.00  0.00     0.047 A 
HETATM    8  C17 UNL     1      -2.580  -0.476   1.856  1.00  0.00     0.051 A 
HETATM    9  C18 UNL     1      -2.805  -0.335   3.318  1.00  0.00     0.077 C 
HETATM   10  O2  UNL     1      -1.548  -0.055   1.193  1.00  0.00    -0.314 OA
HETATM   11  C19 UNL     1      -1.659  -0.328  -0.108  1.00  0.00     0.100 A 
ENDROOT
BRANCH   1  12
HETATM   12  C6  UNL     1       0.464   0.692  -1.069  1.00  0.00    -0.046 C 
BRANCH  12  13
HETATM   13  C5  UNL     1       1.511  -0.023  -0.343  1.00  0.00    -0.019 C 
BRANCH  13  14
HETATM   14  C4  UNL     1       1.865  -0.137   1.039  1.00  0.00     0.027 C 
BRANCH  14  15
HETATM   15  C3  UNL     1       3.013  -1.189   1.204  1.00  0.00     0.003 C 
BRANCH  15  16
HETATM   16  C2  UNL     1       4.278  -0.824   0.522  1.00  0.00    -0.004 C 
HETATM   17  C1  UNL     1       5.275  -2.009   0.688  1.00  0.00     0.005 C 
ENDBRANCH  15  16
ENDBRANCH  14  15
ENDBRANCH  13  14
ENDBRANCH  12  13
BRANCH  12  18
HETATM   18  C7  UNL     1       0.370   2.178  -0.933  1.00  0.00     0.039 C 
BRANCH  18  19
HETATM   19  C8  UNL     1       0.222   2.788   0.405  1.00  0.00     0.000 C 
HETATM   20  C9  UNL     1       0.129   4.322   0.183  1.00  0.00     0.005 C 
ENDBRANCH  18  19
ENDBRANCH  12  18
ENDBRANCH   1  12
BRANCH   2  21
HETATM   21  O1  UNL     1      -0.645  -0.270  -3.619  1.00  0.00    -0.360 OA
ATOM     22  H1  UNL     1      -0.969  -0.551  -4.467  1.00  0.00     0.217 HD
ENDBRANCH   2  21
TORSDOF 8
