REMARK  0 active torsions:
REMARK  status: ('A' for Active; 'I' for Inactive)
ROOT
HETATM    1  N1  UNL     1       3.178  -1.036  -0.556  1.00  0.00    -0.192 NA
HETATM    2  C1  UNL     1       2.107  -0.689  -0.351  1.00  0.00     0.099 C 
HETATM    3  C2  UNL     1       0.760  -0.266  -0.096  1.00  0.00     0.067 C 
HETATM    4  C3  UNL     1      -0.303  -0.999   0.085  1.00  0.00     0.067 C 
HETATM    5  C4  UNL     1      -1.464  -0.103   0.315  1.00  0.00     0.238 C 
HETATM    6 CL1  UNL     1      -2.684  -0.279  -0.939  1.00  0.00    -0.066 Cl
HETATM    7 CL2  UNL     1      -2.216  -0.532   1.877  1.00  0.00    -0.066 Cl
HETATM    8  O1  UNL     1      -0.961   1.180   0.394  1.00  0.00    -0.322 OA
HETATM    9  C5  UNL     1       0.355   1.162   0.007  1.00  0.00     0.265 C 
HETATM   10 CL3  UNL     1       0.617   1.939  -1.565  1.00  0.00    -0.089 Cl
ENDROOT
TORSDOF 0
