REMARK  4 active torsions:
REMARK  status: ('A' for Active; 'I' for Inactive)
REMARK    1  A    between atoms: C1_2  and  C2_4 
REMARK    2  A    between atoms: C5_13  and  N3_14 
REMARK    3  A    between atoms: N3_14  and  N4_16 
REMARK    4  A    between atoms: N4_16  and  C6_18 
ROOT
HETATM    1  C2  UNL     1      -2.507   0.170   0.294  1.00  0.00     0.147 A 
HETATM    2  N1  UNL     1      -3.723   0.081  -0.267  1.00  0.00    -0.301 N 
ATOM      3  H1  UNL     1      -4.534   0.533   0.156  1.00  0.00     0.171 HD
HETATM    4  C3  UNL     1      -3.836  -0.624  -1.406  1.00  0.00     0.327 A 
HETATM    5  O3  UNL     1      -4.954  -0.740  -1.974  1.00  0.00    -0.247 OA
HETATM    6  N2  UNL     1      -2.777  -1.235  -1.994  1.00  0.00    -0.273 N 
ATOM      7  H2  UNL     1      -2.906  -1.760  -2.859  1.00  0.00     0.173 HD
HETATM    8  C4  UNL     1      -1.559  -1.149  -1.437  1.00  0.00     0.280 A 
HETATM    9  O4  UNL     1      -0.556  -1.704  -1.957  1.00  0.00    -0.265 OA
HETATM   10  C5  UNL     1      -1.410  -0.438  -0.276  1.00  0.00     0.150 A 
ENDROOT
BRANCH  10  11
HETATM   11  N3  UNL     1      -0.099  -0.355   0.301  1.00  0.00    -0.291 N 
ATOM     12  H3  UNL     1       0.192  -1.045   0.993  1.00  0.00     0.187 HD
BRANCH  11  13
HETATM   13  N4  UNL     1       0.783   0.660  -0.074  1.00  0.00    -0.271 N 
ATOM     14  H4  UNL     1       0.420   1.508  -0.509  1.00  0.00     0.190 HD
BRANCH  13  15
HETATM   15  C6  UNL     1       2.179   0.525   0.144  1.00  0.00     0.190 C 
HETATM   16  N5  UNL     1       2.835   0.897   1.191  1.00  0.00    -0.360 N 
HETATM   17  C7  UNL     1       4.245   0.602   1.068  1.00  0.00     0.142 C 
ATOM     18  H5  UNL     1       2.411   1.344   2.004  1.00  0.00     0.162 HD
HETATM   19  C8  UNL     1       4.257  -0.438  -0.034  1.00  0.00     0.142 C 
HETATM   20  N6  UNL     1       3.082  -0.063  -0.798  1.00  0.00    -0.360 N 
ATOM     21  H6  UNL     1       2.931  -0.192  -1.799  1.00  0.00     0.162 HD
ENDBRANCH  13  15
ENDBRANCH  11  13
ENDBRANCH  10  11
BRANCH   1  22
HETATM   22  C1  UNL     1      -2.341   0.914   1.520  1.00  0.00     0.229 C 
HETATM   23  O1  UNL     1      -1.240   1.044   2.113  1.00  0.00    -0.643 OA
HETATM   24  O2  UNL     1      -3.432   1.533   2.107  1.00  0.00    -0.643 OA
ENDBRANCH   1  22
TORSDOF 4
