REMARK  6 active torsions:
REMARK  status: ('A' for Active; 'I' for Inactive)
REMARK    1  A    between atoms: N1_1  and  N2_4 
REMARK    2  A    between atoms: N2_4  and  N3_5 
REMARK    3  A    between atoms: N2_4  and  N4_8 
REMARK       I    between atoms: N4_8  and  C1_10 
REMARK       I    between atoms: C1_10  and  N6_12 
REMARK    4  A    between atoms: N6_12  and  N7_14 
REMARK    5  A    between atoms: N7_14  and  C2_16 
REMARK    6  A    between atoms: C2_16  and  C3_17 
ROOT
HETATM    1  N7  UNL     1      -0.878   0.078   1.674  1.00  0.00    -0.306 N 
ATOM      2  H7  UNL     1      -1.402   0.178   2.543  1.00  0.00     0.186 HD
ENDROOT
BRANCH   1   3
HETATM    3  N6  UNL     1      -1.634   0.192   0.577  1.00  0.00    -0.273 N 
HETATM    4  C1  UNL     1      -2.347   1.217   0.223  1.00  0.00     0.224 C 
HETATM    5  N4  UNL     1      -3.066   1.073  -1.008  1.00  0.00    -0.236 N 
HETATM    6  N5  UNL     1      -2.432   2.408   0.971  1.00  0.00    -0.061 NA
ATOM      7  H4  UNL     1      -2.767   1.550  -1.858  1.00  0.00     0.193 HD
ATOM      8  H6  UNL     1      -1.652  -0.613  -0.049  1.00  0.00     0.189 HD
BRANCH   5   9
HETATM    9  N2  UNL     1      -4.190   0.254  -0.993  1.00  0.00    -0.142 N 
BRANCH   9  10
HETATM   10  N1  UNL     1      -5.318   0.667  -1.338  1.00  0.00    -0.309 N 
ATOM     11  H12 UNL     1      -6.142   0.066  -1.327  1.00  0.00     0.180 HD
ATOM     12  H11 UNL     1      -5.424   1.635  -1.641  1.00  0.00     0.180 HD
ENDBRANCH   9  10
BRANCH   9  13
HETATM   13  N3  UNL     1      -4.044  -1.074  -0.578  1.00  0.00    -0.309 N 
ATOM     14  H32 UNL     1      -4.868  -1.675  -0.567  1.00  0.00     0.180 HD
ATOM     15  H31 UNL     1      -3.123  -1.411  -0.296  1.00  0.00     0.180 HD
ENDBRANCH   9  13
ENDBRANCH   5   9
ENDBRANCH   1   3
BRANCH   1  16
HETATM   16  C2  UNL     1       0.335  -0.125   1.846  1.00  0.00     0.155 C 
BRANCH  16  17
HETATM   17  C3  UNL     1       1.393  -0.316   0.851  1.00  0.00     0.126 A 
HETATM   18  N8  UNL     1       2.676  -0.527   1.280  1.00  0.00    -0.325 N 
HETATM   19  C4  UNL     1       3.716  -0.712   0.490  1.00  0.00     0.140 A 
ATOM     20  H8  UNL     1       2.840  -0.542   2.287  1.00  0.00     0.169 HD
HETATM   21  N9  UNL     1       5.045  -0.934   0.664  1.00  0.00    -0.337 N 
HETATM   22  C6  UNL     1       3.527  -0.697  -0.874  1.00  0.00     0.146 A 
HETATM   23  C5  UNL     1       5.662  -1.053  -0.519  1.00  0.00     0.182 A 
ATOM     24  H9  UNL     1       5.509  -1.001   1.570  1.00  0.00     0.168 HD
HETATM   25  N10 UNL     1       4.721  -0.906  -1.461  1.00  0.00    -0.345 N 
ATOM     26  H10 UNL     1       4.884  -0.946  -2.467  1.00  0.00     0.167 HD
HETATM   27  C7  UNL     1       2.245  -0.487  -1.338  1.00  0.00     0.277 A 
HETATM   28  O1  UNL     1       2.047  -0.469  -2.572  1.00  0.00    -0.265 OA
HETATM   29  N11 UNL     1       1.207  -0.301  -0.465  1.00  0.00    -0.306 N 
ATOM     30  H11 UNL     1       0.268  -0.147  -0.833  1.00  0.00     0.170 HD
ENDBRANCH  16  17
ENDBRANCH   1  16
TORSDOF 6
