REMARK  4 active torsions:
REMARK  status: ('A' for Active; 'I' for Inactive)
REMARK    1  A    between atoms: C2_2  and  C3_3 
REMARK    2  A    between atoms: C4_4  and  C5_5 
REMARK    3  A    between atoms: C7_7  and  O1_8 
REMARK    4  A    between atoms: C8_10  and  O2_11 
ROOT
HETATM    1  C5  UNL     1       0.389  -0.293   0.420  1.00  0.00     0.036 A 
HETATM    2  C6  UNL     1       0.441  -1.472   1.126  1.00  0.00     0.056 A 
HETATM    3  C7  UNL     1       1.628  -2.188   1.279  1.00  0.00     0.102 A 
HETATM    4  C8  UNL     1       2.745  -1.670   0.698  1.00  0.00     0.135 A 
HETATM    5  C9  UNL     1       2.714  -0.461  -0.029  1.00  0.00     0.139 A 
HETATM    6  C10 UNL     1       1.538   0.216  -0.161  1.00  0.00     0.118 A 
HETATM    7  O3  UNL     1       1.537   1.402  -0.882  1.00  0.00    -0.345 OA
HETATM    8  C11 UNL     1       2.671   2.053  -1.378  1.00  0.00     0.202 C 
HETATM    9  C12 UNL     1       3.963   1.339  -1.177  1.00  0.00     0.202 C 
HETATM   10  O4  UNL     1       3.858   0.053  -0.613  1.00  0.00    -0.343 OA
ENDROOT
BRANCH   1  11
HETATM   11  C4  UNL     1      -0.836   0.438   0.208  1.00  0.00     0.085 C 
HETATM   12  C3  UNL     1      -1.969  -0.055  -0.221  1.00  0.00    -0.043 C 
HETATM   13  C15 UNL     1      -2.940   1.101  -0.275  1.00  0.00     0.069 C 
HETATM   14  C13 UNL     1      -2.309   2.137   0.638  1.00  0.00     0.129 C 
HETATM   15  O5  UNL     1      -0.935   1.813   0.455  1.00  0.00    -0.345 OA
HETATM   16  C14 UNL     1      -2.689   1.933   2.069  1.00  0.00     0.040 C 
BRANCH  12  17
HETATM   17  C2  UNL     1      -2.320  -1.427  -0.599  1.00  0.00     0.033 C 
HETATM   18  C1  UNL     1      -2.770  -1.508  -2.046  1.00  0.00     0.010 C 
ENDBRANCH  12  17
ENDBRANCH   1  11
BRANCH   3  19
HETATM   19  O1  UNL     1       1.676  -3.365   1.984  1.00  0.00    -0.358 OA
ATOM     20  H1  UNL     1       2.485  -3.853   2.088  1.00  0.00     0.217 HD
ENDBRANCH   3  19
BRANCH   4  21
HETATM   21  O2  UNL     1       3.985  -2.255   0.760  1.00  0.00    -0.356 OA
ATOM     22  H2  UNL     1       4.764  -1.894   0.355  1.00  0.00     0.218 HD
ENDBRANCH   4  21
TORSDOF 4
