REMARK  7 active torsions:
REMARK  status: ('A' for Active; 'I' for Inactive)
REMARK    1  A    between atoms: C2_2  and  O1_3 
REMARK    2  A    between atoms: O1_3  and  C3_4 
REMARK    3  A    between atoms: C3_4  and  C4_6 
REMARK    4  A    between atoms: C4_6  and  O3_8 
REMARK    5  A    between atoms: C4_6  and  C6_10 
REMARK    6  A    between atoms: C6_10  and  C7_11 
REMARK    7  A    between atoms: C9_13  and  N1_14 
ROOT
HETATM    1  C6  UNL     1      -0.194  -0.645  -1.047  1.00  0.00     0.080 C 
ENDROOT
BRANCH   1   2
HETATM    2  C4  UNL     1       0.744  -0.448   0.085  1.00  0.00     0.144 C 
HETATM    3  C5  UNL     1       0.455  -1.500   1.167  1.00  0.00     0.057 C 
BRANCH   2   4
HETATM    4  C3  UNL     1       2.145  -0.699  -0.350  1.00  0.00     0.293 C 
HETATM    5  O2  UNL     1       2.377  -1.782  -0.945  1.00  0.00    -0.262 OA
BRANCH   4   6
HETATM    6  O1  UNL     1       3.189   0.172  -0.144  1.00  0.00    -0.320 OA
BRANCH   6   7
HETATM    7  C2  UNL     1       4.519  -0.081  -0.564  1.00  0.00     0.174 C 
HETATM    8  C1  UNL     1       5.355   1.108  -0.152  1.00  0.00     0.034 C 
ENDBRANCH   6   7
ENDBRANCH   4   6
ENDBRANCH   2   4
BRANCH   2   9
HETATM    9  O3  UNL     1       0.706   0.765   0.701  1.00  0.00    -0.380 OA
ATOM     10  H3  UNL     1      -0.188   0.925   0.979  1.00  0.00     0.211 HD
ENDBRANCH   2   9
ENDBRANCH   1   2
BRANCH   1  11
HETATM   11  C7  UNL     1      -1.625  -0.442  -0.810  1.00  0.00     0.126 C 
HETATM   12  C8  UNL     1      -2.085   0.893  -0.353  1.00  0.00     0.067 C 
HETATM   13  C9  UNL     1      -3.575   0.545  -0.205  1.00  0.00     0.209 C 
HETATM   14  C10 UNL     1      -3.412  -0.796   0.488  1.00  0.00     0.201 C 
HETATM   15  O4  UNL     1      -2.166  -1.277   0.176  1.00  0.00    -0.384 OA
BRANCH  13  16
HETATM   16  N1  UNL     1      -4.253   1.476   0.642  1.00  0.00    -0.073 N 
ATOM     17  H13 UNL     1      -3.797   1.553   1.551  1.00  0.00     0.274 HD
ATOM     18  H12 UNL     1      -4.125   2.435   0.318  1.00  0.00     0.274 HD
ATOM     19  H11 UNL     1      -5.242   1.245   0.740  1.00  0.00     0.274 HD
ENDBRANCH  13  16
ENDBRANCH   1  11
TORSDOF 7
