REMARK  4 active torsions:
REMARK  status: ('A' for Active; 'I' for Inactive)
REMARK    1  A    between atoms: C8_9  and  O2_10 
REMARK    2  A    between atoms: C9_12  and  C10_13 
REMARK    3  A    between atoms: C10_13  and  C11_14 
REMARK    4  A    between atoms: C11_14  and  O3_15 
ROOT
HETATM    1  C1  UNL     1       5.212  -0.352   0.235  1.00  0.00     0.049 C 
HETATM    2  C2  UNL     1       3.764  -0.001   0.306  1.00  0.00    -0.053 A 
HETATM    3  C3  UNL     1       3.377   1.009   1.172  1.00  0.00     0.008 A 
HETATM    4  C4  UNL     1       2.058   1.397   1.298  1.00  0.00     0.018 A 
HETATM    5  C5  UNL     1       1.113   0.752   0.535  1.00  0.00     0.035 A 
HETATM    6  C6  UNL     1       1.484  -0.262  -0.337  1.00  0.00     0.096 A 
HETATM    7  O1  UNL     1       0.374  -0.680  -0.920  1.00  0.00    -0.303 OA
HETATM    8  C7  UNL     1      -0.672  -0.007  -0.483  1.00  0.00     0.144 A 
HETATM    9  C8  UNL     1      -2.027  -0.067  -0.778  1.00  0.00     0.115 A 
HETATM   10  C9  UNL     1      -2.892   0.789  -0.139  1.00  0.00     0.055 A 
HETATM   11  C12 UNL     1      -2.401   1.688   0.779  1.00  0.00     0.297 A 
HETATM   12  O4  UNL     1      -3.230   2.453   1.341  1.00  0.00    -0.259 OA
HETATM   13  O5  UNL     1      -1.097   1.736   1.055  1.00  0.00    -0.271 OA
HETATM   14  C13 UNL     1      -0.270   0.923   0.448  1.00  0.00     0.129 A 
HETATM   15  C14 UNL     1       2.811  -0.640  -0.453  1.00  0.00    -0.021 A 
HETATM   16  C15 UNL     1       3.203  -1.725  -1.387  1.00  0.00     0.052 C 
ENDROOT
BRANCH  10  17
HETATM   17  C10 UNL     1      -4.340   0.751  -0.434  1.00  0.00     0.074 C 
BRANCH  17  18
HETATM   18  C11 UNL     1      -5.019  -0.436   0.224  1.00  0.00     0.169 C 
BRANCH  18  19
HETATM   19  O3  UNL     1      -4.881  -0.396   1.608  1.00  0.00    -0.401 OA
ATOM     20  H3  UNL     1      -5.306  -1.139   2.020  1.00  0.00     0.209 HD
ENDBRANCH  18  19
ENDBRANCH  17  18
ENDBRANCH  10  17
BRANCH   9  21
HETATM   21  O2  UNL     1      -2.486  -0.983  -1.706  1.00  0.00    -0.357 OA
ATOM     22  H2  UNL     1      -3.413  -1.024  -1.908  1.00  0.00     0.217 HD
ENDBRANCH   9  21
TORSDOF 4
