REMARK  7 active torsions:
REMARK  status: ('A' for Active; 'I' for Inactive)
REMARK    1  A    between atoms: C5_6  and  C6_7 
REMARK    2  A    between atoms: C6_7  and  O2_8 
REMARK    3  A    between atoms: O2_8  and  C7_9 
REMARK    4  A    between atoms: C7_9  and  C8_10 
REMARK    5  A    between atoms: C8_10  and  O3_12 
REMARK    6  A    between atoms: C8_10  and  C10_14 
REMARK    7  A    between atoms: C10_14  and  N1_15 
ROOT
HETATM    1  C7  UNL     1       1.387   0.482   1.036  1.00  0.00     0.206 C 
ENDROOT
BRANCH   1   2
HETATM    2  O2  UNL     1       0.150   0.279   0.561  1.00  0.00    -0.386 OA
BRANCH   2   3
HETATM    3  C6  UNL     1      -0.215  -0.986   0.290  1.00  0.00     0.201 C 
BRANCH   3   4
HETATM    4  C5  UNL     1      -1.699  -1.002  -0.128  1.00  0.00     0.169 C 
HETATM    5  C4  UNL     1      -1.921  -0.291  -1.420  1.00  0.00     0.201 C 
HETATM    6  O1  UNL     1      -2.358   1.016  -1.266  1.00  0.00    -0.386 OA
HETATM    7  C3  UNL     1      -3.450   1.148  -0.449  1.00  0.00     0.199 C 
HETATM    8  C2  UNL     1      -3.706  -0.140   0.288  1.00  0.00     0.141 C 
HETATM    9  C1  UNL     1      -4.829  -0.070   1.262  1.00  0.00     0.042 C 
HETATM   10  O4  UNL     1      -2.499  -0.504   0.901  1.00  0.00    -0.375 OA
ENDBRANCH   3   4
ENDBRANCH   2   3
ENDBRANCH   1   2
BRANCH   1  11
HETATM   11  C8  UNL     1       2.486   0.032   0.134  1.00  0.00     0.099 C 
HETATM   12  C9  UNL     1       2.255   0.681  -1.233  1.00  0.00     0.050 C 
BRANCH  11  13
HETATM   13  O3  UNL     1       2.465  -1.333  -0.049  1.00  0.00    -0.386 OA
ATOM     14  H3  UNL     1       3.165  -1.620  -0.624  1.00  0.00     0.210 HD
ENDBRANCH  11  13
BRANCH  11  15
HETATM   15  C10 UNL     1       3.843   0.485   0.681  1.00  0.00     0.269 C 
BRANCH  15  16
HETATM   16  N1  UNL     1       4.908   0.142  -0.223  1.00  0.00    -0.076 N 
ATOM     17  H13 UNL     1       4.906  -0.854  -0.444  1.00  0.00     0.274 HD
ATOM     18  H12 UNL     1       4.739   0.510  -1.159  1.00  0.00     0.274 HD
ATOM     19  H11 UNL     1       5.812   0.444   0.141  1.00  0.00     0.274 HD
ENDBRANCH  15  16
ENDBRANCH  11  15
ENDBRANCH   1  11
TORSDOF 7
