REMARK  6 active torsions:
REMARK  status: ('A' for Active; 'I' for Inactive)
REMARK    1  A    between atoms: C2_2  and  C3_3 
REMARK    2  A    between atoms: C3_3  and  N1_4 
REMARK    3  A    between atoms: C3_3  and  C4_8 
REMARK    4  A    between atoms: C4_8  and  C5_9 
REMARK    5  A    between atoms: C5_9  and  O1_10 
REMARK    6  A    between atoms: C5_9  and  C6_12 
ROOT
HETATM    1  C5  UNL     1       0.308  -0.540  -0.748  1.00  0.00     0.164 C 
ENDROOT
BRANCH   1   2
HETATM    2  C4  UNL     1      -0.707   0.314  -0.033  1.00  0.00     0.068 C 
BRANCH   2   3
HETATM    3  C3  UNL     1      -2.111   0.099  -0.515  1.00  0.00     0.185 C 
BRANCH   3   4
HETATM    4  C2  UNL     1      -3.000   1.037   0.309  1.00  0.00     0.028 C 
HETATM    5  C1  UNL     1      -4.425   1.007  -0.145  1.00  0.00     0.007 C 
ENDBRANCH   3   4
BRANCH   3   6
HETATM    6  N1  UNL     1      -2.572  -1.252  -0.406  1.00  0.00    -0.075 N 
ATOM      7  H13 UNL     1      -2.641  -1.552   0.566  1.00  0.00     0.274 HD
ATOM      8  H12 UNL     1      -3.555  -1.339  -0.662  1.00  0.00     0.274 HD
ATOM      9  H11 UNL     1      -1.980  -1.876  -0.954  1.00  0.00     0.274 HD
ENDBRANCH   3   6
ENDBRANCH   2   3
ENDBRANCH   1   2
BRANCH   1  10
HETATM   10  O1  UNL     1      -0.025  -1.875  -0.536  1.00  0.00    -0.392 OA
ATOM     11  H1  UNL     1       0.615  -2.413  -0.987  1.00  0.00     0.210 HD
ENDBRANCH   1  10
BRANCH   1  12
HETATM   12  C6  UNL     1       1.664  -0.291  -0.152  1.00  0.00     0.170 C 
HETATM   13  C7  UNL     1       1.679  -0.666   1.290  1.00  0.00     0.060 C 
HETATM   14  O2  UNL     1       1.972   1.047  -0.372  1.00  0.00    -0.365 OA
HETATM   15  C8  UNL     1       3.178   1.448   0.128  1.00  0.00     0.196 C 
HETATM   16  C9  UNL     1       4.214   0.397   0.302  1.00  0.00     0.205 C 
HETATM   17  O3  UNL     1       4.039  -0.742  -0.518  1.00  0.00    -0.317 OA
HETATM   18  C10 UNL     1       2.731  -1.069  -0.846  1.00  0.00     0.296 C 
HETATM   19  O4  UNL     1       2.412  -1.961  -1.673  1.00  0.00    -0.262 OA
ENDBRANCH   1  12
TORSDOF 6
