REMARK  4 active torsions:
REMARK  status: ('A' for Active; 'I' for Inactive)
REMARK    1  A    between atoms: O1_2  and  C2_3 
REMARK    2  A    between atoms: C6_7  and  O2_8 
REMARK    3  A    between atoms: C11_14  and  C12_15 
REMARK    4  A    between atoms: C12_15  and  O3_17 
ROOT
HETATM    1  C2  UNL     1      -1.023   0.968   0.035  1.00  0.00     0.077 A 
HETATM    2  C3  UNL     1       0.254   1.482   0.032  1.00  0.00     0.049 A 
HETATM    3  C4  UNL     1       1.366   0.638   0.054  1.00  0.00    -0.021 A 
HETATM    4  C5  UNL     1       2.663   1.140   0.049  1.00  0.00     0.049 A 
HETATM    5  C6  UNL     1       3.724   0.263   0.069  1.00  0.00     0.066 A 
HETATM    6  C7  UNL     1       3.502  -1.095   0.094  1.00  0.00     0.037 A 
HETATM    7  C8  UNL     1       2.233  -1.585   0.099  1.00  0.00     0.015 A 
HETATM    8  C9  UNL     1       1.173  -0.727   0.079  1.00  0.00    -0.025 A 
HETATM    9  C10 UNL     1      -0.139  -1.223   0.081  1.00  0.00     0.025 A 
HETATM   10  C11 UNL     1      -1.226  -0.415   0.059  1.00  0.00     0.004 A 
ENDROOT
BRANCH  10  11
HETATM   11  C12 UNL     1      -2.611  -0.917   0.045  1.00  0.00     0.150 C 
HETATM   12  C13 UNL     1      -2.729  -2.378   0.378  1.00  0.00     0.044 C 
BRANCH  11  13
HETATM   13  O3  UNL     1      -3.086  -0.784  -1.293  1.00  0.00    -0.391 OA
ATOM     14  H3  UNL     1      -3.979  -1.108  -1.302  1.00  0.00     0.210 HD
ENDBRANCH  11  13
ENDBRANCH  10  11
BRANCH   1  15
HETATM   15  O1  UNL     1      -2.128   1.788   0.014  1.00  0.00    -0.355 OA
HETATM   16  C1  UNL     1      -2.026   3.190  -0.005  1.00  0.00     0.210 C 
ENDBRANCH   1  15
BRANCH   5  17
HETATM   17  O2  UNL     1       5.013   0.754   0.061  1.00  0.00    -0.361 OA
ATOM     18  H2  UNL     1       5.745   0.149   0.075  1.00  0.00     0.217 HD
ENDBRANCH   5  17
TORSDOF 4
