REMARK  4 active torsions:
REMARK  status: ('A' for Active; 'I' for Inactive)
REMARK    1  A    between atoms: O1_2  and  C2_3 
REMARK    2  A    between atoms: C2_3  and  C3_5 
REMARK    3  A    between atoms: C5_7  and  C6_8 
REMARK    4  A    between atoms: C13_15  and  O3_16 
ROOT
HETATM    1  C3  UNL     1       1.580  -0.702   0.391  1.00  0.00     0.073 A 
HETATM    2  C4  UNL     1       0.386  -0.034   0.048  1.00  0.00     0.032 A 
HETATM    3  C5  UNL     1      -0.843  -0.616   0.136  1.00  0.00    -0.025 A 
HETATM    4  C11 UNL     1      -0.875  -1.917   0.583  1.00  0.00     0.015 A 
HETATM    5  C12 UNL     1       0.231  -2.623   0.931  1.00  0.00     0.038 A 
HETATM    6  C13 UNL     1       1.489  -1.997   0.831  1.00  0.00     0.082 A 
ENDROOT
BRANCH   3   7
HETATM    7  C6  UNL     1      -2.069   0.090  -0.223  1.00  0.00    -0.030 A 
HETATM    8  C7  UNL     1      -2.144   1.334  -0.661  1.00  0.00    -0.011 A 
HETATM    9  C8  UNL     1      -3.560   1.664  -0.907  1.00  0.00     0.055 A 
HETATM   10  C9  UNL     1      -4.302   0.437  -0.552  1.00  0.00    -0.022 A 
HETATM   11  C10 UNL     1      -3.418  -0.456  -0.160  1.00  0.00     0.008 A 
ENDBRANCH   3   7
BRANCH   1  12
HETATM   12  C2  UNL     1       2.828   0.050   0.247  1.00  0.00     0.295 C 
HETATM   13  O2  UNL     1       3.934  -0.421   0.513  1.00  0.00    -0.259 OA
BRANCH  12  14
HETATM   14  O1  UNL     1       2.754   1.384  -0.222  1.00  0.00    -0.322 OA
HETATM   15  C1  UNL     1       3.976   2.081  -0.350  1.00  0.00     0.213 C 
ENDBRANCH  12  14
ENDBRANCH   1  12
BRANCH   6  16
HETATM   16  O3  UNL     1       2.608  -2.702   1.180  1.00  0.00    -0.360 OA
ATOM     17  H3  UNL     1       2.545  -3.600   1.485  1.00  0.00     0.217 HD
ENDBRANCH   6  16
TORSDOF 4
