REMARK  3 active torsions:
REMARK  status: ('A' for Active; 'I' for Inactive)
REMARK    1  A    between atoms: O1_2  and  C2_3 
REMARK    2  A    between atoms: C8_9  and  C9_10 
REMARK    3  A    between atoms: C12_14  and  O3_15 
ROOT
HETATM    1  C2  UNL     1      -0.891   0.560  -0.280  1.00  0.00     0.079 A 
HETATM    2  C3  UNL     1      -2.255   0.234  -0.193  1.00  0.00     0.044 A 
HETATM    3  C4  UNL     1      -2.710  -0.958   0.302  1.00  0.00    -0.059 A 
HETATM    4  C5  UNL     1      -4.159  -1.271   0.381  1.00  0.00     0.048 C 
HETATM    5  C6  UNL     1      -1.745  -1.837   0.717  1.00  0.00     0.008 A 
HETATM    6  C7  UNL     1      -0.405  -1.536   0.638  1.00  0.00     0.015 A 
HETATM    7  C8  UNL     1       0.071  -0.312   0.130  1.00  0.00     0.007 A 
ENDROOT
BRANCH   7   8
HETATM    8  C9  UNL     1       1.521  -0.109   0.025  1.00  0.00    -0.020 A 
HETATM    9  C10 UNL     1       2.065   0.826  -0.693  1.00  0.00     0.012 A 
HETATM   10  C11 UNL     1       3.556   1.069  -0.823  1.00  0.00     0.206 A 
HETATM   11  O2  UNL     1       4.300   0.203  -0.035  1.00  0.00    -0.327 OA
HETATM   12  C12 UNL     1       3.737  -0.777   0.720  1.00  0.00     0.179 A 
HETATM   13  C13 UNL     1       2.430  -0.976   0.791  1.00  0.00     0.075 A 
BRANCH  12  14
HETATM   14  O3  UNL     1       4.586  -1.623   1.465  1.00  0.00    -0.341 OA
ATOM     15  H3  UNL     1       4.192  -2.308   1.993  1.00  0.00     0.220 HD
ENDBRANCH  12  14
ENDBRANCH   7   8
BRANCH   1  16
HETATM   16  O1  UNL     1      -0.555   1.805  -0.795  1.00  0.00    -0.355 OA
HETATM   17  C1  UNL     1      -1.513   2.735  -1.230  1.00  0.00     0.210 C 
ENDBRANCH   1  16
TORSDOF 3
