REMARK  5 active torsions:
REMARK  status: ('A' for Active; 'I' for Inactive)
REMARK    1  A    between atoms: C5_5  and  C6_6 
REMARK    2  A    between atoms: C9_9  and  C10_10 
REMARK    3  A    between atoms: C10_10  and  O1_11 
REMARK    4  A    between atoms: C12_15  and  C13_16 
REMARK    5  A    between atoms: C13_16  and  O3_17 
ROOT
HETATM    1  C1  UNL     1      -4.185  -0.991   0.095  1.00  0.00     0.049 C 
HETATM    2  C2  UNL     1      -2.704  -0.854   0.058  1.00  0.00    -0.054 A 
HETATM    3  C3  UNL     1      -1.939  -2.000   0.120  1.00  0.00     0.008 A 
HETATM    4  C4  UNL     1      -0.567  -1.860   0.085  1.00  0.00     0.015 A 
HETATM    5  C5  UNL     1       0.073  -0.644  -0.008  1.00  0.00    -0.002 A 
HETATM    6  C11 UNL     1      -0.748   0.473  -0.067  1.00  0.00     0.024 A 
HETATM    7  C12 UNL     1      -2.128   0.382  -0.035  1.00  0.00    -0.028 A 
ENDROOT
BRANCH   5   8
HETATM    8  C6  UNL     1       1.526  -0.526  -0.043  1.00  0.00     0.086 A 
HETATM    9  C7  UNL     1       2.426  -1.566   0.009  1.00  0.00     0.040 A 
HETATM   10  C8  UNL     1       3.687  -1.030  -0.051  1.00  0.00     0.038 A 
HETATM   11  C9  UNL     1       3.503   0.337  -0.138  1.00  0.00     0.077 A 
HETATM   12  O2  UNL     1       2.228   0.575  -0.130  1.00  0.00    -0.312 OA
BRANCH  11  13
HETATM   13  C10 UNL     1       4.632   1.302  -0.224  1.00  0.00     0.229 C 
BRANCH  13  14
HETATM   14  O1  UNL     1       5.034   1.712   1.068  1.00  0.00    -0.394 OA
ATOM     15  H1  UNL     1       5.755   2.328   1.013  1.00  0.00     0.209 HD
ENDBRANCH  13  14
ENDBRANCH  11  13
ENDBRANCH   5   8
BRANCH   7  16
HETATM   16  C13 UNL     1      -3.006   1.572  -0.098  1.00  0.00     0.203 C 
BRANCH  16  17
HETATM   17  O3  UNL     1      -2.249   2.750  -0.191  1.00  0.00    -0.396 OA
ATOM     18  H3  UNL     1      -2.813   3.514  -0.231  1.00  0.00     0.209 HD
ENDBRANCH  16  17
ENDBRANCH   7  16
TORSDOF 5
