REMARK  11 active torsions:
REMARK  status: ('A' for Active; 'I' for Inactive)
REMARK    1  A    between atoms: C2_2  and  C3_3 
REMARK    2  A    between atoms: C3_3  and  C4_4 
REMARK    3  A    between atoms: C4_4  and  C5_5 
REMARK    4  A    between atoms: C6_6  and  C7_7 
REMARK    5  A    between atoms: C9_9  and  O1_10 
REMARK    6  A    between atoms: O1_10  and  C10_11 
REMARK    7  A    between atoms: C11_13  and  C12_14 
REMARK    8  A    between atoms: C13_16  and  O3_17 
REMARK    9  A    between atoms: C14_19  and  O4_20 
REMARK   10  A    between atoms: C15_22  and  O5_23 
REMARK   11  A    between atoms: C17_26  and  N1_27 
ROOT
HETATM    1  C7  UNL     1       0.519   1.585   0.801  1.00  0.00     0.022 A 
HETATM    2  C8  UNL     1       1.484   0.576   0.692  1.00  0.00     0.057 A 
HETATM    3  C9  UNL     1       1.088  -0.699   0.356  1.00  0.00     0.075 A 
HETATM    4  C16 UNL     1      -0.263  -0.951   0.132  1.00  0.00     0.066 A 
HETATM    5  C17 UNL     1      -1.237   0.018   0.232  1.00  0.00     0.034 A 
HETATM    6  C26 UNL     1      -0.816   1.287   0.570  1.00  0.00     0.050 A 
ENDROOT
BRANCH   3   7
HETATM    7  O1  UNL     1       1.964  -1.756   0.225  1.00  0.00    -0.318 OA
BRANCH   7   8
HETATM    8  C10 UNL     1       3.336  -1.743   0.396  1.00  0.00     0.298 C 
HETATM    9  O2  UNL     1       3.923  -2.100  -0.817  1.00  0.00    -0.349 OA
HETATM   10  C11 UNL     1       3.852  -3.475  -1.038  1.00  0.00     0.169 C 
HETATM   11  C13 UNL     1       4.786  -4.230  -0.105  1.00  0.00     0.179 C 
HETATM   12  C14 UNL     1       5.015  -3.372   1.145  1.00  0.00     0.183 C 
HETATM   13  C15 UNL     1       3.679  -2.745   1.486  1.00  0.00     0.205 C 
BRANCH  10  14
HETATM   14  C12 UNL     1       4.295  -3.751  -2.448  1.00  0.00     0.149 C 
HETATM   15 CL1  UNL     1       4.212  -5.501  -2.751  1.00  0.00    -0.128 Cl
ENDBRANCH  10  14
BRANCH  11  16
HETATM   16  O3  UNL     1       6.021  -4.337  -0.742  1.00  0.00    -0.390 OA
ATOM     17  H3  UNL     1       6.604  -4.809  -0.159  1.00  0.00     0.210 HD
ENDBRANCH  11  16
BRANCH  12  18
HETATM   18  O4  UNL     1       5.954  -2.390   0.931  1.00  0.00    -0.390 OA
ATOM     19  H4  UNL     1       6.096  -1.858   1.705  1.00  0.00     0.210 HD
ENDBRANCH  12  18
BRANCH  13  20
HETATM   20  O5  UNL     1       2.679  -3.693   1.543  1.00  0.00    -0.388 OA
ATOM     21  H5  UNL     1       2.893  -4.319   2.224  1.00  0.00     0.210 HD
ENDBRANCH  13  20
ENDBRANCH   7   8
ENDBRANCH   3   7
BRANCH   1  22
HETATM   22  C6  UNL     1       0.926   2.917   1.151  1.00  0.00    -0.067 C 
HETATM   23  C5  UNL     1       1.279   4.047   1.429  1.00  0.00    -0.101 C 
BRANCH  23  24
HETATM   24  C4  UNL     1       1.704   5.414   1.766  1.00  0.00     0.094 C 
BRANCH  24  25
HETATM   25  C3  UNL     1       1.894   6.143   0.452  1.00  0.00     0.012 C 
BRANCH  25  26
HETATM   26  C2  UNL     1       2.934   5.489  -0.412  1.00  0.00    -0.004 C 
HETATM   27  C1  UNL     1       3.027   6.314  -1.693  1.00  0.00     0.005 C 
ENDBRANCH  25  26
ENDBRANCH  24  25
ENDBRANCH  23  24
ENDBRANCH   1  22
BRANCH   5  28
HETATM   28  N1  UNL     1      -2.627  -0.234   0.017  1.00  0.00    -0.379 N 
HETATM   29  C18 UNL     1      -3.466   0.916  -0.184  1.00  0.00     0.151 C 
HETATM   30  C19 UNL     1      -4.669   0.677  -1.048  1.00  0.00     0.256 C 
HETATM   31  N2  UNL     1      -5.670  -0.164  -0.488  1.00  0.00    -0.069 N 
HETATM   32  C20 UNL     1      -6.863   0.603  -0.226  1.00  0.00     0.272 C 
HETATM   33  C21 UNL     1      -6.028  -1.276  -1.350  1.00  0.00     0.237 C 
HETATM   34  C25 UNL     1      -5.262  -0.791   0.756  1.00  0.00     0.243 C 
HETATM   35  C22 UNL     1      -5.110  -2.413  -0.962  1.00  0.00     0.036 C 
HETATM   36  C23 UNL     1      -4.416  -1.939   0.279  1.00  0.00     0.031 C 
HETATM   37  C24 UNL     1      -2.984  -1.622   0.044  1.00  0.00     0.129 C 
ENDBRANCH   5  28
TORSDOF 11
