REMARK  8 active torsions:
REMARK  status: ('A' for Active; 'I' for Inactive)
REMARK    1  A    between atoms: N1_3  and  C4_5 
REMARK    2  A    between atoms: C4_5  and  C5_6 
REMARK    3  A    between atoms: C5_6  and  N2_7 
REMARK    4  A    between atoms: N2_7  and  C6_9 
REMARK    5  A    between atoms: C8_15  and  C9_16 
REMARK    6  A    between atoms: C11_18  and  N5_19 
REMARK    7  A    between atoms: N5_19  and  C12_21 
REMARK    8  A    between atoms: N7_28  and  C16_30 
ROOT
HETATM    1  C1  UNL     1       5.839   2.436   0.851  1.00  0.00     0.123 C 
HETATM    2  C2  UNL     1       6.686   1.569   0.685  1.00  0.00    -0.078 C 
HETATM    3  N1  UNL     1       7.640   0.585   0.465  1.00  0.00    -0.355 N 
HETATM    4  C3  UNL     1       9.045   0.895   0.702  1.00  0.00     0.159 C 
ENDROOT
BRANCH   3   5
HETATM    5  C4  UNL     1       7.331  -0.730  -0.013  1.00  0.00     0.151 C 
BRANCH   5   6
HETATM    6  C5  UNL     1       5.878  -1.024  -0.125  1.00  0.00     0.142 C 
BRANCH   6   7
HETATM    7  N2  UNL     1       5.148  -0.154  -0.985  1.00  0.00    -0.369 N 
ATOM      8  H2  UNL     1       5.623   0.571  -1.523  1.00  0.00     0.161 HD
BRANCH   7   9
HETATM    9  C6  UNL     1       3.850  -0.310  -1.067  1.00  0.00     0.146 A 
HETATM   10  N3  UNL     1       3.088  -1.195  -0.443  1.00  0.00    -0.322 N 
HETATM   11  C7  UNL     1       1.787  -1.162  -0.664  1.00  0.00     0.125 A 
ATOM     12  H3  UNL     1       3.495  -1.883   0.191  1.00  0.00     0.169 HD
HETATM   13  N4  UNL     1       0.838  -1.984  -0.122  1.00  0.00    -0.343 N 
HETATM   14  C20 UNL     1       1.308  -0.217  -1.524  1.00  0.00     0.054 A 
HETATM   15  C8  UNL     1      -0.457  -1.907  -0.381  1.00  0.00     0.037 A 
ATOM     16  H4  UNL     1       1.150  -2.706   0.527  1.00  0.00     0.167 HD
HETATM   17  C11 UNL     1      -0.989  -0.963  -1.245  1.00  0.00     0.058 A 
HETATM   18  C19 UNL     1      -0.063  -0.115  -1.813  1.00  0.00     0.054 A 
HETATM   19  S1  UNL     1       2.738   0.593  -1.985  1.00  0.00    -0.051 SA
BRANCH  15  20
HETATM   20  C9  UNL     1      -1.414  -2.869   0.303  1.00  0.00     0.055 C 
HETATM   21  C10 UNL     1      -0.892  -3.182   1.675  1.00  0.00     0.011 C 
ENDBRANCH  15  20
BRANCH  17  22
HETATM   22  N5  UNL     1      -2.342  -0.885  -1.543  1.00  0.00    -0.340 N 
ATOM     23  H5  UNL     1      -2.735  -1.494  -2.261  1.00  0.00     0.167 HD
BRANCH  22  24
HETATM   24  C12 UNL     1      -3.113  -0.049  -0.922  1.00  0.00     0.124 A 
HETATM   25  C13 UNL     1      -2.652   0.803   0.055  1.00  0.00     0.087 A 
HETATM   26  C14 UNL     1      -3.495   1.695   0.716  1.00  0.00     0.099 A 
HETATM   27 BR1  UNL     1      -2.797   2.845   2.053  1.00  0.00    -0.031 Br
HETATM   28  N6  UNL     1      -4.798   1.705   0.373  1.00  0.00    -0.185 N 
HETATM   29  C15 UNL     1      -5.285   0.886  -0.579  1.00  0.00     0.680 A 
ATOM     30  H6  UNL     1      -5.432   2.349   0.846  1.00  0.00     0.185 HD
HETATM   31  N7  UNL     1      -6.499   0.836  -0.935  1.00  0.00    -0.221 N 
HETATM   32  N8  UNL     1      -4.426   0.025  -1.208  1.00  0.00    -0.177 N 
ATOM     33  H7  UNL     1      -6.694   0.156  -1.670  1.00  0.00     0.178 HD
ATOM     34  H8  UNL     1      -4.800  -0.591  -1.930  1.00  0.00     0.186 HD
BRANCH  31  35
HETATM   35  C16 UNL     1      -7.636   1.559  -0.491  1.00  0.00     0.099 A 
HETATM   36  C17 UNL     1      -8.875   1.382  -1.348  1.00  0.00     0.028 A 
HETATM   37  C18 UNL     1      -8.201   2.755  -1.171  1.00  0.00     0.028 A 
ENDBRANCH  31  35
ENDBRANCH  22  24
ENDBRANCH  17  22
ENDBRANCH   7   9
ENDBRANCH   6   7
ENDBRANCH   5   6
ENDBRANCH   3   5
TORSDOF 8
