REMARK  6 active torsions:
REMARK  status: ('A' for Active; 'I' for Inactive)
REMARK    1  A    between atoms: C5_6  and  C6_7 
REMARK    2  A    between atoms: C6_7  and  N2_8 
REMARK    3  A    between atoms: N3_11  and  C9_12 
REMARK    4  A    between atoms: C9_12  and  C10_13 
REMARK    5  A    between atoms: C17_25  and  N6_26 
REMARK    6  A    between atoms: C18_28  and  C19_29 
ROOT
HETATM    1  N1  UNL     1      -3.955   3.630  -0.148  1.00  0.00    -0.191 NA
HETATM    2  C1  UNL     1      -3.086   2.942  -0.463  1.00  0.00     0.103 C 
HETATM    3  C2  UNL     1      -1.986   2.091  -0.903  1.00  0.00     0.088 A 
HETATM    4  C3  UNL     1      -1.433   2.331  -2.152  1.00  0.00     0.028 A 
HETATM    5  C4  UNL     1      -0.398   1.542  -2.582  1.00  0.00     0.028 A 
HETATM    6  C5  UNL     1       0.103   0.518  -1.802  1.00  0.00     0.028 A 
HETATM    7  N5  UNL     1      -0.428   0.295  -0.615  1.00  0.00    -0.343 N 
ATOM      8  H5  UNL     1      -0.058  -0.461  -0.039  1.00  0.00     0.167 HD
HETATM    9  C17 UNL     1      -1.486   1.070  -0.126  1.00  0.00     0.126 A 
ENDROOT
BRANCH   9  10
HETATM   10  N6  UNL     1      -1.924   0.789   1.003  1.00  0.00    -0.350 N 
HETATM   11  C18 UNL     1      -2.832   1.104   1.963  1.00  0.00     0.101 C 
ATOM     12  H6  UNL     1      -1.379  -0.000   1.350  1.00  0.00     0.166 HD
BRANCH  11  13
HETATM   13  C19 UNL     1      -4.185   0.479   1.820  1.00  0.00    -0.020 A 
HETATM   14  C20 UNL     1      -5.237   0.816   2.635  1.00  0.00     0.013 A 
HETATM   15  C21 UNL     1      -6.496   0.221   2.490  1.00  0.00     0.010 A 
HETATM   16  C22 UNL     1      -6.660  -0.720   1.502  1.00  0.00    -0.035 A 
HETATM   17  C23 UNL     1      -5.618  -1.078   0.668  1.00  0.00    -0.048 A 
HETATM   18  C27 UNL     1      -7.952  -1.410   1.263  1.00  0.00     0.153 C 
HETATM   19  C24 UNL     1      -4.397  -0.470   0.843  1.00  0.00     0.020 A 
HETATM   20  C25 UNL     1      -5.904  -2.103  -0.362  1.00  0.00     0.058 C 
HETATM   21  C26 UNL     1      -7.216  -1.725  -1.024  1.00  0.00     0.118 C 
HETATM   22  N7  UNL     1      -8.301  -1.553  -0.113  1.00  0.00    -0.417 N 
ATOM     23  H7  UNL     1      -9.271  -1.533  -0.428  1.00  0.00     0.153 HD
ENDBRANCH  11  13
ENDBRANCH   9  10
BRANCH   6  24
HETATM   24  C6  UNL     1       1.221  -0.310  -2.308  1.00  0.00     0.179 C 
BRANCH  24  25
HETATM   25  N2  UNL     1       2.442   0.339  -1.994  1.00  0.00    -0.378 N 
HETATM   26  C7  UNL     1       2.718   0.558  -0.638  1.00  0.00     0.103 C 
HETATM   27  C8  UNL     1       4.123   0.781  -0.219  1.00  0.00     0.112 C 
HETATM   28  N3  UNL     1       5.088   0.418  -1.168  1.00  0.00    -0.343 N 
HETATM   29  C15 UNL     1       4.788   0.831  -2.478  1.00  0.00     0.088 C 
HETATM   30  C16 UNL     1       3.506   0.160  -2.904  1.00  0.00     0.167 C 
BRANCH  28  31
HETATM   31  C9  UNL     1       5.939  -0.662  -0.952  1.00  0.00     0.110 C 
BRANCH  31  32
HETATM   32  C10 UNL     1       6.896  -0.568   0.178  1.00  0.00     0.017 A 
HETATM   33  C11 UNL     1       7.036   0.514   1.008  1.00  0.00     0.102 A 
HETATM   34  N4  UNL     1       7.935   0.535   2.007  1.00  0.00    -0.374 N 
HETATM   35  C12 UNL     1       8.745  -0.510   2.242  1.00  0.00     0.089 A 
ATOM     36  H4  UNL     1       8.003   1.363   2.599  1.00  0.00     0.164 HD
HETATM   37  C13 UNL     1       8.651  -1.626   1.439  1.00  0.00     0.042 A 
HETATM   38  C14 UNL     1       7.739  -1.659   0.419  1.00  0.00     0.048 A 
HETATM   39 CL1  UNL     1       7.600  -3.078  -0.625  1.00  0.00    -0.083 Cl
ENDBRANCH  31  32
ENDBRANCH  28  31
ENDBRANCH  24  25
ENDBRANCH   6  24
TORSDOF 6
