REMARK  10 active torsions:
REMARK  status: ('A' for Active; 'I' for Inactive)
REMARK    1  A    between atoms: N1_1  and  C1_5 
REMARK    2  A    between atoms: C1_5  and  C2_6 
REMARK    3  A    between atoms: C2_6  and  C3_7 
REMARK    4  A    between atoms: C3_7  and  C4_8 
REMARK    5  A    between atoms: C4_8  and  C5_9 
REMARK    6  A    between atoms: C5_9  and  C6_10 
REMARK    7  A    between atoms: C6_10  and  C7_11 
REMARK    8  A    between atoms: C7_11  and  C8_12 
REMARK    9  A    between atoms: C8_12  and  C9_13 
REMARK   10  A    between atoms: C9_13  and  C10_14 
ROOT
HETATM    1  C5  UNL     1       2.012   0.661  -0.181  1.00  0.00     0.000 C 
ENDROOT
BRANCH   1   2
HETATM    2  C4  UNL     1       2.681   0.111   1.029  1.00  0.00     0.000 C 
BRANCH   2   3
HETATM    3  C3  UNL     1       4.188   0.040   0.793  1.00  0.00     0.002 C 
BRANCH   3   4
HETATM    4  C2  UNL     1       4.552  -0.835  -0.366  1.00  0.00     0.027 C 
BRANCH   4   5
HETATM    5  C1  UNL     1       6.072  -0.813  -0.480  1.00  0.00     0.229 C 
BRANCH   5   6
HETATM    6  N1  UNL     1       6.480   0.557  -0.702  1.00  0.00    -0.079 N 
ATOM      7  H13 UNL     1       6.017   0.982  -1.505  1.00  0.00     0.274 HD
ATOM      8  H12 UNL     1       6.128   1.195   0.011  1.00  0.00     0.274 HD
ATOM      9  H11 UNL     1       7.497   0.572  -0.778  1.00  0.00     0.274 HD
ENDBRANCH   5   6
ENDBRANCH   4   5
ENDBRANCH   3   4
ENDBRANCH   2   3
ENDBRANCH   1   2
BRANCH   1  10
HETATM   10  C6  UNL     1       0.519   0.763   0.038  1.00  0.00     0.000 C 
BRANCH  10  11
HETATM   11  C7  UNL     1      -0.094  -0.557   0.317  1.00  0.00     0.000 C 
BRANCH  11  12
HETATM   12  C8  UNL     1      -1.582  -0.407   0.529  1.00  0.00     0.000 C 
BRANCH  12  13
HETATM   13  C9  UNL     1      -2.227   0.149  -0.681  1.00  0.00     0.004 C 
BRANCH  13  14
HETATM   14  C10 UNL     1      -3.720   0.288  -0.535  1.00  0.00    -0.014 C 
HETATM   15  C11 UNL     1      -4.428  -1.021  -0.266  1.00  0.00     0.004 C 
HETATM   16  C12 UNL     1      -5.840  -0.533  -0.019  1.00  0.00     0.000 C 
HETATM   17  C13 UNL     1      -5.637   0.728   0.769  1.00  0.00     0.000 C 
HETATM   18  C14 UNL     1      -4.152   1.076   0.677  1.00  0.00     0.004 C 
ENDBRANCH  13  14
ENDBRANCH  12  13
ENDBRANCH  11  12
ENDBRANCH  10  11
ENDBRANCH   1  10
TORSDOF 10
