REMARK  8 active torsions:
REMARK  status: ('A' for Active; 'I' for Inactive)
REMARK    1  A    between atoms: C2_2  and  C3_3 
REMARK    2  A    between atoms: C3_3  and  C4_4 
REMARK    3  A    between atoms: C4_4  and  C5_5 
REMARK    4  A    between atoms: C5_5  and  C6_6 
REMARK    5  A    between atoms: C6_6  and  C7_7 
REMARK    6  A    between atoms: C7_7  and  N1_9 
REMARK    7  A    between atoms: N1_9  and  C10_11 
REMARK    8  A    between atoms: C10_11  and  C11_12 
ROOT
HETATM    1  N1  UNL     1      -1.642  -0.710   0.418  1.00  0.00     0.092 N 
HETATM    2  C9  UNL     1      -2.483  -1.865   0.163  1.00  0.00     0.310 C 
ENDROOT
BRANCH   1   3
HETATM    3  C7  UNL     1      -0.245  -1.019   0.064  1.00  0.00     0.219 C 
HETATM    4  C8  UNL     1      -0.015  -2.505   0.154  1.00  0.00     0.043 C 
BRANCH   3   5
HETATM    5  C6  UNL     1       0.618  -0.242   1.019  1.00  0.00     0.035 C 
BRANCH   5   6
HETATM    6  C5  UNL     1       2.080  -0.441   0.816  1.00  0.00     0.002 C 
BRANCH   6   7
HETATM    7  C4  UNL     1       2.493  -0.039  -0.570  1.00  0.00     0.000 C 
BRANCH   7   8
HETATM    8  C3  UNL     1       3.969  -0.229  -0.823  1.00  0.00    -0.000 C 
BRANCH   8   9
HETATM    9  C2  UNL     1       4.769   0.607   0.113  1.00  0.00    -0.005 C 
HETATM   10  C1  UNL     1       4.500   2.073  -0.027  1.00  0.00     0.005 C 
ENDBRANCH   8   9
ENDBRANCH   7   8
ENDBRANCH   6   7
ENDBRANCH   5   6
ENDBRANCH   3   5
ENDBRANCH   1   3
BRANCH   1  11
HETATM   11  C10 UNL     1      -2.026   0.430  -0.373  1.00  0.00     0.312 C 
BRANCH  11  12
HETATM   12  C11 UNL     1      -3.398   0.882  -0.115  1.00  0.00    -0.013 A 
HETATM   13  C12 UNL     1      -4.273   1.379  -1.048  1.00  0.00     0.027 A 
HETATM   14  C13 UNL     1      -5.456   1.694  -0.402  1.00  0.00     0.088 A 
HETATM   15  N2  UNL     1      -5.275   1.387   0.879  1.00  0.00    -0.375 N 
HETATM   16  C14 UNL     1      -4.049   0.897   1.084  1.00  0.00     0.096 A 
ATOM     17  H2  UNL     1      -5.978   1.509   1.608  1.00  0.00     0.164 HD
ENDBRANCH  11  12
ENDBRANCH   1  11
TORSDOF 8
