REMARK  8 active torsions:
REMARK  status: ('A' for Active; 'I' for Inactive)
REMARK    1  A    between atoms: O1_2  and  C2_3 
REMARK    2  A    between atoms: C2_3  and  C3_4 
REMARK    3  A    between atoms: C3_4  and  O2_5 
REMARK    4  A    between atoms: C3_4  and  C4_7 
REMARK    5  A    between atoms: C4_7  and  O3_8 
REMARK    6  A    between atoms: O3_8  and  C5_9 
REMARK    7  A    between atoms: C9_13  and  O4_14 
REMARK    8  A    between atoms: C11_16  and  O5_17 
ROOT
HETATM    1  C5  UNL     1       0.819  -0.271   0.205  1.00  0.00     0.105 A 
HETATM    2  C6  UNL     1       0.274   0.644  -0.658  1.00  0.00     0.049 A 
HETATM    3  C7  UNL     1      -1.109   0.787  -0.739  1.00  0.00    -0.026 A 
HETATM    4  C8  UNL     1      -1.969   0.013   0.047  1.00  0.00     0.075 A 
HETATM    5  C9  UNL     1      -1.432  -0.900   0.904  1.00  0.00     0.131 A 
HETATM    6  C11 UNL     1      -0.075  -1.042   0.986  1.00  0.00     0.137 A 
HETATM    7  N1  UNL     1      -3.374   0.230  -0.025  1.00  0.00    -0.349 N 
HETATM    8  C13 UNL     1      -4.442   0.116   0.875  1.00  0.00     0.153 C 
HETATM    9  C14 UNL     1      -5.652   0.268  -0.080  1.00  0.00     0.254 C 
HETATM   10  N2  UNL     1      -5.203   1.128  -1.125  1.00  0.00    -0.053 N 
ATOM     11  H21 UNL     1      -5.328   2.122  -0.933  1.00  0.00     0.279 HD
ATOM     12  H22 UNL     1      -5.781   1.104  -1.965  1.00  0.00     0.279 HD
HETATM   13  C15 UNL     1      -3.837   0.736  -1.338  1.00  0.00     0.287 C 
HETATM   14  C16 UNL     1      -3.050   2.018  -1.639  1.00  0.00     0.059 C 
HETATM   15  C17 UNL     1      -1.601   1.774  -1.708  1.00  0.00     0.044 C 
ENDROOT
BRANCH   1  16
HETATM   16  O3  UNL     1       2.148  -0.466   0.347  1.00  0.00    -0.346 OA
BRANCH  16  17
HETATM   17  C4  UNL     1       3.339  -0.050  -0.057  1.00  0.00     0.209 C 
BRANCH  17  18
HETATM   18  C3  UNL     1       3.837   1.324   0.221  1.00  0.00     0.166 C 
BRANCH  18  19
HETATM   19  C2  UNL     1       5.253   1.385  -0.390  1.00  0.00     0.200 C 
BRANCH  19  20
HETATM   20  O1  UNL     1       5.988   0.297   0.089  1.00  0.00    -0.393 OA
HETATM   21  C1  UNL     1       7.260   0.377  -0.478  1.00  0.00     0.201 C 
ENDBRANCH  19  20
ENDBRANCH  18  19
BRANCH  18  22
HETATM   22  O2  UNL     1       3.149   2.385  -0.259  1.00  0.00    -0.391 OA
ATOM     23  H2  UNL     1       2.277   2.347   0.117  1.00  0.00     0.210 HD
ENDBRANCH  18  22
ENDBRANCH  17  18
ENDBRANCH  16  17
ENDBRANCH   1  16
BRANCH   6  24
HETATM   24  O5  UNL     1       0.484  -1.966   1.857  1.00  0.00    -0.351 OA
HETATM   25  C12 UNL     1       0.777  -3.293   1.540  1.00  0.00     0.210 C 
ENDBRANCH   6  24
BRANCH   5  26
HETATM   26  O4  UNL     1      -2.279  -1.691   1.688  1.00  0.00    -0.351 OA
HETATM   27  C10 UNL     1      -2.655  -3.004   1.189  1.00  0.00     0.210 C 
ENDBRANCH   5  26
TORSDOF 8
