REMARK  7 active torsions:
REMARK  status: ('A' for Active; 'I' for Inactive)
REMARK    1  A    between atoms: C2_2  and  C3_3 
REMARK    2  A    between atoms: C3_3  and  O1_4 
REMARK    3  A    between atoms: C3_3  and  C4_6 
REMARK    4  A    between atoms: C4_6  and  N1_7 
REMARK    5  A    between atoms: N2_11  and  C8_12 
REMARK    6  A    between atoms: C12_16  and  C13_17 
REMARK    7  A    between atoms: C13_17  and  N3_18 
ROOT
HETATM    1  N1  UNL     1      -2.015  -0.125  -0.435  1.00  0.00     0.092 N 
HETATM    2  C5  UNL     1      -1.507   1.083   0.089  1.00  0.00     0.277 C 
HETATM    3  C6  UNL     1      -0.577   0.896   1.264  1.00  0.00     0.074 C 
HETATM    4  C7  UNL     1       0.803   0.409   0.891  1.00  0.00     0.060 C 
HETATM    5  N2  UNL     1       1.060   0.281  -0.465  1.00  0.00    -0.387 N 
HETATM    6  C15 UNL     1       0.267  -0.675  -1.182  1.00  0.00     0.152 C 
HETATM    7  C16 UNL     1      -0.963  -1.111  -0.454  1.00  0.00     0.292 C 
ENDROOT
BRANCH   5   8
HETATM    8  C8  UNL     1       2.056   0.929  -1.159  1.00  0.00     0.089 C 
HETATM    9  C9  UNL     1       2.008   2.445  -1.167  1.00  0.00     0.026 C 
HETATM   10  C10 UNL     1       3.150   2.905  -0.301  1.00  0.00     0.002 C 
HETATM   11  C11 UNL     1       3.973   1.692   0.064  1.00  0.00     0.008 C 
HETATM   12  C12 UNL     1       3.490   0.680  -0.942  1.00  0.00     0.034 C 
BRANCH  12  13
HETATM   13  C13 UNL     1       3.980  -0.694  -0.792  1.00  0.00     0.238 C 
BRANCH  13  14
HETATM   14  N3  UNL     1       3.502  -1.498   0.260  1.00  0.00    -0.079 N 
HETATM   15  C14 UNL     1       4.147  -2.809   0.192  1.00  0.00     0.267 C 
ATOM     16  H32 UNL     1       3.620  -1.055   1.171  1.00  0.00     0.276 HD
ATOM     17  H31 UNL     1       2.484  -1.566   0.264  1.00  0.00     0.276 HD
ENDBRANCH  13  14
ENDBRANCH  12  13
ENDBRANCH   5   8
BRANCH   1  18
HETATM   18  C4  UNL     1      -3.220  -0.658   0.052  1.00  0.00     0.303 C 
BRANCH  18  19
HETATM   19  C3  UNL     1      -4.475   0.071  -0.266  1.00  0.00     0.146 C 
BRANCH  19  20
HETATM   20  C2  UNL     1      -5.708  -0.653   0.277  1.00  0.00     0.029 C 
HETATM   21  C1  UNL     1      -5.787  -2.081  -0.139  1.00  0.00     0.007 C 
ENDBRANCH  19  20
BRANCH  19  22
HETATM   22  O1  UNL     1      -4.562   1.368   0.208  1.00  0.00    -0.394 OA
ATOM     23  H1  UNL     1      -3.796   1.818  -0.129  1.00  0.00     0.210 HD
ENDBRANCH  19  22
ENDBRANCH  18  19
ENDBRANCH   1  18
TORSDOF 7
