REMARK  7 active torsions:
REMARK  status: ('A' for Active; 'I' for Inactive)
REMARK    1  A    between atoms: N2_3  and  C2_4 
REMARK    2  A    between atoms: C2_4  and  C3_5 
REMARK    3  A    between atoms: C9_11  and  C10_12 
REMARK    4  A    between atoms: C10_12  and  N3_13 
REMARK    5  A    between atoms: N3_13  and  C11_15 
REMARK    6  A    between atoms: C11_15  and  C12_16 
REMARK    7  A    between atoms: C12_16  and  O1_17 
ROOT
HETATM    1  C1  UNL     1       1.099  -2.945   0.059  1.00  0.00     0.137 C 
HETATM    2  N1  UNL     1       0.214  -2.177   0.946  1.00  0.00    -0.224 NA
HETATM    3  N2  UNL     1       0.265  -0.859   0.578  1.00  0.00    -0.318 N 
HETATM    4  C9  UNL     1      -0.946  -0.470  -0.056  1.00  0.00     0.121 C 
HETATM    5  C13 UNL     1      -1.521  -1.802  -0.499  1.00  0.00     0.055 C 
HETATM    6  C14 UNL     1      -1.114  -2.673   0.664  1.00  0.00     0.034 A 
HETATM    7  C15 UNL     1      -2.052  -3.148   1.668  1.00  0.00     0.029 A 
HETATM    8  C16 UNL     1      -1.399  -4.125   0.693  1.00  0.00     0.029 A 
ENDROOT
BRANCH   3   9
HETATM    9  C2  UNL     1       1.019   0.044   1.312  1.00  0.00     0.083 C 
BRANCH   9  10
HETATM   10  C3  UNL     1       1.741   1.127   0.501  1.00  0.00     0.025 C 
HETATM   11  C4  UNL     1       2.505   2.041   1.445  1.00  0.00     0.010 C 
HETATM   12  C5  UNL     1       3.168   3.102   0.584  1.00  0.00     0.001 C 
HETATM   13  C6  UNL     1       4.331   2.401  -0.073  1.00  0.00     0.000 C 
HETATM   14  C7  UNL     1       3.903   1.216  -0.847  1.00  0.00     0.001 C 
HETATM   15  C8  UNL     1       2.734   0.450  -0.408  1.00  0.00     0.010 C 
ENDBRANCH   9  10
ENDBRANCH   3   9
BRANCH   4  16
HETATM   16  C10 UNL     1      -1.962   0.164   0.843  1.00  0.00     0.140 C 
BRANCH  16  17
HETATM   17  N3  UNL     1      -3.139   0.480   0.112  1.00  0.00    -0.417 N 
ATOM     18  H3  UNL     1      -4.023  -0.005   0.264  1.00  0.00     0.153 HD
BRANCH  17  19
HETATM   19  C11 UNL     1      -2.998   1.515  -0.842  1.00  0.00     0.139 C 
BRANCH  19  20
HETATM   20  C12 UNL     1      -4.336   1.735  -1.559  1.00  0.00     0.183 C 
BRANCH  20  21
HETATM   21  O1  UNL     1      -5.325   2.084  -0.662  1.00  0.00    -0.399 OA
ATOM     22  H1  UNL     1      -6.154   2.220  -1.106  1.00  0.00     0.209 HD
ENDBRANCH  20  21
ENDBRANCH  19  20
ENDBRANCH  17  19
ENDBRANCH  16  17
ENDBRANCH   4  16
TORSDOF 7
