REMARK  9 active torsions:
REMARK  status: ('A' for Active; 'I' for Inactive)
REMARK    1  A    between atoms: C2_3  and  N2_4 
REMARK    2  A    between atoms: N2_4  and  C3_6 
REMARK    3  A    between atoms: C4_9  and  N4_10 
REMARK    4  A    between atoms: N6_17  and  C6_18 
REMARK    5  A    between atoms: C6_18  and  C7_19 
REMARK    6  A    between atoms: C7_19  and  C8_20 
REMARK    7  A    between atoms: C8_20  and  C9_21 
REMARK    8  A    between atoms: C9_21  and  C10_22 
REMARK    9  A    between atoms: C10_22  and  N7_23 
ROOT
HETATM    1  N1  UNL     1      -2.668   3.906  -2.269  1.00  0.00    -0.196 NA
HETATM    2  C1  UNL     1      -3.290   3.167  -1.650  1.00  0.00     0.079 C 
HETATM    3  C2  UNL     1      -4.073   2.200  -0.846  1.00  0.00     0.262 C 
ENDROOT
BRANCH   3   4
HETATM    4  N2  UNL     1      -3.154   1.257  -0.292  1.00  0.00    -0.213 N 
ATOM      5  H2  UNL     1      -2.181   1.317  -0.592  1.00  0.00     0.178 HD
BRANCH   4   6
HETATM    6  C3  UNL     1      -3.456   0.341   0.552  1.00  0.00     0.699 A 
HETATM    7  N3  UNL     1      -4.745   0.251   0.955  1.00  0.00    -0.022 N 
HETATM    8  C4  UNL     1      -5.127  -0.702   1.849  1.00  0.00     0.694 A 
ATOM      9  H3  UNL     1      -5.437   0.903   0.585  1.00  0.00     0.203 HD
HETATM   10  N5  UNL     1      -4.183  -1.539   2.310  1.00  0.00    -0.140 N 
HETATM   11  C5  UNL     1      -2.907  -1.426   1.891  1.00  0.00     0.355 A 
ATOM     12  H5  UNL     1      -4.433  -2.265   2.981  1.00  0.00     0.189 HD
HETATM   13  O1  UNL     1      -2.084  -2.247   2.368  1.00  0.00    -0.245 OA
HETATM   14  N6  UNL     1      -2.515  -0.493   1.010  1.00  0.00    -0.132 N 
BRANCH   8  15
HETATM   15  N4  UNL     1      -6.370  -0.800   2.248  1.00  0.00    -0.234 N 
ATOM     16  H42 UNL     1      -7.087  -0.164   1.898  1.00  0.00     0.174 HD
ATOM     17  H41 UNL     1      -6.656  -1.514   2.918  1.00  0.00     0.174 HD
ENDBRANCH   8  15
BRANCH  14  18
HETATM   18  C6  UNL     1      -1.136  -0.410   0.588  1.00  0.00     0.153 C 
BRANCH  18  19
HETATM   19  C7  UNL     1      -0.835  -1.238  -0.614  1.00  0.00     0.021 C 
BRANCH  19  20
HETATM   20  C8  UNL     1       0.605  -1.104  -1.000  1.00  0.00     0.003 C 
BRANCH  20  21
HETATM   21  C9  UNL     1       1.577  -1.537   0.045  1.00  0.00     0.030 C 
BRANCH  21  22
HETATM   22  C10 UNL     1       2.992  -1.381  -0.416  1.00  0.00     0.272 C 
BRANCH  22  23
HETATM   23  N7  UNL     1       3.253  -0.014  -0.735  1.00  0.00     0.089 N 
HETATM   24  C11 UNL     1       3.268   0.872   0.367  1.00  0.00     0.282 C 
HETATM   25  C12 UNL     1       4.510   0.751   1.256  1.00  0.00     0.104 C 
HETATM   26  S1  UNL     1       5.910   1.195   0.186  1.00  0.00    -0.166 SA
HETATM   27  C13 UNL     1       5.181   1.319  -1.497  1.00  0.00     0.104 C 
HETATM   28  C14 UNL     1       4.312   0.118  -1.670  1.00  0.00     0.282 C 
ENDBRANCH  22  23
ENDBRANCH  21  22
ENDBRANCH  20  21
ENDBRANCH  19  20
ENDBRANCH  18  19
ENDBRANCH  14  18
ENDBRANCH   4   6
ENDBRANCH   3   4
TORSDOF 9
