REMARK  9 active torsions:
REMARK  status: ('A' for Active; 'I' for Inactive)
REMARK    1  A    between atoms: C3_3  and  C4_4 
REMARK    2  A    between atoms: C4_4  and  C5_5 
REMARK    3  A    between atoms: C5_5  and  C6_6 
REMARK    4  A    between atoms: C6_6  and  C7_7 
REMARK    5  A    between atoms: C10_13  and  N3_14 
REMARK    6  A    between atoms: N4_17  and  C13_18 
REMARK    7  A    between atoms: C13_18  and  C14_19 
REMARK    8  A    between atoms: C14_19  and  O1_20 
REMARK    9  A    between atoms: C17_26  and  N6_27 
ROOT
HETATM    1  C1  UNL     1       7.859   1.158   0.308  1.00  0.00     0.012 C 
HETATM    2  C2  UNL     1       6.688   1.353   0.482  1.00  0.00    -0.117 C 
HETATM    3  C3  UNL     1       5.273   1.607   0.671  1.00  0.00     0.093 C 
ENDROOT
BRANCH   3   4
HETATM    4  C4  UNL     1       4.477   0.283   0.799  1.00  0.00     0.012 C 
BRANCH   4   5
HETATM    5  C5  UNL     1       4.646  -0.543  -0.430  1.00  0.00     0.007 C 
BRANCH   5   6
HETATM    6  C6  UNL     1       3.881  -1.853  -0.450  1.00  0.00     0.061 C 
BRANCH   6   7
HETATM    7  C7  UNL     1       2.422  -1.524  -0.293  1.00  0.00     0.054 A 
HETATM    8  N1  UNL     1       1.755  -1.126  -1.415  1.00  0.00    -0.345 N 
HETATM    9  C8  UNL     1       0.495  -0.668  -1.373  1.00  0.00     0.158 A 
ATOM     10  H1  UNL     1       2.231  -1.179  -2.316  1.00  0.00     0.166 HD
HETATM   11  C9  UNL     1      -0.194  -0.249  -2.570  1.00  0.00     0.121 C 
HETATM   12  C10 UNL     1      -0.113  -0.610  -0.141  1.00  0.00     0.143 A 
HETATM   13  N2  UNL     1      -0.728   0.103  -3.537  1.00  0.00    -0.190 NA
HETATM   14  N5  UNL     1       0.548  -1.007   0.958  1.00  0.00    -0.325 N 
HETATM   15  C17 UNL     1       1.829  -1.480   0.937  1.00  0.00     0.123 A 
ATOM     16  H5  UNL     1       0.068  -0.952   1.856  1.00  0.00     0.169 HD
BRANCH  12  17
HETATM   17  N3  UNL     1      -1.442  -0.115  -0.020  1.00  0.00    -0.355 N 
HETATM   18  C11 UNL     1      -2.461  -1.090   0.248  1.00  0.00     0.169 C 
HETATM   19  C12 UNL     1      -3.771  -0.478   0.660  1.00  0.00     0.083 C 
HETATM   20  N4  UNL     1      -4.110   0.707  -0.020  1.00  0.00    -0.369 N 
HETATM   21  C15 UNL     1      -3.130   1.399  -0.748  1.00  0.00     0.083 C 
HETATM   22  C16 UNL     1      -1.737   1.280  -0.158  1.00  0.00     0.169 C 
BRANCH  20  23
HETATM   23  C13 UNL     1      -5.388   0.773  -0.649  1.00  0.00     0.153 C 
BRANCH  23  24
HETATM   24  C14 UNL     1      -6.471   0.814   0.440  1.00  0.00     0.184 C 
BRANCH  24  25
HETATM   25  O1  UNL     1      -7.707   0.875  -0.193  1.00  0.00    -0.399 OA
ATOM     26  H1  UNL     1      -8.377   0.900   0.480  1.00  0.00     0.209 HD
ENDBRANCH  24  25
ENDBRANCH  23  24
ENDBRANCH  20  23
ENDBRANCH  12  17
BRANCH  15  27
HETATM   27  N6  UNL     1       2.380  -1.904   2.025  1.00  0.00    -0.384 N 
ATOM     28  H62 UNL     1       3.337  -2.257   2.009  1.00  0.00     0.157 HD
ATOM     29  H61 UNL     1       1.937  -1.871   2.943  1.00  0.00     0.157 HD
ENDBRANCH  15  27
ENDBRANCH   6   7
ENDBRANCH   5   6
ENDBRANCH   4   5
ENDBRANCH   3   4
TORSDOF 9
