REMARK  12 active torsions:
REMARK  status: ('A' for Active; 'I' for Inactive)
REMARK    1  A    between atoms: C2_2  and  C3_3 
REMARK    2  A    between atoms: C2_2  and  C15_18 
REMARK    3  A    between atoms: C3_3  and  C4_4 
REMARK    4  A    between atoms: C4_4  and  C5_5 
REMARK    5  A    between atoms: C5_5  and  C6_6 
REMARK    6  A    between atoms: C6_6  and  C7_7 
REMARK    7  A    between atoms: C7_7  and  C8_8 
REMARK    8  A    between atoms: C8_8  and  C9_9 
REMARK    9  A    between atoms: C10_10  and  O1_11 
REMARK   10  A    between atoms: C15_18  and  C16_20 
REMARK   11  A    between atoms: C16_20  and  C17_21 
REMARK   12  A    between atoms: C17_21  and  O4_22 
ROOT
HETATM    1  C6  UNL     1      -0.933  -0.987   0.514  1.00  0.00     0.008 C 
ENDROOT
BRANCH   1   2
HETATM    2  C5  UNL     1       0.313  -1.236   0.435  1.00  0.00     0.008 C 
BRANCH   2   3
HETATM    3  C4  UNL     1       1.343  -0.394  -0.081  1.00  0.00     0.051 C 
BRANCH   3   4
HETATM    4  C3  UNL     1       2.590  -0.673  -0.230  1.00  0.00    -0.144 C 
BRANCH   4   5
HETATM    5  C2  UNL     1       3.903  -0.969  -0.387  1.00  0.00     0.122 C 
HETATM    6  C1  UNL     1       4.272  -0.647  -1.890  1.00  0.00     0.031 C 
BRANCH   5   7
HETATM    7  C15 UNL     1       4.890  -0.133   0.432  1.00  0.00     0.143 C 
HETATM    8  O3  UNL     1       4.400   0.666   1.191  1.00  0.00    -0.297 OA
BRANCH   7   9
HETATM    9  C16 UNL     1       6.316  -0.402   0.201  1.00  0.00     0.105 C 
BRANCH   9  10
HETATM   10  C17 UNL     1       7.242   0.386   1.095  1.00  0.00     0.171 C 
BRANCH  10  11
HETATM   11  O4  UNL     1       7.103   1.760   0.958  1.00  0.00    -0.400 OA
ATOM     12  H4  UNL     1       7.686   2.256   1.521  1.00  0.00     0.209 HD
ENDBRANCH  10  11
ENDBRANCH   9  10
ENDBRANCH   7   9
ENDBRANCH   5   7
ENDBRANCH   4   5
ENDBRANCH   3   4
ENDBRANCH   2   3
ENDBRANCH   1   2
BRANCH   1  13
HETATM   13  C7  UNL     1      -1.523   0.310   0.039  1.00  0.00     0.051 C 
BRANCH  13  14
HETATM   14  C8  UNL     1      -2.694   0.557   0.056  1.00  0.00    -0.148 C 
BRANCH  14  15
HETATM   15  C9  UNL     1      -4.114   0.861   0.076  1.00  0.00     0.096 C 
HETATM   16  C10 UNL     1      -4.632   0.535   1.502  1.00  0.00     0.141 C 
HETATM   17  C11 UNL     1      -6.138   0.497   1.213  1.00  0.00     0.111 C 
HETATM   18  C12 UNL     1      -6.139  -0.465   0.073  1.00  0.00     0.134 C 
HETATM   19  O2  UNL     1      -6.980  -1.314  -0.111  1.00  0.00    -0.297 OA
HETATM   20  C13 UNL     1      -4.928  -0.144  -0.732  1.00  0.00     0.069 C 
HETATM   21  C14 UNL     1      -5.348   0.412  -2.055  1.00  0.00     0.019 C 
BRANCH  16  22
HETATM   22  O1  UNL     1      -4.156  -0.715   1.814  1.00  0.00    -0.394 OA
ATOM     23  H1  UNL     1      -4.473  -0.915   2.687  1.00  0.00     0.210 HD
ENDBRANCH  16  22
ENDBRANCH  14  15
ENDBRANCH  13  14
ENDBRANCH   1  13
TORSDOF 12
