REMARK  7 active torsions:
REMARK  status: ('A' for Active; 'I' for Inactive)
REMARK    1  A    between atoms: C2_2  and  C3_3 
REMARK    2  A    between atoms: C3_3  and  C5_5 
REMARK    3  A    between atoms: C5_5  and  N1_8 
REMARK    4  A    between atoms: N1_8  and  C8_11 
REMARK    5  A    between atoms: C8_11  and  C9_12 
REMARK    6  A    between atoms: C9_12  and  C10_13 
REMARK    7  A    between atoms: C9_12  and  N4_20 
ROOT
HETATM    1  C9  UNL     1      -1.639   0.166   0.581  1.00  0.00     0.160 C 
ENDROOT
BRANCH   1   2
HETATM    2  C8  UNL     1      -0.337  -0.522   0.274  1.00  0.00     0.264 C 
BRANCH   2   3
HETATM    3  N1  UNL     1       0.813   0.266   0.659  1.00  0.00    -0.064 N 
ATOM      4  H12 UNL     1       0.648   0.754   1.539  1.00  0.00     0.278 HD
ATOM      5  H11 UNL     1       0.929   1.073   0.046  1.00  0.00     0.278 HD
BRANCH   3   6
HETATM    6  C5  UNL     1       2.030  -0.529   0.719  1.00  0.00     0.122 C 
HETATM    7  C6  UNL     1       2.005  -1.071   2.177  1.00  0.00     0.046 C 
HETATM    8  C7  UNL     1       2.033  -1.724  -0.176  1.00  0.00     0.046 C 
BRANCH   6   9
HETATM    9  C3  UNL     1       3.225   0.346   0.538  1.00  0.00     0.016 C 
HETATM   10  C4  UNL     1       3.315   1.485   1.508  1.00  0.00     0.012 C 
BRANCH   9  11
HETATM   11  C2  UNL     1       3.335   0.852  -0.891  1.00  0.00     0.002 C 
HETATM   12  C1  UNL     1       4.655   1.542  -1.154  1.00  0.00     0.005 C 
ENDBRANCH   9  11
ENDBRANCH   6   9
ENDBRANCH   3   6
ENDBRANCH   2   3
ENDBRANCH   1   2
BRANCH   1  13
HETATM   13  C10 UNL     1      -1.793   1.465  -0.108  1.00  0.00     0.050 A 
HETATM   14  C11 UNL     1      -0.981   2.097  -1.032  1.00  0.00     0.116 A 
HETATM   15  N2  UNL     1      -1.550   3.299  -1.366  1.00  0.00    -0.360 N 
HETATM   16  C12 UNL     1      -2.684   3.406  -0.666  1.00  0.00     0.180 A 
ATOM     17  H2  UNL     1      -1.178   3.983  -2.025  1.00  0.00     0.166 HD
HETATM   18  N3  UNL     1      -2.821   2.308   0.082  1.00  0.00    -0.353 N 
ATOM     19  H3  UNL     1      -3.603   2.133   0.714  1.00  0.00     0.166 HD
ENDBRANCH   1  13
BRANCH   1  20
HETATM   20  N4  UNL     1      -2.810  -0.588   0.381  1.00  0.00    -0.377 N 
HETATM   21  C13 UNL     1      -2.999  -1.771   1.145  1.00  0.00     0.149 C 
HETATM   22  C14 UNL     1      -4.158  -2.606   0.766  1.00  0.00     0.187 C 
HETATM   23  O1  UNL     1      -4.719  -2.416  -0.463  1.00  0.00    -0.385 OA
HETATM   24  C15 UNL     1      -3.797  -1.880  -1.341  1.00  0.00     0.212 C 
HETATM   25  C16 UNL     1      -3.517  -0.475  -0.824  1.00  0.00     0.085 C 
ENDBRANCH   1  20
TORSDOF 7
