REMARK  9 active torsions:
REMARK  status: ('A' for Active; 'I' for Inactive)
REMARK    1  A    between atoms: O1_2  and  C2_3 
REMARK    2  A    between atoms: C2_3  and  C3_4 
REMARK    3  A    between atoms: C3_4  and  N1_6 
REMARK    4  A    between atoms: N1_6  and  C5_9 
REMARK    5  A    between atoms: C8_12  and  C9_13 
REMARK    6  A    between atoms: C9_13  and  C10_14 
REMARK    7  A    between atoms: C10_14  and  O2_15 
REMARK    8  A    between atoms: C10_14  and  N2_17 
REMARK    9  A    between atoms: N2_17  and  C11_18 
ROOT
HETATM    1  C5  UNL     1       2.244   0.651  -0.318  1.00  0.00     0.186 C 
HETATM    2  C6  UNL     1       1.335   1.370  -1.306  1.00  0.00     0.033 C 
HETATM    3  C7  UNL     1       0.157   1.713  -0.460  1.00  0.00     0.007 C 
HETATM    4  C8  UNL     1      -0.046   0.618   0.511  1.00  0.00    -0.004 C 
HETATM    5  C16 UNL     1       1.308  -0.196   0.473  1.00  0.00     0.038 C 
ENDROOT
BRANCH   4   6
HETATM    6  C9  UNL     1      -1.044  -0.438   0.263  1.00  0.00     0.104 C 
BRANCH   6   7
HETATM    7  C10 UNL     1      -2.426  -0.034  -0.103  1.00  0.00     0.184 C 
BRANCH   7   8
HETATM    8  O2  UNL     1      -2.448   0.414  -1.338  1.00  0.00    -0.339 OA
ATOM      9  H2  UNL     1      -3.332   0.672  -1.572  1.00  0.00     0.220 HD
ENDBRANCH   7   8
BRANCH   7  10
HETATM   10  N2  UNL     1      -3.574  -0.073   0.632  1.00  0.00    -0.423 NA
BRANCH  10  11
HETATM   11  C11 UNL     1      -4.773  -0.089   1.324  1.00  0.00     0.165 C 
HETATM   12  C12 UNL     1      -5.803   0.918   0.751  1.00  0.00     0.039 C 
HETATM   13  C13 UNL     1      -6.443   0.151  -0.390  1.00  0.00     0.003 C 
HETATM   14  C14 UNL     1      -6.014  -1.297  -0.240  1.00  0.00     0.003 C 
HETATM   15  C15 UNL     1      -5.587  -1.377   1.215  1.00  0.00     0.039 C 
ENDBRANCH  10  11
ENDBRANCH   7  10
ENDBRANCH   6   7
ENDBRANCH   4   6
BRANCH   1  16
HETATM   16  N1  UNL     1       3.230  -0.129  -1.071  1.00  0.00    -0.065 N 
ATOM     17  H12 UNL     1       3.404   0.278  -1.990  1.00  0.00     0.278 HD
ATOM     18  H11 UNL     1       2.848  -1.028  -1.366  1.00  0.00     0.278 HD
BRANCH  16  19
HETATM   19  C3  UNL     1       4.453  -0.296  -0.330  1.00  0.00     0.205 C 
HETATM   20  C4  UNL     1       4.446  -1.626   0.363  1.00  0.00     0.042 C 
BRANCH  19  21
HETATM   21  C2  UNL     1       5.575  -0.158  -1.343  1.00  0.00     0.199 C 
BRANCH  21  22
HETATM   22  O1  UNL     1       6.809  -0.330  -0.766  1.00  0.00    -0.394 OA
HETATM   23  C1  UNL     1       7.076   0.562   0.233  1.00  0.00     0.201 C 
ENDBRANCH  21  22
ENDBRANCH  19  21
ENDBRANCH  16  19
ENDBRANCH   1  16
TORSDOF 9
