REMARK  6 active torsions:
REMARK  status: ('A' for Active; 'I' for Inactive)
REMARK    1  A    between atoms: O1_2  and  C2_3 
REMARK    2  A    between atoms: N1_9  and  S1_10 
REMARK    3  A    between atoms: S1_10  and  C8_13 
REMARK    4  A    between atoms: C15_26  and  C16_27 
REMARK    5  A    between atoms: C22_34  and  O6_35 
REMARK    6  A    between atoms: C24_37  and  O7_38 
ROOT
HETATM    1  S1  UNL     1       2.323   1.042  -1.414  1.00  0.00     0.264 S 
HETATM    2  O2  UNL     1       2.526   2.581  -1.518  1.00  0.00    -0.200 OA
HETATM    3  O3  UNL     1       2.498   0.616  -2.891  1.00  0.00    -0.200 OA
ENDROOT
BRANCH   1   4
HETATM    4  N1  UNL     1       0.782   0.720  -0.862  1.00  0.00    -0.286 N 
HETATM    5  C7  UNL     1       0.462   1.272   0.384  1.00  0.00     0.080 C 
HETATM    6  C6  UNL     1      -1.033   1.320   0.699  1.00  0.00     0.080 C 
HETATM    7  C5  UNL     1      -1.706   0.204  -0.069  1.00  0.00    -0.060 C 
HETATM    8  C4  UNL     1      -3.130   0.098   0.128  1.00  0.00     0.011 A 
HETATM    9  C20 UNL     1      -0.847  -0.982  -0.220  1.00  0.00     0.056 C 
HETATM   10  C3  UNL     1      -4.012   0.957  -0.530  1.00  0.00     0.054 A 
HETATM   11  C21 UNL     1      -3.735  -0.917   0.879  1.00  0.00     0.163 A 
HETATM   12  C2  UNL     1      -5.392   0.832  -0.459  1.00  0.00     0.105 A 
HETATM   13  C24 UNL     1      -5.942  -0.159   0.286  1.00  0.00     0.138 A 
HETATM   14  C22 UNL     1      -5.083  -1.030   0.952  1.00  0.00     0.144 A 
HETATM   15  F1  UNL     1      -2.976  -1.826   1.557  1.00  0.00    -0.202 F 
HETATM   16  C19 UNL     1       0.260  -0.538  -1.214  1.00  0.00     0.145 C 
BRANCH  12  17
HETATM   17  O1  UNL     1      -6.240   1.681  -1.137  1.00  0.00    -0.353 OA
HETATM   18  C1  UNL     1      -5.709   2.675  -1.978  1.00  0.00     0.210 C 
ENDBRANCH  12  17
BRANCH  13  19
HETATM   19  O7  UNL     1      -7.318  -0.357   0.426  1.00  0.00    -0.351 OA
HETATM   20  C25 UNL     1      -8.003  -1.338  -0.317  1.00  0.00     0.210 C 
ENDBRANCH  13  19
BRANCH  14  21
HETATM   21  O6  UNL     1      -5.691  -2.045   1.720  1.00  0.00    -0.350 OA
HETATM   22  C23 UNL     1      -5.985  -1.627   3.080  1.00  0.00     0.210 C 
ENDBRANCH  14  21
ENDBRANCH   1   4
BRANCH   1  23
HETATM   23  C8  UNL     1       3.599   0.374  -0.426  1.00  0.00     0.087 A 
HETATM   24  C9  UNL     1       3.393  -0.615   0.540  1.00  0.00     0.045 A 
HETATM   25  C10 UNL     1       4.407  -1.221   1.245  1.00  0.00     0.060 A 
HETATM   26  C11 UNL     1       4.136  -2.218   2.143  1.00  0.00     0.261 A 
HETATM   27  C13 UNL     1       5.748  -0.857   1.008  1.00  0.00     0.052 A 
HETATM   28  O4  UNL     1       2.973  -2.562   2.381  1.00  0.00    -0.267 OA
HETATM   29  N2  UNL     1       5.197  -2.818   2.772  1.00  0.00    -0.275 N 
HETATM   30  C12 UNL     1       6.437  -2.441   2.520  1.00  0.00     0.327 A 
ATOM     31  H2  UNL     1       5.026  -3.566   3.444  1.00  0.00     0.173 HD
HETATM   32  O5  UNL     1       7.375  -3.023   3.120  1.00  0.00    -0.247 OA
HETATM   33  N3  UNL     1       6.776  -1.448   1.633  1.00  0.00    -0.308 N 
ATOM     34  H3  UNL     1       7.745  -1.179   1.462  1.00  0.00     0.170 HD
HETATM   35  C14 UNL     1       5.941   0.107   0.070  1.00  0.00     0.039 A 
HETATM   36  C15 UNL     1       4.945   0.721  -0.642  1.00  0.00    -0.028 A 
BRANCH  36  37
HETATM   37  C16 UNL     1       5.214   1.788  -1.640  1.00  0.00     0.020 A 
HETATM   38  C17 UNL     1       6.668   1.870  -2.127  1.00  0.00     0.010 A 
HETATM   39  C18 UNL     1       5.528   1.543  -3.042  1.00  0.00     0.010 A 
ENDBRANCH  36  37
ENDBRANCH   1  23
TORSDOF 6
