REMARK  8 active torsions:
REMARK  status: ('A' for Active; 'I' for Inactive)
REMARK    1  A    between atoms: C3_3  and  S1_4 
REMARK    2  A    between atoms: S1_4  and  C4_5 
REMARK    3  A    between atoms: C4_5  and  C5_6 
REMARK    4  A    between atoms: C5_6  and  N1_7 
REMARK    5  A    between atoms: N2_10  and  C8_11 
REMARK    6  A    between atoms: C9_14  and  C10_15 
REMARK    7  A    between atoms: C11_17  and  N4_18 
REMARK    8  A    between atoms: C12_23  and  N6_24 
ROOT
HETATM    1  C1  UNL     1       7.281  -0.303   0.342  1.00  0.00     0.013 C 
HETATM    2  C2  UNL     1       6.509   0.492  -0.131  1.00  0.00    -0.107 C 
HETATM    3  C3  UNL     1       5.554   1.453  -0.734  1.00  0.00     0.166 C 
ENDROOT
BRANCH   3   4
HETATM    4  S1  UNL     1       4.379   0.538  -1.804  1.00  0.00    -0.155 SA
BRANCH   4   5
HETATM    5  C4  UNL     1       3.339  -0.551  -0.767  1.00  0.00     0.105 C 
BRANCH   5   6
HETATM    6  C5  UNL     1       2.446   0.269   0.112  1.00  0.00     0.282 C 
BRANCH   6   7
HETATM    7  N1  UNL     1       1.619  -0.529   0.951  1.00  0.00     0.092 N 
HETATM    8  C6  UNL     1       0.737   0.212   1.783  1.00  0.00     0.292 C 
HETATM    9  C7  UNL     1      -0.681  -0.367   1.781  1.00  0.00     0.154 C 
HETATM   10  N2  UNL     1      -1.142  -0.551   0.421  1.00  0.00    -0.361 N 
HETATM   11  C13 UNL     1      -0.186  -1.148  -0.489  1.00  0.00     0.154 C 
HETATM   12  C14 UNL     1       0.976  -1.642   0.347  1.00  0.00     0.292 C 
BRANCH  10  13
HETATM   13  C8  UNL     1      -2.455  -0.146   0.057  1.00  0.00     0.155 A 
HETATM   14  N3  UNL     1      -2.671   1.077  -0.474  1.00  0.00    -0.334 N 
HETATM   15  C9  UNL     1      -3.883   1.566  -0.797  1.00  0.00     0.116 A 
ATOM     16  H3  UNL     1      -1.859   1.671  -0.642  1.00  0.00     0.168 HD
HETATM   17  C11 UNL     1      -4.991   0.810  -0.591  1.00  0.00     0.131 A 
HETATM   18  N5  UNL     1      -4.814  -0.426  -0.060  1.00  0.00    -0.319 N 
HETATM   19  C12 UNL     1      -3.597  -0.898   0.256  1.00  0.00     0.219 A 
ATOM     20  H5  UNL     1      -5.630  -1.015   0.104  1.00  0.00     0.169 HD
BRANCH  15  21
HETATM   21  C10 UNL     1      -3.901   2.896  -1.352  1.00  0.00     0.291 C 
HETATM   22  O1  UNL     1      -4.945   3.462  -1.690  1.00  0.00    -0.300 OA
ENDBRANCH  15  21
BRANCH  17  23
HETATM   23  N4  UNL     1      -6.175   1.167  -0.854  1.00  0.00    -0.383 N 
ATOM     24  H42 UNL     1      -6.308   2.096  -1.253  1.00  0.00     0.157 HD
ATOM     25  H41 UNL     1      -7.008   0.599  -0.699  1.00  0.00     0.157 HD
ENDBRANCH  17  23
BRANCH  19  26
HETATM   26  N6  UNL     1      -3.506  -2.219   0.743  1.00  0.00    -0.094 N 
HETATM   27  O2  UNL     1      -4.597  -2.841   0.930  1.00  0.00    -0.530 OA
HETATM   28  O3  UNL     1      -2.382  -2.910   1.042  1.00  0.00    -0.530 OA
ENDBRANCH  19  26
ENDBRANCH  10  13
ENDBRANCH   6   7
ENDBRANCH   5   6
ENDBRANCH   4   5
ENDBRANCH   3   4
TORSDOF 8
