REMARK  9 active torsions:
REMARK  status: ('A' for Active; 'I' for Inactive)
REMARK    1  A    between atoms: C2_3  and  C3_4 
REMARK    2  A    between atoms: C3_4  and  C4_5 
REMARK    3  A    between atoms: C4_5  and  N2_6 
REMARK    4  A    between atoms: C7_11  and  N4_12 
REMARK    5  A    between atoms: C12_20  and  N6_21 
REMARK    6  A    between atoms: N6_21  and  C13_23 
REMARK    7  A    between atoms: C13_23  and  C14_24 
REMARK    8  A    between atoms: C14_24  and  C15_25 
REMARK    9  A    between atoms: C15_25  and  O2_26 
ROOT
HETATM    1  N1  UNL     1      -2.210   5.226   3.386  1.00  0.00    -0.197 NA
HETATM    2  C1  UNL     1      -2.130   4.689   2.358  1.00  0.00     0.059 C 
HETATM    3  C2  UNL     1      -2.038   4.028   1.057  1.00  0.00     0.125 C 
ENDROOT
BRANCH   3   4
HETATM    4  C3  UNL     1      -0.588   3.875   0.644  1.00  0.00     0.034 C 
BRANCH   4   5
HETATM    5  C4  UNL     1      -0.431   3.206  -0.679  1.00  0.00     0.132 C 
BRANCH   5   6
HETATM    6  N2  UNL     1      -0.994   1.876  -0.700  1.00  0.00    -0.327 N 
HETATM    7  C5  UNL     1      -2.254   1.549  -1.030  1.00  0.00     0.185 A 
HETATM    8  N3  UNL     1      -2.334   0.215  -0.912  1.00  0.00    -0.346 N 
HETATM    9  C6  UNL     1      -1.179  -0.336  -0.518  1.00  0.00     0.123 A 
ATOM     10  H3  UNL     1      -3.181  -0.320  -1.102  1.00  0.00     0.167 HD
HETATM   11  C7  UNL     1      -0.762  -1.625  -0.259  1.00  0.00     0.150 A 
HETATM   12  C16 UNL     1      -0.305   0.749  -0.380  1.00  0.00     0.155 A 
HETATM   13  N5  UNL     1       0.523  -1.789   0.131  1.00  0.00    -0.174 N 
HETATM   14  C12 UNL     1       1.366  -0.751   0.264  1.00  0.00     0.681 A 
ATOM     15  H5  UNL     1       0.863  -2.730   0.330  1.00  0.00     0.186 HD
HETATM   16  N7  UNL     1       0.950   0.502   0.010  1.00  0.00    -0.174 N 
ATOM     17  H7  UNL     1       1.603   1.278   0.117  1.00  0.00     0.186 HD
BRANCH  11  18
HETATM   18  N4  UNL     1      -1.652  -2.718  -0.401  1.00  0.00    -0.361 N 
HETATM   19  C8  UNL     1      -1.146  -4.045  -0.106  1.00  0.00     0.150 C 
HETATM   20  C9  UNL     1      -2.190  -4.934   0.522  1.00  0.00     0.187 C 
HETATM   21  O1  UNL     1      -3.460  -4.368   0.480  1.00  0.00    -0.388 OA
HETATM   22  C10 UNL     1      -3.709  -3.858  -0.793  1.00  0.00     0.187 C 
HETATM   23  C11 UNL     1      -3.016  -2.485  -0.831  1.00  0.00     0.150 C 
ENDBRANCH  11  18
BRANCH  14  24
HETATM   24  N6  UNL     1       2.570  -1.010   0.641  1.00  0.00    -0.226 N 
ATOM     25  H6  UNL     1       2.825  -1.982   0.819  1.00  0.00     0.177 HD
BRANCH  24  26
HETATM   26  C13 UNL     1       3.574   0.006   0.824  1.00  0.00     0.140 C 
BRANCH  26  27
HETATM   27  C14 UNL     1       4.187   0.314  -0.523  1.00  0.00     0.046 C 
BRANCH  27  28
HETATM   28  C15 UNL     1       5.261   1.384  -0.409  1.00  0.00     0.165 C 
BRANCH  28  29
HETATM   29  O2  UNL     1       6.261   0.926   0.450  1.00  0.00    -0.401 OA
ATOM     30  H2  UNL     1       6.932   1.595   0.521  1.00  0.00     0.209 HD
ENDBRANCH  28  29
ENDBRANCH  27  28
ENDBRANCH  26  27
ENDBRANCH  24  26
ENDBRANCH  14  24
ENDBRANCH   5   6
ENDBRANCH   4   5
ENDBRANCH   3   4
TORSDOF 9
