REMARK  9 active torsions:
REMARK  status: ('A' for Active; 'I' for Inactive)
REMARK    1  A    between atoms: O1_2  and  C2_3 
REMARK    2  A    between atoms: C4_5  and  O2_6 
REMARK    3  A    between atoms: C6_8  and  O3_9 
REMARK    4  A    between atoms: C8_11  and  O4_12 
REMARK    5  A    between atoms: O4_12  and  C9_13 
REMARK    6  A    between atoms: C10_15  and  C11_16 
REMARK    7  A    between atoms: C11_16  and  O6_17 
REMARK    8  A    between atoms: C12_19  and  O7_20 
REMARK    9  A    between atoms: C13_22  and  O8_23 
ROOT
HETATM    1  C9  UNL     1       0.818  -0.668   0.103  1.00  0.00     0.273 C 
HETATM    2  O5  UNL     1       1.428  -0.375   1.332  1.00  0.00    -0.350 OA
HETATM    3  C10 UNL     1       2.251   0.702   1.112  1.00  0.00     0.179 C 
HETATM    4  C12 UNL     1       3.566   0.140   0.560  1.00  0.00     0.178 C 
HETATM    5  C13 UNL     1       3.251  -0.829  -0.531  1.00  0.00     0.160 C 
HETATM    6  C15 UNL     1       1.824  -0.720  -1.021  1.00  0.00     0.069 C 
HETATM    7  C16 UNL     1       1.476  -1.900  -1.900  1.00  0.00     0.017 C 
ENDROOT
BRANCH   1   8
HETATM    8  O4  UNL     1      -0.139   0.329  -0.096  1.00  0.00    -0.317 OA
BRANCH   8   9
HETATM    9  C8  UNL     1      -1.487   0.264  -0.165  1.00  0.00     0.111 A 
HETATM   10  C6  UNL     1      -2.174   1.468  -0.378  1.00  0.00     0.135 A 
HETATM   11  C4  UNL     1      -3.542   1.413  -0.450  1.00  0.00     0.106 A 
HETATM   12  C3  UNL     1      -4.260   0.220  -0.321  1.00  0.00     0.076 A 
HETATM   13  C2  UNL     1      -3.570  -0.947  -0.113  1.00  0.00     0.073 A 
HETATM   14  C17 UNL     1      -2.172  -0.911  -0.037  1.00  0.00     0.076 A 
BRANCH  10  15
HETATM   15  O3  UNL     1      -1.524   2.674  -0.513  1.00  0.00    -0.351 OA
HETATM   16  C7  UNL     1      -1.224   3.525   0.581  1.00  0.00     0.210 C 
ENDBRANCH  10  15
BRANCH  11  17
HETATM   17  O2  UNL     1      -4.251   2.574  -0.658  1.00  0.00    -0.353 OA
HETATM   18  C5  UNL     1      -5.664   2.592  -0.743  1.00  0.00     0.210 C 
ENDBRANCH  11  17
BRANCH  13  19
HETATM   19  O1  UNL     1      -4.186  -2.159   0.025  1.00  0.00    -0.356 OA
HETATM   20  C1  UNL     1      -3.485  -3.351   0.237  1.00  0.00     0.210 C 
ENDBRANCH  13  19
ENDBRANCH   8   9
ENDBRANCH   1   8
BRANCH   3  21
HETATM   21  C11 UNL     1       2.501   1.537   2.343  1.00  0.00     0.198 C 
BRANCH  21  22
HETATM   22  O6  UNL     1       3.102   0.796   3.357  1.00  0.00    -0.398 OA
ATOM     23  H6  UNL     1       3.259   1.322   4.132  1.00  0.00     0.209 HD
ENDBRANCH  21  22
ENDBRANCH   3  21
BRANCH   5  24
HETATM   24  O8  UNL     1       3.652  -2.114  -0.291  1.00  0.00    -0.388 OA
HETATM   25  C14 UNL     1       4.619  -2.611  -1.123  1.00  0.00     0.202 C 
ENDBRANCH   5  24
BRANCH   4  26
HETATM   26  O7  UNL     1       4.296   1.247   0.126  1.00  0.00    -0.390 OA
ATOM     27  H7  UNL     1       5.111   0.899  -0.216  1.00  0.00     0.210 HD
ENDBRANCH   4  26
TORSDOF 9
