REMARK  4 active torsions:
REMARK  status: ('A' for Active; 'I' for Inactive)
REMARK    1  A    between atoms: C7_7  and  O1_8 
REMARK    2  A    between atoms: O1_8  and  C8_9 
REMARK    3  A    between atoms: C12_13  and  O2_14 
REMARK    4  A    between atoms: C14_17  and  C15_18 
ROOT
HETATM    1  C15 UNL     1      -4.344  -1.797   0.164  1.00  0.00     0.069 C 
HETATM    2  C16 UNL     1      -5.439  -0.783  -0.101  1.00  0.00     0.036 C 
HETATM    3  C17 UNL     1      -4.496  -3.013  -0.679  1.00  0.00     0.036 C 
HETATM    4  C18 UNL     1      -4.465  -2.221   1.590  1.00  0.00     0.073 C 
HETATM    5  N1  UNL     1      -4.537  -2.548   2.693  1.00  0.00    -0.196 NA
ENDROOT
BRANCH   1   6
HETATM    6  C14 UNL     1      -3.005  -1.156   0.086  1.00  0.00    -0.033 A 
HETATM    7  C13 UNL     1      -1.874  -1.917   0.046  1.00  0.00     0.046 A 
HETATM    8  C12 UNL     1      -0.556  -1.366  -0.004  1.00  0.00     0.078 A 
HETATM    9  C11 UNL     1      -0.530   0.026  -0.003  1.00  0.00     0.019 A 
HETATM   10  C5  UNL     1       0.748   0.719  -0.061  1.00  0.00     0.014 A 
HETATM   11  C20 UNL     1      -1.658   0.786   0.035  1.00  0.00    -0.010 A 
HETATM   12  C4  UNL     1       0.743   2.114  -0.082  1.00  0.00     0.082 A 
HETATM   13  C6  UNL     1       1.936   0.033  -0.044  1.00  0.00     0.052 A 
HETATM   14  C3  UNL     1       1.986   2.774  -0.083  1.00  0.00     0.047 A 
HETATM   15  O3  UNL     1      -0.418   2.849  -0.103  1.00  0.00    -0.335 OA
HETATM   16  C2  UNL     1       3.149   2.051  -0.062  1.00  0.00    -0.026 A 
HETATM   17  C1  UNL     1       4.427   2.829  -0.062  1.00  0.00     0.051 C 
HETATM   18  C7  UNL     1       3.162   0.684  -0.043  1.00  0.00     0.076 A 
HETATM   19  C21 UNL     1      -1.676   2.296   0.062  1.00  0.00     0.088 C 
HETATM   20  C22 UNL     1      -2.586   2.735  -1.072  1.00  0.00     0.051 C 
HETATM   21  C23 UNL     1      -2.228   2.788   1.388  1.00  0.00     0.051 C 
HETATM   22  C19 UNL     1      -2.917   0.219   0.079  1.00  0.00     0.020 A 
BRANCH   8  23
HETATM   23  O2  UNL     1       0.417  -2.231  -0.040  1.00  0.00    -0.360 OA
ATOM     24  H2  UNL     1       0.399  -3.181  -0.041  1.00  0.00     0.217 HD
ENDBRANCH   8  23
BRANCH  18  25
HETATM   25  O1  UNL     1       4.299  -0.023  -0.026  1.00  0.00    -0.346 OA
BRANCH  25  26
HETATM   26  C8  UNL     1       4.587  -1.365   0.031  1.00  0.00     0.120 C 
HETATM   27  C9  UNL     1       5.131  -1.921  -1.280  1.00  0.00     0.040 C 
HETATM   28  C10 UNL     1       5.624  -1.624   1.107  1.00  0.00     0.040 C 
ENDBRANCH  25  26
ENDBRANCH  18  25
ENDBRANCH   1   6
TORSDOF 4
