REMARK  4 active torsions:
REMARK  status: ('A' for Active; 'I' for Inactive)
REMARK    1  A    between atoms: C4_4  and  C5_5 
REMARK    2  A    between atoms: C5_5  and  C6_6 
REMARK    3  A    between atoms: C6_6  and  C7_7 
REMARK    4  A    between atoms: C20_23  and  O4_24 
ROOT
HETATM    1  C7  UNL     1      -0.971  -1.375   0.151  1.00  0.00     0.074 C 
HETATM    2  C8  UNL     1      -1.982  -2.308   0.738  1.00  0.00     0.047 C 
HETATM    3  O1  UNL     1      -0.064  -0.878   1.114  1.00  0.00    -0.338 OA
HETATM    4  C9  UNL     1       1.109  -0.263   0.715  1.00  0.00     0.087 A 
HETATM    5  C10 UNL     1       1.819   0.445   1.643  1.00  0.00    -0.027 A 
HETATM    6  C11 UNL     1       1.325   0.538   3.034  1.00  0.00     0.051 C 
HETATM    7  C12 UNL     1       3.013   1.091   1.307  1.00  0.00     0.024 A 
HETATM    8  C13 UNL     1       3.429   0.979   0.018  1.00  0.00     0.005 A 
HETATM    9  C14 UNL     1       4.612   1.602  -0.373  1.00  0.00    -0.043 A 
HETATM   10  C15 UNL     1       5.426   2.385   0.590  1.00  0.00     0.049 C 
HETATM   11  C16 UNL     1       5.036   1.487  -1.689  1.00  0.00     0.090 A 
HETATM   12  C17 UNL     1       4.269   0.760  -2.558  1.00  0.00     0.288 A 
HETATM   13  O2  UNL     1       4.673   0.667  -3.758  1.00  0.00    -0.260 OA
HETATM   14  O3  UNL     1       3.165   0.192  -2.148  1.00  0.00    -0.274 OA
HETATM   15  C18 UNL     1       2.717   0.268  -0.914  1.00  0.00     0.102 A 
HETATM   16  C19 UNL     1       1.529  -0.376  -0.584  1.00  0.00     0.040 A 
HETATM   17  C20 UNL     1       0.779  -1.136  -1.609  1.00  0.00     0.167 C 
HETATM   18  C21 UNL     1      -0.162  -2.096  -0.897  1.00  0.00     0.014 C 
HETATM   19  C22 UNL     1      -1.036  -2.826  -1.898  1.00  0.00     0.021 C 
HETATM   20  C23 UNL     1       0.698  -3.119  -0.194  1.00  0.00     0.021 C 
ENDROOT
BRANCH   1  21
HETATM   21  C6  UNL     1      -1.702  -0.168  -0.420  1.00  0.00     0.043 C 
BRANCH  21  22
HETATM   22  C5  UNL     1      -2.441   0.483   0.722  1.00  0.00     0.030 C 
BRANCH  22  23
HETATM   23  C4  UNL     1      -3.200   1.683   0.288  1.00  0.00    -0.025 C 
HETATM   24  C2  UNL     1      -4.481   1.843   0.388  1.00  0.00    -0.091 C 
HETATM   25  C1  UNL     1      -5.332   0.782   0.973  1.00  0.00     0.042 C 
HETATM   26  C3  UNL     1      -5.133   3.086  -0.079  1.00  0.00     0.042 C 
ENDBRANCH  22  23
ENDBRANCH  21  22
ENDBRANCH   1  21
BRANCH  17  27
HETATM   27  O4  UNL     1       1.587  -1.877  -2.441  1.00  0.00    -0.390 OA
ATOM     28  H4  UNL     1       1.106  -2.365  -3.099  1.00  0.00     0.210 HD
ENDBRANCH  17  27
TORSDOF 4
