REMARK  4 active torsions:
REMARK  status: ('A' for Active; 'I' for Inactive)
REMARK    1  A    between atoms: O1_2  and  C2_3 
REMARK    2  A    between atoms: C2_3  and  C3_4 
REMARK    3  A    between atoms: C7_9  and  O3_11 
REMARK    4  A    between atoms: O3_11  and  O4_12 
ROOT
HETATM    1  C3  UNL     1       3.087   0.218   0.214  1.00  0.00    -0.056 C 
HETATM    2  C4  UNL     1       3.922   1.311   0.804  1.00  0.00     0.046 C 
HETATM    3  C5  UNL     1       1.847   0.403  -0.203  1.00  0.00    -0.047 C 
HETATM    4  C6  UNL     1       1.074  -0.725  -0.755  1.00  0.00     0.206 C 
HETATM    5  O2  UNL     1       0.781  -1.606   0.291  1.00  0.00    -0.348 OA
HETATM    6  C7  UNL     1      -0.502  -2.129   0.203  1.00  0.00     0.197 C 
HETATM    7  C8  UNL     1      -0.432  -3.544   0.783  1.00  0.00     0.082 C 
HETATM    8  C9  UNL     1      -1.401  -1.254   1.044  1.00  0.00     0.104 C 
HETATM    9  C10 UNL     1      -2.856  -1.492   0.729  1.00  0.00    -0.082 C 
HETATM   10  C11 UNL     1      -3.486  -2.750   1.217  1.00  0.00     0.043 C 
HETATM   11  C12 UNL     1      -3.583  -0.649   0.050  1.00  0.00    -0.020 C 
HETATM   12  C13 UNL     1      -3.106   0.642  -0.503  1.00  0.00     0.060 C 
HETATM   13  C14 UNL     1      -3.058   1.730   0.482  1.00  0.00    -0.084 C 
HETATM   14  C15 UNL     1      -3.713   1.611   1.827  1.00  0.00     0.043 C 
HETATM   15  C16 UNL     1      -2.426   2.840   0.184  1.00  0.00    -0.024 C 
HETATM   16  C17 UNL     1      -1.732   3.088  -1.118  1.00  0.00     0.028 C 
HETATM   17  C18 UNL     1      -0.323   3.454  -0.834  1.00  0.00     0.013 C 
HETATM   18  C19 UNL     1       0.687   2.394  -1.228  1.00  0.00    -0.036 A 
HETATM   19  C20 UNL     1       0.591   1.795  -2.595  1.00  0.00     0.016 C 
HETATM   20  C21 UNL     1       2.119   2.816  -0.852  1.00  0.00     0.019 A 
HETATM   21  C22 UNL     1       1.318   1.784  -0.075  1.00  0.00     0.026 A 
ENDROOT
BRANCH   1  22
HETATM   22  C2  UNL     1       3.695  -1.135   0.117  1.00  0.00     0.201 C 
BRANCH  22  23
HETATM   23  O1  UNL     1       4.071  -1.614   1.388  1.00  0.00    -0.392 OA
HETATM   24  C1  UNL     1       4.622  -2.875   1.172  1.00  0.00     0.201 C 
ENDBRANCH  22  23
ENDBRANCH   1  22
BRANCH   6  25
HETATM   25  O3  UNL     1      -0.994  -2.194  -1.075  1.00  0.00    -0.203 OA
BRANCH  25  26
HETATM   26  O4  UNL     1      -0.299  -2.925  -1.886  1.00  0.00    -0.247 OA
ATOM     27  H4  UNL     1      -0.640  -2.970  -2.772  1.00  0.00     0.253 HD
ENDBRANCH  25  26
ENDBRANCH   6  25
TORSDOF 4
