REMARK  4 active torsions:
REMARK  status: ('A' for Active; 'I' for Inactive)
REMARK    1  A    between atoms: C2_2  and  C3_3 
REMARK    2  A    between atoms: C3_3  and  C4_4 
REMARK    3  A    between atoms: C4_4  and  C5_5 
REMARK    4  A    between atoms: C10_11  and  O2_12 
ROOT
HETATM    1  C5  UNL     1       2.351  -0.915   0.390  1.00  0.00     0.166 C 
HETATM    2  O1  UNL     1       1.249  -0.170  -0.179  1.00  0.00    -0.340 OA
HETATM    3  C6  UNL     1      -0.105  -0.244   0.009  1.00  0.00     0.080 A 
HETATM    4  C7  UNL     1      -0.774   0.836  -0.563  1.00  0.00     0.051 A 
HETATM    5  C8  UNL     1      -2.153   0.944  -0.481  1.00  0.00     0.003 A 
HETATM    6  C9  UNL     1      -2.811  -0.065   0.191  1.00  0.00     0.114 A 
HETATM    7  C10 UNL     1      -2.166  -1.143   0.765  1.00  0.00     0.109 A 
HETATM    8  C11 UNL     1      -0.783  -1.242   0.677  1.00  0.00     0.017 A 
HETATM    9  C12 UNL     1      -0.258  -2.442   1.336  1.00  0.00     0.112 C 
HETATM   10  C13 UNL     1       0.947  -3.005   0.627  1.00  0.00     0.091 A 
HETATM   11  O3  UNL     1       1.102  -4.244   0.285  1.00  0.00    -0.241 OA
HETATM   12  N1  UNL     1       2.228  -4.434  -0.305  1.00  0.00    -0.265 N 
ATOM     13  H1  UNL     1       2.559  -5.332  -0.659  1.00  0.00     0.194 HD
HETATM   14  C14 UNL     1       2.916  -3.258  -0.389  1.00  0.00     0.040 A 
HETATM   15  C15 UNL     1       4.261  -3.095  -1.009  1.00  0.00     0.071 C 
HETATM   16  C16 UNL     1       2.103  -2.333   0.206  1.00  0.00     0.027 A 
HETATM   17  O4  UNL     1      -4.188   0.062   0.262  1.00  0.00    -0.333 OA
HETATM   18  C17 UNL     1      -4.953   1.094  -0.272  1.00  0.00     0.078 A 
HETATM   19  C18 UNL     1      -6.006   0.528  -1.206  1.00  0.00     0.051 C 
HETATM   20  C19 UNL     1      -5.671   1.817   0.880  1.00  0.00     0.051 C 
HETATM   21  C20 UNL     1      -4.195   2.148  -0.981  1.00  0.00     0.011 A 
HETATM   22  C21 UNL     1      -2.883   2.059  -1.067  1.00  0.00     0.013 A 
ENDROOT
BRANCH   1  23
HETATM   23  C4  UNL     1       3.566  -0.305  -0.176  1.00  0.00     0.037 C 
BRANCH  23  24
HETATM   24  C3  UNL     1       3.521   1.181   0.281  1.00  0.00     0.002 C 
BRANCH  24  25
HETATM   25  C2  UNL     1       4.721   1.916  -0.239  1.00  0.00    -0.004 C 
HETATM   26  C1  UNL     1       4.656   3.356   0.216  1.00  0.00     0.005 C 
ENDBRANCH  24  25
ENDBRANCH  23  24
ENDBRANCH   1  23
BRANCH   7  27
HETATM   27  O2  UNL     1      -2.851  -2.143   1.434  1.00  0.00    -0.357 OA
ATOM     28  H2  UNL     1      -2.407  -2.884   1.829  1.00  0.00     0.217 HD
ENDBRANCH   7  27
TORSDOF 4
