REMARK  6 active torsions:
REMARK  status: ('A' for Active; 'I' for Inactive)
REMARK    1  A    between atoms: C5_5  and  C6_6 
REMARK    2  A    between atoms: C6_6  and  O2_8 
REMARK    3  A    between atoms: O2_8  and  C7_9 
REMARK    4  A    between atoms: C9_11  and  S1_12 
REMARK    5  A    between atoms: S1_12  and  C10_13 
REMARK    6  A    between atoms: C13_17  and  C14_18 
ROOT
HETATM    1  C7  UNL     1      -0.800  -0.030   0.259  1.00  0.00     0.095 A 
HETATM    2  C8  UNL     1      -1.652   0.908   0.698  1.00  0.00     0.064 A 
HETATM    3  C9  UNL     1      -2.886   0.490   1.130  1.00  0.00     0.044 A 
HETATM    4  S2  UNL     1      -2.809  -1.196   0.906  1.00  0.00    -0.084 SA
HETATM    5  C13 UNL     1      -1.228  -1.328   0.276  1.00  0.00     0.025 A 
ENDROOT
BRANCH   1   6
HETATM    6  O2  UNL     1       0.512   0.257  -0.219  1.00  0.00    -0.274 OA
BRANCH   6   7
HETATM    7  C6  UNL     1       1.512   0.496   0.736  1.00  0.00     0.304 C 
HETATM    8  O1  UNL     1       1.174   0.441   1.957  1.00  0.00    -0.259 OA
BRANCH   7   9
HETATM    9  C5  UNL     1       2.874   0.794   0.370  1.00  0.00     0.107 A 
HETATM   10  C4  UNL     1       3.819   1.015   1.333  1.00  0.00     0.025 A 
HETATM   11  C3  UNL     1       5.115   1.300   0.947  1.00  0.00     0.026 A 
HETATM   12  C2  UNL     1       5.443   1.358  -0.389  1.00  0.00     0.008 A 
HETATM   13  C1  UNL     1       6.829   1.663  -0.796  1.00  0.00     0.068 C 
HETATM   14  N1  UNL     1       4.483   1.134  -1.287  1.00  0.00    -0.327 N 
HETATM   15  C18 UNL     1       3.217   0.855  -0.954  1.00  0.00     0.262 A 
ATOM     16  H1  UNL     1       4.726   1.177  -2.277  1.00  0.00     0.169 HD
HETATM   17  O3  UNL     1       2.361   0.653  -1.881  1.00  0.00    -0.267 OA
ENDBRANCH   7   9
ENDBRANCH   6   7
ENDBRANCH   1   6
BRANCH   5  18
HETATM   18  C14 UNL     1      -0.542  -2.593  -0.143  1.00  0.00    -0.015 C 
HETATM   19  C15 UNL     1      -1.518  -3.754   0.101  1.00  0.00     0.020 C 
HETATM   20  C16 UNL     1       0.689  -2.902   0.641  1.00  0.00     0.020 C 
HETATM   21  C17 UNL     1      -0.216  -2.606  -1.602  1.00  0.00     0.020 C 
ENDBRANCH   5  18
BRANCH   3  22
HETATM   22  S1  UNL     1      -4.230   1.521   1.768  1.00  0.00    -0.118 SA
BRANCH  22  23
HETATM   23  C10 UNL     1      -5.315   2.052   0.425  1.00  0.00     0.045 C 
HETATM   24  C11 UNL     1      -6.053   0.879  -0.183  1.00  0.00     0.021 C 
HETATM   25  C12 UNL     1      -4.584   2.856  -0.623  1.00  0.00     0.021 C 
ENDBRANCH  22  23
ENDBRANCH   3  22
TORSDOF 6
