REMARK  4 active torsions:
REMARK  status: ('A' for Active; 'I' for Inactive)
REMARK    1  A    between atoms: C2_2  and  C3_3 
REMARK    2  A    between atoms: C6_6  and  C7_7 
REMARK       I    between atoms: N1_11  and  C11_12 
REMARK       I    between atoms: C11_12  and  N2_14 
REMARK    3  A    between atoms: N2_14  and  C12_16 
REMARK    4  A    between atoms: C15_19  and  N3_20 
ROOT
HETATM    1  C3  UNL     1      -2.264  -1.525   0.004  1.00  0.00    -0.006 A 
HETATM    2  C4  UNL     1      -2.561  -0.200  -0.185  1.00  0.00    -0.026 A 
HETATM    3  C5  UNL     1      -3.938   0.299  -0.361  1.00  0.00     0.051 C 
HETATM    4  C6  UNL     1      -1.369   0.562  -0.142  1.00  0.00     0.036 A 
HETATM    5  N1  UNL     1      -0.357  -0.308   0.067  1.00  0.00    -0.270 N 
HETATM    6  C11 UNL     1       1.033  -0.087  -0.052  1.00  0.00     0.332 C 
HETATM    7  O1  UNL     1       1.596   0.816  -0.745  1.00  0.00    -0.246 OA
HETATM    8  N2  UNL     1       1.981  -0.872   0.626  1.00  0.00    -0.302 N 
ATOM      9  H2  UNL     1       1.670  -1.626   1.239  1.00  0.00     0.171 HD
HETATM   10  C16 UNL     1      -0.908  -1.587   0.160  1.00  0.00     0.028 A 
HETATM   11  C17 UNL     1      -0.149  -2.833   0.375  1.00  0.00     0.070 C 
ENDROOT
BRANCH   4  12
HETATM   12  C7  UNL     1      -1.470   2.025  -0.295  1.00  0.00    -0.007 C 
HETATM   13  C8  UNL     1      -0.246   2.854  -0.124  1.00  0.00     0.021 C 
HETATM   14  C9  UNL     1      -2.498   2.591   0.699  1.00  0.00     0.021 C 
HETATM   15  C10 UNL     1      -2.060   2.363  -1.690  1.00  0.00     0.021 C 
ENDBRANCH   4  12
BRANCH   8  16
HETATM   16  C12 UNL     1       3.400  -0.616   0.458  1.00  0.00     0.080 A 
HETATM   17  C13 UNL     1       4.456  -1.266   1.030  1.00  0.00     0.040 A 
HETATM   18  C14 UNL     1       5.683  -0.839   0.714  1.00  0.00     0.046 A 
HETATM   19  C15 UNL     1       5.781   0.213  -0.156  1.00  0.00     0.145 A 
HETATM   20  S1  UNL     1       4.161   0.578  -0.508  1.00  0.00    -0.048 SA
BRANCH  19  21
HETATM   21  N3  UNL     1       7.004   0.824  -0.625  1.00  0.00    -0.108 N 
HETATM   22  O2  UNL     1       6.968   1.779  -1.418  1.00  0.00    -0.531 OA
HETATM   23  O3  UNL     1       8.216   0.366  -0.207  1.00  0.00    -0.531 OA
ENDBRANCH  19  21
ENDBRANCH   8  16
BRANCH   1  24
HETATM   24  C2  UNL     1      -3.278  -2.586   0.039  1.00  0.00     0.003 C 
HETATM   25  C1  UNL     1      -3.293  -3.667  -0.658  1.00  0.00     0.012 C 
ENDBRANCH   1  24
TORSDOF 4
