REMARK  6 active torsions:
REMARK  status: ('A' for Active; 'I' for Inactive)
REMARK    1  A    between atoms: C4_4  and  N1_5 
REMARK       I    between atoms: N1_5  and  C5_7 
REMARK    2  A    between atoms: C5_7  and  O2_9 
REMARK    3  A    between atoms: O2_9  and  C6_10 
REMARK    4  A    between atoms: C11_15  and  N2_16 
REMARK    5  A    between atoms: C12_19  and  S1_20 
REMARK    6  A    between atoms: S1_20  and  C13_21 
ROOT
HETATM    1  C1  UNL     1       1.778   1.680  -1.934  1.00  0.00     0.049 C 
HETATM    2  C2  UNL     1       1.223   0.343  -1.524  1.00  0.00    -0.040 A 
HETATM    3  C3  UNL     1      -0.103   0.237  -1.082  1.00  0.00     0.038 A 
HETATM    4  C4  UNL     1      -0.641  -0.963  -0.701  1.00  0.00     0.039 A 
HETATM    5  C10 UNL     1       0.208  -2.091  -0.777  1.00  0.00     0.067 A 
HETATM    6  C11 UNL     1       1.504  -1.968  -1.212  1.00  0.00     0.122 A 
HETATM    7  C12 UNL     1       2.012  -0.754  -1.585  1.00  0.00     0.044 A 
ENDROOT
BRANCH   4   8
HETATM    8  N1  UNL     1      -1.950  -1.135  -0.239  1.00  0.00    -0.303 N 
HETATM    9  C5  UNL     1      -2.853  -0.110   0.098  1.00  0.00     0.365 C 
HETATM   10  O1  UNL     1      -2.659   1.119   0.050  1.00  0.00    -0.238 OA
ATOM     11  H1  UNL     1      -2.281  -2.094  -0.137  1.00  0.00     0.171 HD
BRANCH   9  12
HETATM   12  O2  UNL     1      -4.147  -0.451   0.548  1.00  0.00    -0.294 OA
BRANCH  12  13
HETATM   13  C6  UNL     1      -5.071   0.525   0.891  1.00  0.00     0.061 C 
HETATM   14  C7  UNL     1      -4.629   1.431   2.014  1.00  0.00     0.046 C 
HETATM   15  C8  UNL     1      -6.326  -0.197   1.395  1.00  0.00     0.046 C 
HETATM   16  C9  UNL     1      -5.494   1.396  -0.266  1.00  0.00     0.046 C 
ENDBRANCH  12  13
ENDBRANCH   9  12
ENDBRANCH   4   8
BRANCH   6  17
HETATM   17  N2  UNL     1       2.372  -3.099  -1.293  1.00  0.00    -0.114 N 
HETATM   18  O3  UNL     1       2.227  -4.101  -0.553  1.00  0.00    -0.532 OA
HETATM   19  O4  UNL     1       3.406  -3.116  -2.201  1.00  0.00    -0.532 OA
ENDBRANCH   6  17
BRANCH   7  20
HETATM   20  S1  UNL     1       3.704  -0.566  -2.157  1.00  0.00    -0.087 SA
BRANCH  20  21
HETATM   21  C13 UNL     1       4.782  -0.215  -0.748  1.00  0.00     0.005 A 
HETATM   22  C14 UNL     1       6.122  -0.034  -0.953  1.00  0.00     0.019 A 
HETATM   23  C15 UNL     1       6.960   0.233   0.096  1.00  0.00     0.001 A 
HETATM   24  C16 UNL     1       6.453   0.324   1.396  1.00  0.00     0.000 A 
HETATM   25  C17 UNL     1       5.101   0.138   1.578  1.00  0.00     0.001 A 
HETATM   26  C18 UNL     1       4.271  -0.129   0.520  1.00  0.00     0.019 A 
ENDBRANCH  20  21
ENDBRANCH   7  20
TORSDOF 6
