REMARK  4 active torsions:
REMARK  status: ('A' for Active; 'I' for Inactive)
REMARK    1  A    between atoms: C2_2  and  N1_5 
REMARK    2  A    between atoms: N1_5  and  C5_7 
REMARK    3  A    between atoms: C7_14  and  N4_15 
REMARK    4  A    between atoms: C8_18  and  N5_19 
ROOT
HETATM    1  C5  UNL     1       0.723   0.086  -0.090  1.00  0.00     0.141 A 
HETATM    2  N2  UNL     1       0.798   1.407   0.128  1.00  0.00    -0.317 N 
ATOM      3  H2  UNL     1      -0.067   1.915   0.313  1.00  0.00     0.170 HD
HETATM    4  C6  UNL     1       1.968   2.107   0.116  1.00  0.00     0.179 A 
HETATM    5  S1  UNL     1       1.971   3.730   0.393  1.00  0.00    -0.040 SA
HETATM    6  N3  UNL     1       3.116   1.452  -0.127  1.00  0.00    -0.317 N 
ATOM      7  H3  UNL     1       3.994   1.971  -0.138  1.00  0.00     0.170 HD
HETATM    8  C7  UNL     1       3.131   0.129  -0.355  1.00  0.00     0.138 A 
HETATM    9  C8  UNL     1       1.938  -0.559  -0.338  1.00  0.00     0.189 A 
ENDROOT
BRANCH   1  10
HETATM   10  N1  UNL     1      -0.461  -0.662  -0.081  1.00  0.00    -0.366 N 
ATOM     11  H1  UNL     1      -0.361  -1.662  -0.257  1.00  0.00     0.162 HD
BRANCH  10  12
HETATM   12  C2  UNL     1      -1.801  -0.190   0.147  1.00  0.00     0.021 C 
HETATM   13  C1  UNL     1      -1.889   0.492   1.496  1.00  0.00     0.037 C 
HETATM   14  C3  UNL     1      -2.767  -1.397   0.235  1.00  0.00     0.037 C 
HETATM   15  C4  UNL     1      -2.354   0.682  -0.933  1.00  0.00     0.037 C 
ENDBRANCH  10  12
ENDBRANCH   1  10
BRANCH   9  16
HETATM   16  N5  UNL     1       1.994  -1.960  -0.582  1.00  0.00    -0.108 N 
HETATM   17  O1  UNL     1       1.589  -2.357  -1.691  1.00  0.00    -0.531 OA
HETATM   18  O2  UNL     1       2.472  -2.845   0.352  1.00  0.00    -0.531 OA
ENDBRANCH   9  16
BRANCH   8  19
HETATM   19  N4  UNL     1       4.223  -0.477  -0.583  1.00  0.00    -0.383 N 
ATOM     20  H42 UNL     1       5.107   0.033  -0.596  1.00  0.00     0.157 HD
ATOM     21  H41 UNL     1       4.234  -1.482  -0.756  1.00  0.00     0.157 HD
ENDBRANCH   8  19
TORSDOF 4
