REMARK  4 active torsions:
REMARK  status: ('A' for Active; 'I' for Inactive)
REMARK    1  A    between atoms: C2_2  and  N1_5 
REMARK    2  A    between atoms: N1_5  and  C5_7 
REMARK    3  A    between atoms: C6_10  and  N3_11 
REMARK    4  A    between atoms: C8_18  and  N5_19 
ROOT
HETATM    1  C5  UNL     1       0.763  -0.301  -0.042  1.00  0.00     0.154 A 
HETATM    2  N2  UNL     1       1.164   0.946   0.278  1.00  0.00    -0.175 N 
ATOM      3  H2  UNL     1       0.453   1.667   0.405  1.00  0.00     0.186 HD
HETATM    4  C6  UNL     1       2.457   1.286   0.438  1.00  0.00     0.678 A 
HETATM    5  N4  UNL     1       3.418   0.368   0.278  1.00  0.00    -0.179 N 
ATOM      6  H4  UNL     1       4.398   0.625   0.398  1.00  0.00     0.185 HD
HETATM    7  C7  UNL     1       3.085  -0.892  -0.041  1.00  0.00     0.153 A 
HETATM    8  S1  UNL     1       4.250  -2.023  -0.239  1.00  0.00    -0.057 SA
HETATM    9  C8  UNL     1       1.747  -1.258  -0.210  1.00  0.00     0.185 A 
ENDROOT
BRANCH   1  10
HETATM   10  N1  UNL     1      -0.575  -0.683  -0.213  1.00  0.00    -0.366 N 
ATOM     11  H1  UNL     1      -0.736  -1.661  -0.453  1.00  0.00     0.162 HD
BRANCH  10  12
HETATM   12  C2  UNL     1      -1.745   0.139  -0.090  1.00  0.00     0.021 C 
HETATM   13  C1  UNL     1      -1.811   0.710   1.293  1.00  0.00     0.037 C 
HETATM   14  C3  UNL     1      -2.974  -0.765  -0.260  1.00  0.00     0.037 C 
HETATM   15  C4  UNL     1      -1.847   1.209  -1.125  1.00  0.00     0.037 C 
ENDBRANCH  10  12
ENDBRANCH   1  10
BRANCH   9  16
HETATM   16  N5  UNL     1       1.476  -2.607  -0.547  1.00  0.00    -0.108 N 
HETATM   17  O1  UNL     1       1.120  -2.893  -1.688  1.00  0.00    -0.532 OA
HETATM   18  O2  UNL     1       1.622  -3.558   0.426  1.00  0.00    -0.532 OA
ENDBRANCH   9  16
BRANCH   4  19
HETATM   19  N3  UNL     1       2.797   2.514   0.751  1.00  0.00    -0.234 N 
ATOM     20  H32 UNL     1       2.065   3.214   0.873  1.00  0.00     0.174 HD
ATOM     21  H31 UNL     1       3.776   2.772   0.872  1.00  0.00     0.174 HD
ENDBRANCH   4  19
TORSDOF 4
