REMARK  6 active torsions:
REMARK  status: ('A' for Active; 'I' for Inactive)
REMARK    1  A    between atoms: C2_2  and  C3_3 
REMARK    2  A    between atoms: C3_3  and  C4_4 
REMARK    3  A    between atoms: C4_4  and  N1_5 
REMARK    4  A    between atoms: C5_6  and  O1_7 
REMARK    5  A    between atoms: C6_9  and  C7_10 
REMARK    6  A    between atoms: C8_11  and  C9_12 
ROOT
HETATM    1  N1  UNL     1       1.389   0.554  -1.148  1.00  0.00    -0.302 N 
HETATM    2  C5  UNL     1       0.294   0.768  -0.371  1.00  0.00     0.181 A 
HETATM    3  C6  UNL     1      -0.697  -0.139  -0.686  1.00  0.00     0.140 A 
HETATM    4  N2  UNL     1      -0.177  -0.902  -1.668  1.00  0.00    -0.322 N 
ATOM      5  H2  UNL     1      -0.656  -1.675  -2.130  1.00  0.00     0.169 HD
HETATM    6  C12 UNL     1       1.083  -0.482  -1.946  1.00  0.00     0.181 A 
HETATM    7  S1  UNL     1       2.008  -1.175  -3.097  1.00  0.00    -0.040 SA
ENDROOT
BRANCH   3   8
HETATM    8  C7  UNL     1      -2.016  -0.257  -0.098  1.00  0.00    -0.041 C 
HETATM    9  C8  UNL     1      -3.109  -0.375   0.397  1.00  0.00    -0.056 C 
BRANCH   9  10
HETATM   10  C9  UNL     1      -4.423  -0.536   1.010  1.00  0.00     0.159 C 
HETATM   11  C10 UNL     1      -4.794   0.786   1.658  1.00  0.00     0.066 C 
HETATM   12  C11 UNL     1      -5.499  -0.851   0.000  1.00  0.00     0.066 C 
HETATM   13  F1  UNL     1      -4.420  -1.546   1.952  1.00  0.00    -0.230 F 
ENDBRANCH   9  10
ENDBRANCH   3   8
BRANCH   2  14
HETATM   14  O1  UNL     1       0.196   1.765   0.603  1.00  0.00    -0.344 OA
ATOM     15  H1  UNL     1      -0.569   1.915   1.146  1.00  0.00     0.219 HD
ENDBRANCH   2  14
BRANCH   1  16
HETATM   16  C4  UNL     1       2.605   1.326  -1.099  1.00  0.00     0.133 C 
BRANCH  16  17
HETATM   17  C3  UNL     1       3.612   0.853  -0.103  1.00  0.00     0.020 C 
BRANCH  17  18
HETATM   18  C2  UNL     1       4.086  -0.543  -0.309  1.00  0.00    -0.003 C 
HETATM   19  C1  UNL     1       5.125  -0.942   0.750  1.00  0.00     0.005 C 
ENDBRANCH  17  18
ENDBRANCH  16  17
ENDBRANCH   1  16
TORSDOF 6
