REMARK  3 active torsions:
REMARK  status: ('A' for Active; 'I' for Inactive)
REMARK    1  A    between atoms: C5_5  and  N1_6 
REMARK    2  A    between atoms: N1_6  and  C6_8 
REMARK    3  A    between atoms: C6_8  and  C7_9 
ROOT
HETATM    1  C1  UNL     1      -4.052   3.575   0.724  1.00  0.00     0.018 C 
HETATM    2  C2  UNL     1      -3.250   2.699   0.487  1.00  0.00    -0.076 C 
HETATM    3  C3  UNL     1      -2.284   1.673   0.216  1.00  0.00     0.037 A 
HETATM    4  C4  UNL     1      -0.937   1.869   0.287  1.00  0.00     0.051 A 
HETATM    5  C5  UNL     1      -0.137   0.765  -0.007  1.00  0.00     0.030 A 
HETATM    6  C10 UNL     1      -0.647  -0.447  -0.349  1.00  0.00     0.044 A 
HETATM    7  C11 UNL     1      -2.033  -0.664  -0.426  1.00  0.00     0.013 A 
HETATM    8  C12 UNL     1      -2.675  -1.808  -0.751  1.00  0.00     0.103 A 
HETATM    9  N2  UNL     1      -2.015  -3.065  -1.089  1.00  0.00    -0.098 NA
HETATM   10  C13 UNL     1      -4.043  -1.775  -0.759  1.00  0.00     0.183 A 
HETATM   11  F1  UNL     1      -4.909  -2.807  -1.055  1.00  0.00    -0.196 F 
HETATM   12  S1  UNL     1      -4.393  -0.160  -0.318  1.00  0.00    -0.056 SA
HETATM   13  C14 UNL     1      -2.802   0.419  -0.137  1.00  0.00     0.038 A 
ENDROOT
BRANCH   5  14
HETATM   14  N1  UNL     1       1.277   0.953   0.063  1.00  0.00    -0.389 N 
ATOM     15  H1  UNL     1       1.675   1.857   0.315  1.00  0.00     0.159 HD
BRANCH  14  16
HETATM   16  C6  UNL     1       2.124  -0.175  -0.234  1.00  0.00     0.124 C 
BRANCH  16  17
HETATM   17  C7  UNL     1       3.580   0.135  -0.132  1.00  0.00     0.003 A 
HETATM   18  C8  UNL     1       4.177   0.602   1.139  1.00  0.00     0.007 A 
HETATM   19  C9  UNL     1       4.390  -0.833   0.694  1.00  0.00     0.007 A 
ENDBRANCH  16  17
ENDBRANCH  14  16
ENDBRANCH   5  14
TORSDOF 3
