REMARK  4 active torsions:
REMARK  status: ('A' for Active; 'I' for Inactive)
REMARK    1  A    between atoms: C2_2  and  C3_3 
REMARK    2  A    between atoms: C2_2  and  C8_12 
REMARK    3  A    between atoms: C4_4  and  C5_5 
REMARK    4  A    between atoms: C7_9  and  O2_10 
ROOT
HETATM    1  C1  UNL     1      -0.890   1.640   1.581  1.00  0.00     0.017 C 
HETATM    2  C2  UNL     1      -1.101   0.909   0.237  1.00  0.00     0.050 C 
ENDROOT
BRANCH   2   3
HETATM    3  C3  UNL     1      -2.108  -0.146   0.403  1.00  0.00     0.015 A 
HETATM    4  C4  UNL     1      -2.773  -0.836  -0.582  1.00  0.00    -0.011 A 
HETATM    5  C6  UNL     1      -3.608  -1.744   0.042  1.00  0.00     0.153 A 
HETATM    6  O1  UNL     1      -3.438  -1.589   1.316  1.00  0.00    -0.299 OA
HETATM    7  C7  UNL     1      -2.560  -0.655   1.586  1.00  0.00     0.190 A 
BRANCH   4   8
HETATM    8  C5  UNL     1      -2.694  -0.696  -2.057  1.00  0.00     0.155 C 
HETATM    9 CL1  UNL     1      -3.858  -1.796  -2.844  1.00  0.00    -0.125 Cl
ENDBRANCH   4   8
BRANCH   7  10
HETATM   10  O2  UNL     1      -2.234  -0.334   2.900  1.00  0.00    -0.340 OA
ATOM     11  H2  UNL     1      -2.549  -0.688   3.723  1.00  0.00     0.220 HD
ENDBRANCH   7  10
ENDBRANCH   2   3
BRANCH   2  12
HETATM   12  C8  UNL     1       0.239   0.392  -0.248  1.00  0.00     0.194 C 
HETATM   13  C9  UNL     1       1.161   1.592  -0.420  1.00  0.00     0.034 C 
HETATM   14  C10 UNL     1       2.440   1.085  -1.046  1.00  0.00     0.002 C 
HETATM   15  C11 UNL     1       3.356   0.455  -0.012  1.00  0.00     0.002 C 
HETATM   16  C12 UNL     1       3.170  -1.051   0.015  1.00  0.00     0.027 C 
HETATM   17  C13 UNL     1       1.717  -1.441  -0.018  1.00  0.00     0.232 C 
HETATM   18  N1  UNL     1       0.871  -0.497   0.674  1.00  0.00    -0.070 N 
ATOM     19  H12 UNL     1       1.384   0.010   1.395  1.00  0.00     0.277 HD
ATOM     20  H11 UNL     1       0.190  -0.968   1.270  1.00  0.00     0.277 HD
ENDBRANCH   2  12
TORSDOF 4
