REMARK  5 active torsions:
REMARK  status: ('A' for Active; 'I' for Inactive)
REMARK    1  A    between atoms: C2_2  and  C3_3 
REMARK    2  A    between atoms: C3_3  and  C4_4 
REMARK    3  A    between atoms: N1_5  and  C5_7 
REMARK    4  A    between atoms: C8_11  and  O1_12 
REMARK    5  A    between atoms: C10_15  and  O2_16 
ROOT
HETATM    1  C5  UNL     1       1.252  -0.243   0.389  1.00  0.00     0.066 A 
HETATM    2  C6  UNL     1       1.718   1.053   0.437  1.00  0.00     0.054 A 
HETATM    3  C7  UNL     1       3.077   1.306   0.503  1.00  0.00     0.046 A 
HETATM    4 BR1  UNL     1       3.714   3.121   0.569  1.00  0.00    -0.048 Br
HETATM    5  C8  UNL     1       4.017   0.299   0.523  1.00  0.00     0.085 A 
HETATM    6  C9  UNL     1       3.549  -0.997   0.475  1.00  0.00     0.076 A 
HETATM    7  C10 UNL     1       2.195  -1.254   0.410  1.00  0.00     0.095 A 
ENDROOT
BRANCH   1   8
HETATM    8  N1  UNL     1      -0.121  -0.578   0.321  1.00  0.00    -0.367 N 
HETATM    9  C4  UNL     1      -1.061   0.209  -0.010  1.00  0.00     0.061 C 
ATOM     10  H1  UNL     1      -0.378  -1.536   0.559  1.00  0.00     0.165 HD
BRANCH   9  11
HETATM   11  C3  UNL     1      -2.449  -0.325  -0.024  1.00  0.00     0.044 C 
BRANCH  11  12
HETATM   12  C2  UNL     1      -3.481   0.777   0.057  1.00  0.00     0.001 C 
HETATM   13  C1  UNL     1      -4.845   0.137   0.036  1.00  0.00     0.005 C 
ENDBRANCH  11  12
ENDBRANCH   9  11
ENDBRANCH   1   8
BRANCH   7  14
HETATM   14  O2  UNL     1       1.737  -2.571   0.362  1.00  0.00    -0.358 OA
ATOM     15  H2  UNL     1       2.385  -3.266   0.376  1.00  0.00     0.217 HD
ENDBRANCH   7  14
BRANCH   5  16
HETATM   16  O1  UNL     1       5.390   0.577   0.590  1.00  0.00    -0.359 OA
ATOM     17  H1  UNL     1       6.038  -0.117   0.604  1.00  0.00     0.217 HD
ENDBRANCH   5  16
TORSDOF 5
