REMARK  4 active torsions:
REMARK  status: ('A' for Active; 'I' for Inactive)
REMARK    1  A    between atoms: C2_2  and  C3_3 
REMARK    2  A    between atoms: C6_8  and  C7_9 
REMARK    3  A    between atoms: C7_9  and  N2_11 
REMARK    4  A    between atoms: N2_11  and  C8_14 
ROOT
HETATM    1  C7  UNL     1       0.377  -0.675  -0.173  1.00  0.00     0.317 C 
HETATM    2 CL1  UNL     1       0.328  -1.154   1.448  1.00  0.00    -0.089 Cl
ENDROOT
BRANCH   1   3
HETATM    3  C6  UNL     1       1.672  -0.465  -0.883  1.00  0.00     0.025 A 
HETATM    4  C3  UNL     1       2.922  -0.760  -0.497  1.00  0.00    -0.040 A 
HETATM    5  C4  UNL     1       3.940  -0.477  -1.395  1.00  0.00     0.059 A 
HETATM    6  S1  UNL     1       3.154   0.186  -2.739  1.00  0.00    -0.086 SA
HETATM    7  C5  UNL     1       1.566   0.102  -2.168  1.00  0.00     0.097 A 
HETATM    8  N1  UNL     1       0.358   0.519  -2.844  1.00  0.00    -0.094 NA
BRANCH   4   9
HETATM    9  C2  UNL     1       3.305  -1.338   0.865  1.00  0.00     0.035 C 
HETATM   10  C1  UNL     1       3.393  -0.258   1.907  1.00  0.00     0.010 C 
ENDBRANCH   4   9
ENDBRANCH   1   3
BRANCH   1  11
HETATM   11  N2  UNL     1      -0.432   0.559  -0.281  1.00  0.00    -0.050 N 
ATOM     12  H22 UNL     1       0.087   1.379   0.033  1.00  0.00     0.279 HD
ATOM     13  H21 UNL     1      -0.577   0.831  -1.253  1.00  0.00     0.279 HD
BRANCH  11  14
HETATM   14  C8  UNL     1      -1.675   0.417   0.421  1.00  0.00     0.188 C 
HETATM   15  C9  UNL     1      -2.509  -0.673  -0.169  1.00  0.00     0.033 C 
HETATM   16  C10 UNL     1      -3.937  -0.186  -0.212  1.00  0.00     0.002 C 
HETATM   17  C11 UNL     1      -3.804   1.293  -0.348  1.00  0.00     0.002 C 
HETATM   18  C12 UNL     1      -2.526   1.665   0.342  1.00  0.00     0.033 C 
ENDBRANCH  11  14
ENDBRANCH   1  11
TORSDOF 4
