REMARK  4 active torsions:
REMARK  status: ('A' for Active; 'I' for Inactive)
REMARK    1  A    between atoms: O1_1  and  C1_3 
REMARK    2  A    between atoms: C1_3  and  N1_4 
REMARK    3  A    between atoms: C1_3  and  C10_14 
REMARK    4  A    between atoms: N1_4  and  C2_6 
ROOT
HETATM    1  N1  UNL     1       1.312   0.243  -0.338  1.00  0.00    -0.388 N 
ATOM      2  H1  UNL     1       1.625   0.688  -1.201  1.00  0.00     0.156 HD
ENDROOT
BRANCH   1   3
HETATM    3  C1  UNL     1       2.236  -0.380   0.534  1.00  0.00     0.252 C 
BRANCH   3   4
HETATM    4  O1  UNL     1       2.117  -1.694   0.834  1.00  0.00    -0.373 OA
ATOM      5  H1  UNL     1       2.737  -2.112   1.419  1.00  0.00     0.212 HD
ENDBRANCH   3   4
BRANCH   3   6
HETATM    6  C10 UNL     1       3.651  -0.001   0.190  1.00  0.00     0.037 A 
HETATM    7  C11 UNL     1       4.319   1.121   0.610  1.00  0.00     0.040 A 
HETATM    8  C12 UNL     1       5.576   1.112   0.063  1.00  0.00     0.144 A 
HETATM    9  O2  UNL     1       5.677   0.041  -0.654  1.00  0.00    -0.310 OA
HETATM   10  C13 UNL     1       4.542  -0.669  -0.613  1.00  0.00     0.154 A 
HETATM   11 CL1  UNL     1       4.358  -2.156  -1.471  1.00  0.00    -0.056 Cl
ENDBRANCH   3   6
ENDBRANCH   1   3
BRANCH   1  12
HETATM   12  C2  UNL     1      -0.032   0.233   0.010  1.00  0.00     0.089 C 
HETATM   13  C3  UNL     1      -0.711  -1.050  -0.089  1.00  0.00     0.026 C 
HETATM   14  C4  UNL     1      -1.920  -1.412   0.754  1.00  0.00     0.002 C 
HETATM   15  C5  UNL     1      -3.238  -1.115   0.072  1.00  0.00     0.001 C 
HETATM   16  C6  UNL     1      -3.994   0.120   0.338  1.00  0.00     0.011 C 
HETATM   17  C7  UNL     1      -3.486   1.411  -0.375  1.00  0.00     0.080 C 
HETATM   18  C8  UNL     1      -2.090   1.269  -0.402  1.00  0.00    -0.181 C 
HETATM   19  C9  UNL     1      -0.733   1.451  -0.707  1.00  0.00     0.104 C 
ENDBRANCH   1  12
TORSDOF 4
