REMARK  5 active torsions:
REMARK  status: ('A' for Active; 'I' for Inactive)
REMARK    1  A    between atoms: O1_1  and  C1_3 
REMARK    2  A    between atoms: C4_6  and  O2_7 
REMARK    3  A    between atoms: N1_9  and  C5_10 
REMARK    4  A    between atoms: C5_10  and  C6_11 
REMARK    5  A    between atoms: C6_11  and  C7_12 
ROOT
HETATM    1  C1  UNL     1      -0.862  -0.631  -0.963  1.00  0.00     0.151 A 
HETATM    2  C2  UNL     1      -2.217  -0.588  -0.713  1.00  0.00     0.004 A 
HETATM    3  C3  UNL     1      -2.459   0.657  -0.194  1.00  0.00     0.004 A 
HETATM    4  C4  UNL     1      -1.262   1.316  -0.149  1.00  0.00     0.151 A 
HETATM    5  N1  UNL     1      -0.286   0.527  -0.619  1.00  0.00    -0.308 N 
HETATM    6  C12 UNL     1      -3.812   1.118   0.214  1.00  0.00     0.044 C 
HETATM    7  C13 UNL     1      -4.777   0.026   0.456  1.00  0.00     0.005 C 
HETATM    8  C14 UNL     1      -4.256  -1.355   0.314  1.00  0.00     0.005 C 
HETATM    9  C15 UNL     1      -3.338  -1.524  -0.878  1.00  0.00     0.044 C 
ENDROOT
BRANCH   5  10
HETATM   10  C5  UNL     1       1.148   0.874  -0.733  1.00  0.00     0.134 C 
BRANCH  10  11
HETATM   11  C6  UNL     1       1.896   0.517   0.493  1.00  0.00     0.029 C 
BRANCH  11  12
HETATM   12  C7  UNL     1       3.346   0.895   0.360  1.00  0.00     0.013 C 
HETATM   13  C8  UNL     1       4.105   0.557   1.608  1.00  0.00     0.015 C 
HETATM   14  C9  UNL     1       4.679  -0.613   1.481  1.00  0.00     0.090 C 
HETATM   15  F1  UNL     1       5.440  -1.240   2.397  1.00  0.00    -0.211 F 
HETATM   16  C10 UNL     1       4.375  -1.189   0.120  1.00  0.00     0.070 C 
HETATM   17  C11 UNL     1       4.074   0.087  -0.671  1.00  0.00     0.015 C 
ENDBRANCH  11  12
ENDBRANCH  10  11
ENDBRANCH   5  10
BRANCH   1  18
HETATM   18  O1  UNL     1      -0.192  -1.723  -1.496  1.00  0.00    -0.345 OA
ATOM     19  H1  UNL     1       0.742  -1.753  -1.668  1.00  0.00     0.219 HD
ENDBRANCH   1  18
BRANCH   4  20
HETATM   20  O2  UNL     1      -1.033   2.609   0.307  1.00  0.00    -0.345 OA
ATOM     21  H2  UNL     1      -0.201   3.067   0.338  1.00  0.00     0.219 HD
ENDBRANCH   4  20
TORSDOF 5
