REMARK  5 active torsions:
REMARK  status: ('A' for Active; 'I' for Inactive)
REMARK    1  A    between atoms: C2_2  and  C3_3 
REMARK    2  A    between atoms: C3_3  and  C4_4 
REMARK    3  A    between atoms: C3_3  and  C8_14 
REMARK    4  A    between atoms: C5_6  and  O2_7 
REMARK    5  A    between atoms: C6_9  and  O3_10 
ROOT
HETATM    1  C4  UNL     1       0.896  -0.133   0.344  1.00  0.00     0.105 A 
HETATM    2  O1  UNL     1       1.617   0.633   1.153  1.00  0.00    -0.284 OA
HETATM    3  C5  UNL     1       2.893   0.585   0.870  1.00  0.00     0.219 A 
HETATM    4  C6  UNL     1       3.093  -0.254  -0.203  1.00  0.00     0.144 A 
HETATM    5  C7  UNL     1       1.811  -0.721  -0.546  1.00  0.00     0.083 A 
HETATM    6 BR1  UNL     1       1.446  -1.871  -2.031  1.00  0.00    -0.045 Br
ENDROOT
BRANCH   1   7
HETATM    7  C3  UNL     1      -0.547  -0.367   0.354  1.00  0.00    -0.020 C 
BRANCH   7   8
HETATM    8  C2  UNL     1      -1.047  -1.734   0.362  1.00  0.00    -0.000 C 
HETATM    9  C1  UNL     1      -2.020  -2.233  -0.381  1.00  0.00     0.012 C 
ENDBRANCH   7   8
BRANCH   7  10
HETATM   10  C8  UNL     1      -1.460   0.664  -0.141  1.00  0.00     0.013 C 
HETATM   11  C9  UNL     1      -0.958   2.066  -0.214  1.00  0.00     0.015 C 
HETATM   12  C10 UNL     1      -2.773   0.719   0.645  1.00  0.00     0.015 C 
ENDBRANCH   7  10
ENDBRANCH   1   7
BRANCH   3  13
HETATM   13  O2  UNL     1       3.963   1.246   1.524  1.00  0.00    -0.339 OA
ATOM     14  H2  UNL     1       4.890   1.211   1.318  1.00  0.00     0.220 HD
ENDBRANCH   3  13
BRANCH   4  15
HETATM   15  O3  UNL     1       4.298  -0.559  -0.808  1.00  0.00    -0.355 OA
ATOM     16  H3  UNL     1       4.436  -1.138  -1.548  1.00  0.00     0.218 HD
ENDBRANCH   4  15
TORSDOF 5
