REMARK  5 active torsions:
REMARK  status: ('A' for Active; 'I' for Inactive)
REMARK    1  A    between atoms: O1_2  and  C2_3 
REMARK    2  A    between atoms: C5_6  and  N1_7 
REMARK    3  A    between atoms: N1_7  and  C6_10 
REMARK    4  A    between atoms: C6_10  and  C7_11 
REMARK    5  A    between atoms: C7_11  and  C8_12 
ROOT
HETATM    1  N1  UNL     1      -1.099  -0.461   0.024  1.00  0.00    -0.070 N 
ATOM      2  H11 UNL     1      -1.323  -0.562   1.014  1.00  0.00     0.277 HD
ATOM      3  H12 UNL     1      -1.408  -1.371  -0.317  1.00  0.00     0.277 HD
ENDROOT
BRANCH   1   4
HETATM    4  C5  UNL     1       0.331  -0.308  -0.161  1.00  0.00     0.186 C 
HETATM    5  C4  UNL     1       0.769   0.941   0.519  1.00  0.00     0.035 C 
HETATM    6  C3  UNL     1       2.249   1.022   0.729  1.00  0.00     0.034 C 
HETATM    7  C2  UNL     1       3.043  -0.116   0.172  1.00  0.00     0.120 C 
HETATM    8  C12 UNL     1       2.458  -1.469   0.483  1.00  0.00     0.034 C 
HETATM    9  C11 UNL     1       0.964  -1.482   0.546  1.00  0.00     0.035 C 
BRANCH   7  10
HETATM   10  O1  UNL     1       4.353  -0.146   0.570  1.00  0.00    -0.391 OA
HETATM   11  C1  UNL     1       5.282  -0.043  -0.430  1.00  0.00     0.202 C 
ENDBRANCH   7  10
ENDBRANCH   1   4
BRANCH   1  12
HETATM   12  C6  UNL     1      -1.882   0.591  -0.565  1.00  0.00     0.251 C 
BRANCH  12  13
HETATM   13  C7  UNL     1      -3.352   0.353  -0.327  1.00  0.00     0.081 A 
HETATM   14  C9  UNL     1      -3.816  -0.113   1.020  1.00  0.00     0.021 A 
HETATM   15  C10 UNL     1      -3.899  -1.000  -0.212  1.00  0.00     0.021 A 
BRANCH  13  16
HETATM   16  C8  UNL     1      -4.250   1.437  -0.928  1.00  0.00     0.397 C 
HETATM   17  F1  UNL     1      -5.544   1.100  -0.642  1.00  0.00    -0.170 F 
HETATM   18  F2  UNL     1      -3.936   2.608  -0.244  1.00  0.00    -0.170 F 
HETATM   19  F3  UNL     1      -4.003   1.645  -2.252  1.00  0.00    -0.170 F 
ENDBRANCH  13  16
ENDBRANCH  12  13
ENDBRANCH   1  12
TORSDOF 5
