REMARK  4 active torsions:
REMARK  status: ('A' for Active; 'I' for Inactive)
REMARK    1  A    between atoms: C2_2  and  N1_3 
REMARK    2  A    between atoms: C2_2  and  C7_10 
REMARK    3  A    between atoms: C2_2  and  C10_13 
REMARK    4  A    between atoms: N1_3  and  C3_5 
ROOT
HETATM    1  C1  UNL     1      -1.701   1.619  -0.471  1.00  0.00     0.046 C 
HETATM    2  C2  UNL     1      -0.958   0.283  -0.671  1.00  0.00     0.107 C 
ENDROOT
BRANCH   2   3
HETATM    3  N1  UNL     1       0.417   0.575  -0.583  1.00  0.00    -0.402 N 
ATOM      4  H1  UNL     1       0.803   1.319  -1.164  1.00  0.00     0.154 HD
BRANCH   3   5
HETATM    5  C3  UNL     1       1.274  -0.129   0.282  1.00  0.00     0.087 C 
HETATM    6  C4  UNL     1       2.609   0.616   0.171  1.00  0.00     0.035 C 
HETATM    7  C5  UNL     1       3.628  -0.119   0.941  1.00  0.00     0.076 C 
HETATM    8  S1  UNL     1       3.071  -1.847   0.864  1.00  0.00    -0.167 SA
HETATM    9  C6  UNL     1       1.604  -1.546  -0.213  1.00  0.00     0.098 C 
ENDBRANCH   3   5
ENDBRANCH   2   3
BRANCH   2  10
HETATM   10  C7  UNL     1      -1.544  -0.673   0.271  1.00  0.00     0.020 A 
HETATM   11  C8  UNL     1      -1.566  -0.509   1.722  1.00  0.00     0.008 A 
HETATM   12  C9  UNL     1      -2.844  -0.372   1.003  1.00  0.00     0.008 A 
ENDBRANCH   2  10
BRANCH   2  13
HETATM   13  C10 UNL     1      -1.244  -0.087  -2.114  1.00  0.00     0.344 C 
HETATM   14  F1  UNL     1      -0.750   0.883  -3.007  1.00  0.00    -0.185 F 
HETATM   15  F2  UNL     1      -0.720  -1.307  -2.457  1.00  0.00    -0.185 F 
HETATM   16 CL1  UNL     1      -3.001  -0.146  -2.431  1.00  0.00    -0.045 Cl
ENDBRANCH   2  13
TORSDOF 4
