REMARK  6 active torsions:
REMARK  status: ('A' for Active; 'I' for Inactive)
REMARK    1  A    between atoms: C1_2  and  C2_5 
REMARK    2  A    between atoms: C2_5  and  S1_6 
REMARK    3  A    between atoms: C2_5  and  C7_14 
REMARK    4  A    between atoms: S1_6  and  C3_7 
REMARK    5  A    between atoms: C3_7  and  N1_9 
REMARK    6  A    between atoms: N1_9  and  C4_11 
ROOT
HETATM    1  C2  UNL     1      -1.810   1.067   0.556  1.00  0.00     0.166 C 
ENDROOT
BRANCH   1   2
HETATM    2  C1  UNL     1      -2.538   2.413   0.686  1.00  0.00     0.400 C 
HETATM    3  F1  UNL     1      -1.842   3.092   1.695  1.00  0.00    -0.170 F 
HETATM    4  F2  UNL     1      -3.808   2.232   1.175  1.00  0.00    -0.170 F 
HETATM    5  F3  UNL     1      -2.454   3.163  -0.443  1.00  0.00    -0.170 F 
ENDBRANCH   1   2
BRANCH   1   6
HETATM    6  S1  UNL     1      -0.104   1.390   0.115  1.00  0.00    -0.086 SA
BRANCH   6   7
HETATM    7  C3  UNL     1       0.940  -0.029   0.040  1.00  0.00     0.135 C 
HETATM    8  S2  UNL     1       0.393  -1.508   0.444  1.00  0.00    -0.053 SA
BRANCH   7   9
HETATM    9  N1  UNL     1       2.313   0.090  -0.369  1.00  0.00    -0.371 N 
ATOM     10  H1  UNL     1       2.678   1.010  -0.616  1.00  0.00     0.161 HD
BRANCH   9  11
HETATM   11  C4  UNL     1       3.185  -1.045  -0.440  1.00  0.00     0.083 A 
HETATM   12  C5  UNL     1       4.613  -0.831  -0.887  1.00  0.00     0.027 A 
HETATM   13  C6  UNL     1       4.311  -1.113   0.541  1.00  0.00     0.027 A 
ENDBRANCH   9  11
ENDBRANCH   7   9
ENDBRANCH   6   7
ENDBRANCH   1   6
BRANCH   1  14
HETATM   14  C7  UNL     1      -2.510   0.206  -0.469  1.00  0.00     0.008 A 
HETATM   15  C8  UNL     1      -3.917  -0.196  -0.372  1.00  0.00     0.006 A 
HETATM   16  C9  UNL     1      -2.830  -1.199  -0.008  1.00  0.00     0.006 A 
ENDBRANCH   1  14
TORSDOF 6
