REMARK  8 active torsions:
REMARK  status: ('A' for Active; 'I' for Inactive)
REMARK    1  A    between atoms: C2_2  and  C4_4 
REMARK    2  A    between atoms: C2_2  and  C5_7 
REMARK    3  A    between atoms: C4_4  and  O1_5 
REMARK    4  A    between atoms: C5_7  and  C6_8 
REMARK    5  A    between atoms: C6_8  and  O2_9 
REMARK    6  A    between atoms: C8_12  and  O3_13 
REMARK    7  A    between atoms: C8_12  and  C9_15 
REMARK    8  A    between atoms: C9_15  and  C10_16 
ROOT
HETATM    1  C5  UNL     1      -2.308  -0.245  -0.315  1.00  0.00     0.093 C 
HETATM    2  C7  UNL     1      -1.103   0.558  -0.608  1.00  0.00     0.079 C 
HETATM    3  C8  UNL     1       0.111   0.261   0.252  1.00  0.00     0.065 C 
HETATM    4  C18 UNL     1      -0.255  -0.191   1.615  1.00  0.00     0.064 C 
HETATM    5  C19 UNL     1      -1.231  -1.315   1.486  1.00  0.00     0.172 C 
HETATM    6  O6  UNL     1      -2.268  -1.155   0.678  1.00  0.00    -0.377 OA
ENDROOT
BRANCH   3   7
HETATM    7  O3  UNL     1       0.893   1.433   0.390  1.00  0.00    -0.390 OA
ATOM      8  H3  UNL     1       1.653   1.247   0.929  1.00  0.00     0.210 HD
ENDBRANCH   3   7
BRANCH   3   9
HETATM    9  C9  UNL     1       0.997  -0.753  -0.423  1.00  0.00     0.072 C 
BRANCH   9  10
HETATM   10  C10 UNL     1       2.232  -1.120   0.331  1.00  0.00     0.156 C 
HETATM   11  C11 UNL     1       3.042  -2.150  -0.481  1.00  0.00     0.208 C 
HETATM   12  O4  UNL     1       3.869  -1.496  -1.415  1.00  0.00    -0.346 OA
HETATM   13  C12 UNL     1       4.703  -0.488  -0.955  1.00  0.00     0.102 A 
HETATM   14  C13 UNL     1       5.935  -0.245  -1.538  1.00  0.00     0.041 A 
HETATM   15  C17 UNL     1       4.266   0.268   0.106  1.00  0.00     0.104 A 
HETATM   16  C14 UNL     1       6.764   0.752  -1.087  1.00  0.00     0.026 A 
HETATM   17  C15 UNL     1       6.317   1.512  -0.016  1.00  0.00     0.036 A 
HETATM   18 CL1  UNL     1       7.340   2.786   0.586  1.00  0.00    -0.084 Cl
HETATM   19  C16 UNL     1       5.094   1.271   0.564  1.00  0.00     0.063 A 
HETATM   20  O5  UNL     1       3.033  -0.005   0.659  1.00  0.00    -0.341 OA
ENDBRANCH   9  10
ENDBRANCH   3   9
BRANCH   1  21
HETATM   21  C2  UNL     1      -3.566   0.586  -0.132  1.00  0.00     0.007 C 
HETATM   22  C1  UNL     1      -3.867   1.499  -1.267  1.00  0.00     0.020 C 
HETATM   23  C3  UNL     1      -3.460   1.446   1.134  1.00  0.00     0.020 C 
BRANCH  21  24
HETATM   24  C4  UNL     1      -4.784  -0.285   0.097  1.00  0.00     0.176 C 
BRANCH  24  25
HETATM   25  O1  UNL     1      -5.838   0.609   0.399  1.00  0.00    -0.400 OA
ATOM     26  H1  UNL     1      -6.602   0.063   0.543  1.00  0.00     0.209 HD
ENDBRANCH  24  25
ENDBRANCH  21  24
ENDBRANCH   1  21
BRANCH   1  27
HETATM   27  C6  UNL     1      -2.574  -1.071  -1.593  1.00  0.00     0.203 C 
BRANCH  27  28
HETATM   28  O2  UNL     1      -2.643  -0.287  -2.715  1.00  0.00    -0.398 OA
ATOM     29  H2  UNL     1      -2.807  -0.795  -3.501  1.00  0.00     0.209 HD
ENDBRANCH  27  28
ENDBRANCH   1  27
TORSDOF 8
