REMARK  7 active torsions:
REMARK  status: ('A' for Active; 'I' for Inactive)
REMARK    1  A    between atoms: C5_7  and  C6_8 
REMARK       I    between atoms: C6_8  and  N1_10 
REMARK    2  A    between atoms: N1_10  and  C7_12 
REMARK    3  A    between atoms: C12_17  and  O3_18 
REMARK    4  A    between atoms: C12_17  and  C13_20 
REMARK    5  A    between atoms: C13_20  and  O5_22 
REMARK    6  A    between atoms: O5_22  and  C14_23 
REMARK    7  A    between atoms: C17_26  and  O6_28 
ROOT
HETATM    1  C7  UNL     1      -0.926   0.646   1.218  1.00  0.00     0.051 C 
HETATM    2  C8  UNL     1      -0.572   0.778   2.468  1.00  0.00     0.028 C 
HETATM    3  C9  UNL     1       0.766   1.075   2.960  1.00  0.00     0.003 C 
HETATM    4  C10 UNL     1       1.740   1.182   2.071  1.00  0.00     0.013 C 
HETATM    5  C11 UNL     1       1.426   0.957   0.637  1.00  0.00     0.021 C 
HETATM    6  C12 UNL     1       2.322   0.455  -0.169  1.00  0.00     0.151 C 
HETATM    7  C17 UNL     1       0.074   1.264   0.227  1.00  0.00     0.126 C 
HETATM    8  C18 UNL     1      -0.342   1.090  -1.178  1.00  0.00     0.058 C 
ENDROOT
BRANCH   1   9
HETATM    9  N1  UNL     1      -2.178   0.329   0.685  1.00  0.00    -0.323 N 
HETATM   10  C6  UNL     1      -3.387   0.159   1.392  1.00  0.00     0.260 C 
HETATM   11  O2  UNL     1      -3.501   0.274   2.641  1.00  0.00    -0.267 OA
ATOM     12  H1  UNL     1      -2.223   0.207  -0.327  1.00  0.00     0.169 HD
BRANCH  10  13
HETATM   13  C5  UNL     1      -4.611  -0.181   0.612  1.00  0.00     0.084 A 
HETATM   14  C4  UNL     1      -5.908  -0.380   1.225  1.00  0.00     0.209 A 
HETATM   15  C3  UNL     1      -6.804  -0.691   0.093  1.00  0.00     0.091 A 
HETATM   16  O1  UNL     1      -6.227  -0.310   2.450  1.00  0.00    -0.285 OA
HETATM   17  C2  UNL     1      -6.113  -0.673  -1.032  1.00  0.00    -0.035 A 
HETATM   18 CL1  UNL     1      -8.514  -1.024   0.268  1.00  0.00    -0.079 Cl
HETATM   19  C1  UNL     1      -6.651  -0.936  -2.403  1.00  0.00     0.050 C 
HETATM   20  C19 UNL     1      -4.727  -0.348  -0.684  1.00  0.00     0.029 A 
ENDBRANCH  10  13
ENDBRANCH   1   9
BRANCH   7  21
HETATM   21  O6  UNL     1      -0.170   2.687   0.522  1.00  0.00    -0.379 OA
ATOM     22  H6  UNL     1       0.448   3.069  -0.090  1.00  0.00     0.211 HD
ENDBRANCH   7  21
BRANCH   6  23
HETATM   23  O3  UNL     1       1.973   0.264  -1.526  1.00  0.00    -0.355 OA
ATOM     24  H3  UNL     1       2.625  -0.101  -2.112  1.00  0.00     0.218 HD
ENDBRANCH   6  23
BRANCH   6  25
HETATM   25  C13 UNL     1       3.656   0.074   0.239  1.00  0.00     0.317 C 
HETATM   26  O4  UNL     1       4.179   0.131   1.360  1.00  0.00    -0.257 OA
BRANCH  25  27
HETATM   27  O5  UNL     1       4.561  -0.453  -0.730  1.00  0.00    -0.311 OA
BRANCH  27  28
HETATM   28  C14 UNL     1       5.837  -0.825  -0.374  1.00  0.00     0.124 C 
HETATM   29  C15 UNL     1       6.943  -0.161  -1.150  1.00  0.00     0.040 C 
HETATM   30  C16 UNL     1       5.971  -2.325  -0.630  1.00  0.00     0.040 C 
ENDBRANCH  27  28
ENDBRANCH  25  27
ENDBRANCH   6  25
TORSDOF 7
