REMARK  8 active torsions:
REMARK  status: ('A' for Active; 'I' for Inactive)
REMARK    1  A    between atoms: C2_2  and  O1_3 
REMARK    2  A    between atoms: O1_3  and  C3_4 
REMARK    3  A    between atoms: C7_9  and  O2_10 
REMARK    4  A    between atoms: C8_12  and  O3_13 
REMARK    5  A    between atoms: O3_13  and  C9_14 
REMARK    6  A    between atoms: C9_14  and  C10_15 
REMARK       I    between atoms: C10_15  and  N1_17 
REMARK    7  A    between atoms: C12_19  and  O5_20 
REMARK    8  A    between atoms: C16_25  and  O6_26 
ROOT
HETATM    1  C10 UNL     1       0.344   0.334  -1.177  1.00  0.00     0.244 C 
HETATM    2  O4  UNL     1       0.821   0.002  -2.296  1.00  0.00    -0.271 OA
HETATM    3  N1  UNL     1      -1.016   0.099  -0.837  1.00  0.00    -0.346 N 
HETATM    4  C11 UNL     1      -1.965  -0.532  -1.728  1.00  0.00     0.164 C 
HETATM    5  C12 UNL     1      -3.336  -0.228  -1.131  1.00  0.00     0.085 C 
HETATM    6  C13 UNL     1      -4.252  -1.336  -1.500  1.00  0.00     0.040 C 
HETATM    7  C14 UNL     1      -5.217  -1.742  -0.426  1.00  0.00     0.006 C 
HETATM    8  C15 UNL     1      -4.626  -1.823   0.934  1.00  0.00     0.033 C 
HETATM    9  C16 UNL     1      -3.133  -1.515   0.920  1.00  0.00     0.131 C 
HETATM   10  C17 UNL     1      -3.009  -0.125   0.316  1.00  0.00     0.031 C 
HETATM   11  C18 UNL     1      -4.028   0.821   0.957  1.00  0.00     0.023 C 
HETATM   12  C19 UNL     1      -1.637   0.442   0.399  1.00  0.00     0.140 C 
ENDROOT
BRANCH   1  13
HETATM   13  C9  UNL     1       1.259   0.987  -0.212  1.00  0.00     0.278 C 
BRANCH  13  14
HETATM   14  O3  UNL     1       2.556   1.132  -0.753  1.00  0.00    -0.336 OA
BRANCH  14  15
HETATM   15  C8  UNL     1       3.596   1.722  -0.037  1.00  0.00     0.137 A 
HETATM   16  C3  UNL     1       4.436   0.986   0.770  1.00  0.00     0.126 A 
HETATM   17  C4  UNL     1       5.473   1.529   1.493  1.00  0.00     0.070 A 
HETATM   18 CL1  UNL     1       6.518   0.555   2.507  1.00  0.00    -0.081 Cl
HETATM   19  C5  UNL     1       5.697   2.888   1.416  1.00  0.00     0.030 A 
HETATM   20  C6  UNL     1       4.855   3.648   0.604  1.00  0.00     0.041 A 
HETATM   21  C7  UNL     1       3.823   3.090  -0.112  1.00  0.00     0.102 A 
BRANCH  16  22
HETATM   22  O1  UNL     1       4.227  -0.392   0.861  1.00  0.00    -0.347 OA
BRANCH  22  23
HETATM   23  C2  UNL     1       4.908  -1.219  -0.075  1.00  0.00     0.171 C 
HETATM   24  C1  UNL     1       4.575  -2.676   0.162  1.00  0.00     0.034 C 
ENDBRANCH  22  23
ENDBRANCH  16  22
BRANCH  21  25
HETATM   25  O2  UNL     1       2.994   3.871  -0.918  1.00  0.00    -0.358 OA
ATOM     26  H2  UNL     1       2.281   3.485  -1.413  1.00  0.00     0.217 HD
ENDBRANCH  21  25
ENDBRANCH  14  15
ENDBRANCH  13  14
ENDBRANCH   1  13
BRANCH   5  27
HETATM   27  O5  UNL     1      -3.719   1.018  -1.604  1.00  0.00    -0.387 OA
ATOM     28  H5  UNL     1      -4.573   1.207  -1.232  1.00  0.00     0.210 HD
ENDBRANCH   5  27
BRANCH   9  29
HETATM   29  O6  UNL     1      -2.569  -1.623   2.164  1.00  0.00    -0.395 OA
ATOM     30  H6  UNL     1      -1.639  -1.431   2.155  1.00  0.00     0.210 HD
ENDBRANCH   9  29
TORSDOF 8
