REMARK  8 active torsions:
REMARK  status: ('A' for Active; 'I' for Inactive)
REMARK    1  A    between atoms: C2_2  and  O1_3 
REMARK    2  A    between atoms: O1_3  and  C3_4 
REMARK    3  A    between atoms: C3_4  and  C4_5 
REMARK    4  A    between atoms: N1_9  and  C7_10 
REMARK    5  A    between atoms: C7_10  and  N2_12 
REMARK    6  A    between atoms: N2_12  and  C8_14 
REMARK    7  A    between atoms: C8_14  and  C9_15 
REMARK    8  A    between atoms: C9_15  and  C10_16 
ROOT
HETATM    1  C7  UNL     1       0.713  -0.587  -0.517  1.00  0.00     0.170 C 
HETATM    2  S2  UNL     1       1.918  -0.975  -1.670  1.00  0.00    -0.041 SA
ENDROOT
BRANCH   1   3
HETATM    3  N1  UNL     1       1.166   0.171   0.574  1.00  0.00    -0.342 N 
HETATM    4  C4  UNL     1       2.466   0.689   0.950  1.00  0.00     0.120 C 
HETATM    5  C5  UNL     1       2.320   2.191   0.622  1.00  0.00     0.103 C 
HETATM    6  S1  UNL     1       0.749   2.434   1.574  1.00  0.00    -0.147 SA
HETATM    7  C6  UNL     1       0.319   0.630   1.694  1.00  0.00     0.200 C 
BRANCH   4   8
HETATM    8  C3  UNL     1       3.703   0.179   0.432  1.00  0.00     0.193 C 
BRANCH   8   9
HETATM    9  O1  UNL     1       3.990  -1.149   0.663  1.00  0.00    -0.389 OA
BRANCH   9  10
HETATM   10  C2  UNL     1       5.234  -1.581   0.313  1.00  0.00     0.163 C 
HETATM   11  C1  UNL     1       5.665  -1.443  -1.097  1.00  0.00     0.033 C 
ENDBRANCH   9  10
ENDBRANCH   8   9
ENDBRANCH   4   8
ENDBRANCH   1   3
BRANCH   1  12
HETATM   12  N2  UNL     1      -0.528  -1.073  -0.887  1.00  0.00    -0.367 N 
ATOM     13  H2  UNL     1      -0.473  -1.635  -1.736  1.00  0.00     0.161 HD
BRANCH  12  14
HETATM   14  C8  UNL     1      -1.855  -0.996  -0.398  1.00  0.00     0.122 C 
BRANCH  14  15
HETATM   15  C9  UNL     1      -2.568   0.310  -0.646  1.00  0.00     0.028 C 
BRANCH  15  16
HETATM   16  C10 UNL     1      -3.960   0.324  -0.095  1.00  0.00    -0.050 C 
HETATM   17  C11 UNL     1      -4.794  -0.783  -0.744  1.00  0.00     0.014 C 
HETATM   18  C12 UNL     1      -4.020   0.219   1.396  1.00  0.00     0.014 C 
HETATM   19  C13 UNL     1      -4.604   1.635  -0.496  1.00  0.00     0.014 C 
ENDBRANCH  15  16
ENDBRANCH  14  15
ENDBRANCH  12  14
ENDBRANCH   1  12
TORSDOF 8
