REMARK  10 active torsions:
REMARK  status: ('A' for Active; 'I' for Inactive)
REMARK    1  A    between atoms: C3_3  and  C6_6 
REMARK    2  A    between atoms: C6_6  and  O1_8 
REMARK    3  A    between atoms: O1_8  and  C8_9 
REMARK    4  A    between atoms: C8_9  and  C9_11 
REMARK    5  A    between atoms: C9_11  and  C10_12 
REMARK    6  A    between atoms: N1_13  and  C11_15 
REMARK    7  A    between atoms: C14_18  and  O3_19 
REMARK    8  A    between atoms: C16_21  and  C17_22 
REMARK    9  A    between atoms: N2_24  and  N3_26 
REMARK       I    between atoms: N3_26  and  C19_28 
REMARK       I    between atoms: C19_28  and  N4_30 
REMARK   10  A    between atoms: N4_30  and  N5_32 
ROOT
HETATM    1  C1  UNL     1      -6.644   0.316  -2.653  1.00  0.00     0.013 C 
HETATM    2  C2  UNL     1      -6.546   0.565  -1.478  1.00  0.00    -0.105 C 
HETATM    3  C3  UNL     1      -6.403   0.864  -0.078  1.00  0.00     0.042 C 
HETATM    4  C4  UNL     1      -7.723   1.278   0.552  1.00  0.00     0.031 C 
HETATM    5  C5  UNL     1      -5.466   2.037   0.124  1.00  0.00     0.031 C 
ENDROOT
BRANCH   3   6
HETATM    6  C6  UNL     1      -5.904  -0.346   0.675  1.00  0.00     0.147 C 
HETATM    7  C7  UNL     1      -6.832  -1.503   0.569  1.00  0.00     0.042 C 
BRANCH   6   8
HETATM    8  O1  UNL     1      -4.563  -0.681   0.375  1.00  0.00    -0.314 OA
BRANCH   8   9
HETATM    9  C8  UNL     1      -3.512  -0.518   1.266  1.00  0.00     0.264 C 
HETATM   10  O2  UNL     1      -3.831  -0.028   2.395  1.00  0.00    -0.265 OA
BRANCH   9  11
HETATM   11  C9  UNL     1      -2.095  -0.882   0.947  1.00  0.00     0.155 C 
BRANCH  11  12
HETATM   12  C10 UNL     1      -1.151   0.205   1.257  1.00  0.00     0.071 C 
HETATM   13  N1  UNL     1       0.038   0.266   1.049  1.00  0.00    -0.369 N 
ATOM     14  H1  UNL     1       0.397   1.159   1.387  1.00  0.00     0.165 HD
BRANCH  13  15
HETATM   15  C11 UNL     1       1.076  -0.471   0.505  1.00  0.00     0.032 A 
HETATM   16  C12 UNL     1       0.966  -1.813   0.191  1.00  0.00     0.032 A 
HETATM   17  C13 UNL     1       2.064  -2.459  -0.329  1.00  0.00     0.040 A 
HETATM   18  C14 UNL     1       3.268  -1.806  -0.545  1.00  0.00     0.080 A 
HETATM   19  C16 UNL     1       3.413  -0.462  -0.243  1.00  0.00     0.023 A 
HETATM   20  C20 UNL     1       2.314   0.170   0.274  1.00  0.00     0.045 A 
BRANCH  18  21
HETATM   21  O3  UNL     1       4.339  -2.504  -1.068  1.00  0.00    -0.355 OA
HETATM   22  C15 UNL     1       4.179  -3.885  -1.374  1.00  0.00     0.210 C 
ENDBRANCH  18  21
BRANCH  19  23
HETATM   23  C17 UNL     1       4.651   0.276  -0.440  1.00  0.00     0.035 C 
HETATM   24  C18 UNL     1       5.841  -0.394  -0.976  1.00  0.00     0.070 C 
HETATM   25  N2  UNL     1       4.675   1.519  -0.132  1.00  0.00    -0.300 N 
ATOM     26  H2  UNL     1       3.813   1.919   0.238  1.00  0.00     0.186 HD
BRANCH  25  27
HETATM   27  N3  UNL     1       5.764   2.376  -0.253  1.00  0.00    -0.250 N 
HETATM   28  C19 UNL     1       6.756   2.363   0.766  1.00  0.00     0.352 C 
HETATM   29  O4  UNL     1       6.662   1.595   1.764  1.00  0.00    -0.244 OA
HETATM   30  N4  UNL     1       7.874   3.225   0.670  1.00  0.00    -0.257 N 
ATOM     31  H4  UNL     1       7.946   3.842  -0.139  1.00  0.00     0.191 HD
ATOM     32  H3  UNL     1       5.849   3.000  -1.055  1.00  0.00     0.192 HD
BRANCH  30  33
HETATM   33  N5  UNL     1       8.886   3.269   1.637  1.00  0.00    -0.341 N 
ATOM     34  H52 UNL     1       8.798   2.646   2.440  1.00  0.00     0.177 HD
ATOM     35  H51 UNL     1       9.692   3.890   1.568  1.00  0.00     0.177 HD
ENDBRANCH  30  33
ENDBRANCH  25  27
ENDBRANCH  19  23
ENDBRANCH  13  15
ENDBRANCH  11  12
ENDBRANCH   9  11
ENDBRANCH   8   9
ENDBRANCH   6   8
ENDBRANCH   3   6
TORSDOF 10
