REMARK  9 active torsions:
REMARK  status: ('A' for Active; 'I' for Inactive)
REMARK    1  A    between atoms: C2_2  and  C3_3 
REMARK    2  A    between atoms: C7_7  and  C8_8 
REMARK    3  A    between atoms: C7_7  and  C12_12 
REMARK    4  A    between atoms: C8_8  and  C9_9 
REMARK    5  A    between atoms: C9_9  and  C10_10 
REMARK    6  A    between atoms: C16_17  and  O1_18 
REMARK    7  A    between atoms: C16_17  and  C17_20 
REMARK    8  A    between atoms: C18_23  and  O4_24 
REMARK    9  A    between atoms: O4_24  and  C19_25 
ROOT
HETATM    1  C12 UNL     1      -0.557  -0.870  -0.172  1.00  0.00     0.071 C 
HETATM    2  C13 UNL     1      -0.491  -2.232   0.367  1.00  0.00     0.053 C 
HETATM    3  C14 UNL     1      -0.360  -2.508   1.789  1.00  0.00     0.022 C 
HETATM    4  S1  UNL     1      -2.071  -3.043  -0.192  1.00  0.00    -0.160 SA
HETATM    5  C15 UNL     1      -2.750  -2.067  -1.575  1.00  0.00     0.126 C 
HETATM    6  C16 UNL     1      -2.787  -0.606  -1.232  1.00  0.00     0.181 C 
HETATM    7  C18 UNL     1      -1.937  -0.235  -0.052  1.00  0.00     0.187 C 
ENDROOT
BRANCH   1   8
HETATM    8  C7  UNL     1       0.552   0.083   0.156  1.00  0.00     0.087 C 
HETATM    9  C6  UNL     1       0.790   0.449   1.533  1.00  0.00     0.011 C 
HETATM   10  C5  UNL     1       0.855   1.762   1.641  1.00  0.00     0.013 C 
HETATM   11  C3  UNL     1       0.662   2.351   0.326  1.00  0.00     0.093 C 
HETATM   12  C4  UNL     1       1.971   2.975  -0.097  1.00  0.00     0.055 C 
HETATM   13  O6  UNL     1       0.184   1.342  -0.433  1.00  0.00    -0.357 OA
BRANCH  11  14
HETATM   14  C2  UNL     1      -0.284   3.541   0.352  1.00  0.00     0.004 C 
HETATM   15  C1  UNL     1      -0.256   4.323  -0.712  1.00  0.00     0.010 C 
ENDBRANCH  11  14
BRANCH   8  16
HETATM   16  C8  UNL     1       1.787  -0.276  -0.624  1.00  0.00     0.043 C 
BRANCH  16  17
HETATM   17  C9  UNL     1       2.659  -1.343  -0.113  1.00  0.00     0.003 C 
BRANCH  17  18
HETATM   18  C10 UNL     1       3.817  -1.462  -1.137  1.00  0.00    -0.004 C 
HETATM   19  C11 UNL     1       4.779  -2.527  -0.719  1.00  0.00     0.005 C 
ENDBRANCH  17  18
ENDBRANCH  16  17
ENDBRANCH   8  16
ENDBRANCH   1   8
BRANCH   7  20
HETATM   20  O4  UNL     1      -2.506  -0.420   1.187  1.00  0.00    -0.297 OA
BRANCH  20  21
HETATM   21  C19 UNL     1      -2.908   0.378   2.173  1.00  0.00     0.373 C 
HETATM   22  N1  UNL     1      -3.471  -0.084   3.385  1.00  0.00    -0.032 NA
HETATM   23  O5  UNL     1      -2.766   1.579   1.984  1.00  0.00    -0.242 OA
ENDBRANCH  20  21
ENDBRANCH   7  20
BRANCH   6  24
HETATM   24  O1  UNL     1      -4.141  -0.233  -0.964  1.00  0.00    -0.376 OA
ATOM     25  H1  UNL     1      -4.164   0.692  -0.747  1.00  0.00     0.211 HD
ENDBRANCH   6  24
BRANCH   6  26
HETATM   26  C17 UNL     1      -2.432   0.185  -2.391  1.00  0.00     0.212 C 
HETATM   27  O2  UNL     1      -1.384   0.108  -3.101  1.00  0.00    -0.646 OA
HETATM   28  O3  UNL     1      -3.302   1.199  -2.870  1.00  0.00    -0.646 OA
ENDBRANCH   6  26
TORSDOF 9
