REMARK  8 active torsions:
REMARK  status: ('A' for Active; 'I' for Inactive)
REMARK    1  A    between atoms: N1_1  and  N2_4 
REMARK    2  A    between atoms: N2_4  and  C1_5 
REMARK    3  A    between atoms: C1_5  and  C2_6 
REMARK    4  A    between atoms: C1_5  and  C13_25 
REMARK       I    between atoms: C2_6  and  N3_8 
REMARK    5  A    between atoms: N3_8  and  O2_10 
REMARK    6  A    between atoms: O2_10  and  S1_11 
REMARK    7  A    between atoms: S1_11  and  C3_14 
REMARK    8  A    between atoms: C6_17  and  C7_18 
ROOT
HETATM    1  C2  UNL     1      -2.603   0.858   0.001  1.00  0.00     0.267 C 
HETATM    2  O1  UNL     1      -2.321   1.949  -0.539  1.00  0.00    -0.269 OA
HETATM    3  N3  UNL     1      -1.762  -0.250  -0.184  1.00  0.00    -0.215 N 
ATOM      4  H3  UNL     1      -2.018  -1.128   0.269  1.00  0.00     0.199 HD
ENDROOT
BRANCH   3   5
HETATM    5  O2  UNL     1      -0.631  -0.223  -0.928  1.00  0.00    -0.144 OA
BRANCH   5   6
HETATM    6  S1  UNL     1       0.434   0.924  -0.387  1.00  0.00     0.325 S 
HETATM    7  O3  UNL     1       0.092   1.457   0.968  1.00  0.00    -0.191 OA
HETATM    8  O4  UNL     1       0.504   2.113  -1.328  1.00  0.00    -0.191 OA
BRANCH   6   9
HETATM    9  C3  UNL     1       2.060   0.263  -0.349  1.00  0.00     0.129 A 
HETATM   10  C4  UNL     1       2.519  -0.977  -0.688  1.00  0.00     0.035 A 
HETATM   11  C5  UNL     1       3.832  -1.212  -0.560  1.00  0.00     0.022 A 
HETATM   12  C6  UNL     1       4.610  -0.184  -0.098  1.00  0.00     0.016 A 
HETATM   13  S2  UNL     1       3.480   1.071   0.141  1.00  0.00    -0.075 SA
BRANCH  12  14
HETATM   14  C7  UNL     1       6.049  -0.120   0.147  1.00  0.00    -0.019 A 
HETATM   15  C8  UNL     1       6.899  -1.177  -0.074  1.00  0.00     0.013 A 
HETATM   16  C9  UNL     1       8.260  -1.083   0.168  1.00  0.00     0.001 A 
HETATM   17  C10 UNL     1       8.818   0.098   0.647  1.00  0.00     0.000 A 
HETATM   18  C11 UNL     1       7.969   1.159   0.869  1.00  0.00     0.001 A 
HETATM   19  C12 UNL     1       6.618   1.058   0.627  1.00  0.00     0.013 A 
ENDBRANCH  12  14
ENDBRANCH   6   9
ENDBRANCH   5   6
ENDBRANCH   3   5
BRANCH   1  20
HETATM   20  C1  UNL     1      -3.825   0.761   0.828  1.00  0.00     0.225 C 
BRANCH  20  21
HETATM   21  N2  UNL     1      -4.516   2.056   0.855  1.00  0.00    -0.129 NA
BRANCH  21  22
HETATM   22  N1  UNL     1      -5.656   1.941   1.644  1.00  0.00    -0.347 N 
ATOM     23  H12 UNL     1      -5.951   1.088   2.120  1.00  0.00     0.172 HD
ATOM     24  H11 UNL     1      -6.136   2.841   1.663  1.00  0.00     0.172 HD
ENDBRANCH  21  22
ENDBRANCH  20  21
BRANCH  20  25
HETATM   25  C13 UNL     1      -4.798  -0.184   0.212  1.00  0.00    -0.028 A 
HETATM   26  C14 UNL     1      -5.066  -1.436   0.716  1.00  0.00     0.009 A 
HETATM   27  C15 UNL     1      -5.979  -2.218   0.062  1.00  0.00     0.001 A 
HETATM   28  C16 UNL     1      -6.649  -1.808  -1.089  1.00  0.00     0.000 A 
HETATM   29  C17 UNL     1      -6.373  -0.559  -1.582  1.00  0.00     0.001 A 
HETATM   30  C18 UNL     1      -5.451   0.249  -0.932  1.00  0.00     0.009 A 
ENDBRANCH  20  25
ENDBRANCH   1  20
TORSDOF 8
