REMARK  4 active torsions:
REMARK  status: ('A' for Active; 'I' for Inactive)
REMARK    1  A    between atoms: C3_3  and  C4_4 
REMARK    2  A    between atoms: C4_4  and  N1_5 
REMARK    3  A    between atoms: N1_5  and  C5_8 
REMARK    4  A    between atoms: C10_14  and  O2_16 
ROOT
HETATM    1  C1  UNL     1      -0.547  -2.086   0.568  1.00  0.00     0.013 C 
HETATM    2  C2  UNL     1      -0.830  -0.655   0.144  1.00  0.00     0.023 C 
HETATM    3  C3  UNL     1      -0.258   0.278   1.143  1.00  0.00     0.151 C 
HETATM    4  O1  UNL     1      -1.026   1.387   1.408  1.00  0.00    -0.381 OA
HETATM    5  C9  UNL     1      -1.568   1.898   0.254  1.00  0.00     0.206 C 
HETATM    6  C10 UNL     1      -2.706   0.974  -0.155  1.00  0.00     0.083 C 
HETATM    7  C11 UNL     1      -3.167   1.381  -1.527  1.00  0.00     0.049 C 
HETATM    8  C12 UNL     1      -2.316  -0.480  -0.081  1.00  0.00    -0.009 C 
HETATM    9  C13 UNL     1      -3.074  -1.202   1.013  1.00  0.00     0.018 C 
HETATM   10  C14 UNL     1      -2.634  -1.187  -1.393  1.00  0.00     0.018 C 
ENDROOT
BRANCH   3  11
HETATM   11  C4  UNL     1       1.111   0.771   0.734  1.00  0.00     0.265 C 
BRANCH  11  12
HETATM   12  N1  UNL     1       2.001  -0.336   0.435  1.00  0.00    -0.065 N 
ATOM     13  H12 UNL     1       1.993  -1.016   1.195  1.00  0.00     0.278 HD
ATOM     14  H11 UNL     1       1.617  -0.911  -0.315  1.00  0.00     0.278 HD
BRANCH  12  15
HETATM   15  C5  UNL     1       3.346   0.058   0.127  1.00  0.00     0.115 C 
HETATM   16  C6  UNL     1       3.957   0.726   1.334  1.00  0.00     0.045 C 
HETATM   17  C7  UNL     1       3.471   0.924  -1.104  1.00  0.00     0.045 C 
HETATM   18  C8  UNL     1       4.101  -1.246  -0.177  1.00  0.00     0.045 C 
ENDBRANCH  12  15
ENDBRANCH  11  12
ENDBRANCH   3  11
BRANCH   6  19
HETATM   19  O2  UNL     1      -3.770   1.267   0.727  1.00  0.00    -0.387 OA
ATOM     20  H2  UNL     1      -4.480   0.690   0.472  1.00  0.00     0.210 HD
ENDBRANCH   6  19
TORSDOF 4
