REMARK  3 active torsions:
REMARK  status: ('A' for Active; 'I' for Inactive)
REMARK    1  A    between atoms: C2_2  and  C3_3 
REMARK    2  A    between atoms: C9_10  and  O2_11 
REMARK    3  A    between atoms: C9_10  and  C10_13 
ROOT
HETATM    1  C3  UNL     1       1.708   0.146   0.110  1.00  0.00     0.125 C 
HETATM    2  O1  UNL     1       0.601  -0.708   0.136  1.00  0.00    -0.376 OA
HETATM    3  C4  UNL     1      -0.464  -0.037   0.790  1.00  0.00     0.171 C 
HETATM    4  C5  UNL     1      -0.784   1.207   0.045  1.00  0.00     0.019 C 
HETATM    5  C6  UNL     1      -2.225   1.477  -0.206  1.00  0.00     0.007 C 
HETATM    6  C7  UNL     1      -2.962   1.086   1.076  1.00  0.00     0.004 C 
HETATM    7  C8  UNL     1      -2.939  -0.415   1.137  1.00  0.00     0.052 C 
HETATM    8  C9  UNL     1      -1.572  -1.015   0.989  1.00  0.00     0.172 C 
HETATM    9  C11 UNL     1       0.050   1.282  -1.242  1.00  0.00     0.014 C 
HETATM   10  C12 UNL     1       1.490   1.367  -0.719  1.00  0.00     0.011 C 
HETATM   11  C13 UNL     1       2.469   1.506  -1.852  1.00  0.00     0.012 C 
ENDROOT
BRANCH   8  12
HETATM   12  O2  UNL     1      -1.313  -1.699   2.187  1.00  0.00    -0.376 OA
ATOM     13  H2  UNL     1      -2.019  -2.322   2.314  1.00  0.00     0.211 HD
ENDBRANCH   8  12
BRANCH   8  14
HETATM   14  C10 UNL     1      -1.642  -2.055  -0.063  1.00  0.00     0.211 C 
HETATM   15  O3  UNL     1      -1.474  -3.270   0.217  1.00  0.00    -0.646 OA
HETATM   16  O4  UNL     1      -1.889  -1.781  -1.399  1.00  0.00    -0.646 OA
ENDBRANCH   8  14
BRANCH   1  17
HETATM   17  C2  UNL     1       2.897  -0.670  -0.337  1.00  0.00     0.028 C 
HETATM   18  C1  UNL     1       3.119  -1.801   0.641  1.00  0.00     0.007 C 
ENDBRANCH   1  17
TORSDOF 3
