REMARK  4 active torsions:
REMARK  status: ('A' for Active; 'I' for Inactive)
REMARK    1  A    between atoms: N1_1  and  C1_5 
REMARK    2  A    between atoms: C1_5  and  C2_6 
REMARK    3  A    between atoms: C4_10  and  O1_11 
REMARK    4  A    between atoms: C4_10  and  C5_13 
ROOT
HETATM    1  C2  UNL     1       2.236   0.589  -0.811  1.00  0.00     0.105 A 
HETATM    2  C3  UNL     1       2.356   1.845   0.016  1.00  0.00     0.069 A 
HETATM    3  N2  UNL     1       1.660   1.419   1.004  1.00  0.00    -0.370 N 
ATOM      4  H2  UNL     1       1.374   1.820   1.897  1.00  0.00     0.161 HD
HETATM    5  C4  UNL     1       1.439   0.143   0.353  1.00  0.00     0.148 A 
ENDROOT
BRANCH   5   6
HETATM    6  O1  UNL     1       2.006  -0.936   1.021  1.00  0.00    -0.369 OA
ATOM      7  H1  UNL     1       1.494  -1.222   1.768  1.00  0.00     0.212 HD
ENDBRANCH   5   6
BRANCH   5   8
HETATM    8  C5  UNL     1      -0.051  -0.007   0.131  1.00  0.00     0.011 C 
HETATM    9  C6  UNL     1      -0.672   1.308  -0.289  1.00  0.00     0.019 C 
HETATM   10  C7  UNL     1      -2.172   1.157  -0.333  1.00  0.00    -0.013 C 
HETATM   11  C8  UNL     1      -2.560   0.105  -1.342  1.00  0.00     0.009 C 
HETATM   12  C12 UNL     1      -2.746   0.742   0.999  1.00  0.00     0.009 C 
HETATM   13  C9  UNL     1      -1.887  -1.199  -0.941  1.00  0.00    -0.013 C 
HETATM   14  C10 UNL     1      -2.390  -1.666   0.403  1.00  0.00     0.009 C 
HETATM   15  C14 UNL     1      -0.384  -1.030  -0.912  1.00  0.00     0.019 C 
HETATM   16  C11 UNL     1      -2.132  -0.574   1.400  1.00  0.00    -0.013 C 
HETATM   17  C13 UNL     1      -0.635  -0.372   1.485  1.00  0.00     0.019 C 
ENDBRANCH   5   8
BRANCH   1  18
HETATM   18  C1  UNL     1       3.612  -0.007  -0.975  1.00  0.00     0.244 C 
BRANCH  18  19
HETATM   19  N1  UNL     1       4.258  -0.356   0.255  1.00  0.00    -0.079 N 
ATOM     20  H13 UNL     1       4.292   0.450   0.880  1.00  0.00     0.274 HD
ATOM     21  H12 UNL     1       3.665  -0.978   0.804  1.00  0.00     0.274 HD
ATOM     22  H11 UNL     1       5.188  -0.759   0.144  1.00  0.00     0.274 HD
ENDBRANCH  18  19
ENDBRANCH   1  18
TORSDOF 4
