REMARK  6 active torsions:
REMARK  status: ('A' for Active; 'I' for Inactive)
REMARK    1  A    between atoms: C2_2  and  O1_3 
REMARK    2  A    between atoms: O1_3  and  C3_4 
REMARK       I    between atoms: C3_4  and  N1_6 
REMARK    3  A    between atoms: C7_10  and  N2_11 
REMARK    4  A    between atoms: N2_11  and  C8_13 
REMARK    5  A    between atoms: C9_14  and  N3_15 
REMARK    6  A    between atoms: N5_22  and  C12_23 
ROOT
HETATM    1  C8  UNL     1      -1.447   0.484  -0.533  1.00  0.00     0.158 A 
HETATM    2  C9  UNL     1      -1.504   0.741  -1.865  1.00  0.00     0.171 A 
HETATM    3  C10 UNL     1      -2.793   0.387  -2.295  1.00  0.00     0.059 A 
HETATM    4  C11 UNL     1      -3.309   0.498  -3.695  1.00  0.00     0.072 C 
HETATM    5  N4  UNL     1      -3.414  -0.049  -1.232  1.00  0.00    -0.298 N 
ATOM      6  H4  UNL     1      -4.379  -0.380  -1.242  1.00  0.00     0.187 HD
HETATM    7  N5  UNL     1      -2.674  -0.018  -0.154  1.00  0.00    -0.269 N 
ENDROOT
BRANCH   1   8
HETATM    8  N2  UNL     1      -0.395   0.678   0.368  1.00  0.00    -0.345 N 
ATOM      9  H2  UNL     1      -0.645   0.366   1.306  1.00  0.00     0.167 HD
BRANCH   8  10
HETATM   10  C7  UNL     1       0.911   1.186   0.328  1.00  0.00     0.006 C 
HETATM   11  C6  UNL     1       1.156   2.576  -0.144  1.00  0.00     0.056 C 
HETATM   12  C5  UNL     1       2.416   3.058   0.589  1.00  0.00     0.026 C 
HETATM   13  C4  UNL     1       3.500   2.076   0.692  1.00  0.00     0.129 C 
HETATM   14  N1  UNL     1       3.245   0.707   0.425  1.00  0.00    -0.323 N 
HETATM   15  C3  UNL     1       4.183  -0.292   0.742  1.00  0.00     0.363 C 
HETATM   16  C17 UNL     1       2.004   0.291  -0.200  1.00  0.00     0.180 C 
HETATM   17  O2  UNL     1       5.274   0.020   1.270  1.00  0.00    -0.238 OA
BRANCH  15  18
HETATM   18  O1  UNL     1       3.921  -1.612   0.480  1.00  0.00    -0.304 OA
BRANCH  18  19
HETATM   19  C2  UNL     1       4.874  -2.606   0.799  1.00  0.00     0.176 C 
HETATM   20  C1  UNL     1       6.144  -2.340   0.037  1.00  0.00     0.034 C 
ENDBRANCH  18  19
ENDBRANCH  15  18
ENDBRANCH   8  10
ENDBRANCH   1   8
BRANCH   2  21
HETATM   21  N3  UNL     1      -0.568   1.267  -2.808  1.00  0.00    -0.110 N 
HETATM   22  O3  UNL     1       0.342   0.671  -3.352  1.00  0.00    -0.532 OA
HETATM   23  O4  UNL     1      -0.776   2.602  -3.152  1.00  0.00    -0.532 OA
ENDBRANCH   2  21
BRANCH   7  24
HETATM   24  C12 UNL     1      -3.100  -0.435   1.176  1.00  0.00     0.110 C 
HETATM   25  C13 UNL     1      -3.103  -1.901   1.394  1.00  0.00     0.027 C 
HETATM   26  C14 UNL     1      -4.527  -2.356   1.560  1.00  0.00     0.002 C 
HETATM   27  C15 UNL     1      -5.321  -1.251   0.939  1.00  0.00     0.002 C 
HETATM   28  C16 UNL     1      -4.549  -0.027   1.332  1.00  0.00     0.027 C 
ENDBRANCH   7  24
TORSDOF 6
