REMARK  7 active torsions:
REMARK  status: ('A' for Active; 'I' for Inactive)
REMARK    1  A    between atoms: O1_2  and  C2_3 
REMARK    2  A    between atoms: C2_3  and  C3_5 
REMARK    3  A    between atoms: C6_8  and  S1_9 
REMARK    4  A    between atoms: S1_9  and  C7_10 
REMARK    5  A    between atoms: C7_10  and  C8_14 
REMARK    6  A    between atoms: C11_19  and  C12_20 
REMARK    7  A    between atoms: C12_20  and  N4_21 
ROOT
HETATM    1  C8  UNL     1      -3.837  -2.806   0.907  1.00  0.00     0.255 C 
HETATM    2  C9  UNL     1      -3.277  -1.798   1.793  1.00  0.00     0.085 C 
HETATM    3  N2  UNL     1      -2.844  -1.007   2.515  1.00  0.00    -0.195 NA
HETATM    4  C10 UNL     1      -4.983  -2.258   0.141  1.00  0.00     0.085 C 
HETATM    5  N3  UNL     1      -5.900  -1.841  -0.448  1.00  0.00    -0.195 NA
ENDROOT
BRANCH   1   6
HETATM    6  C7  UNL     1      -2.870  -3.445   0.004  1.00  0.00     0.077 C 
HETATM    7  N1  UNL     1      -2.714  -4.749   0.053  1.00  0.00    -0.395 N 
ATOM      8  H12 UNL     1      -2.043  -5.193  -0.574  1.00  0.00     0.156 HD
ATOM      9  H11 UNL     1      -3.307  -5.208   0.745  1.00  0.00     0.156 HD
BRANCH   6  10
HETATM   10  S1  UNL     1      -1.846  -2.653  -1.191  1.00  0.00    -0.075 SA
BRANCH  10  11
HETATM   11  C6  UNL     1      -1.838  -0.907  -1.200  1.00  0.00     0.014 A 
HETATM   12  C5  UNL     1      -2.811  -0.205  -1.857  1.00  0.00     0.020 A 
HETATM   13  C4  UNL     1      -2.846   1.173  -1.917  1.00  0.00     0.019 A 
HETATM   14  C3  UNL     1      -1.845   1.872  -1.278  1.00  0.00     0.040 A 
HETATM   15  C19 UNL     1      -0.859   1.196  -0.614  1.00  0.00     0.027 A 
HETATM   16  C11 UNL     1      -0.831  -0.172  -0.560  1.00  0.00    -0.027 A 
BRANCH  14  17
HETATM   17  C2  UNL     1      -1.837   3.334  -1.312  1.00  0.00     0.292 C 
HETATM   18  O2  UNL     1      -2.750   3.939  -1.928  1.00  0.00    -0.259 OA
BRANCH  17  19
HETATM   19  O1  UNL     1      -0.872   4.095  -0.698  1.00  0.00    -0.323 OA
HETATM   20  C1  UNL     1      -0.909   5.512  -0.761  1.00  0.00     0.213 C 
ENDBRANCH  17  19
ENDBRANCH  14  17
BRANCH  16  21
HETATM   21  C12 UNL     1       0.180  -0.985   0.147  1.00  0.00     0.135 C 
BRANCH  21  22
HETATM   22  N4  UNL     1       1.262  -0.240   0.746  1.00  0.00    -0.279 NA
HETATM   23  C13 UNL     1       1.899  -1.209   1.729  1.00  0.00     0.174 C 
HETATM   24  C14 UNL     1       3.280  -1.055   1.644  1.00  0.00    -0.168 C 
HETATM   25  C15 UNL     1       4.664  -0.835   1.461  1.00  0.00     0.085 C 
HETATM   26  C16 UNL     1       4.782   0.051   0.169  1.00  0.00     0.039 C 
HETATM   27  C17 UNL     1       3.448   0.740  -0.132  1.00  0.00    -0.014 C 
HETATM   28  C18 UNL     1       2.224   0.015  -0.336  1.00  0.00     0.057 C 
ENDBRANCH  21  22
ENDBRANCH  16  21
ENDBRANCH  10  11
ENDBRANCH   6  10
ENDBRANCH   1   6
TORSDOF 7
