REMARK  5 active torsions:
REMARK  status: ('A' for Active; 'I' for Inactive)
REMARK    1  A    between atoms: N3_6  and  C3_7 
REMARK    2  A    between atoms: N5_14  and  C6_15 
REMARK    3  A    between atoms: C6_15  and  C7_16 
REMARK    4  A    between atoms: C7_16  and  C8_18 
REMARK    5  A    between atoms: C14_25  and  C15_26 
ROOT
HETATM    1  N1  UNL     1      -4.462   4.561   0.555  1.00  0.00    -0.190 NA
HETATM    2  C1  UNL     1      -3.944   3.531   0.557  1.00  0.00     0.119 C 
HETATM    3  C2  UNL     1      -3.284   2.262   0.554  1.00  0.00     0.136 A 
HETATM    4  N2  UNL     1      -2.070   1.925   1.023  1.00  0.00    -0.288 N 
ATOM      5  H2  UNL     1      -1.416   2.566   1.473  1.00  0.00     0.188 HD
HETATM    6  N3  UNL     1      -1.849   0.630   0.812  1.00  0.00    -0.295 N 
HETATM    7  C13 UNL     1      -2.935   0.129   0.200  1.00  0.00     0.121 A 
HETATM    8  C14 UNL     1      -3.871   1.126   0.016  1.00  0.00     0.002 A 
ENDROOT
BRANCH   8   9
HETATM    9  C15 UNL     1      -5.176   0.956  -0.622  1.00  0.00     0.023 A 
HETATM   10  C16 UNL     1      -5.557  -0.476  -0.995  1.00  0.00     0.010 A 
HETATM   11  C17 UNL     1      -6.343   0.336   0.010  1.00  0.00     0.010 A 
ENDBRANCH   8   9
BRANCH   6  12
HETATM   12  C3  UNL     1      -0.637  -0.128   1.172  1.00  0.00     0.135 C 
HETATM   13  C4  UNL     1      -1.012  -1.561   1.284  1.00  0.00     0.111 C 
HETATM   14  S1  UNL     1      -0.529  -2.525  -0.182  1.00  0.00    -0.092 SA
HETATM   15  C5  UNL     1       1.176  -1.993  -0.507  1.00  0.00     0.136 C 
HETATM   16  N4  UNL     1       1.983  -2.750  -1.115  1.00  0.00    -0.380 N 
HETATM   17  N5  UNL     1       1.478  -0.691  -0.009  1.00  0.00    -0.353 N 
ATOM     18  H42 UNL     1       1.767  -3.681  -1.471  1.00  0.00     0.158 HD
ATOM     19  H41 UNL     1       2.941  -2.451  -1.298  1.00  0.00     0.158 HD
HETATM   20  C12 UNL     1       0.379   0.222   0.148  1.00  0.00     0.153 C 
BRANCH  17  21
HETATM   21  C6  UNL     1       2.848  -0.358   0.290  1.00  0.00     0.209 C 
BRANCH  21  22
HETATM   22  C7  UNL     1       3.729  -0.215  -0.863  1.00  0.00     0.184 C 
HETATM   23  O1  UNL     1       3.310  -0.270  -2.041  1.00  0.00    -0.290 OA
BRANCH  22  24
HETATM   24  C8  UNL     1       5.174   0.002  -0.607  1.00  0.00     0.052 A 
HETATM   25  C9  UNL     1       5.822   0.085   0.595  1.00  0.00     0.023 A 
HETATM   26  C10 UNL     1       7.142   0.291   0.569  1.00  0.00     0.009 A 
HETATM   27  C11 UNL     1       7.742   0.403  -0.654  1.00  0.00     0.050 A 
HETATM   28  S2  UNL     1       6.438   0.216  -1.737  1.00  0.00    -0.098 SA
ENDBRANCH  22  24
ENDBRANCH  21  22
ENDBRANCH  17  21
ENDBRANCH   6  12
TORSDOF 5
