REMARK  10 active torsions:
REMARK  status: ('A' for Active; 'I' for Inactive)
REMARK    1  A    between atoms: C2_2  and  C3_3 
REMARK    2  A    between atoms: C3_3  and  C4_4 
REMARK    3  A    between atoms: C5_5  and  C6_6 
REMARK    4  A    between atoms: C6_6  and  N1_7 
REMARK    5  A    between atoms: C7_8  and  S1_9 
REMARK    6  A    between atoms: S1_9  and  C8_10 
REMARK    7  A    between atoms: C8_10  and  C11_13 
REMARK    8  A    between atoms: C11_13  and  O2_15 
REMARK    9  A    between atoms: C14_18  and  N2_19 
REMARK       I    between atoms: N2_19  and  C15_21 
REMARK   10  A    between atoms: C15_21  and  O4_23 
ROOT
HETATM    1  N1  UNL     1       1.028   0.402  -1.358  1.00  0.00    -0.320 N 
HETATM    2  C7  UNL     1      -0.237   0.337  -0.903  1.00  0.00     0.077 A 
HETATM    3  C13 UNL     1      -0.571   1.585  -0.379  1.00  0.00     0.069 A 
HETATM    4  C14 UNL     1       0.522   2.401  -0.531  1.00  0.00     0.077 A 
HETATM    5  C17 UNL     1       1.523   1.634  -1.152  1.00  0.00     0.145 A 
HETATM    6  C18 UNL     1       2.849   2.090  -1.505  1.00  0.00     0.120 C 
HETATM    7  N3  UNL     1       3.915   2.464  -1.803  1.00  0.00    -0.190 NA
ENDROOT
BRANCH   1   8
HETATM    8  C6  UNL     1       1.765  -0.678  -1.977  1.00  0.00     0.224 C 
BRANCH   8   9
HETATM    9  C5  UNL     1       2.466  -1.406  -0.918  1.00  0.00    -0.086 C 
HETATM   10  C4  UNL     1       3.071  -2.004  -0.040  1.00  0.00    -0.105 C 
BRANCH  10  11
HETATM   11  C3  UNL     1       3.819  -2.710   1.003  1.00  0.00     0.093 C 
BRANCH  11  12
HETATM   12  C2  UNL     1       5.200  -3.123   0.478  1.00  0.00     0.007 C 
HETATM   13  C1  UNL     1       5.988  -3.845   1.520  1.00  0.00     0.006 C 
ENDBRANCH  11  12
ENDBRANCH  10  11
ENDBRANCH   8   9
ENDBRANCH   1   8
BRANCH   4  14
HETATM   14  N2  UNL     1       0.658   3.743  -0.154  1.00  0.00    -0.300 N 
HETATM   15  C15 UNL     1      -0.330   4.542   0.475  1.00  0.00     0.364 C 
HETATM   16  O3  UNL     1      -1.477   4.169   0.791  1.00  0.00    -0.238 OA
ATOM     17  H2  UNL     1       1.554   4.188  -0.351  1.00  0.00     0.171 HD
BRANCH  15  18
HETATM   18  O4  UNL     1      -0.028   5.881   0.788  1.00  0.00    -0.309 OA
HETATM   19  C16 UNL     1      -0.991   6.715   1.419  1.00  0.00     0.215 C 
ENDBRANCH  15  18
ENDBRANCH   4  14
BRANCH   2  20
HETATM   20  S1  UNL     1      -1.269  -1.117  -0.981  1.00  0.00    -0.092 SA
BRANCH  20  21
HETATM   21  C8  UNL     1      -2.905  -0.842  -0.305  1.00  0.00     0.095 C 
HETATM   22  C9  UNL     1      -3.719   0.130  -1.123  1.00  0.00     0.038 C 
HETATM   23  C10 UNL     1      -2.781  -0.359   1.139  1.00  0.00     0.038 C 
BRANCH  21  24
HETATM   24  C11 UNL     1      -3.610  -2.150  -0.264  1.00  0.00     0.277 C 
HETATM   25  O1  UNL     1      -3.070  -3.217  -0.654  1.00  0.00    -0.263 OA
BRANCH  24  26
HETATM   26  O2  UNL     1      -4.901  -2.200   0.217  1.00  0.00    -0.325 OA
HETATM   27  C12 UNL     1      -5.682  -3.358   0.313  1.00  0.00     0.213 C 
ENDBRANCH  24  26
ENDBRANCH  21  24
ENDBRANCH  20  21
ENDBRANCH   2  20
TORSDOF 10
