REMARK  7 active torsions:
REMARK  status: ('A' for Active; 'I' for Inactive)
REMARK    1  A    between atoms: C3_4  and  C4_5 
REMARK    2  A    between atoms: C4_5  and  C5_7 
REMARK    3  A    between atoms: C5_7  and  S2_8 
REMARK    4  A    between atoms: S2_8  and  C6_9 
REMARK    5  A    between atoms: C6_9  and  N1_11 
REMARK    6  A    between atoms: C13_19  and  C14_20 
REMARK    7  A    between atoms: C14_20  and  C15_21 
ROOT
HETATM    1  C15 UNL     1       5.836   1.834  -0.542  1.00  0.00     0.232 C 
HETATM    2  O2  UNL     1       5.366   1.329  -1.586  1.00  0.00    -0.281 OA
HETATM    3  C16 UNL     1       6.823   2.858  -0.658  1.00  0.00     0.138 C 
HETATM    4  N3  UNL     1       7.632   3.684  -0.749  1.00  0.00    -0.188 NA
ENDROOT
BRANCH   1   5
HETATM    5  C14 UNL     1       5.371   1.370   0.766  1.00  0.00     0.136 C 
BRANCH   5   6
HETATM    6  C13 UNL     1       4.321   0.278   0.615  1.00  0.00    -0.012 A 
HETATM    7  C2  UNL     1       4.729  -0.986   0.273  1.00  0.00    -0.012 A 
HETATM    8  C1  UNL     1       6.096  -1.521   0.004  1.00  0.00     0.057 C 
HETATM    9  S1  UNL     1       3.272  -1.860   0.217  1.00  0.00    -0.089 SA
HETATM   10  C3  UNL     1       2.181  -0.606   0.629  1.00  0.00     0.076 A 
HETATM   11  C12 UNL     1       3.009   0.470   0.797  1.00  0.00     0.074 A 
HETATM   12  N2  UNL     1       2.444   1.763   1.162  1.00  0.00    -0.100 NA
BRANCH  10  13
HETATM   13  C4  UNL     1       0.711  -0.666   0.768  1.00  0.00     0.177 C 
HETATM   14  O1  UNL     1       0.109   0.377   1.079  1.00  0.00    -0.291 OA
BRANCH  13  15
HETATM   15  C5  UNL     1      -0.034  -1.917   0.550  1.00  0.00     0.166 C 
BRANCH  15  16
HETATM   16  S2  UNL     1      -1.787  -1.596   0.816  1.00  0.00    -0.093 SA
BRANCH  16  17
HETATM   17  C6  UNL     1      -2.470  -0.506  -0.385  1.00  0.00     0.137 C 
HETATM   18  S3  UNL     1      -1.543   0.104  -1.583  1.00  0.00    -0.053 SA
BRANCH  17  19
HETATM   19  N1  UNL     1      -3.832  -0.141  -0.332  1.00  0.00    -0.367 N 
HETATM   20  C7  UNL     1      -4.416   0.757  -1.315  1.00  0.00     0.124 C 
HETATM   21  C8  UNL     1      -5.895   0.868  -1.037  1.00  0.00     0.020 C 
HETATM   22  C9  UNL     1      -6.545  -0.497  -0.954  1.00  0.00     0.003 C 
HETATM   23  C10 UNL     1      -5.977  -1.230   0.220  1.00  0.00     0.020 C 
HETATM   24  C11 UNL     1      -4.665  -0.665   0.715  1.00  0.00     0.124 C 
ENDBRANCH  17  19
ENDBRANCH  16  17
ENDBRANCH  15  16
ENDBRANCH  13  15
ENDBRANCH  10  13
ENDBRANCH   5   6
ENDBRANCH   1   5
TORSDOF 7
