REMARK  6 active torsions:
REMARK  status: ('A' for Active; 'I' for Inactive)
REMARK    1  A    between atoms: C2_2  and  N1_4 
REMARK       I    between atoms: N1_4  and  C4_6 
REMARK       I    between atoms: C4_6  and  N2_8 
REMARK    2  A    between atoms: N2_8  and  C5_9 
REMARK    3  A    between atoms: N2_8  and  C7_12 
REMARK    4  A    between atoms: C7_12  and  C8_13 
REMARK       I    between atoms: C8_13  and  N4_15 
REMARK    5  A    between atoms: N5_17  and  C9_19 
REMARK    6  A    between atoms: C10_20  and  O3_21 
ROOT
HETATM    1  C5  UNL     1      -1.544   3.190   1.153  1.00  0.00     0.252 C 
HETATM    2  C6  UNL     1      -1.758   4.252   0.163  1.00  0.00     0.079 C 
HETATM    3  N3  UNL     1      -1.909   5.096  -0.617  1.00  0.00    -0.196 NA
ENDROOT
BRANCH   1   4
HETATM    4  N2  UNL     1      -1.665   1.914   0.487  1.00  0.00    -0.313 N 
HETATM    5  C4  UNL     1      -2.915   1.265   0.399  1.00  0.00     0.319 C 
HETATM    6  N1  UNL     1      -3.060  -0.010  -0.259  1.00  0.00    -0.339 N 
HETATM    7  O1  UNL     1      -3.923   1.815   0.908  1.00  0.00    -0.247 OA
ATOM      8  H1  UNL     1      -2.240  -0.455  -0.671  1.00  0.00     0.164 HD
BRANCH   6   9
HETATM    9  C2  UNL     1      -4.341  -0.669  -0.346  1.00  0.00     0.078 C 
HETATM   10  C1  UNL     1      -4.664  -0.879  -1.811  1.00  0.00     0.032 C 
HETATM   11  C3  UNL     1      -4.244  -2.009   0.390  1.00  0.00     0.032 C 
ENDBRANCH   6   9
BRANCH   4  12
HETATM   12  C7  UNL     1      -0.447   1.343  -0.081  1.00  0.00     0.233 C 
BRANCH  12  13
HETATM   13  C8  UNL     1       0.241   0.489   0.907  1.00  0.00     0.254 C 
HETATM   14  O2  UNL     1      -0.262   0.358   2.042  1.00  0.00    -0.270 OA
HETATM   15  N4  UNL     1       1.431  -0.162   0.583  1.00  0.00    -0.268 N 
HETATM   16  N5  UNL     1       2.432  -0.319   1.314  1.00  0.00    -0.293 N 
ATOM     17  H4  UNL     1       1.491  -0.554  -0.357  1.00  0.00     0.190 HD
ATOM     18  H5  UNL     1       2.444   0.045   2.267  1.00  0.00     0.187 HD
BRANCH  16  19
HETATM   19  C9  UNL     1       3.549  -1.014   0.790  1.00  0.00     0.112 A 
HETATM   20  C10 UNL     1       3.529  -2.368   0.525  1.00  0.00     0.170 A 
HETATM   21  N6  UNL     1       4.738  -2.705   0.041  1.00  0.00    -0.329 N 
HETATM   22  C11 UNL     1       5.515  -1.574   0.001  1.00  0.00     0.090 A 
ATOM     23  H6  UNL     1       5.028  -3.640  -0.247  1.00  0.00     0.168 HD
HETATM   24  S1  UNL     1       7.035  -0.912  -0.389  1.00  0.00    -0.059 SA
HETATM   25  C14 UNL     1       4.817  -0.496   0.458  1.00  0.00     0.032 A 
HETATM   26  C12 UNL     1       6.755   0.714   0.035  1.00  0.00     0.077 A 
HETATM   27 CL1  UNL     1       7.850   2.106  -0.062  1.00  0.00    -0.076 Cl
HETATM   28  C13 UNL     1       5.461   0.700   0.477  1.00  0.00     0.048 A 
BRANCH  20  29
HETATM   29  O3  UNL     1       2.495  -3.278   0.698  1.00  0.00    -0.344 OA
ATOM     30  H3  UNL     1       2.481  -4.210   0.516  1.00  0.00     0.219 HD
ENDBRANCH  20  29
ENDBRANCH  16  19
ENDBRANCH  12  13
ENDBRANCH   4  12
ENDBRANCH   1   4
TORSDOF 6
