REMARK  5 active torsions:
REMARK  status: ('A' for Active; 'I' for Inactive)
REMARK    1  A    between atoms: C2_3  and  C3_4 
REMARK    2  A    between atoms: C3_4  and  C4_6 
REMARK    3  A    between atoms: C11_14  and  O2_15 
REMARK    4  A    between atoms: C16_21  and  C17_22 
REMARK    5  A    between atoms: C20_27  and  N2_28 
ROOT
HETATM    1  N1  UNL     1       0.880  -2.657   1.493  1.00  0.00    -0.099 NA
HETATM    2  C1  UNL     1       0.580  -1.434   0.819  1.00  0.00     0.094 A 
HETATM    3  C2  UNL     1       1.618  -0.596   0.367  1.00  0.00     0.044 A 
HETATM    4  C10 UNL     1       1.213   0.556  -0.257  1.00  0.00     0.055 A 
HETATM    5  C11 UNL     1      -0.124   0.919  -0.457  1.00  0.00     0.080 A 
HETATM    6  C12 UNL     1      -1.089   0.069   0.001  1.00  0.00     0.042 A 
HETATM    7  C13 UNL     1      -2.495   0.346  -0.135  1.00  0.00    -0.021 A 
HETATM    8  C14 UNL     1      -3.180   0.062  -1.282  1.00  0.00     0.013 A 
HETATM    9  C15 UNL     1      -4.545   0.322  -1.368  1.00  0.00     0.019 A 
HETATM   10  C16 UNL     1      -5.225   0.875  -0.291  1.00  0.00     0.040 A 
HETATM   11  C18 UNL     1      -4.491   1.147   0.844  1.00  0.00     0.019 A 
HETATM   12  C19 UNL     1      -3.141   0.906   0.976  1.00  0.00     0.013 A 
HETATM   13  C20 UNL     1      -0.743  -1.121   0.647  1.00  0.00     0.141 A 
ENDROOT
BRANCH   3  14
HETATM   14  C3  UNL     1       2.973  -0.986   0.633  1.00  0.00     0.194 C 
HETATM   15  O1  UNL     1       3.115  -2.046   1.367  1.00  0.00    -0.287 OA
BRANCH  14  16
HETATM   16  C4  UNL     1       4.220  -0.404   0.227  1.00  0.00     0.015 A 
HETATM   17  C5  UNL     1       4.364   0.240  -0.970  1.00  0.00     0.018 A 
HETATM   18  C6  UNL     1       5.568   0.847  -1.354  1.00  0.00     0.043 A 
HETATM   19  C7  UNL     1       6.631   0.783  -0.485  1.00  0.00     0.116 A 
HETATM   20  F1  UNL     1       7.825   1.349  -0.793  1.00  0.00    -0.206 F 
HETATM   21  C8  UNL     1       6.478   0.122   0.738  1.00  0.00     0.043 A 
HETATM   22  C9  UNL     1       5.308  -0.469   1.112  1.00  0.00     0.018 A 
ENDBRANCH  14  16
ENDBRANCH   3  14
BRANCH  13  23
HETATM   23  N2  UNL     1      -1.751  -2.022   1.111  1.00  0.00    -0.113 N 
HETATM   24  O5  UNL     1      -1.980  -2.075   2.319  1.00  0.00    -0.532 OA
HETATM   25  O6  UNL     1      -2.466  -2.820   0.260  1.00  0.00    -0.532 OA
ENDBRANCH  13  23
BRANCH   5  26
HETATM   26  O2  UNL     1      -0.445   2.125  -1.109  1.00  0.00    -0.360 OA
ATOM     27  H2  UNL     1      -1.352   2.371  -1.245  1.00  0.00     0.217 HD
ENDBRANCH   5  26
BRANCH  10  28
HETATM   28  C17 UNL     1      -6.670   1.157  -0.343  1.00  0.00     0.209 C 
HETATM   29  O3  UNL     1      -7.179   1.669   0.689  1.00  0.00    -0.644 OA
HETATM   30  O4  UNL     1      -7.436   0.886  -1.442  1.00  0.00    -0.644 OA
ENDBRANCH  10  28
TORSDOF 5
