REMARK  7 active torsions:
REMARK  status: ('A' for Active; 'I' for Inactive)
REMARK    1  A    between atoms: C2_2  and  C3_3 
REMARK    2  A    between atoms: C5_5  and  O1_6 
REMARK    3  A    between atoms: O1_6  and  C6_7 
REMARK    4  A    between atoms: C6_7  and  C7_8 
REMARK    5  A    between atoms: C15_16  and  C16_17 
REMARK    6  A    between atoms: C17_20  and  N2_21 
REMARK    7  A    between atoms: N2_21  and  C18_23 
REMARK       I    between atoms: N4_33  and  C26_35 
ROOT
HETATM    1  C16 UNL     1      -0.782   0.042  -0.568  1.00  0.00     0.147 A 
HETATM    2  N1  UNL     1      -1.602  -0.255   0.452  1.00  0.00    -0.175 N 
ATOM      3  H1  UNL     1      -1.172  -0.555   1.327  1.00  0.00     0.186 HD
HETATM    4  C17 UNL     1      -2.941  -0.189   0.413  1.00  0.00     0.698 A 
HETATM    5  N3  UNL     1      -3.548   0.202  -0.727  1.00  0.00    -0.022 N 
ATOM      6  H3  UNL     1      -4.564   0.263  -0.791  1.00  0.00     0.203 HD
HETATM    7  C25 UNL     1      -2.766   0.508  -1.774  1.00  0.00     0.700 A 
HETATM    8  N4  UNL     1      -3.338   0.884  -2.871  1.00  0.00    -0.163 N 
ATOM      9  H4  UNL     1      -4.354   0.945  -2.934  1.00  0.00     0.187 HD
HETATM   10  C26 UNL     1      -2.525   1.209  -3.983  1.00  0.00     0.200 C 
HETATM   11  N5  UNL     1      -2.208   0.281  -4.816  1.00  0.00    -0.373 N 
ATOM     12  H51 UNL     1      -1.622   0.515  -5.617  1.00  0.00     0.158 HD
ATOM     13  H52 UNL     1      -2.552  -0.665  -4.649  1.00  0.00     0.158 HD
HETATM   14  N6  UNL     1      -2.043   2.534  -4.217  1.00  0.00    -0.063 NA
HETATM   15  N7  UNL     1      -1.396   0.430  -1.701  1.00  0.00    -0.174 N 
ATOM     16  H7  UNL     1      -0.835   0.670  -2.519  1.00  0.00     0.186 HD
ENDROOT
BRANCH   1  17
HETATM   17  C15 UNL     1       0.675   0.007  -0.494  1.00  0.00     0.019 A 
HETATM   18  C3  UNL     1       1.300  -0.535   0.611  1.00  0.00    -0.020 A 
HETATM   19  C4  UNL     1       2.693  -0.509   0.709  1.00  0.00     0.049 A 
HETATM   20  C5  UNL     1       3.470   0.047  -0.273  1.00  0.00     0.070 A 
HETATM   21  C13 UNL     1       2.825   0.577  -1.362  1.00  0.00     0.038 A 
HETATM   22  C14 UNL     1       1.452   0.568  -1.489  1.00  0.00     0.019 A 
BRANCH  18  23
HETATM   23  C2  UNL     1       0.608  -1.165   1.730  1.00  0.00     0.002 C 
HETATM   24  C1  UNL     1       1.112  -1.030   2.938  1.00  0.00     0.012 C 
ENDBRANCH  18  23
BRANCH  20  25
HETATM   25  O1  UNL     1       4.847   0.100  -0.228  1.00  0.00    -0.347 OA
BRANCH  25  26
HETATM   26  C6  UNL     1       5.603  -0.419   0.851  1.00  0.00     0.214 C 
BRANCH  26  27
HETATM   27  C7  UNL     1       7.028  -0.182   0.549  1.00  0.00    -0.034 A 
HETATM   28  C8  UNL     1       7.610   0.992   0.968  1.00  0.00     0.009 A 
HETATM   29  C9  UNL     1       8.956   1.253   0.700  1.00  0.00     0.001 A 
HETATM   30  C10 UNL     1       9.686   0.325   0.016  1.00  0.00     0.000 A 
HETATM   31  C11 UNL     1       9.118  -0.871  -0.419  1.00  0.00     0.001 A 
HETATM   32  C12 UNL     1       7.769  -1.105  -0.136  1.00  0.00     0.009 A 
ENDBRANCH  26  27
ENDBRANCH  25  26
ENDBRANCH  20  25
ENDBRANCH   1  17
BRANCH   4  33
HETATM   33  N2  UNL     1      -3.608  -0.504   1.472  1.00  0.00    -0.191 N 
ATOM     34  H2  UNL     1      -3.093  -0.792   2.304  1.00  0.00     0.184 HD
BRANCH  33  35
HETATM   35  C18 UNL     1      -5.022  -0.468   1.533  1.00  0.00     0.049 A 
HETATM   36  C19 UNL     1      -5.707   0.529   2.195  1.00  0.00     0.030 A 
HETATM   37  C20 UNL     1      -7.089   0.517   2.225  1.00  0.00     0.009 A 
HETATM   38  C21 UNL     1      -7.780  -0.494   1.591  1.00  0.00    -0.062 A 
HETATM   39  C22 UNL     1      -9.264  -0.585   1.573  1.00  0.00     0.048 C 
HETATM   40  C23 UNL     1      -7.078  -1.482   0.934  1.00  0.00     0.009 A 
HETATM   41  C24 UNL     1      -5.717  -1.477   0.901  1.00  0.00     0.030 A 
ENDBRANCH  33  35
ENDBRANCH   4  33
TORSDOF 7
