REMARK  10 active torsions:
REMARK  status: ('A' for Active; 'I' for Inactive)
REMARK    1  A    between atoms: N1_1  and  S1_4 
REMARK    2  A    between atoms: S1_4  and  N2_5 
REMARK    3  A    between atoms: S1_4  and  C1_9 
REMARK    4  A    between atoms: C4_12  and  N3_13 
REMARK    5  A    between atoms: N3_13  and  C5_15 
REMARK    6  A    between atoms: C8_20  and  N5_21 
REMARK    7  A    between atoms: N5_21  and  C9_23 
REMARK    8  A    between atoms: C12_26  and  C13_27 
REMARK    9  A    between atoms: C13_27  and  C14_28 
REMARK   10  A    between atoms: C14_28  and  C15_29 
ROOT
HETATM    1  C5  UNL     1       3.159   1.105   0.041  1.00  0.00     0.684 A 
HETATM    2  N4  UNL     1       3.236  -0.154   0.505  1.00  0.00    -0.202 N 
ATOM      3  H4  UNL     1       4.160  -0.548   0.681  1.00  0.00     0.183 HD
HETATM    4  C6  UNL     1       2.155  -0.925   0.750  1.00  0.00     0.110 A 
HETATM    5  C7  UNL     1       0.891  -0.422   0.522  1.00  0.00     0.066 A 
HETATM    6  C8  UNL     1       0.808   0.865   0.048  1.00  0.00     0.122 A 
HETATM    7  N6  UNL     1       1.909   1.596  -0.182  1.00  0.00    -0.176 N 
ATOM      8  H6  UNL     1       1.807   2.548  -0.534  1.00  0.00     0.186 HD
ENDROOT
BRANCH   1   9
HETATM    9  N3  UNL     1       4.202   1.806  -0.186  1.00  0.00    -0.192 N 
ATOM     10  H3  UNL     1       4.052   2.752  -0.538  1.00  0.00     0.184 HD
BRANCH   9  11
HETATM   11  C4  UNL     1       5.542   1.404   0.001  1.00  0.00     0.049 A 
HETATM   12  C3  UNL     1       6.128   1.188   1.229  1.00  0.00     0.031 A 
HETATM   13  C2  UNL     1       7.459   0.798   1.343  1.00  0.00     0.026 A 
HETATM   14  C1  UNL     1       8.224   0.620   0.204  1.00  0.00     0.058 A 
HETATM   15  C24 UNL     1       7.658   0.830  -1.015  1.00  0.00     0.026 A 
HETATM   16  C23 UNL     1       6.333   1.217  -1.114  1.00  0.00     0.031 A 
BRANCH  14  17
HETATM   17  S1  UNL     1       9.910   0.142   0.270  1.00  0.00     0.130 S 
HETATM   18  O1  UNL     1      10.199  -0.736   1.430  1.00  0.00    -0.224 OA
BRANCH  17  19
HETATM   19  N1  UNL     1      10.207  -0.682  -1.022  1.00  0.00    -0.341 N 
ATOM     20  H12 UNL     1      10.912  -0.431  -1.715  1.00  0.00     0.167 HD
ATOM     21  H11 UNL     1       9.594  -1.496  -1.059  1.00  0.00     0.167 HD
ENDBRANCH  17  19
BRANCH  17  22
HETATM   22  N2  UNL     1      10.947   1.518   0.333  1.00  0.00    -0.341 N 
ATOM     23  H22 UNL     1      11.645   1.746  -0.375  1.00  0.00     0.167 HD
ATOM     24  H21 UNL     1      10.753   2.056   1.177  1.00  0.00     0.167 HD
ENDBRANCH  17  22
ENDBRANCH  14  17
ENDBRANCH   9  11
ENDBRANCH   1   9
BRANCH   6  25
HETATM   25  N5  UNL     1      -0.320   1.379  -0.187  1.00  0.00    -0.342 N 
ATOM     26  H5  UNL     1      -0.313   2.337  -0.537  1.00  0.00     0.167 HD
BRANCH  25  27
HETATM   27  C9  UNL     1      -1.594   0.784  -0.023  1.00  0.00     0.033 A 
HETATM   28  C10 UNL     1      -2.380   1.057   1.073  1.00  0.00     0.030 A 
HETATM   29  C11 UNL     1      -3.646   0.485   1.252  1.00  0.00     0.009 A 
HETATM   30  C12 UNL     1      -4.145  -0.385   0.313  1.00  0.00    -0.058 A 
HETATM   31  C21 UNL     1      -3.356  -0.664  -0.792  1.00  0.00     0.009 A 
HETATM   32  C22 UNL     1      -2.111  -0.101  -0.969  1.00  0.00     0.030 A 
BRANCH  30  33
HETATM   33  C13 UNL     1      -5.494  -1.034   0.437  1.00  0.00     0.043 C 
BRANCH  33  34
HETATM   34  C14 UNL     1      -6.547  -0.150  -0.236  1.00  0.00     0.043 C 
BRANCH  34  35
HETATM   35  C15 UNL     1      -7.866  -0.767  -0.139  1.00  0.00    -0.058 A 
HETATM   36  C16 UNL     1      -8.287  -1.626  -1.138  1.00  0.00     0.007 A 
HETATM   37  C17 UNL     1      -9.536  -2.192  -1.018  1.00  0.00     0.001 A 
HETATM   38  C18 UNL     1     -10.377  -1.930   0.063  1.00  0.00     0.000 A 
HETATM   39  C19 UNL     1      -9.932  -1.072   1.042  1.00  0.00     0.001 A 
HETATM   40  C20 UNL     1      -8.676  -0.493   0.938  1.00  0.00     0.007 A 
ENDBRANCH  34  35
ENDBRANCH  33  34
ENDBRANCH  30  33
ENDBRANCH  25  27
ENDBRANCH   6  25
TORSDOF 10
