REMARK  8 active torsions:
REMARK  status: ('A' for Active; 'I' for Inactive)
REMARK    1  A    between atoms: O1_2  and  C2_3 
REMARK    2  A    between atoms: C5_6  and  N1_7 
REMARK    3  A    between atoms: C7_12  and  N3_13 
REMARK    4  A    between atoms: N3_13  and  C8_15 
REMARK    5  A    between atoms: C8_15  and  C9_16 
REMARK    6  A    between atoms: C9_16  and  C10_17 
REMARK    7  A    between atoms: C18_29  and  N6_30 
REMARK    8  A    between atoms: N6_30  and  C19_31 
ROOT
HETATM    1  N1  UNL     1      -2.444  -2.553  -0.770  1.00  0.00    -0.191 N 
ATOM      2  H1  UNL     1      -1.875  -3.257  -1.240  1.00  0.00     0.184 HD
HETATM    3  C6  UNL     1      -1.683  -1.596  -0.619  1.00  0.00     0.700 A 
HETATM    4  N2  UNL     1      -0.393  -1.740  -1.091  1.00  0.00    -0.022 N 
ATOM      5  H2  UNL     1      -0.141  -2.621  -1.539  1.00  0.00     0.203 HD
HETATM    6  C7  UNL     1       0.546  -0.790  -0.995  1.00  0.00     0.696 A 
HETATM    7  N5  UNL     1       0.218   0.365  -0.410  1.00  0.00    -0.148 N 
ATOM      8  H5  UNL     1       0.927   1.094  -0.333  1.00  0.00     0.188 HD
HETATM    9  C18 UNL     1      -1.043   0.610   0.094  1.00  0.00     0.288 A 
HETATM   10  N7  UNL     1      -1.931  -0.426  -0.053  1.00  0.00    -0.148 N 
ATOM     11  H7  UNL     1      -2.873  -0.280   0.309  1.00  0.00     0.188 HD
ENDROOT
BRANCH   6  12
HETATM   12  N3  UNL     1       1.730  -0.988  -1.455  1.00  0.00    -0.225 N 
ATOM     13  H3  UNL     1       1.944  -1.883  -1.895  1.00  0.00     0.177 HD
BRANCH  12  14
HETATM   14  C8  UNL     1       2.756  -0.000  -1.372  1.00  0.00     0.142 C 
BRANCH  14  15
HETATM   15  C9  UNL     1       3.430  -0.073  -0.015  1.00  0.00     0.061 C 
BRANCH  15  16
HETATM   16  C10 UNL     1       4.504   0.918   0.149  1.00  0.00    -0.029 A 
HETATM   17  C11 UNL     1       4.419   2.070   0.873  1.00  0.00     0.096 A 
HETATM   18  N4  UNL     1       5.605   2.709   0.781  1.00  0.00    -0.365 N 
HETATM   19  C12 UNL     1       6.451   1.985   0.009  1.00  0.00     0.042 A 
ATOM     20  H4  UNL     1       5.829   3.600   1.224  1.00  0.00     0.165 HD
HETATM   21  C13 UNL     1       7.749   2.172  -0.398  1.00  0.00     0.030 A 
HETATM   22  C17 UNL     1       5.764   0.842  -0.401  1.00  0.00    -0.002 A 
HETATM   23  C14 UNL     1       8.409   1.282  -1.195  1.00  0.00     0.002 A 
HETATM   24  C15 UNL     1       7.737   0.152  -1.603  1.00  0.00     0.001 A 
HETATM   25  C16 UNL     1       6.426  -0.067  -1.210  1.00  0.00     0.014 A 
ENDBRANCH  15  16
ENDBRANCH  14  15
ENDBRANCH  12  14
ENDBRANCH   6  12
BRANCH   9  26
HETATM   26  N6  UNL     1      -1.316   1.665   0.618  1.00  0.00    -0.370 NA
BRANCH  26  27
HETATM   27  C19 UNL     1      -1.459   2.847   1.152  1.00  0.00     0.111 A 
HETATM   28  C20 UNL     1      -2.675   3.215   1.765  1.00  0.00     0.045 A 
HETATM   29  C21 UNL     1      -2.821   4.436   2.318  1.00  0.00     0.003 A 
HETATM   30  C22 UNL     1      -1.789   5.344   2.297  1.00  0.00     0.000 A 
HETATM   31  C23 UNL     1      -0.589   5.015   1.707  1.00  0.00     0.003 A 
HETATM   32  C24 UNL     1      -0.410   3.804   1.144  1.00  0.00     0.045 A 
ENDBRANCH  26  27
ENDBRANCH   9  26
BRANCH   1  33
HETATM   33  C5  UNL     1      -3.636  -3.131  -0.628  1.00  0.00     0.049 A 
HETATM   34  C4  UNL     1      -4.740  -2.531  -0.082  1.00  0.00     0.033 A 
HETATM   35  C3  UNL     1      -5.942  -3.212   0.022  1.00  0.00     0.039 A 
HETATM   36  C2  UNL     1      -6.072  -4.493  -0.411  1.00  0.00     0.068 A 
HETATM   37  C26 UNL     1      -4.976  -5.132  -0.969  1.00  0.00     0.039 A 
HETATM   38  C25 UNL     1      -3.806  -4.479  -1.074  1.00  0.00     0.033 A 
BRANCH  36  39
HETATM   39  O1  UNL     1      -7.277  -5.156  -0.299  1.00  0.00    -0.356 OA
HETATM   40  C1  UNL     1      -8.383  -4.487   0.274  1.00  0.00     0.210 C 
ENDBRANCH  36  39
ENDBRANCH   1  33
TORSDOF 8
