REMARK  9 active torsions:
REMARK  status: ('A' for Active; 'I' for Inactive)
REMARK    1  A    between atoms: C7_7  and  N1_8 
REMARK    2  A    between atoms: C10_11  and  N2_12 
REMARK    3  A    between atoms: N2_12  and  C11_14 
REMARK    4  A    between atoms: C11_14  and  C12_15 
REMARK    5  A    between atoms: C12_15  and  N3_16 
REMARK    6  A    between atoms: N3_16  and  C13_18 
REMARK    7  A    between atoms: C20_29  and  C21_30 
REMARK    8  A    between atoms: C21_30  and  C22_31 
REMARK    9  A    between atoms: C28_37  and  O1_38 
ROOT
HETATM    1  N1  UNL     1       3.369   1.227  -0.160  1.00  0.00    -0.302 N 
HETATM    2  C8  UNL     1       2.334   1.932   0.289  1.00  0.00     0.102 A 
HETATM    3  C9  UNL     1       1.005   1.529   0.166  1.00  0.00     0.047 A 
HETATM    4  C10 UNL     1       0.755   0.330  -0.459  1.00  0.00     0.040 A 
HETATM    5  C20 UNL     1       1.835  -0.428  -0.938  1.00  0.00     0.024 A 
HETATM    6  C28 UNL     1       3.119   0.057  -0.768  1.00  0.00     0.155 A 
ENDROOT
BRANCH   4   7
HETATM    7  N2  UNL     1      -0.440  -0.061  -0.606  1.00  0.00    -0.388 N 
ATOM      8  H2  UNL     1      -0.581  -0.956  -1.074  1.00  0.00     0.159 HD
BRANCH   7   9
HETATM    9  C11 UNL     1      -1.608   0.637  -0.176  1.00  0.00     0.140 C 
BRANCH   9  10
HETATM   10  C12 UNL     1      -2.080   0.164   1.194  1.00  0.00     0.157 C 
BRANCH  10  11
HETATM   11  N3  UNL     1      -3.244   0.865   1.662  1.00  0.00    -0.224 N 
ATOM     12  H3  UNL     1      -3.124   1.591   2.368  1.00  0.00     0.177 HD
BRANCH  11  13
HETATM   13  C13 UNL     1      -4.435   0.617   1.229  1.00  0.00     0.679 A 
HETATM   14  N4  UNL     1      -4.825  -0.279   0.317  1.00  0.00    -0.190 N 
HETATM   15  C14 UNL     1      -6.161  -0.240   0.114  1.00  0.00     0.076 A 
ATOM     16  H4  UNL     1      -4.191  -0.915  -0.167  1.00  0.00     0.184 HD
HETATM   17  C15 UNL     1      -7.049  -0.929  -0.696  1.00  0.00     0.032 A 
HETATM   18  C19 UNL     1      -6.623   0.746   0.958  1.00  0.00     0.076 A 
HETATM   19  C16 UNL     1      -8.386  -0.656  -0.683  1.00  0.00     0.002 A 
HETATM   20  C17 UNL     1      -8.882   0.325   0.151  1.00  0.00     0.002 A 
HETATM   21  C18 UNL     1      -7.991   1.004   0.953  1.00  0.00     0.032 A 
HETATM   22  N5  UNL     1      -5.577   1.252   1.622  1.00  0.00    -0.190 N 
ATOM     23  H5  UNL     1      -5.626   1.998   2.316  1.00  0.00     0.184 HD
ENDBRANCH  11  13
ENDBRANCH  10  11
ENDBRANCH   9  10
ENDBRANCH   7   9
ENDBRANCH   4   7
BRANCH   5  24
HETATM   24  C21 UNL     1       1.629  -1.712  -1.599  1.00  0.00     0.084 C 
BRANCH  24  25
HETATM   25  C22 UNL     1       1.312  -2.847  -0.701  1.00  0.00    -0.054 A 
HETATM   26  C23 UNL     1       2.320  -3.450   0.060  1.00  0.00     0.007 A 
HETATM   27  C24 UNL     1       2.085  -4.517   0.901  1.00  0.00     0.001 A 
HETATM   28  C25 UNL     1       0.822  -5.043   1.030  1.00  0.00     0.000 A 
HETATM   29  C26 UNL     1      -0.193  -4.476   0.297  1.00  0.00     0.001 A 
HETATM   30  C27 UNL     1       0.058  -3.394  -0.553  1.00  0.00     0.007 A 
ENDBRANCH  24  25
ENDBRANCH   5  24
BRANCH   6  31
HETATM   31  O1  UNL     1       4.258  -0.626  -1.214  1.00  0.00    -0.345 OA
ATOM     32  H1  UNL     1       4.081  -1.454  -1.644  1.00  0.00     0.219 HD
ENDBRANCH   6  31
BRANCH   1  33
HETATM   33  C7  UNL     1       4.680   1.737   0.021  1.00  0.00     0.046 A 
HETATM   34  C2  UNL     1       4.997   2.900  -0.656  1.00  0.00    -0.035 A 
HETATM   35  C1  UNL     1       4.057   3.626  -1.542  1.00  0.00     0.050 C 
HETATM   36  C3  UNL     1       6.264   3.409  -0.493  1.00  0.00     0.009 A 
HETATM   37  C4  UNL     1       7.191   2.783   0.320  1.00  0.00     0.001 A 
HETATM   38  C5  UNL     1       6.862   1.637   0.981  1.00  0.00     0.002 A 
HETATM   39  C6  UNL     1       5.612   1.123   0.827  1.00  0.00     0.030 A 
ENDBRANCH   1  33
TORSDOF 9
