REMARK  5 active torsions:
REMARK  status: ('A' for Active; 'I' for Inactive)
REMARK       I    between atoms: N2_10  and  C7_11 
REMARK       I    between atoms: C7_11  and  N3_13 
REMARK    1  A    between atoms: N3_13  and  C8_15 
REMARK    2  A    between atoms: N4_19  and  C12_20 
REMARK    3  A    between atoms: C12_20  and  C13_21 
REMARK       I    between atoms: C13_21  and  N5_23 
REMARK       I    between atoms: N5_23  and  C14_24 
REMARK    4  A    between atoms: N5_23  and  C20_36 
REMARK       I    between atoms: C14_24  and  N6_26 
REMARK    5  A    between atoms: N6_26  and  C15_28 
ROOT
HETATM    1  C12 UNL     1      -0.752   1.117  -1.740  1.00  0.00     0.229 C 
ENDROOT
BRANCH   1   2
HETATM    2  N4  UNL     1       0.473   0.300  -1.800  1.00  0.00    -0.342 N 
HETATM    3  C11 UNL     1       0.721  -0.595  -2.912  1.00  0.00     0.126 C 
HETATM    4  C10 UNL     1       1.312  -1.909  -2.532  1.00  0.00     0.022 C 
HETATM    5  C9  UNL     1       2.137  -1.909  -1.288  1.00  0.00     0.037 C 
HETATM    6  C8  UNL     1       2.660  -0.530  -1.035  1.00  0.00     0.178 C 
HETATM    7  C26 UNL     1       1.466   0.349  -0.782  1.00  0.00     0.243 C 
HETATM    8  O5  UNL     1       1.323   1.067   0.214  1.00  0.00    -0.271 OA
BRANCH   6   9
HETATM    9  N3  UNL     1       3.581  -0.477   0.085  1.00  0.00    -0.330 N 
HETATM   10  C7  UNL     1       4.874   0.085  -0.170  1.00  0.00     0.320 C 
HETATM   11  N2  UNL     1       5.899   0.220   0.782  1.00  0.00    -0.315 N 
HETATM   12  O2  UNL     1       5.150   0.507  -1.353  1.00  0.00    -0.247 OA
HETATM   13  C2  UNL     1       5.723  -0.221   2.145  1.00  0.00     0.110 C 
HETATM   14  C6  UNL     1       7.160   0.815   0.388  1.00  0.00     0.148 C 
HETATM   15  C1  UNL     1       5.475  -1.718   2.241  1.00  0.00     0.049 C 
HETATM   16  C3  UNL     1       4.623   0.519   2.872  1.00  0.00     0.049 C 
HETATM   17  C4  UNL     1       6.992   0.024   2.932  1.00  0.00     0.245 C 
HETATM   18  O1  UNL     1       6.963   0.414   4.126  1.00  0.00    -0.271 OA
HETATM   19  N1  UNL     1       8.252  -0.190   2.312  1.00  0.00    -0.357 N 
HETATM   20  C5  UNL     1       8.338  -0.001   0.874  1.00  0.00     0.142 C 
ATOM     21  H1  UNL     1       9.068  -0.467   2.858  1.00  0.00     0.162 HD
ATOM     22  H3  UNL     1       3.321  -0.823   1.009  1.00  0.00     0.165 HD
ENDBRANCH   6   9
ENDBRANCH   1   2
BRANCH   1  23
HETATM   23  C13 UNL     1      -1.816   0.369  -1.030  1.00  0.00     0.246 C 
HETATM   24  O3  UNL     1      -1.434  -0.774  -0.630  1.00  0.00    -0.271 OA
HETATM   25  N5  UNL     1      -3.138   0.809  -0.778  1.00  0.00    -0.264 N 
HETATM   26  C14 UNL     1      -4.076   0.053  -0.031  1.00  0.00     0.325 C 
HETATM   27  O4  UNL     1      -5.249   0.580   0.100  1.00  0.00    -0.247 OA
HETATM   28  N6  UNL     1      -3.825  -1.186   0.556  1.00  0.00    -0.335 N 
ATOM     29  H6  UNL     1      -2.909  -1.626   0.470  1.00  0.00     0.164 HD
BRANCH  25  30
HETATM   30  C20 UNL     1      -3.650   2.077  -1.269  1.00  0.00     0.097 C 
HETATM   31  C21 UNL     1      -2.867   3.295  -1.032  1.00  0.00     0.026 C 
HETATM   32  C22 UNL     1      -3.845   4.474  -1.263  1.00  0.00     0.002 C 
HETATM   33  C23 UNL     1      -5.095   4.035  -1.961  1.00  0.00     0.000 C 
HETATM   34  C24 UNL     1      -4.952   3.077  -3.079  1.00  0.00     0.002 C 
HETATM   35  C25 UNL     1      -3.962   1.983  -2.771  1.00  0.00     0.026 C 
ENDBRANCH  25  30
BRANCH  28  36
HETATM   36  C15 UNL     1      -4.915  -1.852   1.307  1.00  0.00     0.126 C 
HETATM   37  C16 UNL     1      -4.539  -1.995   2.766  1.00  0.00     0.107 C 
HETATM   38  C17 UNL     1      -5.342  -3.198   3.214  1.00  0.00     0.248 C 
HETATM   39  F1  UNL     1      -4.610  -3.894   4.142  1.00  0.00    -0.206 F 
HETATM   40  F2  UNL     1      -6.549  -2.811   3.788  1.00  0.00    -0.206 F 
HETATM   41  C18 UNL     1      -5.558  -4.032   1.979  1.00  0.00     0.118 C 
HETATM   42  C19 UNL     1      -5.229  -3.209   0.778  1.00  0.00     0.198 C 
HETATM   43  F3  UNL     1      -6.370  -3.161  -0.026  1.00  0.00    -0.247 F 
ENDBRANCH  28  36
ENDBRANCH   1  23
TORSDOF 5
