REMARK  8 active torsions:
REMARK  status: ('A' for Active; 'I' for Inactive)
REMARK       I    between atoms: C2_2  and  N1_4 
REMARK    1  A    between atoms: N1_4  and  C3_6 
REMARK    2  A    between atoms: N2_9  and  C6_10 
REMARK    3  A    between atoms: C6_10  and  O2_11 
REMARK    4  A    between atoms: C6_10  and  N3_13 
REMARK    5  A    between atoms: C11_18  and  C12_19 
REMARK       I    between atoms: C12_19  and  N4_21 
REMARK    6  A    between atoms: N4_21  and  C13_23 
REMARK       I    between atoms: N5_26  and  C16_27 
REMARK    7  A    between atoms: C16_27  and  C17_29 
REMARK    8  A    between atoms: C17_29  and  C18_30 
ROOT
HETATM    1  C12 UNL     1       0.576  -0.097   1.426  1.00  0.00     0.241 C 
HETATM    2  O3  UNL     1       1.591  -0.558   2.038  1.00  0.00    -0.271 OA
HETATM    3  N4  UNL     1       0.708   0.163   0.061  1.00  0.00    -0.355 N 
ATOM      4  H4  UNL     1      -0.099   0.532  -0.441  1.00  0.00     0.162 HD
ENDROOT
BRANCH   1   5
HETATM    5  C11 UNL     1      -0.629   0.111   2.234  1.00  0.00     0.179 C 
HETATM    6  N3  UNL     1      -1.744   0.639   1.443  1.00  0.00    -0.334 N 
HETATM    7  C7  UNL     1      -1.808   2.059   1.321  1.00  0.00     0.127 C 
HETATM    8  C8  UNL     1      -2.181   2.672   2.670  1.00  0.00     0.020 C 
HETATM    9  C9  UNL     1      -1.541   1.885   3.793  1.00  0.00     0.004 C 
HETATM   10  C10 UNL     1      -0.349   1.089   3.325  1.00  0.00     0.035 C 
BRANCH   6  11
HETATM   11  C6  UNL     1      -2.655  -0.275   0.901  1.00  0.00     0.218 C 
BRANCH  11  12
HETATM   12  N2  UNL     1      -3.840  -0.027   0.171  1.00  0.00    -0.345 N 
HETATM   13  C5  UNL     1      -4.492   1.193  -0.215  1.00  0.00     0.128 C 
HETATM   14  C4  UNL     1      -5.893   0.849  -0.617  1.00  0.00     0.046 C 
HETATM   15  C3  UNL     1      -6.048  -0.611  -0.398  1.00  0.00     0.104 C 
HETATM   16  C24 UNL     1      -4.658  -1.141  -0.371  1.00  0.00     0.151 C 
BRANCH  15  17
HETATM   17  N1  UNL     1      -6.827  -1.142  -1.504  1.00  0.00    -0.355 N 
HETATM   18  C2  UNL     1      -8.089  -1.743  -1.303  1.00  0.00     0.213 C 
HETATM   19  C1  UNL     1      -8.869  -2.282  -2.450  1.00  0.00     0.117 C 
HETATM   20  O1  UNL     1      -8.549  -1.820  -0.139  1.00  0.00    -0.274 OA
ATOM     21  H1  UNL     1      -6.452  -1.079  -2.451  1.00  0.00     0.162 HD
ENDBRANCH  15  17
ENDBRANCH  11  12
BRANCH  11  22
HETATM   22  O2  UNL     1      -2.397  -1.536   1.085  1.00  0.00    -0.332 OA
ATOM     23  H2  UNL     1      -1.601  -1.703   1.576  1.00  0.00     0.220 HD
ENDBRANCH  11  22
ENDBRANCH   6  11
ENDBRANCH   1   5
BRANCH   3  24
HETATM   24  C13 UNL     1       1.924  -0.063  -0.675  1.00  0.00     0.087 C 
HETATM   25  C14 UNL     1       1.775  -1.104  -1.757  1.00  0.00     0.045 C 
HETATM   26  C15 UNL     1       3.157  -1.272  -2.388  1.00  0.00     0.127 C 
HETATM   27  N5  UNL     1       4.087  -0.268  -1.909  1.00  0.00    -0.352 N 
HETATM   28  C16 UNL     1       5.364  -0.650  -1.394  1.00  0.00     0.225 C 
HETATM   29  C22 UNL     1       3.691   1.105  -1.968  1.00  0.00     0.127 C 
HETATM   30  O4  UNL     1       5.670  -1.870  -1.362  1.00  0.00    -0.273 OA
HETATM   31  C23 UNL     1       2.358   1.250  -1.269  1.00  0.00     0.045 C 
BRANCH  28  32
HETATM   32  C17 UNL     1       6.344   0.329  -0.895  1.00  0.00     0.161 C 
BRANCH  32  33
HETATM   33  C18 UNL     1       7.572  -0.350  -0.425  1.00  0.00     0.043 A 
HETATM   34  N6  UNL     1       7.928  -0.569   0.831  1.00  0.00    -0.347 N 
HETATM   35  C19 UNL     1       9.101  -1.214   0.919  1.00  0.00     0.127 A 
ATOM     36  H6  UNL     1       7.375  -0.281   1.638  1.00  0.00     0.167 HD
HETATM   37 CL1  UNL     1       9.896  -1.676   2.402  1.00  0.00    -0.063 Cl
HETATM   38  C20 UNL     1       9.535  -1.428  -0.362  1.00  0.00     0.096 A 
HETATM   39 CL2  UNL     1      11.020  -2.236  -0.839  1.00  0.00    -0.079 Cl
HETATM   40  C21 UNL     1       8.590  -0.895  -1.195  1.00  0.00     0.082 A 
HETATM   41 CL3  UNL     1       8.641  -0.889  -2.943  1.00  0.00    -0.080 Cl
ENDBRANCH  32  33
ENDBRANCH  28  32
ENDBRANCH   3  24
TORSDOF 8
