REMARK  7 active torsions:
REMARK  status: ('A' for Active; 'I' for Inactive)
REMARK       I    between atoms: C2_2  and  N1_4 
REMARK    1  A    between atoms: N1_4  and  C3_6 
REMARK    2  A    between atoms: C3_6  and  C4_7 
REMARK    3  A    between atoms: C3_6  and  C20_33 
REMARK    4  A    between atoms: C4_7  and  C5_9 
REMARK    5  A    between atoms: C5_9  and  N2_10 
REMARK    6  A    between atoms: C5_9  and  N3_14 
REMARK    7  A    between atoms: C8_17  and  C9_18 
ROOT
HETATM    1  N3  UNL     1      -1.257  -0.271   0.693  1.00  0.00     0.126 N 
HETATM    2  C6  UNL     1      -0.526   0.855   0.196  1.00  0.00     0.276 C 
HETATM    3  C7  UNL     1       0.838   0.893   0.912  1.00  0.00     0.037 C 
HETATM    4  C8  UNL     1       1.595  -0.343   0.480  1.00  0.00     0.018 C 
HETATM    5  C18 UNL     1       0.804  -1.547   0.847  1.00  0.00     0.037 C 
HETATM    6  C19 UNL     1      -0.526  -1.174   1.517  1.00  0.00     0.276 C 
ENDROOT
BRANCH   1   7
HETATM    7  C5  UNL     1      -2.533   0.090   1.177  1.00  0.00     0.487 C 
BRANCH   7   8
HETATM    8  C4  UNL     1      -3.497   0.617   0.205  1.00  0.00     0.212 C 
HETATM    9  O2  UNL     1      -3.286   1.619  -0.422  1.00  0.00    -0.291 OA
BRANCH   8  10
HETATM   10  C3  UNL     1      -4.776  -0.099  -0.019  1.00  0.00     0.196 C 
BRANCH  10  11
HETATM   11  N1  UNL     1      -5.856   0.848  -0.303  1.00  0.00    -0.347 N 
HETATM   12  C2  UNL     1      -6.977   0.903   0.549  1.00  0.00     0.214 C 
HETATM   13  C1  UNL     1      -8.094   1.851   0.292  1.00  0.00     0.117 C 
HETATM   14  O1  UNL     1      -7.071   0.147   1.560  1.00  0.00    -0.274 OA
ATOM     15  H1  UNL     1      -5.797   1.465  -1.113  1.00  0.00     0.163 HD
ENDBRANCH  10  11
BRANCH  10  16
HETATM   16  C20 UNL     1      -4.710  -1.074  -1.185  1.00  0.00     0.137 C 
HETATM   17  C21 UNL     1      -4.434  -0.395  -2.502  1.00  0.00     0.053 C 
HETATM   18 CL1  UNL     1      -3.423  -2.243  -0.870  1.00  0.00    -0.099 Cl
HETATM   19 CL2  UNL     1      -6.299  -1.896  -1.240  1.00  0.00    -0.099 Cl
ENDBRANCH  10  16
ENDBRANCH   8  10
ENDBRANCH   7   8
BRANCH   7  20
HETATM   20  N2  UNL     1      -3.139  -0.946   2.012  1.00  0.00    -0.040 N 
ATOM     21  H23 UNL     1      -3.988  -0.611   2.468  1.00  0.00     0.277 HD
ATOM     22  H22 UNL     1      -3.549  -1.691   1.448  1.00  0.00     0.277 HD
ATOM     23  H21 UNL     1      -2.469  -1.312   2.688  1.00  0.00     0.277 HD
ENDBRANCH   7  20
ENDBRANCH   1   7
BRANCH   4  24
HETATM   24  C9  UNL     1       2.990  -0.340   1.085  1.00  0.00     0.046 C 
HETATM   25  C10 UNL     1       2.914  -0.315   2.603  1.00  0.00     0.040 C 
HETATM   26  N4  UNL     1       3.605   0.895   0.662  1.00  0.00    -0.350 N 
HETATM   27  C11 UNL     1       4.360   1.281  -0.454  1.00  0.00     0.226 C 
ATOM     28  H4  UNL     1       3.457   1.658   1.323  1.00  0.00     0.163 HD
HETATM   29  O3  UNL     1       4.726   2.509  -0.424  1.00  0.00    -0.273 OA
HETATM   30  C12 UNL     1       4.781   0.503  -1.622  1.00  0.00     0.034 C 
HETATM   31  C13 UNL     1       3.807   0.636  -2.803  1.00  0.00     0.025 C 
HETATM   32  C14 UNL     1       6.070   1.177  -2.129  1.00  0.00     0.025 C 
HETATM   33  C15 UNL     1       5.116  -0.923  -1.356  1.00  0.00     0.020 C 
HETATM   34  C16 UNL     1       5.117  -1.277   0.108  1.00  0.00     0.019 C 
HETATM   35  C17 UNL     1       3.729  -1.572   0.624  1.00  0.00     0.086 C 
HETATM   36 BR1  UNL     1       3.933  -2.736   2.165  1.00  0.00    -0.089 Br
ENDBRANCH   4  24
TORSDOF 7
