REMARK  7 active torsions:
REMARK  status: ('A' for Active; 'I' for Inactive)
REMARK       I    between atoms: C1_2  and  N1_3 
REMARK    1  A    between atoms: C1_2  and  C7_12 
REMARK    2  A    between atoms: N1_3  and  C2_5 
REMARK    3  A    between atoms: C8_13  and  C9_14 
REMARK       I    between atoms: C9_14  and  N3_16 
REMARK    4  A    between atoms: N3_16  and  C10_18 
REMARK    5  A    between atoms: C10_18  and  C11_19 
REMARK    6  A    between atoms: C13_21  and  O3_22 
REMARK       I    between atoms: N4_30  and  C17_31 
REMARK    7  A    between atoms: C17_31  and  C18_33 
ROOT
HETATM    1  C7  UNL     1      -0.914   1.304  -0.655  1.00  0.00     0.212 A 
HETATM    2  C8  UNL     1      -0.203   0.482   0.357  1.00  0.00     0.212 A 
HETATM    3  N4  UNL     1      -1.378  -0.044  -0.369  1.00  0.00    -0.320 N 
HETATM    4  C17 UNL     1      -2.284  -1.115  -0.593  1.00  0.00     0.226 C 
HETATM    5  O4  UNL     1      -3.183  -0.927  -1.443  1.00  0.00    -0.273 OA
ENDROOT
BRANCH   2   6
HETATM    6  C9  UNL     1       1.102  -0.183  -0.015  1.00  0.00     0.246 C 
HETATM    7  O2  UNL     1       1.204  -0.522  -1.217  1.00  0.00    -0.271 OA
HETATM    8  N3  UNL     1       2.066  -0.365   0.976  1.00  0.00    -0.339 N 
ATOM      9  H3  UNL     1       1.795  -0.038   1.903  1.00  0.00     0.167 HD
BRANCH   8  10
HETATM   10  C10 UNL     1       3.348  -0.926   0.901  1.00  0.00     0.068 C 
BRANCH  10  11
HETATM   11  C11 UNL     1       4.436  -0.271   0.126  1.00  0.00     0.028 C 
HETATM   12  C12 UNL     1       5.718  -1.110   0.237  1.00  0.00     0.046 C 
HETATM   13  C13 UNL     1       6.137  -1.623  -1.108  1.00  0.00     0.171 C 
HETATM   14  C14 UNL     1       6.507  -0.445  -2.009  1.00  0.00     0.202 C 
HETATM   15  F1  UNL     1       6.525  -0.901  -3.293  1.00  0.00    -0.226 F 
HETATM   16 BR1  UNL     1       8.288   0.116  -1.509  1.00  0.00    -0.044 Br
HETATM   17  C15 UNL     1       5.514   0.681  -1.831  1.00  0.00     0.136 C 
HETATM   18 CL1  UNL     1       6.160   1.802  -0.620  1.00  0.00    -0.121 Cl
HETATM   19  C16 UNL     1       4.177   0.130  -1.278  1.00  0.00     0.034 C 
BRANCH  13  20
HETATM   20  O3  UNL     1       7.296  -2.379  -0.960  1.00  0.00    -0.391 OA
ATOM     21  H3  UNL     1       7.561  -2.704  -1.812  1.00  0.00     0.210 HD
ENDBRANCH  13  20
ENDBRANCH  10  11
ENDBRANCH   8  10
ENDBRANCH   2   6
BRANCH   1  22
HETATM   22  C1  UNL     1      -1.861   2.362  -0.121  1.00  0.00     0.248 C 
HETATM   23  O1  UNL     1      -2.299   2.176   1.035  1.00  0.00    -0.271 OA
HETATM   24  N1  UNL     1      -2.185   3.439  -0.899  1.00  0.00    -0.311 N 
ATOM     25  H1  UNL     1      -1.614   3.526  -1.739  1.00  0.00     0.170 HD
BRANCH  24  26
HETATM   26  C2  UNL     1      -3.036   4.327  -0.781  1.00  0.00     0.107 A 
HETATM   27  C3  UNL     1      -3.926   4.442   0.248  1.00  0.00     0.048 A 
HETATM   28  C4  UNL     1      -4.857   5.494   0.303  1.00  0.00     0.005 A 
HETATM   29  C5  UNL     1      -4.853   6.417  -0.712  1.00  0.00     0.017 A 
HETATM   30  C6  UNL     1      -3.947   6.287  -1.745  1.00  0.00     0.089 A 
HETATM   31  N2  UNL     1      -3.080   5.280  -1.767  1.00  0.00    -0.352 N 
ATOM     32  H2  UNL     1      -2.424   5.213  -2.545  1.00  0.00     0.166 HD
ENDBRANCH  24  26
ENDBRANCH   1  22
BRANCH   4  33
HETATM   33  C18 UNL     1      -2.132  -2.352   0.153  1.00  0.00     0.082 C 
HETATM   34  C19 UNL     1      -2.255  -2.151   1.669  1.00  0.00     0.019 C 
HETATM   35  C20 UNL     1      -3.222  -3.214   2.085  1.00  0.00    -0.013 C 
HETATM   36  C21 UNL     1      -4.587  -2.825   1.565  1.00  0.00     0.005 C 
HETATM   37  C24 UNL     1      -2.862  -4.333   1.090  1.00  0.00     0.010 C 
HETATM   38  C22 UNL     1      -4.532  -3.109   0.087  1.00  0.00     0.006 C 
HETATM   39  C23 UNL     1      -3.089  -3.451  -0.164  1.00  0.00    -0.001 C 
ENDBRANCH   4  33
TORSDOF 7
