REMARK  5 active torsions:
REMARK  status: ('A' for Active; 'I' for Inactive)
REMARK       I    between atoms: C1_2  and  N1_3 
REMARK    1  A    between atoms: C1_2  and  C8_20 
REMARK    2  A    between atoms: N1_3  and  S1_5 
REMARK    3  A    between atoms: S1_5  and  N2_8 
REMARK    4  A    between atoms: N2_8  and  C2_10 
REMARK    5  A    between atoms: C7_16  and  N3_17 
ROOT
HETATM    1  S1  UNL     1       0.533   1.968   0.826  1.00  0.00     0.326 S 
HETATM    2  O2  UNL     1       0.247   3.153   1.718  1.00  0.00    -0.182 OA
HETATM    3  O3  UNL     1       0.601   2.493  -0.584  1.00  0.00    -0.182 OA
ENDROOT
BRANCH   1   4
HETATM    4  N1  UNL     1      -0.803   0.907   0.960  1.00  0.00    -0.233 N 
HETATM    5  C1  UNL     1      -1.760   0.856  -0.065  1.00  0.00     0.266 C 
HETATM    6  O1  UNL     1      -1.653   1.591  -1.104  1.00  0.00    -0.267 OA
ATOM      7  H1  UNL     1      -0.903   0.313   1.783  1.00  0.00     0.183 HD
BRANCH   5   8
HETATM    8  C8  UNL     1      -2.894  -0.049   0.060  1.00  0.00     0.033 A 
HETATM    9  C9  UNL     1      -3.909   0.089  -0.875  1.00  0.00     0.017 A 
HETATM   10  C10 UNL     1      -5.015  -0.693  -0.868  1.00  0.00     0.001 A 
HETATM   11  C11 UNL     1      -5.149  -1.676   0.111  1.00  0.00     0.000 A 
HETATM   12  C12 UNL     1      -4.137  -1.807   1.036  1.00  0.00     0.001 A 
HETATM   13  C13 UNL     1      -3.013  -1.012   1.027  1.00  0.00     0.017 A 
ENDBRANCH   5   8
ENDBRANCH   1   4
BRANCH   1  14
HETATM   14  N2  UNL     1       2.041   1.244   1.222  1.00  0.00    -0.263 N 
ATOM     15  H2  UNL     1       2.329   1.232   2.201  1.00  0.00     0.180 HD
BRANCH  14  16
HETATM   16  C2  UNL     1       2.912   0.659   0.254  1.00  0.00     0.098 A 
HETATM   17  C3  UNL     1       3.828   1.486  -0.419  1.00  0.00     0.064 A 
HETATM   18 CL1  UNL     1       3.924   3.199  -0.018  1.00  0.00    -0.082 Cl
HETATM   19  C4  UNL     1       4.662   0.987  -1.391  1.00  0.00     0.026 A 
HETATM   20  C5  UNL     1       4.568  -0.355  -1.686  1.00  0.00     0.004 A 
HETATM   21  C6  UNL     1       3.681  -1.173  -1.039  1.00  0.00     0.038 A 
HETATM   22  C7  UNL     1       2.839  -0.673  -0.056  1.00  0.00     0.131 A 
BRANCH  22  23
HETATM   23  N3  UNL     1       1.928  -1.573   0.615  1.00  0.00    -0.113 N 
HETATM   24  O4  UNL     1       1.667  -1.372   1.812  1.00  0.00    -0.532 OA
HETATM   25  O5  UNL     1       1.383  -2.636  -0.041  1.00  0.00    -0.532 OA
ENDBRANCH  22  23
ENDBRANCH  14  16
ENDBRANCH   1  14
TORSDOF 5
