REMARK  5 active torsions:
REMARK  status: ('A' for Active; 'I' for Inactive)
REMARK    1  A    between atoms: C2_2  and  C3_3 
REMARK    2  A    between atoms: N1_4  and  N2_6 
REMARK       I    between atoms: N2_6  and  C4_8 
REMARK       I    between atoms: C4_8  and  N3_10 
REMARK    3  A    between atoms: N3_10  and  N4_12 
REMARK    4  A    between atoms: N4_12  and  C6_14 
REMARK    5  A    between atoms: C11_19  and  S1_20 
ROOT
HETATM    1  N2  UNL     1       2.186  -0.605   0.571  1.00  0.00    -0.251 N 
ATOM      2  H2  UNL     1       2.064  -0.924   1.532  1.00  0.00     0.191 HD
HETATM    3  C4  UNL     1       1.079  -0.231  -0.226  1.00  0.00     0.355 C 
HETATM    4  O1  UNL     1       1.212   0.164  -1.407  1.00  0.00    -0.244 OA
HETATM    5  N3  UNL     1      -0.228  -0.305   0.314  1.00  0.00    -0.245 N 
HETATM    6  C5  UNL     1      -0.405  -0.732   1.677  1.00  0.00     0.183 C 
ENDROOT
BRANCH   5   7
HETATM    7  N4  UNL     1      -1.330  -0.002  -0.466  1.00  0.00    -0.294 N 
ATOM      8  H4  UNL     1      -1.303  -0.329  -1.432  1.00  0.00     0.187 HD
BRANCH   7   9
HETATM    9  C6  UNL     1      -2.483   0.705  -0.079  1.00  0.00     0.070 A 
HETATM   10  C7  UNL     1      -2.346   1.912   0.560  1.00  0.00     0.032 A 
HETATM   11  C8  UNL     1      -3.474   2.614   0.926  1.00  0.00     0.002 A 
HETATM   12  C9  UNL     1      -4.721   2.110   0.654  1.00  0.00     0.002 A 
HETATM   13  C10 UNL     1      -4.865   0.897   0.013  1.00  0.00     0.026 A 
HETATM   14  C11 UNL     1      -3.737   0.168  -0.368  1.00  0.00     0.086 A 
BRANCH  14  15
HETATM   15  S1  UNL     1      -3.911  -1.381  -1.169  1.00  0.00     0.174 S 
HETATM   16  C12 UNL     1      -3.169  -2.698  -0.233  1.00  0.00     0.167 C 
HETATM   17  O2  UNL     1      -5.373  -1.697  -1.303  1.00  0.00    -0.223 OA
HETATM   18  O3  UNL     1      -3.297  -1.264  -2.557  1.00  0.00    -0.223 OA
ENDBRANCH  14  15
ENDBRANCH   7   9
ENDBRANCH   5   7
BRANCH   1  19
HETATM   19  N1  UNL     1       3.459  -0.520  -0.014  1.00  0.00    -0.307 N 
HETATM   20  C3  UNL     1       4.246   0.486   0.167  1.00  0.00     0.114 C 
ATOM     21  H1  UNL     1       3.775  -1.287  -0.608  1.00  0.00     0.186 HD
BRANCH  20  22
HETATM   22  C2  UNL     1       5.533   0.467  -0.481  1.00  0.00    -0.034 C 
HETATM   23  C1  UNL     1       5.918  -0.688  -1.326  1.00  0.00     0.050 C 
HETATM   24  C13 UNL     1       6.366   1.455  -0.337  1.00  0.00     0.092 C 
HETATM   25 CL1  UNL     1       5.983   2.842   0.641  1.00  0.00    -0.096 Cl
ENDBRANCH  20  22
ENDBRANCH   1  19
TORSDOF 5
