REMARK  2 active torsions:
REMARK  status: ('A' for Active; 'I' for Inactive)
REMARK    1  A    between atoms: C3_3  and  C4_4 
REMARK    2  A    between atoms: C5_5  and  C6_6 
ROOT
HETATM    1  C6  UNL     1       1.062  -1.207  -0.101  1.00  0.00     0.170 C 
HETATM    2  C7  UNL     1       2.021  -1.171   1.052  1.00  0.00     0.268 C 
HETATM    3  N1  UNL     1       3.376  -1.143   0.502  1.00  0.00    -0.070 N 
ATOM      4  H11 UNL     1       3.566  -1.880  -0.178  1.00  0.00     0.277 HD
ATOM      5  H12 UNL     1       4.101  -1.413   1.166  1.00  0.00     0.277 HD
HETATM    6  C8  UNL     1       3.525   0.215  -0.029  1.00  0.00     0.258 C 
HETATM    7  C9  UNL     1       2.179   0.700  -0.554  1.00  0.00     0.196 C 
HETATM    8  O1  UNL     1       1.435  -0.332  -1.070  1.00  0.00    -0.379 OA
ENDROOT
BRANCH   1   9
HETATM    9  C5  UNL     1      -0.288  -0.927   0.462  1.00  0.00     0.006 C 
HETATM   10  C4  UNL     1      -1.140  -0.074  -0.061  1.00  0.00    -0.002 C 
BRANCH  10  11
HETATM   11  C3  UNL     1      -2.433   0.155   0.528  1.00  0.00    -0.005 C 
HETATM   12  C2  UNL     1      -3.324   1.000   0.043  1.00  0.00    -0.031 C 
HETATM   13  C1  UNL     1      -4.643   1.209   0.676  1.00  0.00     0.036 C 
ENDBRANCH  10  11
ENDBRANCH   1   9
TORSDOF 2
