REMARK  3 active torsions:
REMARK  status: ('A' for Active; 'I' for Inactive)
REMARK    1  A    between atoms: C2_2  and  C3_3 
REMARK    2  A    between atoms: C3_3  and  C5_5 
REMARK    3  A    between atoms: C8_9  and  O2_10 
ROOT
HETATM    1  C5  UNL     1      -0.586   0.487  -0.673  1.00  0.00     0.050 C 
HETATM    2  C6  UNL     1      -0.833   1.595   0.325  1.00  0.00     0.036 C 
HETATM    3  C7  UNL     1      -1.283   0.814   1.529  1.00  0.00     0.171 C 
HETATM    4  O1  UNL     1      -1.501  -0.496   1.147  1.00  0.00    -0.361 OA
HETATM    5  C8  UNL     1      -1.594  -0.508  -0.236  1.00  0.00     0.261 C 
ENDROOT
BRANCH   1   6
HETATM    6  C3  UNL     1       0.828   0.037  -0.656  1.00  0.00     0.012 C 
HETATM    7  C4  UNL     1       1.017  -1.031  -1.736  1.00  0.00     0.015 C 
BRANCH   6   8
HETATM    8  C2  UNL     1       1.343  -0.491   0.591  1.00  0.00    -0.032 C 
HETATM    9  C1  UNL     1       2.373   0.074   1.195  1.00  0.00     0.007 C 
ENDBRANCH   6   8
ENDBRANCH   1   6
BRANCH   5  10
HETATM   10  O2  UNL     1      -1.512  -1.739  -0.796  1.00  0.00    -0.371 OA
ATOM     11  H2  UNL     1      -2.158  -2.377  -0.516  1.00  0.00     0.212 HD
ENDBRANCH   5  10
TORSDOF 3
