REMARK  3 active torsions:
REMARK  status: ('A' for Active; 'I' for Inactive)
REMARK    1  A    between atoms: N2_9  and  C7_10 
REMARK    2  A    between atoms: C7_10  and  C8_11 
REMARK       I    between atoms: C8_11  and  N3_13 
REMARK       I    between atoms: N3_13  and  C9_15 
REMARK       I    between atoms: C9_15  and  N4_17 
REMARK    3  A    between atoms: N4_17  and  C10_19 
ROOT
HETATM    1  N1  UNL     1       3.794   1.362   2.487  1.00  0.00    -0.195 NA
HETATM    2  C1  UNL     1       4.358   1.082   1.516  1.00  0.00     0.084 C 
HETATM    3  C2  UNL     1       5.099   0.729   0.283  1.00  0.00     0.192 C 
HETATM    4  C3  UNL     1       6.192  -0.210   0.639  1.00  0.00     0.048 C 
HETATM    5  C4  UNL     1       6.723  -0.986  -0.533  1.00  0.00     0.087 C 
HETATM    6  C5  UNL     1       5.677  -1.373  -1.485  1.00  0.00     0.164 C 
HETATM    7  O1  UNL     1       5.755  -2.453  -2.044  1.00  0.00    -0.292 OA
HETATM    8  C6  UNL     1       4.551  -0.482  -1.768  1.00  0.00     0.137 C 
HETATM    9  N2  UNL     1       4.210   0.408  -0.739  1.00  0.00    -0.361 N 
ENDROOT
BRANCH   9  10
HETATM   10  C7  UNL     1       2.783   0.233  -0.312  1.00  0.00     0.227 C 
BRANCH  10  11
HETATM   11  C8  UNL     1       2.565  -0.889   0.413  1.00  0.00     0.243 C 
HETATM   12  O2  UNL     1       3.373  -1.748   0.765  1.00  0.00    -0.271 OA
HETATM   13  N3  UNL     1       1.050  -1.388   1.017  1.00  0.00    -0.278 N 
HETATM   14  C9  UNL     1       0.268  -0.296   0.552  1.00  0.00     0.323 C 
ATOM     15  H3  UNL     1       0.786  -2.217   1.549  1.00  0.00     0.173 HD
HETATM   16  O3  UNL     1       0.514   0.719  -0.006  1.00  0.00    -0.247 OA
HETATM   17  N4  UNL     1      -1.176  -0.511   0.845  1.00  0.00    -0.338 N 
ATOM     18  H4  UNL     1      -1.472  -1.360   1.327  1.00  0.00     0.164 HD
BRANCH  17  19
HETATM   19  C10 UNL     1      -2.152   0.461   0.458  1.00  0.00     0.091 C 
HETATM   20  C11 UNL     1      -3.048   0.919   1.566  1.00  0.00     0.030 C 
HETATM   21  C12 UNL     1      -4.479   0.448   1.409  1.00  0.00    -0.012 C 
HETATM   22  C13 UNL     1      -5.253   1.353   0.508  1.00  0.00     0.009 C 
HETATM   23  C17 UNL     1      -4.462  -0.973   0.971  1.00  0.00     0.010 C 
HETATM   24  C14 UNL     1      -5.040   1.070  -0.956  1.00  0.00    -0.013 C 
HETATM   25  C15 UNL     1      -5.200  -0.407  -1.266  1.00  0.00     0.010 C 
HETATM   26  C19 UNL     1      -3.585   1.277  -1.338  1.00  0.00     0.011 C 
HETATM   27  C16 UNL     1      -3.999  -0.971  -0.488  1.00  0.00    -0.008 C 
HETATM   28  C18 UNL     1      -2.938   0.031  -0.769  1.00  0.00     0.013 C 
ENDBRANCH  17  19
ENDBRANCH  10  11
ENDBRANCH   9  10
TORSDOF 3
