REMARK  5 active torsions:
REMARK  status: ('A' for Active; 'I' for Inactive)
REMARK    1  A    between atoms: C3_3  and  C4_4 
REMARK    2  A    between atoms: C4_4  and  N1_5 
REMARK    3  A    between atoms: N2_8  and  C6_9 
REMARK    4  A    between atoms: C6_9  and  C7_11 
REMARK    5  A    between atoms: C10_14  and  N3_15 
ROOT
HETATM    1  C1  UNL     1      -6.220   3.693  -0.654  1.00  0.00     0.112 C 
HETATM    2  C2  UNL     1      -4.815   3.326  -0.458  1.00  0.00    -0.105 C 
HETATM    3  C3  UNL     1      -3.649   3.040  -0.313  1.00  0.00    -0.062 C 
ENDROOT
BRANCH   3   4
HETATM    4  C4  UNL     1      -2.242   2.753  -0.164  1.00  0.00     0.158 C 
BRANCH   4   5
HETATM    5  N1  UNL     1      -1.898   1.425   0.103  1.00  0.00    -0.320 N 
HETATM    6  C5  UNL     1      -0.479   1.031   0.175  1.00  0.00     0.182 C 
HETATM    7  S1  UNL     1       0.727   2.028   0.613  1.00  0.00    -0.040 SA
HETATM    8  N2  UNL     1      -0.381  -0.344  -0.197  1.00  0.00    -0.309 N 
HETATM    9  C13 UNL     1      -1.754  -0.714  -0.575  1.00  0.00     0.116 C 
HETATM   10  C14 UNL     1      -2.112  -2.120  -0.369  1.00  0.00     0.028 C 
HETATM   11  C18 UNL     1      -2.539   0.193   0.366  1.00  0.00     0.115 C 
HETATM   12  C15 UNL     1      -3.621  -2.315  -0.426  1.00  0.00     0.002 C 
HETATM   13  C16 UNL     1      -4.384  -1.381   0.433  1.00  0.00     0.002 C 
HETATM   14  C17 UNL     1      -3.986   0.082   0.118  1.00  0.00     0.028 C 
BRANCH   8  15
HETATM   15  C6  UNL     1       0.744  -1.178  -0.226  1.00  0.00     0.113 C 
HETATM   16  S2  UNL     1       0.630  -2.757  -0.708  1.00  0.00    -0.063 SA
BRANCH  15  17
HETATM   17  C7  UNL     1       2.141  -0.780   0.135  1.00  0.00     0.247 C 
HETATM   18  C8  UNL     1       2.865  -0.214  -1.061  1.00  0.00     0.042 C 
HETATM   19  C9  UNL     1       4.307  -0.771  -1.083  1.00  0.00     0.037 C 
HETATM   20  C10 UNL     1       4.799  -0.592   0.340  1.00  0.00     0.211 C 
HETATM   21  C12 UNL     1       4.141  -1.686   1.151  1.00  0.00     0.266 C 
HETATM   22  N4  UNL     1       2.872  -1.997   0.529  1.00  0.00    -0.063 N 
ATOM     23  H42 UNL     1       2.302  -2.595   1.128  1.00  0.00     0.278 HD
ATOM     24  H41 UNL     1       2.992  -2.630  -0.262  1.00  0.00     0.278 HD
BRANCH  20  25
HETATM   25  N3  UNL     1       6.225  -0.561   0.461  1.00  0.00    -0.073 N 
HETATM   26  C11 UNL     1       6.730   0.588  -0.267  1.00  0.00     0.267 C 
ATOM     27  H32 UNL     1       6.534  -0.574   1.433  1.00  0.00     0.277 HD
ATOM     28  H31 UNL     1       6.661  -1.434   0.163  1.00  0.00     0.277 HD
ENDBRANCH  20  25
ENDBRANCH  15  17
ENDBRANCH   8  15
ENDBRANCH   4   5
ENDBRANCH   3   4
TORSDOF 5
