REMARK  4 active torsions:
REMARK  status: ('A' for Active; 'I' for Inactive)
REMARK       I    between atoms: C2_5  and  N3_6 
REMARK       I    between atoms: C2_5  and  N5_20 
REMARK    1  A    between atoms: N3_6  and  C3_8 
REMARK    2  A    between atoms: C5_12  and  C6_13 
REMARK    3  A    between atoms: C6_13  and  C7_14 
REMARK    4  A    between atoms: N5_20  and  C12_22 
ROOT
HETATM    1  N1  UNL     1      -0.339  -2.594   2.581  1.00  0.00    -0.171 NA
HETATM    2  C1  UNL     1       0.516  -2.034   2.046  1.00  0.00     0.196 C 
HETATM    3  N2  UNL     1       1.549  -1.362   1.387  1.00  0.00    -0.126 N 
ATOM      4  H2  UNL     1       2.303  -1.907   0.970  1.00  0.00     0.197 HD
HETATM    5  C2  UNL     1       1.582  -0.068   1.287  1.00  0.00     0.689 C 
HETATM    6  N3  UNL     1       0.514   0.652   1.881  1.00  0.00    -0.170 N 
ATOM      7  H3  UNL     1       0.636   1.084   2.797  1.00  0.00     0.186 HD
HETATM    8  N5  UNL     1       2.643   0.594   0.611  1.00  0.00    -0.219 N 
ATOM      9  H5  UNL     1       2.736   1.606   0.700  1.00  0.00     0.178 HD
ENDROOT
BRANCH   6  10
HETATM   10  C3  UNL     1      -0.635   0.762   1.249  1.00  0.00     0.164 A 
HETATM   11  N4  UNL     1      -0.960   0.262   0.055  1.00  0.00    -0.345 N 
HETATM   12  C4  UNL     1      -2.155   0.479  -0.405  1.00  0.00     0.104 A 
ATOM     13  H4  UNL     1      -0.284  -0.279  -0.485  1.00  0.00     0.167 HD
HETATM   14  C5  UNL     1      -3.018   1.212   0.364  1.00  0.00     0.002 A 
HETATM   15  S1  UNL     1      -2.061   1.561   1.733  1.00  0.00    -0.057 SA
BRANCH  14  16
HETATM   16  C6  UNL     1      -4.442   1.608   0.078  1.00  0.00     0.052 C 
BRANCH  16  17
HETATM   17  C7  UNL     1      -5.395   0.577   0.590  1.00  0.00    -0.010 C 
HETATM   18  C8  UNL     1      -5.169  -0.774  -0.043  1.00  0.00     0.005 C 
HETATM   19  C9  UNL     1      -6.561  -1.392   0.077  1.00  0.00     0.000 C 
HETATM   20  C10 UNL     1      -7.446  -0.261  -0.396  1.00  0.00     0.000 C 
HETATM   21  C11 UNL     1      -6.792   0.973   0.183  1.00  0.00     0.005 C 
ENDBRANCH  16  17
ENDBRANCH  14  16
ENDBRANCH   6  10
BRANCH   8  22
HETATM   22  C12 UNL     1       3.582  -0.126  -0.190  1.00  0.00     0.131 C 
HETATM   23  C13 UNL     1       4.324  -1.164   0.660  1.00  0.00     0.298 C 
HETATM   24  N6  UNL     1       5.715  -1.227   0.246  1.00  0.00     0.090 N 
HETATM   25  C14 UNL     1       5.835  -1.249  -1.198  1.00  0.00     0.273 C 
HETATM   26  C18 UNL     1       6.383  -0.052   0.820  1.00  0.00     0.273 C 
HETATM   27  C15 UNL     1       5.525   0.143  -1.716  1.00  0.00     0.037 C 
HETATM   28  C16 UNL     1       4.640   0.828  -0.699  1.00  0.00     0.014 C 
HETATM   29  C17 UNL     1       5.543   1.181   0.484  1.00  0.00     0.037 C 
ENDBRANCH   8  22
TORSDOF 4
