REMARK  4 active torsions:
REMARK  status: ('A' for Active; 'I' for Inactive)
REMARK       I    between atoms: N1_2  and  C2_4 
REMARK    1  A    between atoms: C2_4  and  C3_6 
REMARK    2  A    between atoms: C5_8  and  C6_9 
REMARK       I    between atoms: C6_9  and  N2_11 
REMARK    3  A    between atoms: N2_11  and  C7_13 
REMARK       I    between atoms: N4_20  and  C12_21 
REMARK    4  A    between atoms: C12_21  and  C13_23 
ROOT
HETATM    1  C3  UNL     1      -0.469  -0.799   1.119  1.00  0.00     0.105 C 
HETATM    2  C4  UNL     1       1.050  -0.996   0.955  1.00  0.00     0.051 C 
HETATM    3  C5  UNL     1       1.409  -0.334  -0.335  1.00  0.00     0.180 C 
HETATM    4  N3  UNL     1       0.196   0.272  -0.817  1.00  0.00    -0.330 N 
HETATM    5  C10 UNL     1      -0.150   0.668  -2.130  1.00  0.00     0.238 C 
HETATM    6  O3  UNL     1       0.531   0.435  -3.155  1.00  0.00    -0.271 OA
HETATM    7  C11 UNL     1      -1.419   1.416  -2.295  1.00  0.00     0.229 C 
HETATM    8  N4  UNL     1      -2.401   0.949  -1.329  1.00  0.00    -0.336 N 
HETATM    9  C12 UNL     1      -3.664   0.556  -1.809  1.00  0.00     0.238 C 
HETATM   10  O4  UNL     1      -3.843   0.623  -3.074  1.00  0.00    -0.272 OA
HETATM   11  C15 UNL     1      -2.034   0.905   0.083  1.00  0.00     0.107 C 
HETATM   12  C16 UNL     1      -2.203   2.362   0.561  1.00  0.00     0.034 C 
HETATM   13  C17 UNL     1      -0.671   0.427   0.329  1.00  0.00     0.123 C 
ENDROOT
BRANCH   3  14
HETATM   14  C6  UNL     1       2.532   0.606  -0.221  1.00  0.00     0.241 C 
HETATM   15  O2  UNL     1       2.465   1.828  -0.512  1.00  0.00    -0.271 OA
HETATM   16  N2  UNL     1       3.781   0.124   0.245  1.00  0.00    -0.355 N 
ATOM     17  H2  UNL     1       3.867  -0.863   0.489  1.00  0.00     0.162 HD
BRANCH  16  18
HETATM   18  C7  UNL     1       4.942   0.984   0.387  1.00  0.00     0.076 C 
HETATM   19  C8  UNL     1       6.044   0.417  -0.496  1.00  0.00     0.032 C 
HETATM   20  C9  UNL     1       5.473   0.997   1.802  1.00  0.00     0.032 C 
ENDBRANCH  16  18
ENDBRANCH   3  14
BRANCH   1  21
HETATM   21  C2  UNL     1      -1.092  -2.028   0.707  1.00  0.00     0.223 C 
HETATM   22  N1  UNL     1      -0.764  -3.211   1.432  1.00  0.00    -0.365 N 
HETATM   23  C1  UNL     1      -1.320  -4.519   1.121  1.00  0.00     0.149 C 
ATOM     24  H1  UNL     1      -0.106  -3.137   2.208  1.00  0.00     0.161 HD
HETATM   25  O1  UNL     1      -1.907  -2.215  -0.227  1.00  0.00    -0.273 OA
ENDBRANCH   1  21
BRANCH   9  26
HETATM   26  C13 UNL     1      -4.798   0.076  -0.994  1.00  0.00     0.170 C 
HETATM   27  C14 UNL     1      -5.399   1.108  -0.092  1.00  0.00     0.036 C 
HETATM   28 CL1  UNL     1      -6.081  -0.549  -2.045  1.00  0.00    -0.115 Cl
ENDBRANCH   9  26
TORSDOF 4
