REMARK  6 active torsions:
REMARK  status: ('A' for Active; 'I' for Inactive)
REMARK       I    between atoms: C2_2  and  N1_4 
REMARK    1  A    between atoms: N1_4  and  C3_6 
REMARK    2  A    between atoms: C3_6  and  C4_7 
REMARK    3  A    between atoms: C4_7  and  N2_8 
REMARK    4  A    between atoms: C8_15  and  C9_16 
REMARK    5  A    between atoms: C10_17  and  C11_18 
REMARK    6  A    between atoms: C12_20  and  N4_21 
REMARK       I    between atoms: N4_21  and  C13_23 
ROOT
HETATM    1  N2  UNL     1      -0.164  -0.216  -0.333  1.00  0.00    -0.333 N 
HETATM    2  C5  UNL     1      -1.001  -0.814  -1.341  1.00  0.00     0.180 C 
HETATM    3  S1  UNL     1      -0.314  -1.461  -2.669  1.00  0.00    -0.040 SA
HETATM    4  N3  UNL     1      -2.412  -0.863  -1.223  1.00  0.00    -0.298 N 
HETATM    5  C6  UNL     1      -3.267  -1.462  -2.229  1.00  0.00     0.161 C 
HETATM    6  C7  UNL     1      -2.979  -0.292  -0.056  1.00  0.00     0.245 C 
HETATM    7  O2  UNL     1      -4.244  -0.183   0.061  1.00  0.00    -0.271 OA
HETATM    8  C8  UNL     1      -2.149   0.191   1.051  1.00  0.00     0.200 C 
HETATM    9  C12 UNL     1      -0.781   0.666   0.594  1.00  0.00     0.213 C 
ENDROOT
BRANCH   1  10
HETATM   10  C4  UNL     1       1.257  -0.551  -0.317  1.00  0.00     0.147 C 
BRANCH  10  11
HETATM   11  C3  UNL     1       2.137   0.578  -0.679  1.00  0.00     0.142 C 
BRANCH  11  12
HETATM   12  N1  UNL     1       3.525   0.171  -0.639  1.00  0.00    -0.360 N 
HETATM   13  C2  UNL     1       4.098  -0.832  -1.450  1.00  0.00     0.213 C 
HETATM   14  C1  UNL     1       5.524  -1.214  -1.361  1.00  0.00     0.117 C 
HETATM   15  O1  UNL     1       3.389  -1.435  -2.283  1.00  0.00    -0.274 OA
ATOM     16  H1  UNL     1       4.136   0.645   0.026  1.00  0.00     0.162 HD
ENDBRANCH  11  12
ENDBRANCH  10  11
ENDBRANCH   1  10
BRANCH   9  17
HETATM   17  N4  UNL     1      -0.967   2.027   0.131  1.00  0.00    -0.338 N 
HETATM   18  C13 UNL     1      -0.492   3.171   0.758  1.00  0.00     0.215 C 
HETATM   19  C14 UNL     1      -0.748   4.511   0.186  1.00  0.00     0.117 C 
HETATM   20  O3  UNL     1       0.166   3.129   1.821  1.00  0.00    -0.274 OA
ATOM     21  H4  UNL     1      -1.494   2.156  -0.733  1.00  0.00     0.164 HD
ENDBRANCH   9  17
BRANCH   8  22
HETATM   22  C9  UNL     1      -2.045  -0.895   2.030  1.00  0.00    -0.087 C 
HETATM   23  C10 UNL     1      -1.970  -1.801   2.823  1.00  0.00    -0.095 C 
BRANCH  23  24
HETATM   24  C11 UNL     1      -1.885  -2.917   3.766  1.00  0.00     0.178 C 
HETATM   25 BR1  UNL     1      -3.645  -3.516   4.258  1.00  0.00    -0.083 Br
ENDBRANCH  23  24
ENDBRANCH   8  22
TORSDOF 6
