REMARK  3 active torsions:
REMARK  status: ('A' for Active; 'I' for Inactive)
REMARK    1  A    between atoms: N2_9  and  C8_10 
REMARK    2  A    between atoms: C8_10  and  C9_11 
REMARK       I    between atoms: C9_11  and  N3_13 
REMARK    3  A    between atoms: N3_13  and  C10_15 
ROOT
HETATM    1  C9  UNL     1      -0.572   0.864  -0.345  1.00  0.00     0.246 C 
HETATM    2  O1  UNL     1      -0.601   0.903   0.908  1.00  0.00    -0.272 OA
HETATM    3  N3  UNL     1      -1.765   0.452  -1.006  1.00  0.00    -0.350 N 
ATOM      4  H3  UNL     1      -1.757   0.413  -2.025  1.00  0.00     0.163 HD
ENDROOT
BRANCH   1   5
HETATM    5  C8  UNL     1       0.631   1.223  -1.120  1.00  0.00     0.374 C 
BRANCH   5   6
HETATM    6  N2  UNL     1       1.744   1.541  -0.256  1.00  0.00     0.098 N 
HETATM    7  C7  UNL     1       2.859   2.102  -0.940  1.00  0.00     0.273 C 
HETATM    8  C6  UNL     1       3.835   1.195  -1.570  1.00  0.00     0.031 C 
HETATM    9  C5  UNL     1       3.751  -0.190  -1.039  1.00  0.00     0.015 C 
HETATM   10  C4  UNL     1       3.410  -0.178   0.410  1.00  0.00     0.014 C 
HETATM   11  C3  UNL     1       3.367  -1.661   0.851  1.00  0.00     0.043 C 
HETATM   12  C20 UNL     1       2.075   0.466   0.637  1.00  0.00     0.284 C 
HETATM   13  C21 UNL     1       4.476   0.321   1.329  1.00  0.00     0.283 C 
HETATM   14  C2  UNL     1       4.870  -1.941   0.905  1.00  0.00     0.272 C 
HETATM   15  N1  UNL     1       5.461  -0.742   1.421  1.00  0.00     0.085 N 
HETATM   16  C1  UNL     1       6.727  -0.407   0.829  1.00  0.00     0.309 C 
ENDBRANCH   5   6
ENDBRANCH   1   5
BRANCH   3  17
HETATM   17  C10 UNL     1      -2.982   0.087  -0.326  1.00  0.00     0.034 C 
HETATM   18  C11 UNL     1      -2.842  -1.028   0.652  1.00  0.00     0.035 C 
HETATM   19  C12 UNL     1      -4.211  -1.274   1.274  1.00  0.00    -0.012 C 
HETATM   20  C13 UNL     1      -4.749  -0.017   1.903  1.00  0.00     0.009 C 
HETATM   21  C17 UNL     1      -5.172  -1.773   0.218  1.00  0.00     0.009 C 
HETATM   22  C14 UNL     1      -4.955   1.055   0.852  1.00  0.00    -0.012 C 
HETATM   23  C15 UNL     1      -5.872   0.597  -0.247  1.00  0.00     0.009 C 
HETATM   24  C19 UNL     1      -3.592   1.335   0.256  1.00  0.00     0.035 C 
HETATM   25  C16 UNL     1      -5.322  -0.684  -0.822  1.00  0.00    -0.012 C 
HETATM   26  C18 UNL     1      -3.971  -0.392  -1.398  1.00  0.00     0.035 C 
ENDBRANCH   3  17
TORSDOF 3
