REMARK  3 active torsions:
REMARK  status: ('A' for Active; 'I' for Inactive)
REMARK    1  A    between atoms: C1_2  and  C2_3 
REMARK       I    between atoms: C1_2  and  N2_15 
REMARK    2  A    between atoms: C2_3  and  N1_4 
REMARK    3  A    between atoms: N2_15  and  C11_17 
ROOT
HETATM    1  O1  UNL     1      -0.006   0.246   0.199  1.00  0.00    -0.272 OA
HETATM    2  C1  UNL     1      -0.279   0.870  -0.835  1.00  0.00     0.238 C 
HETATM    3  N2  UNL     1      -1.628   0.992  -1.259  1.00  0.00    -0.350 N 
ATOM      4  H2  UNL     1      -1.809   1.515  -2.116  1.00  0.00     0.163 HD
ENDROOT
BRANCH   2   5
HETATM    5  C2  UNL     1       0.786   1.485  -1.626  1.00  0.00     0.262 C 
BRANCH   5   6
HETATM    6  N1  UNL     1       2.127   1.273  -1.065  1.00  0.00    -0.216 N 
HETATM    7  O2  UNL     1       2.960   0.257  -1.350  1.00  0.00    -0.263 OA
HETATM    8  C3  UNL     1       3.910   0.244  -0.372  1.00  0.00     0.097 C 
HETATM    9  C4  UNL     1       5.177  -0.368  -0.931  1.00  0.00     0.041 C 
HETATM   10  C8  UNL     1       3.462  -0.644   0.751  1.00  0.00     0.041 C 
HETATM   11  C9  UNL     1       4.086   1.673   0.027  1.00  0.00     0.145 C 
HETATM   12  C5  UNL     1       6.310  -0.335   0.051  1.00  0.00     0.003 C 
HETATM   13  C6  UNL     1       5.892  -0.559   1.469  1.00  0.00     0.000 C 
HETATM   14  C7  UNL     1       4.531  -1.138   1.640  1.00  0.00     0.003 C 
HETATM   15  C10 UNL     1       2.705   2.169  -0.138  1.00  0.00     0.246 C 
HETATM   16  O3  UNL     1       2.163   3.138   0.398  1.00  0.00    -0.271 OA
ENDBRANCH   5   6
ENDBRANCH   2   5
BRANCH   3  17
HETATM   17  C11 UNL     1      -2.757   0.433  -0.569  1.00  0.00     0.034 C 
HETATM   18  C12 UNL     1      -2.924   0.940   0.845  1.00  0.00     0.035 C 
HETATM   19  C13 UNL     1      -4.093   0.242   1.475  1.00  0.00    -0.012 C 
HETATM   20  C14 UNL     1      -3.986  -1.248   1.473  1.00  0.00     0.009 C 
HETATM   21  C18 UNL     1      -5.352   0.624   0.731  1.00  0.00     0.009 C 
HETATM   22  C15 UNL     1      -3.888  -1.702   0.024  1.00  0.00    -0.012 C 
HETATM   23  C16 UNL     1      -5.107  -1.316  -0.744  1.00  0.00     0.009 C 
HETATM   24  C20 UNL     1      -2.641  -1.054  -0.543  1.00  0.00     0.035 C 
HETATM   25  C17 UNL     1      -5.231   0.191  -0.708  1.00  0.00    -0.012 C 
HETATM   26  C19 UNL     1      -4.015   0.815  -1.324  1.00  0.00     0.035 C 
ENDBRANCH   3  17
TORSDOF 3
