REMARK  5 active torsions:
REMARK  status: ('A' for Active; 'I' for Inactive)
REMARK    1  A    between atoms: C2_2  and  C5_5 
REMARK    2  A    between atoms: C7_7  and  C8_8 
REMARK    3  A    between atoms: C8_8  and  C9_9 
REMARK    4  A    between atoms: C11_12  and  N1_13 
REMARK    5  A    between atoms: N3_20  and  C13_21 
ROOT
HETATM    1  C9  UNL     1       0.549   0.558  -0.220  1.00  0.00     0.082 A 
HETATM    2  S1  UNL     1      -0.005   2.187  -0.298  1.00  0.00    -0.065 SA
HETATM    3  C10 UNL     1       1.513   2.949  -0.414  1.00  0.00     0.092 A 
HETATM    4  C11 UNL     1       1.802   4.261  -0.510  1.00  0.00     0.131 C 
HETATM    5  C12 UNL     1       2.376   1.893  -0.385  1.00  0.00     0.267 A 
HETATM    6  O1  UNL     1       3.648   2.149  -0.458  1.00  0.00    -0.266 OA
HETATM    7  N3  UNL     1       1.875   0.691  -0.287  1.00  0.00    -0.302 N 
ENDROOT
BRANCH   1   8
HETATM    8  C8  UNL     1      -0.206  -0.556  -0.124  1.00  0.00     0.068 C 
BRANCH   8   9
HETATM    9  C7  UNL     1      -1.661  -0.343  -0.083  1.00  0.00     0.052 A 
HETATM   10  C6  UNL     1      -2.627  -0.957   0.652  1.00  0.00     0.058 A 
HETATM   11  C5  UNL     1      -3.841  -0.378   0.306  1.00  0.00     0.035 A 
HETATM   12  N5  UNL     1      -3.580   0.565  -0.623  1.00  0.00    -0.304 N 
HETATM   13  N4  UNL     1      -2.289   0.577  -0.845  1.00  0.00    -0.301 N 
ATOM     14  H5  UNL     1      -4.270   1.166  -1.075  1.00  0.00     0.186 HD
ATOM     15  H4  UNL     1      -1.821   1.198  -1.505  1.00  0.00     0.187 HD
BRANCH  11  16
HETATM   16  C2  UNL     1      -5.172  -0.715   0.837  1.00  0.00    -0.007 C 
HETATM   17  C1  UNL     1      -5.579   0.175   1.994  1.00  0.00     0.021 C 
HETATM   18  C3  UNL     1      -5.153  -2.182   1.243  1.00  0.00     0.021 C 
HETATM   19  C4  UNL     1      -6.237  -0.562  -0.231  1.00  0.00     0.021 C 
ENDBRANCH  11  16
ENDBRANCH   8   9
ENDBRANCH   1   8
BRANCH   7  20
HETATM   20  C13 UNL     1       2.740  -0.518  -0.250  1.00  0.00     0.094 C 
HETATM   21  C14 UNL     1       3.762  -0.457   0.839  1.00  0.00     0.026 C 
HETATM   22  C15 UNL     1       5.175  -0.721   0.381  1.00  0.00     0.002 C 
HETATM   23  C16 UNL     1       5.321  -1.832  -0.600  1.00  0.00     0.000 C 
HETATM   24  C17 UNL     1       4.139  -2.055  -1.494  1.00  0.00     0.002 C 
HETATM   25  C18 UNL     1       3.394  -0.718  -1.619  1.00  0.00     0.026 C 
ENDBRANCH   7  20
BRANCH   4  26
HETATM   26  N1  UNL     1       3.141   4.707  -0.598  1.00  0.00    -0.317 N 
HETATM   27  N2  UNL     1       3.538   5.212  -1.691  1.00  0.00    -0.345 N 
ATOM     28  H22 UNL     1       2.894   5.288  -2.479  1.00  0.00     0.176 HD
ATOM     29  H21 UNL     1       4.504   5.534  -1.754  1.00  0.00     0.176 HD
ATOM     30  H1  UNL     1       3.772   4.624   0.199  1.00  0.00     0.185 HD
ENDBRANCH   4  26
TORSDOF 5
