REMARK  5 active torsions:
REMARK  status: ('A' for Active; 'I' for Inactive)
REMARK    1  A    between atoms: C4_5  and  C5_6 
REMARK    2  A    between atoms: C5_6  and  O1_7 
REMARK    3  A    between atoms: C12_18  and  O3_19 
REMARK    4  A    between atoms: O3_19  and  C13_20 
REMARK    5  A    between atoms: C13_20  and  C14_22 
ROOT
HETATM    1  C1  UNL     1       5.118   0.387  -1.205  1.00  0.00     0.148 C 
HETATM    2  N1  UNL     1       4.264   0.800  -0.147  1.00  0.00    -0.395 N 
HETATM    3  C2  UNL     1       4.757   1.972   0.589  1.00  0.00     0.148 C 
HETATM    4  C3  UNL     1       3.172   0.237   0.209  1.00  0.00    -0.005 C 
HETATM    5  C4  UNL     1       2.654  -0.956  -0.456  1.00  0.00     0.059 C 
HETATM    6  C6  UNL     1       1.302  -1.342   0.149  1.00  0.00    -0.002 C 
HETATM    7  C7  UNL     1       1.402  -1.490   1.645  1.00  0.00     0.006 C 
HETATM    8  C8  UNL     1       2.008  -0.307   2.316  1.00  0.00     0.011 C 
HETATM    9  C9  UNL     1       2.354   0.803   1.311  1.00  0.00     0.045 C 
HETATM   10  C10 UNL     1       1.116   1.469   0.940  1.00  0.00     0.095 C 
HETATM   11  C11 UNL     1       0.981   2.171  -0.323  1.00  0.00     0.225 C 
HETATM   12  O2  UNL     1       1.715   2.515  -1.262  1.00  0.00    -0.273 OA
HETATM   13  N2  UNL     1      -0.432   2.505  -0.393  1.00  0.00    -0.333 N 
ATOM     14  H2  UNL     1      -0.841   3.277  -0.919  1.00  0.00     0.165 HD
HETATM   15  C12 UNL     1      -1.159   1.543   0.421  1.00  0.00     0.237 C 
HETATM   16  C19 UNL     1      -0.098   0.535   0.836  1.00  0.00     0.049 C 
HETATM   17  C20 UNL     1       0.214  -0.428  -0.291  1.00  0.00     0.015 C 
ENDROOT
BRANCH  15  18
HETATM   18  O3  UNL     1      -2.232   0.956  -0.238  1.00  0.00    -0.295 OA
BRANCH  18  19
HETATM   19  C13 UNL     1      -3.541   0.976   0.189  1.00  0.00     0.265 C 
HETATM   20  O4  UNL     1      -3.780   1.578   1.267  1.00  0.00    -0.265 OA
BRANCH  19  21
HETATM   21  C14 UNL     1      -4.659   0.348  -0.525  1.00  0.00     0.085 C 
HETATM   22  C15 UNL     1      -5.962   0.554   0.210  1.00  0.00     0.014 C 
HETATM   23  C16 UNL     1      -6.636  -0.810   0.262  1.00  0.00     0.001 C 
HETATM   24  C17 UNL     1      -5.915  -1.620  -0.816  1.00  0.00     0.001 C 
HETATM   25  C18 UNL     1      -4.479  -1.141  -0.692  1.00  0.00     0.014 C 
ENDBRANCH  19  21
ENDBRANCH  18  19
ENDBRANCH  15  18
BRANCH   5  26
HETATM   26  C5  UNL     1       3.504  -2.199  -0.351  1.00  0.00     0.175 C 
BRANCH  26  27
HETATM   27  O1  UNL     1       2.766  -3.188  -1.063  1.00  0.00    -0.400 OA
ATOM     28  H1  UNL     1       3.301  -3.970  -0.997  1.00  0.00     0.209 HD
ENDBRANCH  26  27
ENDBRANCH   5  26
TORSDOF 5
