REMARK  7 active torsions:
REMARK  status: ('A' for Active; 'I' for Inactive)
REMARK    1  A    between atoms: N1_2  and  C2_3 
REMARK       I    between atoms: N1_2  and  C4_7 
REMARK    2  A    between atoms: C2_3  and  C3_4 
REMARK    3  A    between atoms: C3_4  and  O1_5 
REMARK       I    between atoms: C4_7  and  N2_9 
REMARK    4  A    between atoms: N2_9  and  C5_11 
REMARK    5  A    between atoms: C7_13  and  N3_14 
REMARK    6  A    between atoms: N3_14  and  C9_16 
REMARK    7  A    between atoms: C9_16  and  C10_17 
ROOT
HETATM    1  C10 UNL     1      -5.213   0.870  -0.008  1.00  0.00    -0.064 C 
HETATM    2  C11 UNL     1      -5.929   1.359  -0.827  1.00  0.00    -0.022 C 
HETATM    3 BR1  UNL     1      -7.087   2.139  -2.103  1.00  0.00     0.010 Br
ENDROOT
BRANCH   1   4
HETATM    4  C9  UNL     1      -4.339   0.248   0.982  1.00  0.00     0.366 C 
BRANCH   4   5
HETATM    5  N3  UNL     1      -3.020   0.803   0.911  1.00  0.00     0.099 N 
HETATM    6  C8  UNL     1      -2.925   2.182   1.260  1.00  0.00     0.311 C 
BRANCH   5   7
HETATM    7  C7  UNL     1      -2.301   0.485  -0.280  1.00  0.00     0.226 C 
HETATM    8  C6  UNL     1      -0.837   0.759  -0.050  1.00  0.00     0.063 C 
HETATM    9  C5  UNL     1       0.039  -0.461  -0.156  1.00  0.00     0.111 C 
HETATM   10  C15 UNL     1      -0.185  -1.206  -1.454  1.00  0.00     0.120 C 
HETATM   11  C13 UNL     1      -1.617  -1.333  -1.849  1.00  0.00     0.104 C 
HETATM   12  N4  UNL     1      -0.079  -2.634  -1.327  1.00  0.00    -0.353 N 
HETATM   13  C12 UNL     1      -2.561  -0.946  -0.710  1.00  0.00     0.052 C 
HETATM   14  C14 UNL     1      -1.385  -2.796  -1.842  1.00  0.00     0.224 C 
HETATM   15  O3  UNL     1      -2.157  -3.739  -2.194  1.00  0.00    -0.273 OA
ATOM     16  H4  UNL     1       0.646  -3.272  -0.998  1.00  0.00     0.163 HD
BRANCH   9  17
HETATM   17  N2  UNL     1       1.404   0.023  -0.215  1.00  0.00    -0.336 N 
HETATM   18  C4  UNL     1       2.357  -0.373   0.758  1.00  0.00     0.318 C 
HETATM   19  N1  UNL     1       3.689   0.096   0.708  1.00  0.00    -0.337 N 
HETATM   20  O2  UNL     1       2.013  -1.168   1.701  1.00  0.00    -0.247 OA
HETATM   21  C1  UNL     1       4.626  -0.342   1.710  1.00  0.00     0.154 C 
ATOM     22  H2  UNL     1       1.682   0.656  -0.965  1.00  0.00     0.164 HD
BRANCH  19  23
HETATM   23  C2  UNL     1       4.092   1.004  -0.324  1.00  0.00     0.153 C 
BRANCH  23  24
HETATM   24  C3  UNL     1       4.591   0.273  -1.563  1.00  0.00     0.184 C 
BRANCH  24  25
HETATM   25  O1  UNL     1       5.676  -0.524  -1.289  1.00  0.00    -0.399 OA
ATOM     26  H1  UNL     1       5.987  -0.980  -2.062  1.00  0.00     0.209 HD
ENDBRANCH  24  25
ENDBRANCH  23  24
ENDBRANCH  19  23
ENDBRANCH   9  17
ENDBRANCH   5   7
ENDBRANCH   4   5
ENDBRANCH   1   4
TORSDOF 7
