REMARK  6 active torsions:
REMARK  status: ('A' for Active; 'I' for Inactive)
REMARK    1  A    between atoms: C6_9  and  N3_10 
REMARK    2  A    between atoms: N3_10  and  C7_12 
REMARK    3  A    between atoms: N5_18  and  C11_20 
REMARK    4  A    between atoms: C11_20  and  C12_21 
REMARK    5  A    between atoms: C12_21  and  C13_22 
REMARK    6  A    between atoms: C13_22  and  N6_23 
ROOT
HETATM    1  C1  UNL     1      -4.824  -4.042   0.559  1.00  0.00     0.054 C 
HETATM    2  C2  UNL     1      -5.270  -2.813   1.301  1.00  0.00     0.005 A 
HETATM    3  C3  UNL     1      -6.550  -2.639   1.794  1.00  0.00     0.069 A 
HETATM    4  C4  UNL     1      -7.682  -3.518   1.724  1.00  0.00     0.101 C 
HETATM    5  N1  UNL     1      -8.612  -4.216   1.673  1.00  0.00    -0.191 NA
HETATM    6  C5  UNL     1      -6.515  -1.391   2.395  1.00  0.00     0.113 A 
HETATM    7  N2  UNL     1      -5.284  -0.862   2.262  1.00  0.00    -0.350 N 
ATOM      8  H2  UNL     1      -4.996   0.050   2.618  1.00  0.00     0.166 HD
HETATM    9  C6  UNL     1      -4.487  -1.719   1.587  1.00  0.00     0.128 A 
ENDROOT
BRANCH   9  10
HETATM   10  N3  UNL     1      -3.133  -1.590   1.218  1.00  0.00    -0.176 N 
ATOM     11  H3  UNL     1      -2.471  -2.278   1.575  1.00  0.00     0.186 HD
BRANCH  10  12
HETATM   12  C7  UNL     1      -2.683  -0.655   0.457  1.00  0.00     0.685 A 
HETATM   13  N4  UNL     1      -3.432   0.311  -0.082  1.00  0.00    -0.190 N 
HETATM   14  C8  UNL     1      -2.911   1.271  -0.871  1.00  0.00     0.070 A 
ATOM     15  H4  UNL     1      -4.434   0.322   0.111  1.00  0.00     0.184 HD
HETATM   16  C9  UNL     1      -1.566   1.281  -1.148  1.00  0.00     0.028 A 
HETATM   17  C22 UNL     1      -3.566   2.440  -1.557  1.00  0.00     0.090 A 
HETATM   18  C10 UNL     1      -0.760   0.295  -0.605  1.00  0.00     0.130 A 
HETATM   19  C20 UNL     1      -1.278   2.430  -2.056  1.00  0.00     0.139 A 
HETATM   20  N5  UNL     1       0.458   0.230  -0.766  1.00  0.00    -0.355 N 
HETATM   21  N7  UNL     1      -1.383  -0.638   0.184  1.00  0.00    -0.176 N 
ATOM     22  H5  UNL     1       0.818  -0.583  -0.267  1.00  0.00     0.166 HD
ATOM     23  H7  UNL     1      -0.805  -1.373   0.591  1.00  0.00     0.186 HD
HETATM   24  N8  UNL     1      -2.506   3.116  -2.186  1.00  0.00    -0.290 NA
HETATM   25  C21 UNL     1      -2.353   4.507  -1.927  1.00  0.00     0.116 C 
BRANCH  20  26
HETATM   26  C11 UNL     1       1.520   0.886  -1.397  1.00  0.00     0.067 C 
BRANCH  26  27
HETATM   27  C12 UNL     1       2.204   1.768  -0.386  1.00  0.00     0.089 C 
BRANCH  27  28
HETATM   28  C13 UNL     1       2.791   1.020   0.756  1.00  0.00     0.068 C 
BRANCH  28  29
HETATM   29  N6  UNL     1       3.850   0.181   0.457  1.00  0.00    -0.373 N 
HETATM   30  C14 UNL     1       3.828  -1.004  -0.234  1.00  0.00     0.063 C 
HETATM   31  C15 UNL     1       4.660  -2.129   0.386  1.00  0.00     0.045 C 
HETATM   32  C16 UNL     1       5.773  -1.594   1.235  1.00  0.00     0.011 C 
HETATM   33  C17 UNL     1       6.273  -0.267   0.713  1.00  0.00     0.000 C 
HETATM   34  C18 UNL     1       6.875  -0.392  -0.666  1.00  0.00     0.011 C 
HETATM   35  C19 UNL     1       5.159   0.715   0.782  1.00  0.00     0.131 C 
ENDBRANCH  28  29
ENDBRANCH  27  28
ENDBRANCH  26  27
ENDBRANCH  20  26
ENDBRANCH  10  12
ENDBRANCH   9  10
TORSDOF 6
