REMARK  3 active torsions:
REMARK  status: ('A' for Active; 'I' for Inactive)
REMARK    1  A    between atoms: N1_2  and  C2_4 
REMARK    2  A    between atoms: C5_8  and  C6_9 
REMARK    3  A    between atoms: C8_11  and  O2_12 
ROOT
HETATM    1  C6  UNL     1      -0.410  -1.316   0.365  1.00  0.00    -0.014 A 
HETATM    2  C7  UNL     1      -0.166  -2.692   0.251  1.00  0.00     0.049 A 
HETATM    3  C8  UNL     1      -1.162  -3.627   0.168  1.00  0.00     0.066 A 
HETATM    4  C9  UNL     1      -2.460  -3.169   0.200  1.00  0.00     0.037 A 
HETATM    5  C10 UNL     1      -2.747  -1.834   0.309  1.00  0.00     0.016 A 
HETATM    6  C11 UNL     1      -1.693  -0.884   0.392  1.00  0.00    -0.015 A 
HETATM    7  C12 UNL     1      -2.096   0.502   0.435  1.00  0.00    -0.025 A 
HETATM    8  C13 UNL     1      -1.612   1.398  -0.478  1.00  0.00     0.015 A 
HETATM    9  C14 UNL     1      -2.014   2.743  -0.449  1.00  0.00     0.043 A 
HETATM   10  C15 UNL     1      -2.907   3.139   0.520  1.00  0.00     0.116 A 
HETATM   11  F1  UNL     1      -3.333   4.442   0.595  1.00  0.00    -0.206 F 
HETATM   12  C16 UNL     1      -3.402   2.255   1.443  1.00  0.00     0.043 A 
HETATM   13  C17 UNL     1      -2.983   0.931   1.385  1.00  0.00     0.015 A 
ENDROOT
BRANCH   1  14
HETATM   14  C5  UNL     1       0.727  -0.393   0.449  1.00  0.00    -0.016 C 
HETATM   15  C4  UNL     1       0.930   0.536   1.580  1.00  0.00     0.068 C 
HETATM   16  C3  UNL     1       1.769   1.712   1.208  1.00  0.00     0.182 C 
HETATM   17  O1  UNL     1       3.014   1.256   0.683  1.00  0.00    -0.334 OA
HETATM   18  C2  UNL     1       2.866   0.385  -0.416  1.00  0.00     0.163 C 
HETATM   19  C18 UNL     1       1.679  -0.434  -0.485  1.00  0.00     0.104 C 
HETATM   20  N2  UNL     1       1.507  -1.317  -1.589  1.00  0.00    -0.097 NA
BRANCH  18  21
HETATM   21  N1  UNL     1       3.787   0.324  -1.348  1.00  0.00    -0.374 N 
HETATM   22  C1  UNL     1       4.967   1.162  -1.245  1.00  0.00     0.148 C 
ATOM     23  H1  UNL     1       3.674  -0.309  -2.140  1.00  0.00     0.161 HD
ENDBRANCH  18  21
ENDBRANCH   1  14
BRANCH   3  24
HETATM   24  O2  UNL     1      -0.859  -4.977   0.057  1.00  0.00    -0.361 OA
ATOM     25  H2  UNL     1      -1.550  -5.626  -0.001  1.00  0.00     0.217 HD
ENDBRANCH   3  24
TORSDOF 3
