REMARK  3 active torsions:
REMARK  status: ('A' for Active; 'I' for Inactive)
REMARK    1  A    between atoms: C6_7  and  N2_8 
REMARK    2  A    between atoms: C9_12  and  C10_13 
REMARK    3  A    between atoms: C13_16  and  O2_17 
ROOT
HETATM    1  N2  UNL     1       1.209  -0.650   0.427  1.00  0.00    -0.374 N 
HETATM    2  C7  UNL     1       1.383  -2.105   0.294  1.00  0.00     0.149 C 
HETATM    3  C8  UNL     1       0.603  -2.605  -0.894  1.00  0.00     0.188 C 
HETATM    4  O1  UNL     1      -0.609  -1.931  -1.034  1.00  0.00    -0.378 OA
HETATM    5  C9  UNL     1      -1.044  -1.419   0.167  1.00  0.00     0.172 C 
HETATM    6  C17 UNL     1      -0.165  -0.240   0.632  1.00  0.00     0.160 C 
ENDROOT
BRANCH   5   7
HETATM    7  C10 UNL     1      -2.443  -0.885   0.005  1.00  0.00    -0.027 A 
HETATM    8  C11 UNL     1      -3.406  -1.604  -0.663  1.00  0.00     0.012 A 
HETATM    9  C12 UNL     1      -4.697  -1.125  -0.820  1.00  0.00     0.037 A 
HETATM   10  C13 UNL     1      -5.022   0.120  -0.285  1.00  0.00     0.071 A 
HETATM   11  C14 UNL     1      -4.070   0.848   0.385  1.00  0.00    -0.028 A 
HETATM   12  C15 UNL     1      -4.385   2.196   0.976  1.00  0.00     0.051 C 
HETATM   13  C16 UNL     1      -2.800   0.339   0.520  1.00  0.00     0.019 A 
BRANCH  10  14
HETATM   14  O2  UNL     1      -6.308   0.647  -0.415  1.00  0.00    -0.360 OA
ATOM     15  H2  UNL     1      -6.530   1.496  -0.050  1.00  0.00     0.217 HD
ENDBRANCH  10  14
ENDBRANCH   5   7
BRANCH   1  16
HETATM   16  C6  UNL     1       2.326   0.181   0.317  1.00  0.00     0.055 A 
HETATM   17  C5  UNL     1       2.313   1.442   0.853  1.00  0.00     0.072 A 
HETATM   18  C4  UNL     1       3.430   2.272   0.703  1.00  0.00     0.029 A 
HETATM   19  N1  UNL     1       1.175   1.883   1.567  1.00  0.00    -0.100 NA
HETATM   20  C3  UNL     1       4.528   1.805   0.016  1.00  0.00     0.009 A 
HETATM   21  C2  UNL     1       4.579   0.544  -0.536  1.00  0.00    -0.060 A 
HETATM   22  C1  UNL     1       5.791   0.092  -1.267  1.00  0.00     0.048 C 
HETATM   23  C18 UNL     1       3.463  -0.262  -0.377  1.00  0.00     0.038 A 
ENDBRANCH   1  16
TORSDOF 3
