REMARK  5 active torsions:
REMARK  status: ('A' for Active; 'I' for Inactive)
REMARK    1  A    between atoms: C2_2  and  C3_3 
REMARK    2  A    between atoms: C3_3  and  C6_6 
REMARK    3  A    between atoms: C6_6  and  O1_7 
REMARK    4  A    between atoms: O1_7  and  C7_8 
REMARK    5  A    between atoms: C18_24  and  O2_25 
ROOT
HETATM    1  C7  UNL     1      -0.853  -0.803   0.220  1.00  0.00     0.103 A 
HETATM    2  C8  UNL     1       0.095   0.203   0.193  1.00  0.00     0.053 A 
HETATM    3  C9  UNL     1       1.448  -0.112   0.114  1.00  0.00    -0.006 A 
HETATM    4  C10 UNL     1       2.395   0.894   0.086  1.00  0.00     0.032 A 
HETATM    5  C11 UNL     1       3.742   0.528   0.007  1.00  0.00     0.049 A 
HETATM    6  C12 UNL     1       4.909   1.263  -0.038  1.00  0.00     0.152 A 
HETATM    7  F1  UNL     1       4.951   2.615  -0.010  1.00  0.00    -0.203 F 
HETATM    8  C13 UNL     1       5.944   0.358  -0.113  1.00  0.00     0.046 A 
HETATM    9  C14 UNL     1       7.394   0.704  -0.182  1.00  0.00     0.071 C 
HETATM   10  N1  UNL     1       5.471  -0.898  -0.116  1.00  0.00    -0.343 N 
ATOM     11  H1  UNL     1       6.017  -1.758  -0.164  1.00  0.00     0.167 HD
HETATM   12  C15 UNL     1       4.128  -0.794  -0.043  1.00  0.00     0.119 A 
HETATM   13  N2  UNL     1       3.175  -1.737  -0.014  1.00  0.00    -0.341 N 
ATOM     14  H2  UNL     1       3.451  -2.718  -0.051  1.00  0.00     0.167 HD
HETATM   15  C16 UNL     1       1.859  -1.429   0.063  1.00  0.00     0.046 A 
HETATM   16  C17 UNL     1       0.917  -2.446   0.090  1.00  0.00     0.069 A 
HETATM   17  C18 UNL     1      -0.423  -2.110   0.168  1.00  0.00     0.101 A 
ENDROOT
BRANCH   1  18
HETATM   18  O1  UNL     1      -2.209  -0.553   0.297  1.00  0.00    -0.344 OA
BRANCH  18  19
HETATM   19  C6  UNL     1      -2.746   0.754   0.355  1.00  0.00     0.214 C 
BRANCH  19  20
HETATM   20  C3  UNL     1      -4.239   0.712   0.433  1.00  0.00    -0.039 C 
HETATM   21  C4  UNL     1      -4.862   1.240   1.467  1.00  0.00    -0.022 C 
HETATM   22  C5  UNL     1      -6.327   1.201   1.548  1.00  0.00     0.036 C 
BRANCH  20  23
HETATM   23  C2  UNL     1      -5.032   0.094  -0.621  1.00  0.00    -0.001 C 
HETATM   24  C1  UNL     1      -4.502  -0.457  -1.689  1.00  0.00     0.012 C 
ENDBRANCH  20  23
ENDBRANCH  19  20
ENDBRANCH  18  19
ENDBRANCH   1  18
BRANCH  17  25
HETATM   25  O2  UNL     1      -1.389  -3.130   0.197  1.00  0.00    -0.358 OA
ATOM     26  H2  UNL     1      -1.092  -4.032   0.161  1.00  0.00     0.217 HD
ENDBRANCH  17  25
TORSDOF 5
