REMARK  13 active torsions:
REMARK  status: ('A' for Active; 'I' for Inactive)
REMARK    1  A    between atoms: N1_1  and  C1_4 
REMARK    2  A    between atoms: C2_7  and  C3_8 
REMARK    3  A    between atoms: N7_21  and  C6_22 
REMARK    4  A    between atoms: C6_22  and  C7_23 
REMARK       I    between atoms: C7_23  and  N8_25 
REMARK    5  A    between atoms: N8_25  and  C8_27 
REMARK    6  A    between atoms: C9_30  and  C10_31 
REMARK    7  A    between atoms: N11_36  and  C11_37 
REMARK    8  A    between atoms: C11_37  and  C12_38 
REMARK    9  A    between atoms: C11_37  and  C13_41 
REMARK   10  A    between atoms: C12_38  and  O5_39 
REMARK   11  A    between atoms: C13_41  and  O6_42 
REMARK   12  A    between atoms: C14_44  and  S1_45 
REMARK   13  A    between atoms: S1_45  and  N12_46 
ROOT
HETATM    1  C1  UNL     1       5.484  -2.341   0.851  1.00  0.00     0.677 A 
HETATM    2  N2  UNL     1       5.815  -1.359  -0.005  1.00  0.00    -0.186 N 
ATOM      3  H2  UNL     1       6.735  -1.367  -0.444  1.00  0.00     0.184 HD
HETATM    4  C2  UNL     1       4.947  -0.358  -0.295  1.00  0.00     0.125 A 
HETATM    5  C5  UNL     1       3.726  -0.410   0.330  1.00  0.00     0.109 A 
HETATM    6  N6  UNL     1       2.666   0.384   0.279  1.00  0.00    -0.292 N 
ATOM      7  H6  UNL     1       2.605   1.228  -0.290  1.00  0.00     0.187 HD
HETATM    8  N7  UNL     1       1.697  -0.060   1.062  1.00  0.00    -0.269 N 
HETATM    9  C14 UNL     1       2.091  -1.200   1.679  1.00  0.00     0.196 A 
HETATM   10  C15 UNL     1       3.379  -1.427   1.218  1.00  0.00     0.121 A 
HETATM   11  N13 UNL     1       4.288  -2.389   1.462  1.00  0.00    -0.187 N 
ATOM     12  H13 UNL     1       4.071  -3.149   2.106  1.00  0.00     0.184 HD
ENDROOT
BRANCH   8  13
HETATM   13  C6  UNL     1       0.425   0.566   1.232  1.00  0.00     0.253 C 
BRANCH  13  14
HETATM   14  C7  UNL     1      -0.588   0.078   0.258  1.00  0.00     0.255 C 
HETATM   15  O2  UNL     1      -0.305  -0.793  -0.603  1.00  0.00    -0.271 OA
HETATM   16  N8  UNL     1      -1.912   0.589   0.276  1.00  0.00    -0.157 N 
ATOM     17  H8  UNL     1      -2.166   1.297   0.965  1.00  0.00     0.187 HD
BRANCH  16  18
HETATM   18  C8  UNL     1      -2.889   0.133  -0.647  1.00  0.00     0.704 A 
HETATM   19  N9  UNL     1      -2.675  -0.792  -1.597  1.00  0.00    -0.167 N 
HETATM   20  C9  UNL     1      -3.833  -0.978  -2.293  1.00  0.00     0.213 A 
ATOM     21  H9  UNL     1      -1.793  -1.275  -1.769  1.00  0.00     0.186 HD
HETATM   22  N10 UNL     1      -4.712  -0.133  -1.711  1.00  0.00    -0.262 N 
HETATM   23  N11 UNL     1      -4.165   0.537  -0.728  1.00  0.00    -0.113 N 
ATOM     24  H10 UNL     1      -5.684  -0.030  -2.002  1.00  0.00     0.189 HD
BRANCH  20  25
HETATM   25  C10 UNL     1      -4.065  -1.879  -3.404  1.00  0.00     0.247 C 
HETATM   26  O3  UNL     1      -5.186  -1.940  -3.943  1.00  0.00    -0.642 OA
HETATM   27  O4  UNL     1      -3.043  -2.676  -3.872  1.00  0.00    -0.642 OA
ENDBRANCH  20  25
BRANCH  23  28
HETATM   28  C11 UNL     1      -4.835   1.537   0.116  1.00  0.00     0.173 C 
BRANCH  28  29
HETATM   29  C12 UNL     1      -5.082   2.794  -0.712  1.00  0.00     0.194 C 
BRANCH  29  30
HETATM   30  O5  UNL     1      -5.717   3.722   0.111  1.00  0.00    -0.399 OA
ATOM     31  H5  UNL     1      -5.871   4.505  -0.405  1.00  0.00     0.209 HD
ENDBRANCH  29  30
ENDBRANCH  28  29
BRANCH  28  32
HETATM   32  C13 UNL     1      -6.155   0.955   0.563  1.00  0.00     0.194 C 
BRANCH  32  33
HETATM   33  O6  UNL     1      -6.829   1.856   1.361  1.00  0.00    -0.399 OA
ATOM     34  H6  UNL     1      -7.659   1.490   1.642  1.00  0.00     0.209 HD
ENDBRANCH  32  33
ENDBRANCH  28  32
ENDBRANCH  23  28
ENDBRANCH  16  18
ENDBRANCH  13  14
ENDBRANCH   8  13
BRANCH   9  35
HETATM   35  S1  UNL     1       1.233  -2.203   2.804  1.00  0.00     0.276 S 
HETATM   36  O7  UNL     1      -0.251  -2.168   2.586  1.00  0.00    -0.199 OA
HETATM   37  O8  UNL     1       1.664  -3.641   2.704  1.00  0.00    -0.199 OA
BRANCH  35  38
HETATM   38  N12 UNL     1       1.506  -1.706   4.448  1.00  0.00    -0.323 N 
ATOM     39 2H12 UNL     1       2.101  -0.918   4.703  1.00  0.00     0.169 HD
ATOM     40 1H12 UNL     1       1.001  -2.296   5.110  1.00  0.00     0.169 HD
ENDBRANCH  35  38
ENDBRANCH   9  35
BRANCH   4  41
HETATM   41  C3  UNL     1       5.351   0.683  -1.229  1.00  0.00     0.159 A 
HETATM   42  N3  UNL     1       6.536   0.778  -1.868  1.00  0.00    -0.304 N 
HETATM   43  C4  UNL     1       6.548   1.871  -2.648  1.00  0.00     0.242 A 
ATOM     44  H3  UNL     1       7.308   0.118  -1.773  1.00  0.00     0.171 HD
HETATM   45  N4  UNL     1       7.480   2.319  -3.415  1.00  0.00    -0.364 N 
HETATM   46  O1  UNL     1       5.389   2.452  -2.501  1.00  0.00    -0.199 OA
ATOM     47  H42 UNL     1       8.386   1.865  -3.530  1.00  0.00     0.159 HD
ATOM     48  H41 UNL     1       7.489   3.149  -4.007  1.00  0.00     0.159 HD
HETATM   49  N5  UNL     1       4.656   1.752  -1.651  1.00  0.00    -0.239 N 
ATOM     50  H5  UNL     1       3.707   1.988  -1.360  1.00  0.00     0.196 HD
ENDBRANCH   4  41
BRANCH   1  51
HETATM   51  N1  UNL     1       6.326  -3.279   1.109  1.00  0.00    -0.234 N 
ATOM     52  H12 UNL     1       7.234  -3.243   0.645  1.00  0.00     0.174 HD
ATOM     53  H11 UNL     1       6.075  -4.024   1.759  1.00  0.00     0.174 HD
ENDBRANCH   1  51
TORSDOF 13
