REMARK  17 active torsions:
REMARK  status: ('A' for Active; 'I' for Inactive)
REMARK    1  A    between atoms: N1_2  and  C2_5 
REMARK    2  A    between atoms: C3_6  and  O1_7 
REMARK    3  A    between atoms: C4_9  and  O2_10 
REMARK    4  A    between atoms: O2_10  and  C5_11 
REMARK    5  A    between atoms: C6_12  and  N2_13 
REMARK    6  A    between atoms: C8_18  and  O3_19 
REMARK    7  A    between atoms: O3_19  and  C9_20 
REMARK    8  A    between atoms: C9_20  and  O4_22 
REMARK    9  A    between atoms: O4_22  and  C11_23 
REMARK   10  A    between atoms: C12_25  and  C13_26 
REMARK   11  A    between atoms: C13_26  and  O6_27 
REMARK   12  A    between atoms: C14_29  and  O7_30 
REMARK   13  A    between atoms: O7_30  and  N3_31 
REMARK   14  A    between atoms: C15_34  and  O8_35 
REMARK   15  A    between atoms: C15_34  and  O9_37 
REMARK   16  A    between atoms: C16_39  and  N4_40 
REMARK   17  A    between atoms: C21_50  and  O12_52 
ROOT
HETATM    1  C5  UNL     1      -1.686  -0.557   0.705  1.00  0.00     0.183 C 
HETATM    2  C6  UNL     1      -1.336  -1.647  -0.276  1.00  0.00     0.219 C 
HETATM    3  C7  UNL     1      -0.490  -1.150  -1.425  1.00  0.00     0.096 C 
HETATM    4  C8  UNL     1       0.749  -0.439  -1.001  1.00  0.00     0.265 C 
HETATM    5  O10 UNL     1       0.563   0.164   0.209  1.00  0.00    -0.354 OA
HETATM    6  C17 UNL     1      -0.701   0.595   0.478  1.00  0.00     0.151 C 
HETATM    7  C18 UNL     1      -1.165   1.563  -0.556  1.00  0.00     0.042 C 
ENDROOT
BRANCH   4   8
HETATM    8  O3  UNL     1       1.765  -1.395  -0.913  1.00  0.00    -0.332 OA
BRANCH   8   9
HETATM    9  C9  UNL     1       2.794  -1.114  -1.782  1.00  0.00     0.262 C 
HETATM   10  C10 UNL     1       3.001  -2.216  -2.803  1.00  0.00     0.071 C 
BRANCH   9  11
HETATM   11  O4  UNL     1       3.979  -0.914  -1.077  1.00  0.00    -0.330 OA
BRANCH  11  12
HETATM   12  C11 UNL     1       4.540   0.334  -1.263  1.00  0.00     0.299 C 
HETATM   13  O5  UNL     1       5.790   0.295  -1.841  1.00  0.00    -0.349 OA
HETATM   14  C12 UNL     1       6.796  -0.138  -1.024  1.00  0.00     0.185 C 
HETATM   15  C14 UNL     1       6.879   0.607   0.295  1.00  0.00     0.246 C 
HETATM   16  C15 UNL     1       5.571   0.698   1.005  1.00  0.00     0.225 C 
HETATM   17  C16 UNL     1       4.511   1.103   0.036  1.00  0.00     0.302 C 
BRANCH  14  18
HETATM   18  C13 UNL     1       6.817  -1.637  -0.805  1.00  0.00     0.199 C 
BRANCH  18  19
HETATM   19  O6  UNL     1       6.976  -2.289  -2.008  1.00  0.00    -0.398 OA
ATOM     20  H6  UNL     1       6.989  -3.229  -1.871  1.00  0.00     0.209 HD
ENDBRANCH  18  19
ENDBRANCH  14  18
BRANCH  15  21
HETATM   21  O7  UNL     1       7.795  -0.084   1.101  1.00  0.00    -0.274 OA
BRANCH  21  22
HETATM   22  N3  UNL     1       8.881   0.707   1.335  1.00  0.00    -0.310 N 
ATOM     23  H32 UNL     1       8.995   1.654   0.972  1.00  0.00     0.184 HD
ATOM     24  H31 UNL     1       9.547   0.204   1.921  1.00  0.00     0.184 HD
ENDBRANCH  21  22
ENDBRANCH  15  21
BRANCH  16  25
HETATM   25  O8  UNL     1       5.683   1.740   1.954  1.00  0.00    -0.362 OA
ATOM     26  H8  UNL     1       4.850   1.798   2.406  1.00  0.00     0.213 HD
ENDBRANCH  16  25
BRANCH  16  27
HETATM   27  O9  UNL     1       5.256  -0.458   1.710  1.00  0.00    -0.362 OA
ATOM     28  H9  UNL     1       4.423  -0.400   2.162  1.00  0.00     0.213 HD
ENDBRANCH  16  27
BRANCH  17  29
HETATM   29  N4  UNL     1       4.489   2.531  -0.208  1.00  0.00    -0.065 N 
ATOM     30  H43 UNL     1       5.265   2.824  -0.802  1.00  0.00     0.275 HD
ATOM     31  H42 UNL     1       3.718   2.797  -0.820  1.00  0.00     0.275 HD
ATOM     32  H41 UNL     1       4.469   3.051   0.670  1.00  0.00     0.275 HD
ENDBRANCH  17  29
ENDBRANCH  11  12
ENDBRANCH   9  11
ENDBRANCH   8   9
ENDBRANCH   4   8
BRANCH   2  33
HETATM   33  N2  UNL     1      -2.516  -2.245  -0.875  1.00  0.00    -0.072 N 
ATOM     34  H23 UNL     1      -3.161  -2.584  -0.161  1.00  0.00     0.274 HD
ATOM     35  H22 UNL     1      -3.110  -1.537  -1.306  1.00  0.00     0.274 HD
ATOM     36  H21 UNL     1      -2.279  -2.982  -1.539  1.00  0.00     0.274 HD
ENDBRANCH   2  33
BRANCH   1  37
HETATM   37  O2  UNL     1      -2.937  -0.106   0.461  1.00  0.00    -0.349 OA
BRANCH  37  38
HETATM   38  C4  UNL     1      -3.841  -0.110   1.468  1.00  0.00     0.291 C 
HETATM   39  C3  UNL     1      -5.075  -0.888   1.313  1.00  0.00     0.207 C 
HETATM   40  C2  UNL     1      -5.995  -0.179   0.339  1.00  0.00     0.255 C 
HETATM   41  C21 UNL     1      -6.230   1.251   0.692  1.00  0.00     0.111 C 
HETATM   42  C19 UNL     1      -4.850   1.890   0.856  1.00  0.00     0.157 C 
HETATM   43  C22 UNL     1      -6.957   1.903  -0.474  1.00  0.00     0.051 C 
HETATM   44  O11 UNL     1      -4.149   1.199   1.818  1.00  0.00    -0.351 OA
HETATM   45  C20 UNL     1      -4.945   3.357   1.125  1.00  0.00     0.042 C 
BRANCH  39  46
HETATM   46  O1  UNL     1      -5.745  -0.986   2.550  1.00  0.00    -0.388 OA
ATOM     47  H1  UNL     1      -5.168  -1.430   3.160  1.00  0.00     0.210 HD
ENDBRANCH  39  46
BRANCH  40  48
HETATM   48  N1  UNL     1      -7.217  -0.911   0.090  1.00  0.00    -0.069 N 
HETATM   49  C1  UNL     1      -6.950  -2.196  -0.526  1.00  0.00     0.267 C 
ATOM     50  H12 UNL     1      -7.875  -0.362  -0.463  1.00  0.00     0.277 HD
ATOM     51  H11 UNL     1      -7.771  -1.013   0.940  1.00  0.00     0.277 HD
ENDBRANCH  40  48
BRANCH  41  52
HETATM   52  O12 UNL     1      -7.007   1.428   1.819  1.00  0.00    -0.385 OA
ATOM     53  H12 UNL     1      -7.157   2.339   2.044  1.00  0.00     0.210 HD
ENDBRANCH  41  52
ENDBRANCH  37  38
ENDBRANCH   1  37
TORSDOF 17
