REMARK  17 active torsions:
REMARK  status: ('A' for Active; 'I' for Inactive)
REMARK    1  A    between atoms: C2_2  and  O1_3 
REMARK    2  A    between atoms: O1_3  and  C3_4 
REMARK       I    between atoms: C3_4  and  N1_6 
REMARK    3  A    between atoms: N1_6  and  C4_8 
REMARK    4  A    between atoms: C4_8  and  C5_9 
REMARK    5  A    between atoms: C4_8  and  C18_49 
REMARK    6  A    between atoms: C5_9  and  O3_10 
REMARK    7  A    between atoms: C5_9  and  N2_12 
REMARK    8  A    between atoms: C6_17  and  C7_18 
REMARK    9  A    between atoms: C7_18  and  C8_20 
REMARK   10  A    between atoms: C8_20  and  O5_21 
REMARK   11  A    between atoms: C8_20  and  C9_23 
REMARK   12  A    between atoms: C9_23  and  N5_24 
REMARK   13  A    between atoms: C12_29  and  N7_30 
REMARK   14  A    between atoms: C13_35  and  N9_36 
REMARK   15  A    between atoms: C15_42  and  N11_43 
REMARK       I    between atoms: N11_43  and  C16_45 
REMARK   16  A    between atoms: C18_49  and  O7_50 
REMARK   17  A    between atoms: C18_49  and  O8_52 
ROOT
HETATM    1  N11 UNL     1       1.370  -0.988   1.169  1.00  0.00    -0.297 N 
ATOM      2  H11 UNL     1       2.308  -1.378   1.080  1.00  0.00     0.171 HD
HETATM    3  C16 UNL     1       0.805  -1.022   2.445  1.00  0.00     0.328 C 
HETATM    4  O6  UNL     1      -0.245  -0.430   2.761  1.00  0.00    -0.256 OA
HETATM    5  C17 UNL     1       1.434  -1.775   3.506  1.00  0.00     0.162 C 
HETATM    6  N12 UNL     1       1.949  -2.388   4.344  1.00  0.00    -0.186 NA
ENDROOT
BRANCH   1   7
HETATM    7  C15 UNL     1       0.792  -0.476  -0.013  1.00  0.00     0.166 A 
HETATM    8  N2  UNL     1       1.488   0.224  -0.959  1.00  0.00    -0.202 N 
HETATM    9  N3  UNL     1       0.636   0.400  -2.005  1.00  0.00    -0.232 N 
HETATM   10  N4  UNL     1      -0.495  -0.144  -1.731  1.00  0.00    -0.279 N 
ATOM     11  H3  UNL     1       0.860   0.888  -2.872  1.00  0.00     0.209 HD
HETATM   12  C6  UNL     1      -0.482  -0.735  -0.472  1.00  0.00     0.144 A 
ATOM     13  H4  UNL     1      -1.300  -0.143  -2.357  1.00  0.00     0.189 HD
BRANCH   8  14
HETATM   14  C5  UNL     1       2.788   0.714  -1.036  1.00  0.00     0.169 C 
BRANCH  14  15
HETATM   15  C4  UNL     1       3.774   0.782   0.032  1.00  0.00     0.218 C 
BRANCH  15  16
HETATM   16  N1  UNL     1       5.127   0.976  -0.560  1.00  0.00    -0.320 N 
HETATM   17  C3  UNL     1       6.152   0.110  -0.189  1.00  0.00     0.361 C 
HETATM   18  O2  UNL     1       5.912  -0.817   0.642  1.00  0.00    -0.238 OA
ATOM     19  H1  UNL     1       5.299   1.730  -1.225  1.00  0.00     0.165 HD
BRANCH  17  20
HETATM   20  O1  UNL     1       7.450   0.175  -0.664  1.00  0.00    -0.304 OA
BRANCH  20  21
HETATM   21  C2  UNL     1       8.455  -0.749  -0.230  1.00  0.00     0.176 C 
HETATM   22  C1  UNL     1       8.615  -0.580   1.264  1.00  0.00     0.034 C 
ENDBRANCH  20  21
ENDBRANCH  17  20
ENDBRANCH  15  16
BRANCH  15  23
HETATM   23  C18 UNL     1       3.626   2.073   0.852  1.00  0.00     0.284 C 
BRANCH  23  24
HETATM   24  O7  UNL     1       2.455   2.202   1.519  1.00  0.00    -0.369 OA
ATOM     25  H7  UNL     1       2.363   3.000   2.026  1.00  0.00     0.212 HD
ENDBRANCH  23  24
BRANCH  23  26
HETATM   26  O8  UNL     1       4.717   2.126   1.716  1.00  0.00    -0.369 OA
ATOM     27  H8  UNL     1       4.625   2.924   2.223  1.00  0.00     0.212 HD
ENDBRANCH  23  26
ENDBRANCH  15  23
ENDBRANCH  14  15
BRANCH  14  28
HETATM   28  O3  UNL     1       3.151   1.170  -2.218  1.00  0.00    -0.346 OA
ATOM     29  H3  UNL     1       2.507   1.126  -2.915  1.00  0.00     0.219 HD
ENDBRANCH  14  28
ENDBRANCH   8  14
BRANCH  12  30
HETATM   30  C7  UNL     1      -1.572  -1.579  -0.016  1.00  0.00     0.211 C 
HETATM   31  O4  UNL     1      -1.458  -2.395   0.926  1.00  0.00    -0.288 OA
BRANCH  30  32
HETATM   32  C8  UNL     1      -2.899  -1.472  -0.701  1.00  0.00     0.212 C 
BRANCH  32  33
HETATM   33  O5  UNL     1      -2.838  -0.462  -1.634  1.00  0.00    -0.386 OA
ATOM     34  H5  UNL     1      -3.680  -0.394  -2.069  1.00  0.00     0.210 HD
ENDBRANCH  32  33
BRANCH  32  35
HETATM   35  C9  UNL     1      -4.018  -1.323   0.303  1.00  0.00     0.171 C 
BRANCH  35  36
HETATM   36  N5  UNL     1      -5.309  -1.218  -0.345  1.00  0.00    -0.324 N 
HETATM   37  C10 UNL     1      -6.166  -2.234  -0.654  1.00  0.00     0.185 A 
HETATM   38  N6  UNL     1      -7.271  -1.746  -1.242  1.00  0.00    -0.346 N 
HETATM   39  C11 UNL     1      -7.139  -0.419  -1.317  1.00  0.00     0.123 A 
ATOM     40  H6  UNL     1      -8.068  -2.291  -1.572  1.00  0.00     0.167 HD
HETATM   41  C12 UNL     1      -7.958   0.571  -1.821  1.00  0.00     0.145 A 
HETATM   42  C14 UNL     1      -5.922  -0.083  -0.762  1.00  0.00     0.155 A 
HETATM   43  N8  UNL     1      -7.523   1.840  -1.747  1.00  0.00    -0.175 N 
HETATM   44  C13 UNL     1      -6.330   2.149  -1.201  1.00  0.00     0.679 A 
ATOM     45  H8  UNL     1      -8.111   2.589  -2.113  1.00  0.00     0.186 HD
HETATM   46  N10 UNL     1      -5.521   1.205  -0.705  1.00  0.00    -0.174 N 
ATOM     47  H10 UNL     1      -4.621   1.453  -0.293  1.00  0.00     0.186 HD
BRANCH  41  48
HETATM   48  N7  UNL     1      -9.108   0.282  -2.345  1.00  0.00    -0.383 N 
ATOM     49  H72 UNL     1      -9.438  -0.681  -2.401  1.00  0.00     0.157 HD
ATOM     50  H71 UNL     1      -9.713   1.014  -2.717  1.00  0.00     0.157 HD
ENDBRANCH  41  48
BRANCH  44  51
HETATM   51  N9  UNL     1      -5.977   3.385  -1.162  1.00  0.00    -0.234 N 
ATOM     52  H92 UNL     1      -6.593   4.104  -1.540  1.00  0.00     0.174 HD
ATOM     53  H91 UNL     1      -5.074   3.619  -0.749  1.00  0.00     0.174 HD
ENDBRANCH  44  51
ENDBRANCH  35  36
ENDBRANCH  32  35
ENDBRANCH  30  32
ENDBRANCH  12  30
ENDBRANCH   1   7
TORSDOF 17
