REMARK  15 active torsions:
REMARK  status: ('A' for Active; 'I' for Inactive)
REMARK    1  A    between atoms: C3_6  and  N2_7 
REMARK    2  A    between atoms: N3_10  and  C6_11 
REMARK    3  A    between atoms: C6_11  and  C7_12 
REMARK    4  A    between atoms: C7_12  and  N4_13 
REMARK    5  A    between atoms: C10_16  and  C11_17 
REMARK    6  A    between atoms: C11_17  and  O1_18 
REMARK    7  A    between atoms: C11_17  and  C12_20 
REMARK    8  A    between atoms: C12_20  and  O2_21 
REMARK    9  A    between atoms: C12_20  and  C13_23 
REMARK   10  A    between atoms: C13_23  and  N5_24 
REMARK   11  A    between atoms: C16_28  and  C17_29 
REMARK   12  A    between atoms: C17_29  and  O4_30 
REMARK   13  A    between atoms: C17_29  and  O5_32 
REMARK   14  A    between atoms: N6_34  and  N7_35 
REMARK   15  A    between atoms: C19_40  and  O7_41 
ROOT
HETATM    1  N4  UNL     1       0.722   0.985   0.824  1.00  0.00    -0.336 N 
HETATM    2  C8  UNL     1       0.021   0.000   1.357  1.00  0.00     0.094 A 
HETATM    3  C9  UNL     1      -1.339   0.258   1.299  1.00  0.00     0.031 A 
HETATM    4  C10 UNL     1      -1.464   1.483   0.690  1.00  0.00     0.025 A 
HETATM    5  C19 UNL     1      -0.156   1.908   0.406  1.00  0.00     0.151 A 
ENDROOT
BRANCH   4   6
HETATM    6  C11 UNL     1      -2.680   2.285   0.362  1.00  0.00     0.185 C 
BRANCH   6   7
HETATM    7  O1  UNL     1      -2.632   3.452   1.153  1.00  0.00    -0.388 OA
ATOM      8  H1  UNL     1      -3.406   3.962   0.944  1.00  0.00     0.210 HD
ENDBRANCH   6   7
BRANCH   6   9
HETATM    9  C12 UNL     1      -3.952   1.536   0.574  1.00  0.00     0.170 C 
BRANCH   9  10
HETATM   10  O2  UNL     1      -4.123   1.103   1.888  1.00  0.00    -0.391 OA
ATOM     11  H2  UNL     1      -4.933   0.626   2.023  1.00  0.00     0.210 HD
ENDBRANCH   9  10
BRANCH   9  12
HETATM   12  C13 UNL     1      -4.141   0.434  -0.442  1.00  0.00     0.171 C 
BRANCH  12  13
HETATM   13  N5  UNL     1      -5.411  -0.259  -0.210  1.00  0.00    -0.262 N 
HETATM   14  C14 UNL     1      -5.541  -1.335   0.578  1.00  0.00     0.253 A 
HETATM   15  O3  UNL     1      -4.548  -1.805   1.159  1.00  0.00    -0.268 OA
HETATM   16  C15 UNL     1      -6.789  -1.946   0.758  1.00  0.00     0.107 A 
HETATM   17  C16 UNL     1      -7.889  -1.428   0.115  1.00  0.00     0.098 A 
HETATM   18  N6  UNL     1      -7.744  -0.348  -0.672  1.00  0.00    -0.211 N 
HETATM   19  C18 UNL     1      -6.529   0.216  -0.824  1.00  0.00     0.350 A 
HETATM   20  O6  UNL     1      -6.431   1.219  -1.564  1.00  0.00    -0.244 OA
BRANCH  17  21
HETATM   21  C17 UNL     1      -9.211  -2.067   0.300  1.00  0.00     0.307 C 
BRANCH  21  22
HETATM   22  O4  UNL     1      -9.803  -2.166  -0.956  1.00  0.00    -0.366 OA
ATOM     23  H4  UNL     1     -10.652  -2.576  -0.837  1.00  0.00     0.213 HD
ENDBRANCH  21  22
BRANCH  21  24
HETATM   24  O5  UNL     1      -9.054  -3.365   0.778  1.00  0.00    -0.366 OA
ATOM     25  H5  UNL     1      -9.903  -3.775   0.897  1.00  0.00     0.213 HD
ENDBRANCH  21  24
ENDBRANCH  17  21
BRANCH  18  26
HETATM   26  N7  UNL     1      -8.870   0.157  -1.312  1.00  0.00    -0.334 N 
ATOM     27  H72 UNL     1      -9.789  -0.270  -1.197  1.00  0.00     0.177 HD
ATOM     28  H71 UNL     1      -8.760   0.977  -1.909  1.00  0.00     0.177 HD
ENDBRANCH  18  26
ENDBRANCH  12  13
ENDBRANCH   9  12
ENDBRANCH   6   9
ENDBRANCH   4   6
BRANCH   5  29
HETATM   29  O7  UNL     1       0.157   3.108  -0.214  1.00  0.00    -0.345 OA
ATOM     30  H7  UNL     1      -0.465   3.762  -0.510  1.00  0.00     0.219 HD
ENDBRANCH   5  29
BRANCH   1  31
HETATM   31  C7  UNL     1       2.176   1.095   0.694  1.00  0.00     0.152 C 
BRANCH  31  32
HETATM   32  C6  UNL     1       2.536   0.467  -0.659  1.00  0.00     0.162 C 
BRANCH  32  33
HETATM   33  N3  UNL     1       3.951   0.578  -0.787  1.00  0.00    -0.328 N 
HETATM   34  C5  UNL     1       4.541   0.066  -1.963  1.00  0.00     0.162 C 
HETATM   35  C4  UNL     1       5.600  -0.968  -1.797  1.00  0.00     0.147 C 
HETATM   36  N2  UNL     1       6.305  -0.798  -0.515  1.00  0.00    -0.348 N 
HETATM   37  C20 UNL     1       5.468  -0.604   0.619  1.00  0.00     0.265 C 
HETATM   38  N8  UNL     1       4.659   0.570   0.370  1.00  0.00    -0.320 N 
ATOM     39  H8  UNL     1       4.623   1.348   1.028  1.00  0.00     0.182 HD
BRANCH  36  40
HETATM   40  C3  UNL     1       7.731  -0.832  -0.487  1.00  0.00     0.108 A 
HETATM   41  C2  UNL     1       8.412  -0.760   0.688  1.00  0.00     0.096 A 
HETATM   42  C1  UNL     1       9.807  -0.792   0.662  1.00  0.00     0.103 A 
HETATM   43  N1  UNL     1      10.493  -0.725   1.759  1.00  0.00    -0.385 N 
HETATM   44  N10 UNL     1      10.447  -0.892  -0.507  1.00  0.00    -0.339 N 
ATOM     45  H12 UNL     1      10.005  -0.649   2.651  1.00  0.00     0.157 HD
ATOM     46  H11 UNL     1      11.513  -0.748   1.740  1.00  0.00     0.157 HD
HETATM   47  C21 UNL     1       9.742  -0.960  -1.640  1.00  0.00     0.183 A 
ATOM     48  H10 UNL     1      11.466  -0.916  -0.534  1.00  0.00     0.168 HD
HETATM   49  N9  UNL     1       8.407  -0.934  -1.672  1.00  0.00    -0.339 N 
ATOM     50  H9  UNL     1       7.904  -0.989  -2.558  1.00  0.00     0.168 HD
ENDBRANCH  36  40
ENDBRANCH  32  33
ENDBRANCH  31  32
ENDBRANCH   1  31
TORSDOF 15
