REMARK  11 active torsions:
REMARK  status: ('A' for Active; 'I' for Inactive)
REMARK    1  A    between atoms: S1_2  and  C2_4 
REMARK    2  A    between atoms: C2_4  and  C3_5 
REMARK    3  A    between atoms: C3_5  and  C4_6 
REMARK    4  A    between atoms: C4_6  and  N1_7 
REMARK    5  A    between atoms: N1_7  and  C5_9 
REMARK    6  A    between atoms: C6_12  and  N3_13 
REMARK    7  A    between atoms: C7_18  and  N5_19 
REMARK    8  A    between atoms: N5_19  and  O2_21 
REMARK    9  A    between atoms: O2_21  and  C8_22 
REMARK   10  A    between atoms: C8_22  and  C9_23 
REMARK   11  A    between atoms: C9_23  and  O3_24 
ROOT
HETATM    1  C5  UNL     1       0.490  -0.482  -0.695  1.00  0.00     0.707 A 
HETATM    2  N2  UNL     1       0.324   0.777  -1.114  1.00  0.00    -0.022 N 
ATOM      3  H2  UNL     1       1.149   1.307  -1.394  1.00  0.00     0.203 HD
HETATM    4  C6  UNL     1      -0.877   1.381  -1.185  1.00  0.00     0.705 A 
HETATM    5  N4  UNL     1      -1.964   0.684  -0.817  1.00  0.00    -0.020 N 
ATOM      6  H4  UNL     1      -2.885   1.120  -0.863  1.00  0.00     0.203 HD
HETATM    7  C7  UNL     1      -1.845  -0.602  -0.383  1.00  0.00     0.731 A 
HETATM    8  N6  UNL     1      -0.629  -1.154  -0.332  1.00  0.00    -0.020 N 
ATOM      9  H6  UNL     1      -0.540  -2.117  -0.008  1.00  0.00     0.203 HD
ENDROOT
BRANCH   1  10
HETATM   10  N1  UNL     1       1.616  -1.101  -0.610  1.00  0.00    -0.225 N 
ATOM     11  H1  UNL     1       1.678  -2.065  -0.282  1.00  0.00     0.177 HD
BRANCH  10  12
HETATM   12  C4  UNL     1       2.805  -0.341  -1.012  1.00  0.00     0.139 C 
BRANCH  12  13
HETATM   13  C3  UNL     1       4.038  -1.149  -0.997  1.00  0.00     0.033 C 
BRANCH  13  14
HETATM   14  C2  UNL     1       4.365  -1.713   0.342  1.00  0.00     0.110 C 
BRANCH  14  15
HETATM   15  S1  UNL     1       4.711  -0.565   1.601  1.00  0.00     0.010 S 
HETATM   16  C1  UNL     1       3.481   0.567   2.049  1.00  0.00     0.127 C 
HETATM   17  O1  UNL     1       6.190   0.160   1.394  1.00  0.00    -0.258 OA
ENDBRANCH  14  15
ENDBRANCH  13  14
ENDBRANCH  12  13
ENDBRANCH  10  12
ENDBRANCH   1  10
BRANCH   4  18
HETATM   18  N3  UNL     1      -0.993   2.595  -1.594  1.00  0.00    -0.234 N 
ATOM     19  H32 UNL     1      -0.167   3.124  -1.874  1.00  0.00     0.174 HD
ATOM     20  H31 UNL     1      -1.903   3.053  -1.648  1.00  0.00     0.174 HD
ENDBRANCH   4  18
BRANCH   7  21
HETATM   21  N5  UNL     1      -2.918  -1.221  -0.044  1.00  0.00    -0.095 N 
ATOM     22  H5  UNL     1      -2.849  -2.185   0.282  1.00  0.00     0.213 HD
BRANCH  21  23
HETATM   23  O2  UNL     1      -4.142  -0.634  -0.106  1.00  0.00    -0.264 OA
BRANCH  23  24
HETATM   24  C8  UNL     1      -4.740  -0.104   1.056  1.00  0.00     0.227 C 
BRANCH  24  25
HETATM   25  C9  UNL     1      -6.081   0.469   0.644  1.00  0.00     0.192 C 
BRANCH  25  26
HETATM   26  O3  UNL     1      -5.936   1.473  -0.310  1.00  0.00    -0.399 OA
ATOM     27  H3  UNL     1      -6.777   1.832  -0.568  1.00  0.00     0.209 HD
ENDBRANCH  25  26
ENDBRANCH  24  25
ENDBRANCH  23  24
ENDBRANCH  21  23
ENDBRANCH   7  21
TORSDOF 11
