REMARK  12 active torsions:
REMARK  status: ('A' for Active; 'I' for Inactive)
REMARK    1  A    between atoms: C2_2  and  N1_3 
REMARK    2  A    between atoms: C2_2  and  C3_7 
REMARK    3  A    between atoms: C3_7  and  C4_8 
REMARK    4  A    between atoms: C4_8  and  N2_9 
REMARK    5  A    between atoms: C6_14  and  N4_15 
REMARK    6  A    between atoms: N4_15  and  C7_17 
REMARK    7  A    between atoms: C7_17  and  C8_18 
REMARK    8  A    between atoms: C8_18  and  O1_19 
REMARK    9  A    between atoms: C9_23  and  N6_24 
REMARK   10  A    between atoms: N6_24  and  C10_26 
REMARK   11  A    between atoms: C10_26  and  C11_27 
REMARK   12  A    between atoms: C11_27  and  O2_28 
ROOT
HETATM    1  N2  UNL     1       1.763  -0.311  -1.094  1.00  0.00    -0.225 N 
ATOM      2  H2  UNL     1       1.969  -1.286  -1.312  1.00  0.00     0.177 HD
HETATM    3  C5  UNL     1       0.583  -0.029  -0.654  1.00  0.00     0.707 A 
HETATM    4  N3  UNL     1      -0.339  -1.029  -0.496  1.00  0.00    -0.022 N 
ATOM      5  H3  UNL     1      -0.081  -1.988  -0.729  1.00  0.00     0.203 HD
HETATM    6  C6  UNL     1      -1.573  -0.773  -0.041  1.00  0.00     0.707 A 
HETATM    7  N5  UNL     1      -1.938   0.500   0.276  1.00  0.00    -0.022 N 
ATOM      8  H5  UNL     1      -2.879   0.687   0.622  1.00  0.00     0.203 HD
HETATM    9  C9  UNL     1      -1.076   1.497   0.137  1.00  0.00     0.707 A 
HETATM   10  N7  UNL     1       0.179   1.206  -0.330  1.00  0.00    -0.022 N 
ATOM     11  H7  UNL     1       0.843   1.973  -0.437  1.00  0.00     0.203 HD
ENDROOT
BRANCH   1  12
HETATM   12  C4  UNL     1       2.809   0.660  -1.298  1.00  0.00     0.140 C 
BRANCH  12  13
HETATM   13  C3  UNL     1       3.556   0.954  -0.005  1.00  0.00     0.052 C 
BRANCH  13  14
HETATM   14  C2  UNL     1       4.178  -0.340   0.501  1.00  0.00     0.181 C 
HETATM   15  C1  UNL     1       5.132  -0.848  -0.569  1.00  0.00     0.039 C 
BRANCH  14  16
HETATM   16  N1  UNL     1       3.262  -1.338   0.824  1.00  0.00    -0.075 N 
ATOM     17  H13 UNL     1       2.768  -1.687   0.003  1.00  0.00     0.274 HD
ATOM     18  H12 UNL     1       3.721  -2.206   1.099  1.00  0.00     0.274 HD
ATOM     19  H11 UNL     1       2.622  -0.997   1.542  1.00  0.00     0.274 HD
ENDBRANCH  14  16
ENDBRANCH  13  14
ENDBRANCH  12  13
ENDBRANCH   1  12
BRANCH   6  20
HETATM   20  N4  UNL     1      -2.453  -1.707   0.113  1.00  0.00    -0.223 N 
ATOM     21  H4  UNL     1      -3.376  -1.452   0.463  1.00  0.00     0.177 HD
BRANCH  20  22
HETATM   22  C7  UNL     1      -2.193  -3.082  -0.184  1.00  0.00     0.164 C 
BRANCH  22  23
HETATM   23  C8  UNL     1      -3.427  -3.875   0.258  1.00  0.00     0.184 C 
BRANCH  23  24
HETATM   24  O1  UNL     1      -4.494  -3.366  -0.481  1.00  0.00    -0.399 OA
ATOM     25  H1  UNL     1      -5.259  -3.858  -0.207  1.00  0.00     0.209 HD
ENDBRANCH  23  24
ENDBRANCH  22  23
ENDBRANCH  20  22
ENDBRANCH   6  20
BRANCH   9  26
HETATM   26  N6  UNL     1      -1.341   2.730   0.415  1.00  0.00    -0.223 N 
ATOM     27  H6  UNL     1      -0.631   3.451   0.287  1.00  0.00     0.177 HD
BRANCH  26  28
HETATM   28  C10 UNL     1      -2.648   3.076   0.907  1.00  0.00     0.164 C 
BRANCH  28  29
HETATM   29  C11 UNL     1      -3.551   3.274  -0.302  1.00  0.00     0.184 C 
BRANCH  29  30
HETATM   30  O2  UNL     1      -2.976   4.317  -1.053  1.00  0.00    -0.399 OA
ATOM     31  H2  UNL     1      -3.540   4.441  -1.808  1.00  0.00     0.209 HD
ENDBRANCH  29  30
ENDBRANCH  28  29
ENDBRANCH  26  28
ENDBRANCH   9  26
TORSDOF 12
