REMARK  10 active torsions:
REMARK  status: ('A' for Active; 'I' for Inactive)
REMARK    1  A    between atoms: N1_1  and  N2_4 
REMARK    2  A    between atoms: C1_6  and  C2_7 
REMARK    3  A    between atoms: C1_6  and  C7_16 
REMARK    4  A    between atoms: C2_7  and  C3_8 
REMARK    5  A    between atoms: C3_8  and  C4_9 
REMARK    6  A    between atoms: C4_9  and  C5_10 
REMARK    7  A    between atoms: C5_10  and  N3_11 
REMARK    8  A    between atoms: C7_16  and  C8_17 
REMARK       I    between atoms: C8_17  and  N6_19 
REMARK    9  A    between atoms: N6_19  and  N7_21 
REMARK   10  A    between atoms: N7_21  and  C9_23 
ROOT
HETATM    1  C7  UNL     1      -1.776  -1.642  -1.401  1.00  0.00     0.158 C 
ENDROOT
BRANCH   1   2
HETATM    2  C1  UNL     1      -0.518  -2.148  -0.838  1.00  0.00     0.012 C 
HETATM    3  N2  UNL     1      -0.270  -3.405  -0.869  1.00  0.00    -0.315 N 
ATOM      4  H2  UNL     1       0.605  -3.753  -0.477  1.00  0.00     0.185 HD
BRANCH   3   5
HETATM    5  N1  UNL     1      -1.178  -4.306  -1.431  1.00  0.00    -0.345 N 
ATOM      6  H12 UNL     1      -2.048  -3.941  -1.819  1.00  0.00     0.176 HD
ATOM      7  H11 UNL     1      -0.981  -5.306  -1.456  1.00  0.00     0.176 HD
ENDBRANCH   3   5
BRANCH   2   8
HETATM    8  C2  UNL     1       0.465  -1.233  -0.236  1.00  0.00     0.054 C 
BRANCH   8   9
HETATM    9  C3  UNL     1       1.683  -1.968   0.277  1.00  0.00     0.007 C 
BRANCH   9  10
HETATM   10  C4  UNL     1       2.632  -0.978   0.892  1.00  0.00     0.020 C 
BRANCH  10  11
HETATM   11  C5  UNL     1       3.127   0.070  -0.051  1.00  0.00     0.122 C 
BRANCH  11  12
HETATM   12  N3  UNL     1       4.043   0.946   0.668  1.00  0.00    -0.367 N 
HETATM   13  C6  UNL     1       3.768   2.123   1.055  1.00  0.00     0.196 C 
HETATM   14  N4  UNL     1       2.540   2.782   0.859  1.00  0.00    -0.067 NA
HETATM   15  N5  UNL     1       4.817   2.823   1.751  1.00  0.00    -0.067 NA
ATOM     16  H3  UNL     1       4.975   0.586   0.876  1.00  0.00     0.161 HD
ENDBRANCH  11  12
ENDBRANCH  10  11
ENDBRANCH   9  10
ENDBRANCH   8   9
ENDBRANCH   2   8
ENDBRANCH   1   2
BRANCH   1  17
HETATM   17  C8  UNL     1      -2.659  -0.961  -0.439  1.00  0.00     0.241 C 
HETATM   18  O1  UNL     1      -2.353  -0.851   0.774  1.00  0.00    -0.271 OA
HETATM   19  N6  UNL     1      -3.892  -0.407  -0.864  1.00  0.00    -0.255 N 
ATOM     20  H6  UNL     1      -4.176  -0.476  -1.841  1.00  0.00     0.190 HD
BRANCH  19  21
HETATM   21  N7  UNL     1      -4.716   0.234   0.062  1.00  0.00    -0.127 N 
ATOM     22  H7  UNL     1      -5.591  -0.206   0.346  1.00  0.00     0.206 HD
BRANCH  21  23
HETATM   23  C9  UNL     1      -4.382   1.391   0.570  1.00  0.00     0.728 A 
HETATM   24  N8  UNL     1      -5.074   2.117   1.464  1.00  0.00    -0.114 N 
HETATM   25  N9  UNL     1      -4.384   3.221   1.711  1.00  0.00    -0.213 N 
ATOM     26  H8  UNL     1      -5.971   1.864   1.879  1.00  0.00     0.207 HD
HETATM   27  N10 UNL     1      -3.271   3.233   1.007  1.00  0.00    -0.213 N 
ATOM     28  H9  UNL     1      -4.674   3.957   2.355  1.00  0.00     0.210 HD
HETATM   29  N11 UNL     1      -3.270   2.098   0.299  1.00  0.00    -0.114 N 
ATOM     30  H10 UNL     1      -2.555   3.960   1.003  1.00  0.00     0.210 HD
ATOM     31  H11 UNL     1      -2.536   1.812  -0.349  1.00  0.00     0.207 HD
ENDBRANCH  21  23
ENDBRANCH  19  21
ENDBRANCH   1  17
TORSDOF 10
