REMARK  10 active torsions:
REMARK  status: ('A' for Active; 'I' for Inactive)
REMARK    1  A    between atoms: N1_1  and  N2_4 
REMARK    2  A    between atoms: N2_4  and  C1_6 
REMARK    3  A    between atoms: C3_12  and  N4_13 
REMARK    4  A    between atoms: N4_13  and  C4_15 
REMARK    5  A    between atoms: C4_15  and  C5_16 
REMARK    6  A    between atoms: C5_16  and  C6_17 
REMARK    7  A    between atoms: C6_17  and  C7_18 
REMARK    8  A    between atoms: C7_18  and  N5_19 
REMARK    9  A    between atoms: N5_19  and  C8_21 
REMARK   10  A    between atoms: N6_22  and  N7_24 
ROOT
HETATM    1  N4  UNL     1      -1.723   0.082  -0.986  1.00  0.00    -0.355 N 
ATOM      2  H4  UNL     1      -1.562  -0.898  -1.220  1.00  0.00     0.163 HD
ENDROOT
BRANCH   1   3
HETATM    3  C3  UNL     1      -2.882   0.486  -0.597  1.00  0.00     0.242 A 
HETATM    4  O2  UNL     1      -3.119   1.725  -0.293  1.00  0.00    -0.227 OA
HETATM    5  C2  UNL     1      -4.279   2.177   0.106  1.00  0.00     0.386 A 
HETATM    6  N3  UNL     1      -5.283   1.276   0.199  1.00  0.00    -0.133 N 
HETATM    7  O1  UNL     1      -4.424   3.395   0.382  1.00  0.00    -0.237 OA
HETATM    8  C1  UNL     1      -5.075  -0.022  -0.110  1.00  0.00     0.704 A 
ATOM      9  H3  UNL     1      -6.207   1.580   0.506  1.00  0.00     0.189 HD
HETATM   10  N10 UNL     1      -3.866  -0.449  -0.516  1.00  0.00    -0.153 N 
ATOM     11  H10 UNL     1      -3.695  -1.427  -0.752  1.00  0.00     0.188 HD
BRANCH   8  12
HETATM   12  N2  UNL     1      -6.029  -0.888  -0.023  1.00  0.00    -0.138 N 
ATOM     13  H2  UNL     1      -5.829  -1.858  -0.265  1.00  0.00     0.205 HD
BRANCH  12  14
HETATM   14  N1  UNL     1      -7.311  -0.560   0.384  1.00  0.00    -0.331 N 
ATOM     15  H12 UNL     1      -7.494   0.415   0.622  1.00  0.00     0.177 HD
ATOM     16  H11 UNL     1      -8.065  -1.244   0.453  1.00  0.00     0.177 HD
ENDBRANCH  12  14
ENDBRANCH   8  12
ENDBRANCH   1   3
BRANCH   1  17
HETATM   17  C4  UNL     1      -0.654   1.052  -1.083  1.00  0.00     0.123 C 
BRANCH  17  18
HETATM   18  C5  UNL     1       0.018   1.273   0.259  1.00  0.00     0.021 C 
BRANCH  18  19
HETATM   19  C6  UNL     1       0.615   0.003   0.796  1.00  0.00     0.021 C 
BRANCH  19  20
HETATM   20  C7  UNL     1       1.661  -0.579  -0.122  1.00  0.00     0.120 C 
BRANCH  20  21
HETATM   21  N5  UNL     1       2.177  -1.795   0.476  1.00  0.00    -0.385 N 
ATOM     22  H5  UNL     1       1.799  -2.088   1.377  1.00  0.00     0.160 HD
BRANCH  21  23
HETATM   23  C8  UNL     1       3.172  -2.594  -0.120  1.00  0.00     0.192 C 
HETATM   24  N6  UNL     1       4.396  -2.240  -0.060  1.00  0.00    -0.294 N 
ATOM     25  H6  UNL     1       5.104  -2.830  -0.497  1.00  0.00     0.187 HD
BRANCH  24  26
HETATM   26  N7  UNL     1       4.789  -1.085   0.578  1.00  0.00    -0.275 N 
HETATM   27  C9  UNL     1       5.828  -0.417   0.214  1.00  0.00     0.215 C 
HETATM   28  N8  UNL     1       6.597  -0.884  -0.882  1.00  0.00    -0.065 NA
HETATM   29  N9  UNL     1       6.213   0.771   0.888  1.00  0.00    -0.065 NA
ATOM     30  H7  UNL     1       4.238  -0.747   1.367  1.00  0.00     0.189 HD
ENDBRANCH  24  26
ENDBRANCH  21  23
ENDBRANCH  20  21
ENDBRANCH  19  20
ENDBRANCH  18  19
ENDBRANCH  17  18
ENDBRANCH   1  17
TORSDOF 10
