REMARK  10 active torsions:
REMARK  status: ('A' for Active; 'I' for Inactive)
REMARK    1  A    between atoms: O1_2  and  C2_3 
REMARK    2  A    between atoms: C3_6  and  N2_7 
REMARK    3  A    between atoms: N2_7  and  C4_9 
REMARK    4  A    between atoms: C4_9  and  C5_10 
REMARK    5  A    between atoms: C5_10  and  N3_11 
REMARK    6  A    between atoms: C6_17  and  N5_18 
REMARK    7  A    between atoms: N5_18  and  C7_20 
REMARK    8  A    between atoms: C7_20  and  C8_21 
REMARK    9  A    between atoms: C8_21  and  O2_22 
REMARK   10  A    between atoms: O2_22  and  N6_23 
REMARK       I    between atoms: N6_23  and  C9_25 
ROOT
HETATM    1  C2  UNL     1      -1.464   3.025  -0.105  1.00  0.00     0.252 A 
HETATM    2  N1  UNL     1      -2.547   2.318   0.276  1.00  0.00    -0.154 N 
ATOM      3  H1  UNL     1      -3.455   2.776   0.358  1.00  0.00     0.188 HD
HETATM    4  C3  UNL     1      -2.425   0.990   0.551  1.00  0.00     0.695 A 
HETATM    5  N4  UNL     1      -1.241   0.359   0.451  1.00  0.00    -0.022 N 
ATOM      6  H4  UNL     1      -1.167  -0.637   0.661  1.00  0.00     0.203 HD
HETATM    7  C6  UNL     1      -0.158   1.056   0.072  1.00  0.00     0.695 A 
HETATM    8  N9  UNL     1      -0.285   2.382  -0.201  1.00  0.00    -0.154 N 
ATOM      9  H9  UNL     1       0.541   2.907  -0.488  1.00  0.00     0.188 HD
ENDROOT
BRANCH   7  10
HETATM   10  N5  UNL     1       1.013   0.546  -0.053  1.00  0.00    -0.223 N 
ATOM     11  H5  UNL     1       1.763   1.171  -0.348  1.00  0.00     0.177 HD
BRANCH  10  12
HETATM   12  C7  UNL     1       1.358  -0.817   0.184  1.00  0.00     0.166 C 
BRANCH  12  13
HETATM   13  C8  UNL     1       2.871  -0.959   0.040  1.00  0.00     0.221 C 
BRANCH  13  14
HETATM   14  O2  UNL     1       3.262  -2.284   0.264  1.00  0.00    -0.276 OA
BRANCH  14  15
HETATM   15  N6  UNL     1       4.607  -2.322   0.118  1.00  0.00    -0.239 N 
HETATM   16  C9  UNL     1       5.262  -1.507  -0.831  1.00  0.00     0.205 C 
HETATM   17  N7  UNL     1       5.195  -1.818  -2.083  1.00  0.00    -0.372 N 
HETATM   18  N8  UNL     1       5.980  -0.370  -0.428  1.00  0.00    -0.062 NA
ATOM     19  H72 UNL     1       4.673  -2.644  -2.376  1.00  0.00     0.158 HD
ATOM     20  H71 UNL     1       5.668  -1.229  -2.769  1.00  0.00     0.158 HD
ATOM     21  H6  UNL     1       5.157  -2.950   0.704  1.00  0.00     0.197 HD
ENDBRANCH  14  15
ENDBRANCH  13  14
ENDBRANCH  12  13
ENDBRANCH  10  12
ENDBRANCH   7  10
BRANCH   4  22
HETATM   22  N2  UNL     1      -3.492   0.387   0.906  1.00  0.00    -0.224 N 
ATOM     23  H2  UNL     1      -4.345   0.945   0.955  1.00  0.00     0.177 HD
BRANCH  22  24
HETATM   24  C4  UNL     1      -3.603  -1.009   1.244  1.00  0.00     0.165 C 
BRANCH  24  25
HETATM   25  C5  UNL     1      -3.739  -1.884  -0.011  1.00  0.00     0.249 C 
BRANCH  25  26
HETATM   26  N3  UNL     1      -3.843  -3.257   0.449  1.00  0.00    -0.078 N 
ATOM     27  H33 UNL     1      -3.072  -3.538   1.055  1.00  0.00     0.274 HD
ATOM     28  H32 UNL     1      -4.595  -3.400   1.124  1.00  0.00     0.274 HD
ATOM     29  H31 UNL     1      -3.933  -3.838  -0.384  1.00  0.00     0.274 HD
ENDBRANCH  25  26
ENDBRANCH  24  25
ENDBRANCH  22  24
ENDBRANCH   4  22
BRANCH   1  30
HETATM   30  O1  UNL     1      -1.540   4.396  -0.399  1.00  0.00    -0.326 OA
HETATM   31  C1  UNL     1      -2.800   5.020  -0.282  1.00  0.00     0.213 C 
ENDBRANCH   1  30
TORSDOF 10
