REMARK  10 active torsions:
REMARK  status: ('A' for Active; 'I' for Inactive)
REMARK       I    between atoms: C2_2  and  N1_4 
REMARK    1  A    between atoms: N1_4  and  C3_6 
REMARK    2  A    between atoms: C3_6  and  C4_7 
REMARK    3  A    between atoms: C3_6  and  N4_17 
REMARK    4  A    between atoms: C4_7  and  C5_8 
REMARK    5  A    between atoms: C5_8  and  C6_10 
REMARK       I    between atoms: C6_10  and  N2_12 
REMARK    6  A    between atoms: N2_12  and  N3_14 
REMARK    7  A    between atoms: N4_17  and  N5_18 
REMARK       I    between atoms: N5_18  and  C7_20 
REMARK    8  A    between atoms: C7_20  and  C8_22 
REMARK    9  A    between atoms: C8_22  and  C9_24 
REMARK   10  A    between atoms: C9_24  and  N6_26 
ROOT
HETATM    1  C3  UNL     1      -0.898  -0.692  -1.170  1.00  0.00     0.206 C 
ENDROOT
BRANCH   1   2
HETATM    2  N1  UNL     1       0.352  -1.435  -1.081  1.00  0.00    -0.341 N 
HETATM    3  C2  UNL     1       0.366  -2.793  -0.693  1.00  0.00     0.214 C 
HETATM    4  C1  UNL     1       1.633  -3.545  -0.604  1.00  0.00     0.117 C 
HETATM    5  O1  UNL     1      -0.704  -3.377  -0.418  1.00  0.00    -0.274 OA
ATOM      6  H1  UNL     1       1.231  -0.967  -1.302  1.00  0.00     0.164 HD
ENDBRANCH   1   2
BRANCH   1   7
HETATM    7  C4  UNL     1      -0.885   0.147  -2.431  1.00  0.00     0.133 C 
BRANCH   7   8
HETATM    8  C5  UNL     1      -2.169   0.914  -2.532  1.00  0.00     0.221 C 
HETATM    9  O2  UNL     1      -3.086   0.762  -1.710  1.00  0.00    -0.287 OA
BRANCH   8  10
HETATM   10  C6  UNL     1      -2.333   1.860  -3.623  1.00  0.00     0.305 C 
HETATM   11  O3  UNL     1      -1.415   2.008  -4.452  1.00  0.00    -0.263 OA
HETATM   12  N2  UNL     1      -3.525   2.606  -3.742  1.00  0.00    -0.270 N 
ATOM     13  H2  UNL     1      -4.280   2.487  -3.067  1.00  0.00     0.189 HD
BRANCH  12  14
HETATM   14  N3  UNL     1      -3.653   3.509  -4.799  1.00  0.00    -0.342 N 
ATOM     15  H32 UNL     1      -2.888   3.616  -5.466  1.00  0.00     0.176 HD
ATOM     16  H31 UNL     1      -4.515   4.048  -4.885  1.00  0.00     0.176 HD
ENDBRANCH  12  14
ENDBRANCH   8  10
ENDBRANCH   7   8
ENDBRANCH   1   7
BRANCH   1  17
HETATM   17  N4  UNL     1      -0.884   0.258  -0.074  1.00  0.00    -0.112 NA
BRANCH  17  18
HETATM   18  N5  UNL     1      -0.642  -0.323   1.151  1.00  0.00    -0.265 N 
HETATM   19  C7  UNL     1       0.633   0.003   1.760  1.00  0.00     0.305 C 
HETATM   20  O4  UNL     1       1.430   0.785   1.154  1.00  0.00    -0.263 OA
ATOM     21  H5  UNL     1      -1.316  -0.943   1.601  1.00  0.00     0.185 HD
BRANCH  19  22
HETATM   22  C8  UNL     1       1.030  -0.537   3.048  1.00  0.00     0.247 C 
HETATM   23  O5  UNL     1       0.178  -1.328   3.588  1.00  0.00    -0.285 OA
BRANCH  22  24
HETATM   24  C9  UNL     1       2.301  -0.213   3.693  1.00  0.00     0.258 C 
HETATM   25  C10 UNL     1       2.015   0.445   5.036  1.00  0.00     0.048 C 
BRANCH  24  26
HETATM   26  N6  UNL     1       3.057   0.707   2.915  1.00  0.00    -0.068 N 
ATOM     27  H63 UNL     1       3.196   0.366   1.964  1.00  0.00     0.275 HD
ATOM     28  H62 UNL     1       2.520   1.548   2.704  1.00  0.00     0.275 HD
ATOM     29  H61 UNL     1       3.944   0.933   3.365  1.00  0.00     0.275 HD
ENDBRANCH  24  26
ENDBRANCH  22  24
ENDBRANCH  19  22
ENDBRANCH  17  18
ENDBRANCH   1  17
TORSDOF 10
