REMARK  12 active torsions:
REMARK  status: ('A' for Active; 'I' for Inactive)
REMARK    1  A    between atoms: N3_12  and  O3_13 
REMARK    2  A    between atoms: N6_27  and  C14_28 
REMARK    3  A    between atoms: C14_28  and  C15_29 
REMARK       I    between atoms: C15_29  and  N7_31 
REMARK    4  A    between atoms: N7_31  and  C16_33 
REMARK    5  A    between atoms: C16_33  and  C17_34 
REMARK    6  A    between atoms: C17_34  and  N8_35 
REMARK    7  A    between atoms: N8_35  and  C18_36 
REMARK    8  A    between atoms: N8_35  and  C20_40 
REMARK    9  A    between atoms: C18_36  and  C19_37 
REMARK   10  A    between atoms: C19_37  and  O6_38 
REMARK   11  A    between atoms: C20_40  and  C21_41 
REMARK   12  A    between atoms: C21_41  and  O7_42 
ROOT
HETATM    1  C1  UNL     1     -11.235  -0.140   1.008  1.00  0.00     0.164 C 
HETATM    2  N1  UNL     1      -9.942  -0.161   0.331  1.00  0.00    -0.269 N 
HETATM    3  C2  UNL     1      -9.985  -0.344  -1.015  1.00  0.00     0.331 C 
HETATM    4  O1  UNL     1     -11.066  -0.851  -1.418  1.00  0.00    -0.246 OA
HETATM    5  N2  UNL     1      -9.073  -0.075  -1.968  1.00  0.00    -0.274 N 
ATOM      6  H2  UNL     1      -9.341  -0.213  -2.942  1.00  0.00     0.173 HD
HETATM    7  C3  UNL     1      -7.806   0.373  -1.705  1.00  0.00     0.262 C 
HETATM    8  O2  UNL     1      -7.267   0.949  -2.653  1.00  0.00    -0.267 OA
HETATM    9  C4  UNL     1      -7.068   0.273  -0.561  1.00  0.00     0.077 A 
HETATM   10  C5  UNL     1      -5.710   0.315  -0.507  1.00  0.00     0.008 A 
HETATM   11  C6  UNL     1      -5.315   0.167   0.839  1.00  0.00     0.140 A 
HETATM   12  N3  UNL     1      -6.463   0.039   1.564  1.00  0.00    -0.201 N 
HETATM   13  C7  UNL     1      -7.518   0.099   0.747  1.00  0.00     0.149 A 
HETATM   14  C8  UNL     1      -8.851   0.005   1.121  1.00  0.00     0.281 C 
HETATM   15  O4  UNL     1      -9.044   0.087   2.350  1.00  0.00    -0.265 OA
HETATM   16  N4  UNL     1      -4.010   0.131   1.397  1.00  0.00    -0.336 N 
ATOM     17  H4  UNL     1      -3.917   0.452   2.361  1.00  0.00     0.165 HD
HETATM   18  C9  UNL     1      -2.808  -0.310   0.748  1.00  0.00     0.289 C 
HETATM   19  N5  UNL     1      -1.630  -0.244   1.582  1.00  0.00    -0.377 N 
ATOM     20  H5  UNL     1      -1.699  -0.099   2.589  1.00  0.00     0.157 HD
HETATM   21  C10 UNL     1      -0.388  -0.388   0.947  1.00  0.00     0.128 C 
HETATM   22  C11 UNL     1      -0.396  -1.002  -0.429  1.00  0.00     0.082 C 
HETATM   23  C12 UNL     1       0.143  -0.233  -1.603  1.00  0.00     0.002 C 
HETATM   24  C13 UNL     1       1.445   0.453  -1.229  1.00  0.00     0.176 C 
HETATM   25  N6  UNL     1       1.588   0.518   0.205  1.00  0.00    -0.357 N 
HETATM   26  C22 UNL     1       0.308   1.086   0.766  1.00  0.00     0.208 C 
HETATM   27  N9  UNL     1      -0.240   1.342  -0.505  1.00  0.00    -0.355 N 
ATOM     28  H9  UNL     1       0.387   1.764  -1.190  1.00  0.00     0.163 HD
HETATM   29  C23 UNL     1      -1.468   1.100  -0.913  1.00  0.00     0.097 C 
HETATM   30  C24 UNL     1      -1.814   1.332  -2.231  1.00  0.00     0.195 C 
HETATM   31  N10 UNL     1      -0.671   0.245  -2.670  1.00  0.00    -0.388 N 
ATOM     32  H10 UNL     1      -0.551  -0.066  -3.634  1.00  0.00     0.159 HD
HETATM   33  N11 UNL     1      -2.633   0.647  -0.398  1.00  0.00    -0.331 N 
HETATM   34  C25 UNL     1      -3.533   1.328  -1.187  1.00  0.00     0.133 C 
HETATM   35  C26 UNL     1      -4.767   0.499  -1.625  1.00  0.00     0.063 C 
ENDROOT
BRANCH  25  36
HETATM   36  C14 UNL     1       2.414  -0.213   0.945  1.00  0.00     0.162 C 
BRANCH  36  37
HETATM   37  C15 UNL     1       3.879   0.050   0.821  1.00  0.00     0.256 C 
HETATM   38  O5  UNL     1       4.321   0.930   0.064  1.00  0.00    -0.267 OA
HETATM   39  N7  UNL     1       4.763  -0.730   1.589  1.00  0.00    -0.355 N 
ATOM     40  H7  UNL     1       4.378  -1.444   2.208  1.00  0.00     0.162 HD
BRANCH  39  41
HETATM   41  C16 UNL     1       6.184  -0.559   1.534  1.00  0.00     0.142 C 
BRANCH  41  42
HETATM   42  C17 UNL     1       6.695  -0.846   0.151  1.00  0.00     0.141 C 
BRANCH  42  43
HETATM   43  N8  UNL     1       8.094  -0.680  -0.004  1.00  0.00    -0.388 N 
BRANCH  43  44
HETATM   44  C18 UNL     1       8.661   0.585   0.087  1.00  0.00     0.084 C 
BRANCH  44  45
HETATM   45  C19 UNL     1       8.294   1.545  -1.024  1.00  0.00     0.208 C 
BRANCH  45  46
HETATM   46  O6  UNL     1       8.936   2.771  -0.799  1.00  0.00    -0.396 OA
ATOM     47  H6  UNL     1       8.706   3.374  -1.496  1.00  0.00     0.209 HD
ENDBRANCH  45  46
ENDBRANCH  44  45
ENDBRANCH  43  44
BRANCH  43  48
HETATM   48  C20 UNL     1       8.814  -1.707   0.654  1.00  0.00     0.148 C 
BRANCH  48  49
HETATM   49  C21 UNL     1      10.315  -1.630   0.566  1.00  0.00     0.183 C 
BRANCH  49  50
HETATM   50  O7  UNL     1      10.718  -1.670  -0.747  1.00  0.00    -0.399 OA
ATOM     51  H7  UNL     1      11.665  -1.621  -0.803  1.00  0.00     0.209 HD
ENDBRANCH  49  50
ENDBRANCH  48  49
ENDBRANCH  43  48
ENDBRANCH  42  43
ENDBRANCH  41  42
ENDBRANCH  39  41
ENDBRANCH  36  37
ENDBRANCH  25  36
BRANCH  12  52
HETATM   52  O3  UNL     1      -6.504  -0.123   2.920  1.00  0.00    -0.281 OA
ATOM     53  H3  UNL     1      -7.304  -0.212   3.425  1.00  0.00     0.245 HD
ENDBRANCH  12  52
TORSDOF 12
