REMARK  14 active torsions:
REMARK  status: ('A' for Active; 'I' for Inactive)
REMARK    1  A    between atoms: C2_2  and  S1_3 
REMARK    2  A    between atoms: S1_3  and  C3_4 
REMARK    3  A    between atoms: C4_7  and  C5_8 
REMARK    4  A    between atoms: C8_13  and  C9_14 
REMARK    5  A    between atoms: C10_17  and  O3_18 
REMARK    6  A    between atoms: C10_17  and  C11_20 
REMARK    7  A    between atoms: C11_20  and  O4_21 
REMARK    8  A    between atoms: N3_24  and  N4_26 
REMARK       I    between atoms: N4_26  and  C13_28 
REMARK    9  A    between atoms: C13_28  and  C14_30 
REMARK   10  A    between atoms: C14_30  and  N5_31 
REMARK   11  A    between atoms: N5_31  and  S3_33 
REMARK   12  A    between atoms: N7_40  and  C16_42 
REMARK   13  A    between atoms: C19_47  and  N9_48 
REMARK   14  A    between atoms: N9_48  and  N10_50 
ROOT
HETATM    1  C5  UNL     1       3.619   0.378  -0.836  1.00  0.00     0.072 C 
HETATM    2  C6  UNL     1       2.391   0.006  -0.608  1.00  0.00     0.055 A 
HETATM    3  S2  UNL     1       2.021  -1.203   0.590  1.00  0.00     0.012 SA
HETATM    4  N2  UNL     1       0.561  -0.756  -0.047  1.00  0.00    -0.113 N 
HETATM    5  C7  UNL     1       1.062   0.164  -0.933  1.00  0.00     0.099 A 
HETATM    6  C8  UNL     1       0.344   0.890  -1.820  1.00  0.00     0.092 C 
HETATM    7  C10 UNL     1      -1.134   0.940  -2.049  1.00  0.00     0.174 C 
HETATM    8  C12 UNL     1      -2.005   0.701  -0.900  1.00  0.00     0.154 C 
HETATM    9  N3  UNL     1      -2.919   1.584  -0.686  1.00  0.00    -0.283 N 
ATOM     10  H3  UNL     1      -3.006   2.394  -1.300  1.00  0.00     0.188 HD
HETATM   11  N6  UNL     1      -1.955  -0.416  -0.001  1.00  0.00    -0.175 N 
ATOM     12  H6  UNL     1      -2.809  -0.673   0.493  1.00  0.00     0.185 HD
HETATM   13  C15 UNL     1      -0.777  -1.190   0.243  1.00  0.00     0.693 C 
HETATM   14  N7  UNL     1      -0.961  -2.353   0.769  1.00  0.00    -0.220 N 
ATOM     15  H7  UNL     1      -0.139  -2.926   0.962  1.00  0.00     0.178 HD
ENDROOT
BRANCH   1  16
HETATM   16  C4  UNL     1       4.723  -0.263  -0.040  1.00  0.00     0.124 A 
HETATM   17  N1  UNL     1       5.454   0.492   0.800  1.00  0.00    -0.322 N 
HETATM   18  C3  UNL     1       6.455  -0.063   1.529  1.00  0.00     0.161 A 
ATOM     19  H1  UNL     1       5.254   1.488   0.890  1.00  0.00     0.169 HD
HETATM   20  N11 UNL     1       6.645  -1.379   1.346  1.00  0.00    -0.169 N 
HETATM   21  C19 UNL     1       5.948  -2.153   0.530  1.00  0.00     0.700 A 
ATOM     22  H11 UNL     1       7.392  -1.821   1.883  1.00  0.00     0.186 HD
HETATM   23  N8  UNL     1       4.944  -1.575  -0.194  1.00  0.00    -0.175 N 
ATOM     24  H8  UNL     1       4.377  -2.129  -0.836  1.00  0.00     0.186 HD
BRANCH  18  25
HETATM   25  S1  UNL     1       7.487   0.811   2.663  1.00  0.00    -0.094 SA
BRANCH  25  26
HETATM   26  C2  UNL     1       7.082   2.566   2.774  1.00  0.00     0.078 C 
HETATM   27  C1  UNL     1       7.411   3.190   1.428  1.00  0.00     0.016 C 
ENDBRANCH  25  26
ENDBRANCH  18  25
BRANCH  21  28
HETATM   28  N9  UNL     1       6.118  -3.406   0.347  1.00  0.00    -0.138 N 
ATOM     29  H9  UNL     1       5.512  -3.895  -0.312  1.00  0.00     0.205 HD
BRANCH  28  30
HETATM   30  N10 UNL     1       7.101  -4.124   1.016  1.00  0.00    -0.331 N 
ATOM     31 2H10 UNL     1       7.698  -3.619   1.671  1.00  0.00     0.177 HD
ATOM     32 1H10 UNL     1       7.237  -5.124   0.870  1.00  0.00     0.177 HD
ENDBRANCH  28  30
ENDBRANCH  21  28
ENDBRANCH   1  16
BRANCH   6  33
HETATM   33  C9  UNL     1       1.049   1.774  -2.729  1.00  0.00     0.211 C 
HETATM   34  O1  UNL     1       0.295   2.426  -3.573  1.00  0.00    -0.644 OA
HETATM   35  O2  UNL     1       2.363   2.026  -2.837  1.00  0.00    -0.644 OA
ENDBRANCH   6  33
BRANCH   7  36
HETATM   36  O3  UNL     1      -1.496   2.188  -2.582  1.00  0.00    -0.374 OA
ATOM     37  H3  UNL     1      -2.434   2.220  -2.727  1.00  0.00     0.211 HD
ENDBRANCH   7  36
BRANCH   7  38
HETATM   38  C11 UNL     1      -1.511  -0.089  -3.112  1.00  0.00     0.215 C 
BRANCH  38  39
HETATM   39  O4  UNL     1      -2.881  -0.014  -3.351  1.00  0.00    -0.397 OA
ATOM     40  H4  UNL     1      -3.116  -0.654  -4.012  1.00  0.00     0.209 HD
ENDBRANCH  38  39
ENDBRANCH   7  38
BRANCH  14  41
HETATM   41  C16 UNL     1      -2.244  -2.889   1.099  1.00  0.00     0.099 A 
HETATM   42  C17 UNL     1      -3.256  -3.261   0.077  1.00  0.00     0.028 A 
HETATM   43  C18 UNL     1      -2.496  -4.336   0.762  1.00  0.00     0.028 A 
ENDBRANCH  14  41
BRANCH   9  44
HETATM   44  N4  UNL     1      -3.786   1.422   0.391  1.00  0.00    -0.267 N 
HETATM   45  C13 UNL     1      -5.175   1.683   0.270  1.00  0.00     0.254 C 
HETATM   46  O5  UNL     1      -5.604   2.073  -0.861  1.00  0.00    -0.270 OA
ATOM     47  H4  UNL     1      -3.414   1.108   1.288  1.00  0.00     0.190 HD
BRANCH  45  48
HETATM   48  C14 UNL     1      -6.102   1.510   1.417  1.00  0.00     0.239 C 
BRANCH  48  49
HETATM   49  N5  UNL     1      -7.469   1.848   1.022  1.00  0.00    -0.292 N 
ATOM     50  H5  UNL     1      -7.736   2.157   0.087  1.00  0.00     0.175 HD
BRANCH  49  51
HETATM   51  S3  UNL     1      -8.560   1.661   2.317  1.00  0.00     0.204 S 
HETATM   52  O6  UNL     1      -7.970   1.954   3.651  1.00  0.00    -0.578 OA
HETATM   53  O7  UNL     1      -9.737   2.596   2.096  1.00  0.00    -0.578 OA
HETATM   54  O8  UNL     1      -9.215   0.106   2.370  1.00  0.00    -0.578 OA
ENDBRANCH  49  51
ENDBRANCH  48  49
ENDBRANCH  45  48
ENDBRANCH   9  44
TORSDOF 14
