REMARK  8 active torsions:
REMARK  status: ('A' for Active; 'I' for Inactive)
REMARK    1  A    between atoms: C2_2  and  N1_3 
REMARK    2  A    between atoms: C8_18  and  O3_19 
REMARK    3  A    between atoms: C8_18  and  C9_21 
REMARK    4  A    between atoms: C9_21  and  N4_22 
REMARK    5  A    between atoms: C9_21  and  C10_26 
REMARK    6  A    between atoms: C10_26  and  N5_27 
REMARK    7  A    between atoms: C10_26  and  C11_31 
REMARK    8  A    between atoms: C11_31  and  C12_33 
ROOT
HETATM    1  C1  UNL     1      -1.343  -2.203  -0.063  1.00  0.00     0.050 C 
HETATM    2  C2  UNL     1      -1.408  -0.993   0.776  1.00  0.00     0.164 C 
HETATM    3  C3  UNL     1      -2.827  -0.423   0.595  1.00  0.00     0.101 C 
HETATM    4  C4  UNL     1      -2.630   0.735  -0.282  1.00  0.00     0.041 A 
HETATM    5  N2  UNL     1      -3.492   1.457  -0.997  1.00  0.00    -0.321 N 
ATOM      6  H2  UNL     1      -4.479   1.202  -0.970  1.00  0.00     0.169 HD
HETATM    7  C5  UNL     1      -3.122   2.506  -1.753  1.00  0.00     0.314 A 
HETATM    8  O1  UNL     1      -3.930   3.189  -2.428  1.00  0.00    -0.262 OA
HETATM    9  C6  UNL     1      -1.790   2.822  -1.769  1.00  0.00     0.314 A 
HETATM   10  O2  UNL     1      -1.381   3.788  -2.454  1.00  0.00    -0.262 OA
HETATM   11  N3  UNL     1      -0.898   2.086  -1.039  1.00  0.00    -0.318 N 
ATOM     12  H3  UNL     1       0.092   2.332  -1.060  1.00  0.00     0.169 HD
HETATM   13  C7  UNL     1      -1.302   1.052  -0.300  1.00  0.00     0.074 A 
HETATM   14  C8  UNL     1      -0.502   0.114   0.573  1.00  0.00     0.165 C 
ENDROOT
BRANCH  14  15
HETATM   15  O3  UNL     1      -0.330   0.860   1.767  1.00  0.00    -0.379 OA
ATOM     16  H3  UNL     1       0.266   1.588   1.634  1.00  0.00     0.211 HD
ENDBRANCH  14  15
BRANCH  14  17
HETATM   17  C9  UNL     1       0.831  -0.057  -0.016  1.00  0.00     0.264 C 
BRANCH  17  18
HETATM   18  N4  UNL     1       0.943  -0.781  -1.224  1.00  0.00    -0.069 N 
ATOM     19  H43 UNL     1       0.513  -1.698  -1.103  1.00  0.00     0.275 HD
ATOM     20  H42 UNL     1       0.323  -0.365  -1.919  1.00  0.00     0.275 HD
ATOM     21  H41 UNL     1       1.870  -0.900  -1.633  1.00  0.00     0.275 HD
ENDBRANCH  17  18
BRANCH  17  22
HETATM   22  C10 UNL     1       1.938  -0.434   0.983  1.00  0.00     0.295 C 
BRANCH  22  23
HETATM   23  N5  UNL     1       1.679  -1.656   1.653  1.00  0.00    -0.066 N 
ATOM     24  H53 UNL     1       0.767  -1.637   2.108  1.00  0.00     0.275 HD
ATOM     25  H52 UNL     1       1.515  -2.411   0.987  1.00  0.00     0.275 HD
ATOM     26  H51 UNL     1       2.413  -1.906   2.316  1.00  0.00     0.275 HD
ENDBRANCH  22  23
BRANCH  22  27
HETATM   27  C11 UNL     1       3.246  -0.571   0.297  1.00  0.00     0.246 C 
HETATM   28  O4  UNL     1       3.762  -1.742   0.292  1.00  0.00    -0.285 OA
BRANCH  27  29
HETATM   29  C12 UNL     1       3.967   0.508  -0.355  1.00  0.00     0.302 C 
HETATM   30  N6  UNL     1       5.191   0.235  -0.987  1.00  0.00    -0.054 NA
HETATM   31  O5  UNL     1       3.472   1.659  -0.335  1.00  0.00    -0.268 OA
ENDBRANCH  27  29
ENDBRANCH  22  27
ENDBRANCH  17  22
ENDBRANCH  14  17
BRANCH   2  32
HETATM   32  N1  UNL     1      -1.379  -1.435   2.164  1.00  0.00    -0.067 N 
ATOM     33  H13 UNL     1      -2.107  -2.114   2.383  1.00  0.00     0.275 HD
ATOM     34  H12 UNL     1      -0.578  -2.029   2.379  1.00  0.00     0.275 HD
ATOM     35  H11 UNL     1      -1.424  -0.598   2.745  1.00  0.00     0.275 HD
ENDBRANCH   2  32
TORSDOF 8
