REMARK  6 active torsions:
REMARK  status: ('A' for Active; 'I' for Inactive)
REMARK    1  A    between atoms: C2_3  and  C3_4 
REMARK    2  A    between atoms: C3_4  and  C5_12 
REMARK    3  A    between atoms: N2_5  and  N3_7 
REMARK       I    between atoms: C5_12  and  N6_14 
REMARK    4  A    between atoms: N6_14  and  C6_16 
REMARK    5  A    between atoms: C6_16  and  C7_17 
REMARK    6  A    between atoms: C8_20  and  O3_21 
ROOT
HETATM    1  C3  UNL     1      -0.185   0.053   0.270  1.00  0.00     0.146 C 
HETATM    2  N2  UNL     1      -0.834  -0.841  -0.288  1.00  0.00    -0.291 N 
ATOM      3  H2  UNL     1      -1.780  -0.475  -0.400  1.00  0.00     0.187 HD
ENDROOT
BRANCH   1   4
HETATM    4  C2  UNL     1      -0.880   1.299   0.600  1.00  0.00     0.111 A 
HETATM    5  N1  UNL     1      -1.753   1.762  -0.367  1.00  0.00    -0.299 N 
HETATM    6  C1  UNL     1      -2.202   0.973  -1.485  1.00  0.00     0.161 C 
HETATM    7  C10 UNL     1      -2.201   3.040  -0.255  1.00  0.00     0.329 A 
HETATM    8  N8  UNL     1      -1.837   3.858   0.739  1.00  0.00    -0.273 N 
HETATM    9  O5  UNL     1      -3.012   3.460  -1.158  1.00  0.00    -0.246 OA
HETATM   10  C9  UNL     1      -1.008   3.455   1.687  1.00  0.00     0.285 A 
ATOM     11  H8  UNL     1      -2.205   4.809   0.766  1.00  0.00     0.173 HD
HETATM   12  C8  UNL     1      -0.521   2.142   1.620  1.00  0.00     0.164 A 
HETATM   13  O4  UNL     1      -0.656   4.232   2.639  1.00  0.00    -0.265 OA
BRANCH  12  14
HETATM   14  O3  UNL     1       0.302   1.784   2.669  1.00  0.00    -0.354 OA
ATOM     15  H3  UNL     1       0.551   2.368   3.376  1.00  0.00     0.218 HD
ENDBRANCH  12  14
ENDBRANCH   1   4
BRANCH   1  16
HETATM   16  C5  UNL     1       1.239  -0.081   0.410  1.00  0.00     0.272 C 
HETATM   17  O1  UNL     1       1.961   0.844   0.872  1.00  0.00    -0.266 OA
HETATM   18  N6  UNL     1       1.989  -1.268   0.045  1.00  0.00    -0.347 N 
ATOM     19  H6  UNL     1       1.484  -2.071  -0.331  1.00  0.00     0.163 HD
BRANCH  18  20
HETATM   20  C6  UNL     1       3.412  -1.356   0.193  1.00  0.00     0.222 C 
BRANCH  20  21
HETATM   21  C7  UNL     1       4.201  -0.408  -0.585  1.00  0.00     0.248 C 
HETATM   22  N7  UNL     1       3.728   0.575  -1.475  1.00  0.00    -0.061 NA
HETATM   23  O2  UNL     1       5.466  -0.472  -0.447  1.00  0.00    -0.275 OA
ENDBRANCH  20  21
ENDBRANCH  18  20
ENDBRANCH   1  16
BRANCH   2  24
HETATM   24  N3  UNL     1      -0.849  -2.045  -0.798  1.00  0.00    -0.275 N 
HETATM   25  C4  UNL     1      -1.546  -3.016  -0.322  1.00  0.00     0.215 C 
HETATM   26  N4  UNL     1      -2.391  -2.926   0.813  1.00  0.00    -0.065 NA
HETATM   27  N5  UNL     1      -1.460  -4.264  -0.983  1.00  0.00    -0.065 NA
ATOM     28  H3  UNL     1      -0.274  -2.225  -1.621  1.00  0.00     0.189 HD
ENDBRANCH   2  24
TORSDOF 6
