REMARK  7 active torsions:
REMARK  status: ('A' for Active; 'I' for Inactive)
REMARK    1  A    between atoms: C6_6  and  C8_8 
REMARK    2  A    between atoms: C8_8  and  O1_9 
REMARK    3  A    between atoms: O1_9  and  C9_10 
REMARK    4  A    between atoms: C9_10  and  C10_12 
REMARK    5  A    between atoms: C10_12  and  C11_13 
REMARK    6  A    between atoms: C11_13  and  C12_14 
REMARK    7  A    between atoms: C15_19  and  O4_20 
ROOT
HETATM    1  C1  UNL     1      -2.801   1.897   0.377  1.00  0.00     0.027 C 
HETATM    2  C2  UNL     1      -2.863   0.504  -0.180  1.00  0.00     0.026 A 
HETATM    3  C3  UNL     1      -2.135   0.582  -1.528  1.00  0.00     0.021 C 
HETATM    4  C4  UNL     1      -0.700   0.884  -1.438  1.00  0.00     0.008 C 
HETATM    5  C5  UNL     1      -0.023   0.724  -0.114  1.00  0.00     0.012 C 
HETATM    6  C6  UNL     1       1.456   0.823  -0.144  1.00  0.00    -0.017 C 
HETATM    7  C7  UNL     1       1.763   2.273  -0.588  1.00  0.00     0.018 C 
HETATM    8  C13 UNL     1       1.962   0.714   1.293  1.00  0.00     0.014 C 
HETATM    9  C14 UNL     1       0.893   0.831   2.325  1.00  0.00     0.034 C 
HETATM   10  C15 UNL     1      -0.269  -0.117   2.173  1.00  0.00     0.132 C 
HETATM   11  C16 UNL     1      -0.583  -0.397   0.726  1.00  0.00     0.028 C 
HETATM   12  C17 UNL     1       0.090  -1.741   0.440  1.00  0.00     0.025 C 
HETATM   13  C18 UNL     1      -2.069  -0.515   0.534  1.00  0.00     0.028 A 
HETATM   14  N1  UNL     1      -2.559  -1.614   1.005  1.00  0.00    -0.306 N 
ATOM     15  H1  UNL     1      -1.923  -2.248   1.488  1.00  0.00     0.186 HD
HETATM   16  N2  UNL     1      -3.898  -1.995   0.899  1.00  0.00    -0.300 N 
ATOM     17  H2  UNL     1      -4.253  -2.868   1.289  1.00  0.00     0.187 HD
HETATM   18  C19 UNL     1      -4.732  -1.070   0.204  1.00  0.00     0.055 A 
HETATM   19  C20 UNL     1      -6.089  -1.371   0.028  1.00  0.00     0.034 A 
HETATM   20  C21 UNL     1      -6.944  -0.531  -0.650  1.00  0.00     0.044 A 
HETATM   21  C22 UNL     1      -6.422   0.635  -1.160  1.00  0.00     0.117 A 
HETATM   22  F1  UNL     1      -7.217   1.510  -1.841  1.00  0.00    -0.206 F 
HETATM   23  C23 UNL     1      -5.104   1.002  -1.030  1.00  0.00     0.053 A 
HETATM   24  C24 UNL     1      -4.277   0.106  -0.329  1.00  0.00    -0.013 A 
ENDROOT
BRANCH   6  25
HETATM   25  C8  UNL     1       2.272  -0.023  -0.998  1.00  0.00     0.188 C 
BRANCH  25  26
HETATM   26  O1  UNL     1       3.649   0.365  -0.772  1.00  0.00    -0.321 OA
BRANCH  26  27
HETATM   27  C9  UNL     1       4.685  -0.277  -1.397  1.00  0.00     0.259 C 
HETATM   28  O2  UNL     1       4.396  -1.228  -2.177  1.00  0.00    -0.265 OA
BRANCH  27  29
HETATM   29  C10 UNL     1       6.073   0.156  -1.138  1.00  0.00     0.119 C 
BRANCH  29  30
HETATM   30  C11 UNL     1       6.955  -0.966  -0.620  1.00  0.00     0.106 C 
BRANCH  30  31
HETATM   31  C12 UNL     1       6.421  -1.504   0.668  1.00  0.00     0.219 C 
HETATM   32  O3  UNL     1       5.395  -1.014   1.156  1.00  0.00    -0.280 OA
HETATM   33 CL1  UNL     1       7.189  -2.809   1.524  1.00  0.00    -0.044 Cl
ENDBRANCH  30  31
ENDBRANCH  29  30
ENDBRANCH  27  29
ENDBRANCH  26  27
ENDBRANCH  25  26
ENDBRANCH   6  25
BRANCH  10  34
HETATM   34  O4  UNL     1      -0.051  -1.313   2.881  1.00  0.00    -0.394 OA
ATOM     35  H4  UNL     1      -0.783  -1.910   2.785  1.00  0.00     0.210 HD
ENDBRANCH  10  34
TORSDOF 7
