REMARK  6 active torsions:
REMARK  status: ('A' for Active; 'I' for Inactive)
REMARK    1  A    between atoms: O1_2  and  C2_3 
REMARK    2  A    between atoms: C4_5  and  C5_6 
REMARK    3  A    between atoms: N2_13  and  C8_14 
REMARK    4  A    between atoms: C12_19  and  C13_20 
REMARK    5  A    between atoms: C13_20  and  N3_21 
REMARK    6  A    between atoms: C20_31  and  O3_32 
ROOT
HETATM    1  C5  UNL     1      -3.045  -2.669   0.407  1.00  0.00     0.036 C 
HETATM    2  C6  UNL     1      -1.776  -2.393   0.440  1.00  0.00     0.077 C 
HETATM    3  S1  UNL     1      -0.506  -3.618   0.924  1.00  0.00    -0.048 SA
HETATM    4  C7  UNL     1       0.705  -2.380   1.386  1.00  0.00     0.153 C 
HETATM    5  N1  UNL     1       1.652  -2.580   2.206  1.00  0.00    -0.379 N 
ATOM      6  H11 UNL     1       2.341  -1.875   2.469  1.00  0.00     0.158 HD
ATOM      7  H12 UNL     1       1.920  -3.406   2.741  1.00  0.00     0.158 HD
HETATM    8  N2  UNL     1       0.335  -1.240   0.648  1.00  0.00    -0.256 N 
HETATM    9  C17 UNL     1      -0.965  -1.235   0.145  1.00  0.00     0.271 C 
HETATM   10  O2  UNL     1      -1.435  -0.261  -0.551  1.00  0.00    -0.266 OA
ENDROOT
BRANCH   1  11
HETATM   11  C4  UNL     1      -4.151  -1.827   0.058  1.00  0.00    -0.030 A 
HETATM   12  C3  UNL     1      -4.287  -0.560   0.559  1.00  0.00     0.051 A 
HETATM   13  C2  UNL     1      -5.358   0.261   0.203  1.00  0.00     0.103 A 
HETATM   14  C20 UNL     1      -6.313  -0.207  -0.679  1.00  0.00     0.121 A 
HETATM   15  C19 UNL     1      -6.190  -1.488  -1.196  1.00  0.00     0.070 A 
HETATM   16  C18 UNL     1      -5.112  -2.280  -0.821  1.00  0.00     0.038 A 
HETATM   17 CL3  UNL     1      -7.381  -2.134  -2.326  1.00  0.00    -0.081 Cl
BRANCH  13  18
HETATM   18  O1  UNL     1      -5.472   1.533   0.722  1.00  0.00    -0.353 OA
HETATM   19  C1  UNL     1      -4.488   1.993   1.619  1.00  0.00     0.210 C 
ENDBRANCH  13  18
BRANCH  14  20
HETATM   20  O3  UNL     1      -7.383   0.564  -1.058  1.00  0.00    -0.356 OA
ATOM     21  H3  UNL     1      -8.040   0.242  -1.664  1.00  0.00     0.218 HD
ENDBRANCH  14  20
ENDBRANCH   1  11
BRANCH   8  22
HETATM   22  C8  UNL     1       1.272  -0.150   0.454  1.00  0.00     0.068 A 
HETATM   23  C9  UNL     1       0.971   1.089   0.995  1.00  0.00     0.056 A 
HETATM   24  C10 UNL     1       1.835   2.145   0.829  1.00  0.00     0.036 A 
HETATM   25 CL1  UNL     1       1.514   3.731   1.484  1.00  0.00    -0.084 Cl
HETATM   26  C11 UNL     1       3.004   1.909   0.104  1.00  0.00     0.034 A 
HETATM   27  C12 UNL     1       3.330   0.694  -0.443  1.00  0.00    -0.004 A 
HETATM   28  C16 UNL     1       2.433  -0.353  -0.256  1.00  0.00     0.069 A 
HETATM   29 CL2  UNL     1       2.787  -1.907  -0.919  1.00  0.00    -0.081 Cl
BRANCH  27  30
HETATM   30  C13 UNL     1       4.534   0.404  -1.219  1.00  0.00     0.311 C 
BRANCH  30  31
HETATM   31  N3  UNL     1       5.444   1.517  -1.363  1.00  0.00     0.084 N 
HETATM   32  C14 UNL     1       6.556   1.128  -2.244  1.00  0.00     0.309 C 
HETATM   33  C15 UNL     1       6.095   1.817  -0.086  1.00  0.00     0.309 C 
ENDBRANCH  30  31
ENDBRANCH  27  30
ENDBRANCH   8  22
TORSDOF 6
