REMARK  5 active torsions:
REMARK  status: ('A' for Active; 'I' for Inactive)
REMARK    1  A    between atoms: C2_2  and  C3_3 
REMARK    2  A    between atoms: C8_8  and  C10_10 
REMARK       I    between atoms: C10_10  and  N1_12 
REMARK    3  A    between atoms: N1_12  and  C11_14 
REMARK    4  A    between atoms: C11_14  and  C12_15 
REMARK    5  A    between atoms: C19_23  and  O2_24 
ROOT
HETATM    1  C3  UNL     1      -0.822   2.603   1.044  1.00  0.00     0.002 A 
HETATM    2  C4  UNL     1       0.635   2.783   1.048  1.00  0.00    -0.006 A 
HETATM    3  C5  UNL     1       1.441   1.838   0.703  1.00  0.00    -0.058 A 
HETATM    4  C6  UNL     1       2.928   1.775   0.632  1.00  0.00    -0.018 C 
HETATM    5  C7  UNL     1       3.309   0.541   0.848  1.00  0.00     0.047 C 
HETATM    6  C8  UNL     1       2.004  -0.272   1.069  1.00  0.00     0.049 C 
HETATM    7  C9  UNL     1       1.793  -0.290   2.544  1.00  0.00     0.026 C 
HETATM    8  C13 UNL     1       1.032   0.444   0.258  1.00  0.00     0.045 A 
HETATM    9  C14 UNL     1      -0.392   0.236   0.074  1.00  0.00    -0.017 A 
HETATM   10  C15 UNL     1      -0.829  -0.217  -1.339  1.00  0.00     0.022 A 
HETATM   11  C16 UNL     1      -1.057  -1.061  -0.118  1.00  0.00    -0.031 A 
HETATM   12  C17 UNL     1      -0.488  -2.402  -0.379  1.00  0.00     0.013 C 
HETATM   13  C18 UNL     1      -1.505  -3.416  -0.923  1.00  0.00     0.032 C 
HETATM   14  C19 UNL     1      -2.598  -2.728  -1.705  1.00  0.00     0.118 C 
HETATM   15  C20 UNL     1      -3.380  -1.906  -0.727  1.00  0.00     0.032 C 
HETATM   16  C21 UNL     1      -2.461  -1.359   0.351  1.00  0.00     0.013 C 
HETATM   17  C22 UNL     1      -1.332   1.353   0.480  1.00  0.00     0.037 A 
HETATM   18  C23 UNL     1      -2.333   1.813  -0.523  1.00  0.00     0.239 C 
HETATM   19  N2  UNL     1      -1.768   2.692  -1.549  1.00  0.00    -0.075 N 
ATOM     20  H21 UNL     1      -2.365   2.752  -2.374  1.00  0.00     0.277 HD
ATOM     21  H22 UNL     1      -0.945   2.284  -1.992  1.00  0.00     0.277 HD
HETATM   22  C24 UNL     1      -1.494   3.982  -0.987  1.00  0.00     0.233 C 
HETATM   23  C25 UNL     1      -1.393   3.888   0.480  1.00  0.00     0.045 C 
ENDROOT
BRANCH   6  24
HETATM   24  C10 UNL     1       2.572  -1.566   0.649  1.00  0.00     0.227 C 
HETATM   25  O1  UNL     1       2.571  -2.597   1.400  1.00  0.00    -0.273 OA
HETATM   26  N1  UNL     1       3.168  -1.743  -0.636  1.00  0.00    -0.360 N 
ATOM     27  H1  UNL     1       3.191  -0.944  -1.270  1.00  0.00     0.162 HD
BRANCH  26  28
HETATM   28  C11 UNL     1       3.734  -2.977  -1.085  1.00  0.00     0.133 C 
BRANCH  28  29
HETATM   29  C12 UNL     1       4.285  -2.876  -2.466  1.00  0.00     0.104 C 
HETATM   30 BR1  UNL     1       5.680  -1.544  -2.586  1.00  0.00    -0.095 Br
ENDBRANCH  28  29
ENDBRANCH  26  28
ENDBRANCH   6  24
BRANCH   1  31
HETATM   31  C2  UNL     1      -1.264   2.727   2.508  1.00  0.00    -0.023 C 
HETATM   32  C1  UNL     1      -0.808   3.754   3.187  1.00  0.00     0.008 C 
ENDBRANCH   1  31
BRANCH  14  33
HETATM   33  O2  UNL     1      -3.449  -3.733  -2.169  1.00  0.00    -0.396 OA
ATOM     34  H2  UNL     1      -4.137  -3.300  -2.661  1.00  0.00     0.210 HD
ENDBRANCH  14  33
TORSDOF 5
