REMARK  6 active torsions:
REMARK  status: ('A' for Active; 'I' for Inactive)
REMARK    1  A    between atoms: C2_2  and  C3_3 
REMARK    2  A    between atoms: C3_3  and  C4_4 
REMARK    3  A    between atoms: C15_18  and  C16_19 
REMARK    4  A    between atoms: C19_23  and  N2_24 
REMARK       I    between atoms: N2_24  and  C20_26 
REMARK    5  A    between atoms: C20_26  and  C21_28 
REMARK    6  A    between atoms: C22_29  and  C23_30 
ROOT
HETATM    1  C4  UNL     1       0.677  -1.566  -1.032  1.00  0.00     0.044 C 
HETATM    2  C5  UNL     1      -0.761  -1.845  -0.675  1.00  0.00    -0.058 C 
HETATM    3  C6  UNL     1      -1.052  -2.858   0.059  1.00  0.00     0.019 C 
HETATM    4  C7  UNL     1      -1.798  -0.875  -1.159  1.00  0.00    -0.066 C 
HETATM    5  C8  UNL     1      -3.168  -1.301  -0.852  1.00  0.00     0.062 C 
HETATM    6  C9  UNL     1      -3.642  -1.053   0.565  1.00  0.00    -0.017 C 
HETATM    7  C10 UNL     1      -3.892   0.110   1.228  1.00  0.00    -0.048 A 
HETATM    8  C11 UNL     1      -4.127   1.447   1.821  1.00  0.00     0.128 A 
HETATM    9  N1  UNL     1      -3.007   2.434   1.853  1.00  0.00    -0.351 N 
ATOM     10  H1  UNL     1      -3.090   3.265   2.439  1.00  0.00     0.163 HD
HETATM   11  C12 UNL     1      -1.804   2.236   1.068  1.00  0.00     0.223 C 
HETATM   12  O1  UNL     1      -0.791   2.896   1.236  1.00  0.00    -0.273 OA
HETATM   13  C13 UNL     1      -1.998   1.185   0.109  1.00  0.00     0.087 C 
HETATM   14  C14 UNL     1      -3.309   1.636  -0.455  1.00  0.00     0.032 C 
HETATM   15  C15 UNL     1      -4.450   1.328   0.449  1.00  0.00     0.019 A 
HETATM   16  C17 UNL     1      -1.336   0.556  -0.979  1.00  0.00     0.030 C 
HETATM   17  C18 UNL     1       0.122   0.753  -1.000  1.00  0.00     0.035 C 
HETATM   18  C19 UNL     1       0.962  -0.286  -0.295  1.00  0.00     0.094 C 
ENDROOT
BRANCH  18  19
HETATM   19  N2  UNL     1       2.340   0.110  -0.281  1.00  0.00    -0.345 N 
HETATM   20  C20 UNL     1       3.147   0.262   0.844  1.00  0.00     0.297 C 
HETATM   21  O2  UNL     1       2.661   0.041   1.976  1.00  0.00    -0.258 OA
ATOM     22  H2  UNL     1       2.772   0.299  -1.185  1.00  0.00     0.163 HD
BRANCH  20  23
HETATM   23  C21 UNL     1       4.508   0.663   0.719  1.00  0.00    -0.001 C 
HETATM   24  C22 UNL     1       5.666   0.993   0.622  1.00  0.00    -0.069 C 
BRANCH  24  25
HETATM   25  C23 UNL     1       7.043   1.381   0.491  1.00  0.00     0.060 C 
HETATM   26  C24 UNL     1       7.664   2.144   1.363  1.00  0.00    -0.022 C 
HETATM   27  C25 UNL     1       6.987   2.683   2.581  1.00  0.00     0.036 C 
ENDBRANCH  24  25
ENDBRANCH  20  23
ENDBRANCH  18  19
BRANCH   1  28
HETATM   28  C3  UNL     1       1.560  -2.700  -0.820  1.00  0.00     0.037 C 
BRANCH  28  29
HETATM   29  C2  UNL     1       1.296  -3.924  -1.617  1.00  0.00    -0.036 C 
HETATM   30  C1  UNL     1       0.431  -4.072  -2.576  1.00  0.00     0.007 C 
ENDBRANCH  28  29
ENDBRANCH   1  28
BRANCH  15  31
HETATM   31  C16 UNL     1      -5.848   1.249  -0.098  1.00  0.00     0.101 C 
HETATM   32 BR1  UNL     1      -6.180   2.932  -0.990  1.00  0.00    -0.095 Br
ENDBRANCH  15  31
TORSDOF 6
