REMARK  4 active torsions:
REMARK  status: ('A' for Active; 'I' for Inactive)
REMARK    1  A    between atoms: N1_1  and  C1_5 
REMARK    2  A    between atoms: C1_5  and  C2_6 
REMARK    3  A    between atoms: C2_6  and  S1_7 
REMARK    4  A    between atoms: S1_7  and  C3_8 
ROOT
HETATM    1  C2  UNL     1       1.809   0.030   0.535  1.00  0.00     0.101 C 
ENDROOT
BRANCH   1   2
HETATM    2  C1  UNL     1       3.057  -0.382  -0.238  1.00  0.00     0.239 C 
BRANCH   2   3
HETATM    3  N1  UNL     1       4.143   0.541  -0.051  1.00  0.00    -0.079 N 
ATOM      4  H13 UNL     1       3.862   1.493  -0.285  1.00  0.00     0.274 HD
ATOM      5  H12 UNL     1       4.349   0.672   0.939  1.00  0.00     0.274 HD
ATOM      6  H11 UNL     1       4.978   0.265  -0.568  1.00  0.00     0.274 HD
ENDBRANCH   2   3
ENDBRANCH   1   2
BRANCH   1   7
HETATM    7  S1  UNL     1       0.400  -0.305  -0.534  1.00  0.00    -0.163 SA
BRANCH   7   8
HETATM    8  C3  UNL     1      -1.047  -0.883   0.371  1.00  0.00     0.047 C 
HETATM    9  C4  UNL     1      -1.703   0.269   1.123  1.00  0.00     0.015 C 
HETATM   10  C5  UNL     1      -2.246   1.121   0.007  1.00  0.00     0.001 C 
HETATM   11  C6  UNL     1      -2.172   0.296  -1.263  1.00  0.00     0.001 C 
HETATM   12  C7  UNL     1      -2.125  -1.116  -0.684  1.00  0.00     0.015 C 
ENDBRANCH   7   8
ENDBRANCH   1   7
TORSDOF 4
