REMARK  4 active torsions:
REMARK  status: ('A' for Active; 'I' for Inactive)
REMARK    1  A    between atoms: N1_2  and  C2_3 
REMARK    2  A    between atoms: N1_2  and  C8_13 
REMARK    3  A    between atoms: C2_3  and  C3_4 
REMARK    4  A    between atoms: C8_13  and  C9_14 
ROOT
HETATM    1  C1  UNL     1       0.718  -0.966   0.959  1.00  0.00     0.310 C 
HETATM    2  N1  UNL     1       0.569  -0.286  -0.297  1.00  0.00     0.090 N 
ENDROOT
BRANCH   2   3
HETATM    3  C2  UNL     1       1.735  -0.584  -1.110  1.00  0.00     0.330 C 
BRANCH   3   4
HETATM    4  C3  UNL     1       2.985  -0.153  -0.481  1.00  0.00     0.055 A 
HETATM    5  C4  UNL     1       4.239  -0.382  -0.999  1.00  0.00     0.119 A 
HETATM    6  N2  UNL     1       5.197   0.137  -0.182  1.00  0.00    -0.335 N 
HETATM    7  C5  UNL     1       4.526   0.677   0.826  1.00  0.00     0.146 A 
HETATM    8  C7  UNL     1       6.616   0.245  -0.158  1.00  0.00     0.141 C 
HETATM    9  N3  UNL     1       3.211   0.521   0.677  1.00  0.00    -0.337 N 
HETATM   10  S1  UNL     1       5.743   1.355   1.941  1.00  0.00    -0.092 SA
ATOM     11  H3  UNL     1       2.495   0.852   1.323  1.00  0.00     0.168 HD
HETATM   12  C6  UNL     1       7.127   0.321   1.263  1.00  0.00     0.102 C 
ENDBRANCH   3   4
ENDBRANCH   2   3
BRANCH   2  13
HETATM   13  C8  UNL     1      -0.566  -0.749  -1.062  1.00  0.00     0.277 C 
BRANCH  13  14
HETATM   14  C9  UNL     1      -1.905  -0.401  -0.440  1.00  0.00     0.014 C 
HETATM   15  C10 UNL     1      -2.041   1.069  -0.313  1.00  0.00     0.006 C 
HETATM   16  C11 UNL     1      -2.454   1.547   1.064  1.00  0.00     0.000 C 
HETATM   17  C12 UNL     1      -3.650   0.850   1.623  1.00  0.00     0.000 C 
HETATM   18  C13 UNL     1      -4.857   0.912   0.721  1.00  0.00     0.000 C 
HETATM   19  C14 UNL     1      -4.986  -0.439   0.058  1.00  0.00     0.000 C 
HETATM   20  C15 UNL     1      -4.288  -0.495  -1.272  1.00  0.00     0.000 C 
HETATM   21  C16 UNL     1      -2.946  -1.117  -1.228  1.00  0.00     0.006 C 
ENDBRANCH  13  14
ENDBRANCH   2  13
TORSDOF 4
