REMARK  4 active torsions:
REMARK  status: ('A' for Active; 'I' for Inactive)
REMARK    1  A    between atoms: C2_2  and  C3_3 
REMARK    2  A    between atoms: C2_2  and  C16_19 
REMARK    3  A    between atoms: C4_4  and  C5_5 
REMARK    4  A    between atoms: C7_7  and  C8_8 
ROOT
HETATM    1  C8  UNL     1      -1.774  -0.401  -1.026  1.00  0.00     0.155 C 
HETATM    2  C9  UNL     1      -2.581   0.770  -1.483  1.00  0.00     0.042 C 
HETATM    3  C10 UNL     1      -3.704   1.181  -0.605  1.00  0.00     0.002 C 
HETATM    4  C11 UNL     1      -3.413   1.210   0.856  1.00  0.00     0.011 C 
HETATM    5  C12 UNL     1      -4.950   0.409  -0.964  1.00  0.00     0.106 C 
HETATM    6  C13 UNL     1      -6.107   1.146  -0.405  1.00  0.00     0.065 C 
HETATM    7  N1  UNL     1      -7.012   1.733   0.015  1.00  0.00    -0.197 NA
HETATM    8  C14 UNL     1      -4.955  -1.019  -0.625  1.00  0.00     0.130 C 
HETATM    9  C15 UNL     1      -3.751  -1.587  -0.049  1.00  0.00     0.260 C 
HETATM   10  O1  UNL     1      -3.948  -2.632   0.660  1.00  0.00    -0.265 OA
HETATM   11  O2  UNL     1      -2.434  -1.227  -0.110  1.00  0.00    -0.312 OA
ENDROOT
BRANCH   1  12
HETATM   12  C7  UNL     1      -0.455   0.004  -0.474  1.00  0.00     0.012 C 
HETATM   13  C5  UNL     1       0.589  -0.780  -0.375  1.00  0.00    -0.063 C 
HETATM   14  C6  UNL     1       0.519  -2.185  -0.826  1.00  0.00     0.048 C 
BRANCH  13  15
HETATM   15  C4  UNL     1       1.847  -0.272   0.189  1.00  0.00     0.007 C 
HETATM   16  C3  UNL     1       2.908  -1.017   0.304  1.00  0.00     0.007 C 
BRANCH  16  17
HETATM   17  C2  UNL     1       4.188  -0.617   0.840  1.00  0.00    -0.064 C 
HETATM   18  C1  UNL     1       5.176  -1.509   0.893  1.00  0.00     0.019 C 
BRANCH  17  19
HETATM   19  C16 UNL     1       4.450   0.759   1.346  1.00  0.00     0.009 C 
HETATM   20  C17 UNL     1       5.785   0.858   2.033  1.00  0.00     0.014 C 
HETATM   21  C18 UNL     1       4.294   1.826   0.310  1.00  0.00     0.014 C 
ENDBRANCH  17  19
ENDBRANCH  16  17
ENDBRANCH  13  15
ENDBRANCH   1  12
TORSDOF 4
