REMARK  6 active torsions:
REMARK  status: ('A' for Active; 'I' for Inactive)
REMARK    1  A    between atoms: C2_2  and  C3_3 
REMARK    2  A    between atoms: C3_3  and  C4_4 
REMARK    3  A    between atoms: C4_4  and  N1_5 
REMARK    4  A    between atoms: C6_10  and  O1_11 
REMARK    5  A    between atoms: C7_13  and  C8_14 
REMARK    6  A    between atoms: N3_15  and  N4_17 
ROOT
HETATM    1  N1  UNL     1       2.878  -1.085   0.024  1.00  0.00    -0.290 N 
HETATM    2  C5  UNL     1       2.921  -1.900   1.096  1.00  0.00     0.182 A 
HETATM    3  S1  UNL     1       4.375  -2.396   1.684  1.00  0.00    -0.040 SA
HETATM    4  N2  UNL     1       1.766  -2.281   1.651  1.00  0.00    -0.313 N 
ATOM      5  H2  UNL     1       1.772  -2.897   2.464  1.00  0.00     0.170 HD
HETATM    6  C6  UNL     1       0.592  -1.854   1.141  1.00  0.00     0.159 A 
HETATM    7  C7  UNL     1       0.529  -1.021   0.045  1.00  0.00     0.100 A 
HETATM    8  C15 UNL     1       1.729  -0.639  -0.512  1.00  0.00     0.265 A 
HETATM    9  O2  UNL     1       1.694   0.128  -1.521  1.00  0.00    -0.267 OA
ENDROOT
BRANCH   7  10
HETATM   10  C8  UNL     1      -0.712  -0.536  -0.537  1.00  0.00     0.128 C 
HETATM   11  N3  UNL     1      -1.812  -0.930   0.032  1.00  0.00    -0.313 N 
ATOM     12  H3  UNL     1      -1.747  -1.546   0.842  1.00  0.00     0.185 HD
BRANCH  11  13
HETATM   13  N4  UNL     1      -3.074  -0.549  -0.414  1.00  0.00    -0.328 N 
HETATM   14  C9  UNL     1      -3.033   0.571  -1.339  1.00  0.00     0.142 C 
HETATM   15  C10 UNL     1      -4.392   1.193  -1.506  1.00  0.00     0.021 C 
HETATM   16  C11 UNL     1      -4.791   1.864  -0.214  1.00  0.00     0.002 C 
HETATM   17  C12 UNL     1      -4.820   0.903   0.946  1.00  0.00     0.002 C 
HETATM   18  C13 UNL     1      -5.330  -0.463   0.544  1.00  0.00     0.021 C 
HETATM   19  C14 UNL     1      -4.174  -1.320   0.112  1.00  0.00     0.142 C 
ENDBRANCH  11  13
ENDBRANCH   7  10
BRANCH   6  20
HETATM   20  O1  UNL     1      -0.620  -2.244   1.710  1.00  0.00    -0.345 OA
ATOM     21  H1  UNL     1      -1.447  -1.943   1.351  1.00  0.00     0.219 HD
ENDBRANCH   6  20
BRANCH   1  22
HETATM   22  C4  UNL     1       4.132  -0.674  -0.573  1.00  0.00     0.135 C 
BRANCH  22  23
HETATM   23  C3  UNL     1       4.606   0.605   0.082  1.00  0.00     0.020 C 
BRANCH  23  24
HETATM   24  C2  UNL     1       5.900   1.076  -0.498  1.00  0.00    -0.003 C 
HETATM   25  C1  UNL     1       6.306   2.356   0.208  1.00  0.00     0.005 C 
ENDBRANCH  23  24
ENDBRANCH  22  23
ENDBRANCH   1  22
TORSDOF 6
