REMARK  5 active torsions:
REMARK  status: ('A' for Active; 'I' for Inactive)
REMARK    1  A    between atoms: C2_2  and  O1_3 
REMARK    2  A    between atoms: O1_3  and  C3_4 
REMARK    3  A    between atoms: C5_6  and  C7_8 
REMARK       I    between atoms: N1_9  and  C8_11 
REMARK    4  A    between atoms: C8_11  and  C9_13 
REMARK    5  A    between atoms: C9_13  and  C10_14 
ROOT
HETATM    1  C7  UNL     1       0.637   0.661   0.162  1.00  0.00     0.073 C 
HETATM    2  N1  UNL     1       1.902   0.467   0.148  1.00  0.00    -0.340 N 
ATOM      3  H1  UNL     1       2.295  -0.083  -0.616  1.00  0.00     0.167 HD
HETATM    4  C8  UNL     1       2.792   0.973   1.134  1.00  0.00     0.225 C 
HETATM    5  O2  UNL     1       3.034   2.196   1.212  1.00  0.00    -0.273 OA
ENDROOT
BRANCH   1   6
HETATM    6  C5  UNL     1      -0.237   0.117  -0.879  1.00  0.00    -0.007 C 
HETATM    7  C4  UNL     1      -1.437  -0.644  -0.410  1.00  0.00     0.047 C 
HETATM    8  C3  UNL     1      -2.300   0.171  -1.364  1.00  0.00     0.129 C 
HETATM    9  C11 UNL     1      -1.162   1.149  -1.492  1.00  0.00     0.047 C 
HETATM   10  C6  UNL     1       0.537  -0.698  -1.885  1.00  0.00     0.021 C 
BRANCH   8  11
HETATM   11  O1  UNL     1      -3.470   0.670  -0.792  1.00  0.00    -0.358 OA
BRANCH  11  12
HETATM   12  C2  UNL     1      -4.428  -0.159  -0.257  1.00  0.00     0.125 C 
HETATM   13  C1  UNL     1      -5.471   0.359   0.354  1.00  0.00     0.037 C 
ENDBRANCH  11  12
ENDBRANCH   8  11
ENDBRANCH   1   6
BRANCH   4  14
HETATM   14  C9  UNL     1       3.423   0.031   2.058  1.00  0.00     0.162 C 
BRANCH  14  15
HETATM   15  C10 UNL     1       4.911  -0.108   1.838  1.00  0.00     0.196 C 
HETATM   16 CL1  UNL     1       5.778   1.409   2.036  1.00  0.00    -0.083 Cl
HETATM   17 CL2  UNL     1       5.264  -0.850   0.259  1.00  0.00    -0.083 Cl
HETATM   18 CL3  UNL     1       5.502  -1.251   3.097  1.00  0.00    -0.083 Cl
ENDBRANCH  14  15
ENDBRANCH   4  14
TORSDOF 5
