REMARK  3 active torsions:
REMARK  status: ('A' for Active; 'I' for Inactive)
REMARK    1  A    between atoms: O1_2  and  C2_3 
REMARK    2  A    between atoms: C4_5  and  N1_6 
REMARK    3  A    between atoms: C5_8  and  N2_9 
ROOT
HETATM    1  C2  UNL     1      -2.836   0.284   0.358  1.00  0.00     0.087 A 
HETATM    2  C3  UNL     1      -1.575  -0.151   0.011  1.00  0.00     0.070 A 
HETATM    3  C4  UNL     1      -0.457   0.658   0.095  1.00  0.00     0.074 A 
HETATM    4  C8  UNL     1      -0.599   1.954   0.543  1.00  0.00     0.144 A 
HETATM    5  F1  UNL     1       0.478   2.756   0.631  1.00  0.00    -0.204 F 
HETATM    6  C9  UNL     1      -1.878   2.386   0.892  1.00  0.00     0.066 A 
HETATM    7  C10 UNL     1      -2.981   1.560   0.800  1.00  0.00     0.047 A 
HETATM    8 BR1  UNL     1      -4.727   2.202   1.294  1.00  0.00    -0.048 Br
ENDROOT
BRANCH   3   9
HETATM    9  N1  UNL     1       0.800   0.155  -0.275  1.00  0.00    -0.350 N 
HETATM   10  C5  UNL     1       1.863   0.207   0.449  1.00  0.00     0.178 C 
ATOM     11  H1  UNL     1       0.877  -0.287  -1.191  1.00  0.00     0.166 HD
BRANCH  10  12
HETATM   12  N2  UNL     1       3.046  -0.351  -0.081  1.00  0.00    -0.386 N 
HETATM   13  C6  UNL     1       3.056  -1.738  -0.463  1.00  0.00     0.149 C 
HETATM   14  C7  UNL     1       4.213   0.464  -0.231  1.00  0.00     0.149 C 
ENDBRANCH  10  12
ENDBRANCH   3   9
BRANCH   1  15
HETATM   15  O1  UNL     1      -3.950  -0.529   0.272  1.00  0.00    -0.355 OA
HETATM   16  C1  UNL     1      -3.907  -1.864  -0.173  1.00  0.00     0.210 C 
ENDBRANCH   1  15
TORSDOF 3
