REMARK  4 active torsions:
REMARK  status: ('A' for Active; 'I' for Inactive)
REMARK    1  A    between atoms: C2_2  and  C3_3 
REMARK    2  A    between atoms: C3_3  and  N1_4 
REMARK    3  A    between atoms: N1_4  and  C4_5 
REMARK       I    between atoms: N2_12  and  C9_13 
REMARK    4  A    between atoms: C9_13  and  C10_15 
ROOT
HETATM    1  C4  UNL     1       0.273   0.341  -0.762  1.00  0.00     0.223 C 
HETATM    2  S1  UNL     1      -0.636  -1.004  -1.589  1.00  0.00    -0.066 SA
HETATM    3  C5  UNL     1      -1.928  -1.051  -0.272  1.00  0.00     0.044 C 
HETATM    4  C6  UNL     1      -3.218  -1.587  -0.791  1.00  0.00     0.030 C 
HETATM    5  C7  UNL     1      -1.335  -1.845   0.866  1.00  0.00     0.030 C 
HETATM    6  C8  UNL     1      -1.967   0.402   0.073  1.00  0.00     0.211 C 
HETATM    7 CL1  UNL     1      -3.058   1.315  -1.003  1.00  0.00    -0.100 Cl
HETATM    8  N2  UNL     1      -0.699   0.991   0.044  1.00  0.00    -0.266 N 
HETATM    9  C9  UNL     1      -0.374   2.175   0.770  1.00  0.00     0.241 C 
HETATM   10  O1  UNL     1       0.751   2.733   0.752  1.00  0.00    -0.272 OA
ENDROOT
BRANCH   1  11
HETATM   11  N1  UNL     1       1.425   0.550  -0.912  1.00  0.00    -0.397 NA
BRANCH  11  12
HETATM   12  C3  UNL     1       2.729   0.788  -1.081  1.00  0.00     0.157 C 
BRANCH  12  13
HETATM   13  C2  UNL     1       3.621  -0.101  -0.213  1.00  0.00     0.055 C 
HETATM   14  C1  UNL     1       3.350  -1.557  -0.579  1.00  0.00     0.011 C 
ENDBRANCH  12  13
ENDBRANCH  11  12
ENDBRANCH   1  11
BRANCH   9  15
HETATM   15  C10 UNL     1      -1.394   2.838   1.622  1.00  0.00     0.217 C 
HETATM   16 CL2  UNL     1      -1.362   2.188   3.275  1.00  0.00    -0.121 Cl
ENDBRANCH   9  15
TORSDOF 4
