REMARK  7 active torsions:
REMARK  status: ('A' for Active; 'I' for Inactive)
REMARK    1  A    between atoms: N1_2  and  C2_4 
REMARK    2  A    between atoms: C2_4  and  C4_6 
REMARK       I    between atoms: C4_6  and  N2_8 
REMARK    3  A    between atoms: N2_8  and  C5_10 
REMARK    4  A    between atoms: C9_14  and  S1_15 
REMARK    5  A    between atoms: S1_15  and  N3_18 
REMARK    6  A    between atoms: N3_18  and  C10_20 
REMARK    7  A    between atoms: C16_29  and  O5_30 
ROOT
HETATM    1  C5  UNL     1      -1.875  -0.246   0.195  1.00  0.00     0.069 A 
HETATM    2  C6  UNL     1      -1.584  -1.310  -0.613  1.00  0.00     0.040 A 
HETATM    3  C7  UNL     1      -0.270  -1.796  -0.759  1.00  0.00    -0.036 A 
HETATM    4  C8  UNL     1       0.002  -2.951  -1.634  1.00  0.00     0.050 C 
HETATM    5  C9  UNL     1       0.755  -1.205  -0.086  1.00  0.00     0.088 A 
HETATM    6  C15 UNL     1       0.497  -0.120   0.746  1.00  0.00     0.065 A 
HETATM    7  C16 UNL     1      -0.785   0.327   0.866  1.00  0.00     0.096 A 
ENDROOT
BRANCH   5   8
HETATM    8  S1  UNL     1       2.425  -1.792  -0.260  1.00  0.00     0.265 S 
HETATM    9  O2  UNL     1       2.340  -3.292   0.057  1.00  0.00    -0.200 OA
HETATM   10  O3  UNL     1       2.793  -1.720  -1.728  1.00  0.00    -0.200 OA
BRANCH   8  11
HETATM   11  N3  UNL     1       3.383  -0.941   0.754  1.00  0.00    -0.258 N 
ATOM     12  H3  UNL     1       2.995  -1.036   1.692  1.00  0.00     0.181 HD
BRANCH  11  13
HETATM   13  C10 UNL     1       4.382  -0.233   0.840  1.00  0.00     0.187 A 
HETATM   14  O4  UNL     1       4.753   0.250   2.054  1.00  0.00    -0.218 OA
HETATM   15  N4  UNL     1       5.799   0.956   1.951  1.00  0.00    -0.263 N 
HETATM   16  C11 UNL     1       6.248   1.033   0.693  1.00  0.00     0.039 A 
ATOM     17  H4  UNL     1       6.250   1.416   2.741  1.00  0.00     0.194 HD
HETATM   18  C12 UNL     1       7.437   1.753   0.158  1.00  0.00     0.071 C 
HETATM   19  C13 UNL     1       5.325   0.258  -0.032  1.00  0.00     0.016 A 
HETATM   20  C14 UNL     1       5.393   0.023  -1.473  1.00  0.00     0.055 C 
ENDBRANCH  11  13
ENDBRANCH   8  11
ENDBRANCH   5   8
BRANCH   7  21
HETATM   21  O5  UNL     1      -1.073   1.413   1.700  1.00  0.00    -0.354 OA
HETATM   22  C17 UNL     1      -0.043   2.074   2.431  1.00  0.00     0.210 C 
ENDBRANCH   7  21
BRANCH   1  23
HETATM   23  N2  UNL     1      -3.158   0.337   0.371  1.00  0.00    -0.323 N 
HETATM   24  C4  UNL     1      -4.363  -0.261  -0.036  1.00  0.00     0.244 C 
HETATM   25  O1  UNL     1      -4.449  -1.363  -0.581  1.00  0.00    -0.271 OA
ATOM     26  H2  UNL     1      -3.208   1.250   0.823  1.00  0.00     0.169 HD
BRANCH  24  27
HETATM   27  C2  UNL     1      -5.611   0.548   0.242  1.00  0.00     0.165 C 
HETATM   28  C3  UNL     1      -5.669   1.637  -0.815  1.00  0.00     0.042 C 
BRANCH  27  29
HETATM   29  N1  UNL     1      -6.733  -0.288   0.293  1.00  0.00    -0.414 N 
HETATM   30  C1  UNL     1      -7.008  -1.062  -0.860  1.00  0.00     0.140 C 
ATOM     31  H1  UNL     1      -7.325  -0.337   1.122  1.00  0.00     0.153 HD
ENDBRANCH  27  29
ENDBRANCH  24  27
ENDBRANCH   1  23
TORSDOF 7
