REMARK  7 active torsions:
REMARK  status: ('A' for Active; 'I' for Inactive)
REMARK    1  A    between atoms: C5_6  and  C6_7 
REMARK    2  A    between atoms: C6_7  and  N1_8 
REMARK    3  A    between atoms: C13_18  and  N3_19 
REMARK    4  A    between atoms: N3_19  and  C14_21 
REMARK    5  A    between atoms: C14_21  and  C15_22 
REMARK    6  A    between atoms: C15_22  and  C16_23 
REMARK    7  A    between atoms: C16_23  and  N4_24 
REMARK       I    between atoms: N4_24  and  C17_25 
ROOT
HETATM    1  N1  UNL     1      -2.402  -1.568  -0.627  1.00  0.00    -0.389 N 
ATOM      2  H1  UNL     1      -3.202  -2.189  -0.507  1.00  0.00     0.159 HD
HETATM    3  C7  UNL     1      -1.274  -2.099  -0.495  1.00  0.00     0.024 C 
HETATM    4  C8  UNL     1      -1.277  -3.565  -0.179  1.00  0.00     0.058 C 
HETATM    5  C9  UNL     1      -0.443  -3.760   1.097  1.00  0.00     0.006 C 
HETATM    6  C10 UNL     1       0.982  -3.548   0.702  1.00  0.00     0.006 C 
HETATM    7  C11 UNL     1       1.532  -2.202   1.030  1.00  0.00     0.058 C 
HETATM    8  C12 UNL     1       1.107  -1.201  -0.050  1.00  0.00     0.030 A 
HETATM    9  N2  UNL     1       1.962  -0.271  -0.420  1.00  0.00    -0.339 N 
ATOM     10  H2  UNL     1       2.886  -0.220   0.010  1.00  0.00     0.168 HD
HETATM   11  C13 UNL     1       1.610   0.599  -1.358  1.00  0.00     0.145 A 
HETATM   12  S1  UNL     1       0.018   0.107  -1.749  1.00  0.00    -0.051 SA
HETATM   13  C18 UNL     1      -0.121  -1.210  -0.674  1.00  0.00     0.053 A 
ENDROOT
BRANCH   1  14
HETATM   14  C6  UNL     1      -2.708  -0.214  -0.922  1.00  0.00     0.153 C 
BRANCH  14  15
HETATM   15  C5  UNL     1      -4.193   0.087  -0.619  1.00  0.00     0.166 C 
HETATM   16  C4  UNL     1      -4.476   0.011   0.846  1.00  0.00     0.205 C 
HETATM   17  O1  UNL     1      -5.150   1.211   1.143  1.00  0.00    -0.353 OA
HETATM   18  C2  UNL     1      -5.523   1.754  -0.064  1.00  0.00     0.157 C 
HETATM   19  C1  UNL     1      -6.800   1.119  -0.570  1.00  0.00     0.078 C 
HETATM   20  C3  UNL     1      -5.663   3.240  -0.063  1.00  0.00     0.078 C 
HETATM   21  O2  UNL     1      -4.459   1.423  -0.918  1.00  0.00    -0.347 OA
ENDBRANCH  14  15
ENDBRANCH   1  14
BRANCH  11  22
HETATM   22  N3  UNL     1       2.282   1.600  -1.883  1.00  0.00    -0.370 N 
ATOM     23  H3  UNL     1       1.879   2.195  -2.607  1.00  0.00     0.161 HD
BRANCH  22  24
HETATM   24  C14 UNL     1       3.617   1.814  -1.382  1.00  0.00     0.124 C 
BRANCH  24  25
HETATM   25  C15 UNL     1       3.565   2.669  -0.119  1.00  0.00     0.053 C 
BRANCH  25  26
HETATM   26  C16 UNL     1       5.050   2.821   0.308  1.00  0.00     0.222 C 
BRANCH  26  27
HETATM   27  N4  UNL     1       5.571   1.620   0.541  1.00  0.00    -0.421 NA
HETATM   28  C17 UNL     1       5.987   0.568   0.790  1.00  0.00     0.270 C 
HETATM   29  N5  UNL     1       5.501  -0.212   1.917  1.00  0.00    -0.053 NA
HETATM   30  N6  UNL     1       7.027  -0.066   0.010  1.00  0.00    -0.053 NA
ENDBRANCH  26  27
ENDBRANCH  25  26
ENDBRANCH  24  25
ENDBRANCH  22  24
ENDBRANCH  11  22
TORSDOF 7
