REMARK  8 active torsions:
REMARK  status: ('A' for Active; 'I' for Inactive)
REMARK    1  A    between atoms: C2_2  and  C3_3 
REMARK    2  A    between atoms: C3_3  and  C4_4 
REMARK    3  A    between atoms: C4_4  and  C5_5 
REMARK    4  A    between atoms: C5_5  and  O1_6 
REMARK    5  A    between atoms: C5_5  and  C8_9 
REMARK    6  A    between atoms: O1_6  and  C6_7 
REMARK       I    between atoms: C8_9  and  N1_11 
REMARK    7  A    between atoms: N1_11  and  C9_13 
REMARK    8  A    between atoms: C11_15  and  C12_16 
ROOT
HETATM    1  C5  UNL     1      -1.696  -0.005  -0.101  1.00  0.00     0.240 C 
ENDROOT
BRANCH   1   2
HETATM    2  C4  UNL     1      -3.004  -0.755   0.149  1.00  0.00     0.160 A 
HETATM    3  C16 UNL     1      -3.456  -1.479  -1.098  1.00  0.00     0.247 A 
HETATM    4  O4  UNL     1      -3.427  -0.778  -2.142  1.00  0.00    -0.272 OA
HETATM    5  N3  UNL     1      -3.881  -2.812  -1.127  1.00  0.00    -0.278 N 
HETATM    6  C17 UNL     1      -3.849  -3.595   0.041  1.00  0.00     0.329 A 
ATOM      7  H3  UNL     1      -4.216  -3.218  -2.001  1.00  0.00     0.173 HD
HETATM    8  O5  UNL     1      -4.242  -4.783  -0.044  1.00  0.00    -0.247 OA
HETATM    9  N4  UNL     1      -3.384  -3.021   1.250  1.00  0.00    -0.278 N 
HETATM   10  C18 UNL     1      -2.947  -1.670   1.298  1.00  0.00     0.247 A 
ATOM     11  H4  UNL     1      -3.363  -3.586   2.099  1.00  0.00     0.173 HD
HETATM   12  O6  UNL     1      -2.490  -1.264   2.402  1.00  0.00    -0.272 OA
BRANCH   2  13
HETATM   13  C3  UNL     1      -4.158   0.208   0.405  1.00  0.00     0.058 C 
BRANCH  13  14
HETATM   14  C2  UNL     1      -4.474   1.112  -0.689  1.00  0.00    -0.035 C 
HETATM   15  C1  UNL     1      -5.718   1.216  -1.160  1.00  0.00     0.007 C 
ENDBRANCH  13  14
ENDBRANCH   2  13
ENDBRANCH   1   2
BRANCH   1  16
HETATM   16  O1  UNL     1      -1.282   0.779   0.824  1.00  0.00    -0.375 OA
BRANCH  16  17
HETATM   17  C6  UNL     1      -0.850   1.843   1.300  1.00  0.00     0.164 C 
HETATM   18  C7  UNL     1      -1.738   3.070   1.108  1.00  0.00     0.033 C 
ENDBRANCH  16  17
ENDBRANCH   1  16
BRANCH   1  19
HETATM   19  C8  UNL     1      -0.676  -1.100  -0.421  1.00  0.00     0.254 C 
HETATM   20  O2  UNL     1      -0.977  -1.939  -1.246  1.00  0.00    -0.270 OA
HETATM   21  N1  UNL     1       0.567  -1.127   0.208  1.00  0.00    -0.309 N 
ATOM     22  H1  UNL     1       0.602  -1.638   1.090  1.00  0.00     0.170 HD
BRANCH  21  23
HETATM   23  C9  UNL     1       1.664  -0.603  -0.164  1.00  0.00     0.130 A 
HETATM   24  C10 UNL     1       2.864  -0.652   0.499  1.00  0.00     0.086 A 
HETATM   25  C11 UNL     1       3.790   0.042  -0.252  1.00  0.00     0.087 A 
HETATM   26  O3  UNL     1       3.148   0.476  -1.312  1.00  0.00    -0.240 OA
HETATM   27  N2  UNL     1       1.892   0.104  -1.277  1.00  0.00    -0.245 N 
ATOM     28  H2  UNL     1       1.195   0.320  -1.989  1.00  0.00     0.196 HD
BRANCH  25  29
HETATM   29  C12 UNL     1       5.232   0.302  -0.002  1.00  0.00     0.000 C 
HETATM   30  C13 UNL     1       5.496   0.094   1.495  1.00  0.00     0.021 C 
HETATM   31  C14 UNL     1       5.607   1.740  -0.315  1.00  0.00     0.021 C 
HETATM   32  C15 UNL     1       6.128  -0.649  -0.755  1.00  0.00     0.021 C 
ENDBRANCH  25  29
ENDBRANCH  21  23
ENDBRANCH   1  19
TORSDOF 8
