REMARK  3 active torsions:
REMARK  status: ('A' for Active; 'I' for Inactive)
REMARK    1  A    between atoms: C1_2  and  C2_4 
REMARK    2  A    between atoms: C8_10  and  N2_11 
REMARK       I    between atoms: N2_11  and  C9_13 
REMARK    3  A    between atoms: C9_13  and  C10_15 
ROOT
HETATM    1  N2  UNL     1      -0.239  -0.255   0.109  1.00  0.00    -0.355 N 
ATOM      2  H2  UNL     1      -0.480  -0.277   1.100  1.00  0.00     0.162 HD
HETATM    3  C9  UNL     1      -1.302  -0.356  -0.821  1.00  0.00     0.233 C 
HETATM    4  O2  UNL     1      -0.983  -0.326  -2.039  1.00  0.00    -0.272 OA
ENDROOT
BRANCH   1   5
HETATM    5  C8  UNL     1       1.137  -0.125  -0.224  1.00  0.00     0.092 C 
HETATM    6  C6  UNL     1       1.764   1.165   0.235  1.00  0.00     0.010 C 
HETATM    7  C5  UNL     1       2.046   1.201   1.699  1.00  0.00     0.011 C 
HETATM    8  C7  UNL     1       3.079   1.312  -0.505  1.00  0.00     0.025 C 
HETATM    9  C4  UNL     1       2.965   0.048   2.088  1.00  0.00    -0.013 C 
HETATM   10  C3  UNL     1       4.250   0.230   1.349  1.00  0.00     0.023 C 
HETATM   11  C20 UNL     1       2.248  -1.224   1.735  1.00  0.00     0.011 C 
HETATM   12  C2  UNL     1       3.977   0.156  -0.140  1.00  0.00     0.040 C 
HETATM   13  C21 UNL     1       3.353  -1.178  -0.432  1.00  0.00     0.025 C 
HETATM   14  C19 UNL     1       1.993  -1.257   0.249  1.00  0.00     0.010 C 
BRANCH  12  15
HETATM   15  C1  UNL     1       5.216   0.278  -0.929  1.00  0.00     0.239 C 
HETATM   16  N1  UNL     1       5.113   0.225  -2.344  1.00  0.00    -0.061 NA
HETATM   17  O1  UNL     1       6.357   0.427  -0.424  1.00  0.00    -0.276 OA
ENDBRANCH  12  15
ENDBRANCH   1   5
BRANCH   3  18
HETATM   18  C10 UNL     1      -2.704  -0.488  -0.456  1.00  0.00     0.091 C 
HETATM   19  C11 UNL     1      -3.052  -1.789   0.202  1.00  0.00     0.138 C 
HETATM   20  N3  UNL     1      -4.413  -1.836   0.590  1.00  0.00    -0.419 N 
HETATM   21  C12 UNL     1      -5.353  -1.253  -0.295  1.00  0.00     0.123 C 
ATOM     22  H3  UNL     1      -4.703  -2.270   1.466  1.00  0.00     0.153 HD
HETATM   23  C13 UNL     1      -4.902  -0.017  -0.996  1.00  0.00     0.038 C 
HETATM   24  C14 UNL     1      -3.588  -0.317  -1.678  1.00  0.00     0.037 C 
HETATM   25  C15 UNL     1      -4.485   0.987   0.066  1.00  0.00    -0.037 A 
HETATM   26  C16 UNL     1      -5.055   2.022   0.727  1.00  0.00     0.016 A 
HETATM   27  C18 UNL     1      -3.190   0.686   0.367  1.00  0.00     0.009 A 
HETATM   28  C17 UNL     1      -4.282   2.679   1.640  1.00  0.00     0.051 A 
HETATM   29  S1  UNL     1      -2.800   1.847   1.555  1.00  0.00    -0.104 SA
ENDBRANCH   3  18
TORSDOF 3
