REMARK  6 active torsions:
REMARK  status: ('A' for Active; 'I' for Inactive)
REMARK    1  A    between atoms: C2_2  and  C3_3 
REMARK    2  A    between atoms: C3_3  and  C4_4 
REMARK    3  A    between atoms: C6_7  and  C7_8 
REMARK    4  A    between atoms: C9_12  and  O3_13 
REMARK    5  A    between atoms: C15_20  and  C16_21 
REMARK    6  A    between atoms: C16_21  and  O4_24 
ROOT
HETATM    1  C4  UNL     1       1.894  -0.698   0.384  1.00  0.00     0.035 C 
HETATM    2  C5  UNL     1       2.931  -0.622  -0.698  1.00  0.00     0.149 C 
HETATM    3  O1  UNL     1       2.850  -1.294  -1.713  1.00  0.00    -0.296 OA
HETATM    4  C6  UNL     1       4.047   0.329  -0.432  1.00  0.00     0.147 C 
HETATM    5  C8  UNL     1       3.491   1.687  -0.171  1.00  0.00     0.053 C 
HETATM    6  C9  UNL     1       2.343   1.748   0.758  1.00  0.00     0.125 C 
HETATM    7  C10 UNL     1       1.388   0.646   0.754  1.00  0.00     0.039 C 
HETATM    8  C11 UNL     1       0.425   0.531  -0.402  1.00  0.00     0.028 C 
HETATM    9  C12 UNL     1      -0.932   1.019  -0.182  1.00  0.00    -0.070 C 
HETATM   10  C13 UNL     1      -1.464   2.157   0.202  1.00  0.00    -0.022 C 
HETATM   11  C14 UNL     1      -2.948   2.060   0.247  1.00  0.00     0.036 C 
HETATM   12  C15 UNL     1      -3.238   0.807  -0.478  1.00  0.00     0.035 C 
HETATM   13  C19 UNL     1      -2.021  -0.006  -0.448  1.00  0.00    -0.014 C 
HETATM   14  C20 UNL     1      -1.799  -0.648  -1.806  1.00  0.00     0.020 C 
HETATM   15  C21 UNL     1      -1.853  -0.982   0.670  1.00  0.00     0.014 C 
HETATM   16  C22 UNL     1      -0.475  -1.577   0.675  1.00  0.00     0.007 C 
HETATM   17  C23 UNL     1       0.533  -0.977  -0.211  1.00  0.00     0.011 C 
ENDROOT
BRANCH  12  18
HETATM   18  C16 UNL     1      -4.542   0.158  -0.178  1.00  0.00     0.055 C 
HETATM   19  C17 UNL     1      -5.633   1.180  -0.570  1.00  0.00     0.045 C 
HETATM   20  C18 UNL     1      -4.829  -0.244   1.208  1.00  0.00     0.045 C 
BRANCH  18  21
HETATM   21  O4  UNL     1      -4.714  -0.920  -1.042  1.00  0.00    -0.390 OA
ATOM     22  H4  UNL     1      -5.547  -1.335  -0.850  1.00  0.00     0.210 HD
ENDBRANCH  18  21
ENDBRANCH  12  18
BRANCH   1  23
HETATM   23  C3  UNL     1       2.350  -1.596   1.500  1.00  0.00     0.044 C 
BRANCH  23  24
HETATM   24  C2  UNL     1       2.605  -2.982   1.046  1.00  0.00    -0.036 C 
HETATM   25  C1  UNL     1       3.783  -3.534   1.169  1.00  0.00     0.007 C 
ENDBRANCH  23  24
ENDBRANCH   1  23
BRANCH   6  26
HETATM   26  O3  UNL     1       2.841   1.915   2.071  1.00  0.00    -0.395 OA
ATOM     27  H3  UNL     1       2.103   1.954   2.668  1.00  0.00     0.210 HD
ENDBRANCH   6  26
BRANCH   4  28
HETATM   28  C7  UNL     1       4.946   0.413  -1.628  1.00  0.00     0.242 C 
HETATM   29  N1  UNL     1       6.065   1.295  -1.509  1.00  0.00    -0.061 NA
HETATM   30  O2  UNL     1       4.753  -0.236  -2.675  1.00  0.00    -0.276 OA
ENDBRANCH   4  28
TORSDOF 6
