REMARK  6 active torsions:
REMARK  status: ('A' for Active; 'I' for Inactive)
REMARK    1  A    between atoms: C2_2  and  O1_4 
REMARK    2  A    between atoms: C2_2  and  C4_6 
REMARK    3  A    between atoms: C4_6  and  C5_7 
REMARK    4  A    between atoms: C12_15  and  O2_16 
REMARK    5  A    between atoms: C13_18  and  C15_20 
REMARK    6  A    between atoms: C15_20  and  O3_21 
ROOT
HETATM    1  C5  UNL     1      -1.015  -0.415  -0.275  1.00  0.00    -0.008 C 
HETATM    2  C6  UNL     1      -0.278  -0.327  -1.612  1.00  0.00     0.006 C 
HETATM    3  C7  UNL     1       1.211  -0.654  -1.428  1.00  0.00     0.018 C 
HETATM    4  C8  UNL     1       1.760   0.155  -0.249  1.00  0.00     0.022 A 
HETATM    5  C9  UNL     1       0.811   1.244  -0.057  1.00  0.00    -0.057 C 
HETATM    6  C10 UNL     1       0.927   2.521  -0.322  1.00  0.00     0.088 C 
HETATM    7 CL1  UNL     1      -0.420   3.625   0.029  1.00  0.00    -0.097 Cl
HETATM    8  C11 UNL     1      -0.530   0.787   0.508  1.00  0.00     0.040 C 
HETATM    9  C12 UNL     1       2.062  -0.610   1.016  1.00  0.00     0.143 A 
HETATM   10  C13 UNL     1       3.124  -0.012   0.125  1.00  0.00     0.018 A 
HETATM   11  C14 UNL     1       3.925  -1.006  -0.755  1.00  0.00     0.021 C 
ENDROOT
BRANCH   9  12
HETATM   12  O2  UNL     1       1.925  -1.969   1.106  1.00  0.00    -0.394 OA
ATOM     13  H2  UNL     1       2.115  -2.451   1.902  1.00  0.00     0.210 HD
ENDBRANCH   9  12
BRANCH  10  14
HETATM   14  C15 UNL     1       4.051   0.909   0.837  1.00  0.00     0.177 C 
BRANCH  14  15
HETATM   15  O3  UNL     1       4.302   2.117   0.213  1.00  0.00    -0.400 OA
ATOM     16  H3  UNL     1       4.894   2.705   0.668  1.00  0.00     0.209 HD
ENDBRANCH  14  15
ENDBRANCH  10  14
BRANCH   1  17
HETATM   17  C4  UNL     1      -2.468  -0.426  -0.589  1.00  0.00     0.041 C 
BRANCH  17  18
HETATM   18  C2  UNL     1      -3.415  -0.535   0.545  1.00  0.00     0.051 C 
HETATM   19  C1  UNL     1      -4.831  -0.534  -0.066  1.00  0.00     0.045 C 
HETATM   20  C3  UNL     1      -3.413   0.580   1.534  1.00  0.00     0.045 C 
BRANCH  18  21
HETATM   21  O1  UNL     1      -3.281  -1.734   1.238  1.00  0.00    -0.391 OA
ATOM     22  H1  UNL     1      -2.409  -1.735   1.614  1.00  0.00     0.210 HD
ENDBRANCH  18  21
ENDBRANCH  17  18
ENDBRANCH   1  17
TORSDOF 6
