REMARK  9 active torsions:
REMARK  status: ('A' for Active; 'I' for Inactive)
REMARK    1  A    between atoms: C2_2  and  C3_3 
REMARK    2  A    between atoms: C2_2  and  C5_7 
REMARK    3  A    between atoms: C3_3  and  O2_5 
REMARK    4  A    between atoms: C7_9  and  O3_10 
REMARK    5  A    between atoms: O3_10  and  C8_11 
REMARK    6  A    between atoms: C19_24  and  O6_25 
REMARK    7  A    between atoms: O6_25  and  C20_26 
REMARK    8  A    between atoms: C22_29  and  C23_30 
REMARK    9  A    between atoms: C23_30  and  C24_31 
ROOT
HETATM    1  C5  UNL     1      -3.072  -0.497   0.678  1.00  0.00     0.038 C 
HETATM    2  C6  UNL     1      -3.248   0.993   0.930  1.00  0.00     0.043 C 
HETATM    3  C7  UNL     1      -2.668   1.672  -0.231  1.00  0.00     0.142 C 
HETATM    4  C10 UNL     1      -1.712   0.673  -0.916  1.00  0.00    -0.002 C 
HETATM    5  C11 UNL     1      -1.757   1.008  -2.357  1.00  0.00     0.019 C 
HETATM    6  C12 UNL     1      -2.425  -0.648  -0.677  1.00  0.00     0.075 C 
HETATM    7  C13 UNL     1      -1.503  -1.800  -0.640  1.00  0.00     0.133 C 
HETATM    8  O5  UNL     1      -1.916  -2.750   0.006  1.00  0.00    -0.298 OA
HETATM    9  C14 UNL     1      -0.148  -2.080  -1.225  1.00  0.00     0.085 C 
HETATM   10  C15 UNL     1       0.845  -1.316  -0.390  1.00  0.00     0.014 C 
HETATM   11  C16 UNL     1       2.154  -1.980  -0.357  1.00  0.00    -0.014 C 
HETATM   12  C17 UNL     1       2.625  -2.288  -1.768  1.00  0.00     0.018 C 
HETATM   13  C18 UNL     1       1.867  -3.368   0.262  1.00  0.00     0.018 C 
HETATM   14  C19 UNL     1       3.218  -1.357   0.467  1.00  0.00     0.169 C 
HETATM   15  C22 UNL     1       2.854  -0.306   1.430  1.00  0.00     0.152 C 
HETATM   16  O8  UNL     1       1.629   0.291   1.327  1.00  0.00    -0.377 OA
HETATM   17  C26 UNL     1       1.525   1.026   0.184  1.00  0.00     0.131 C 
HETATM   18  C27 UNL     1       0.307   1.947   0.065  1.00  0.00     0.039 C 
HETATM   19  C28 UNL     1      -0.462   0.683  -0.202  1.00  0.00     0.010 C 
HETATM   20  C29 UNL     1       0.770   0.114  -0.803  1.00  0.00    -0.009 C 
HETATM   21  C30 UNL     1       1.208   0.495  -2.149  1.00  0.00     0.018 C 
ENDROOT
BRANCH   1  22
HETATM   22  C2  UNL     1      -4.347  -1.240   0.825  1.00  0.00     0.013 C 
HETATM   23  C1  UNL     1      -4.902  -1.974  -0.104  1.00  0.00     0.025 C 
BRANCH  22  24
HETATM   24  C3  UNL     1      -5.031  -1.138   2.109  1.00  0.00     0.288 C 
HETATM   25  O1  UNL     1      -4.587  -0.459   3.074  1.00  0.00    -0.260 OA
BRANCH  24  26
HETATM   26  O2  UNL     1      -6.225  -1.804   2.316  1.00  0.00    -0.323 OA
HETATM   27  C4  UNL     1      -6.939  -1.747   3.537  1.00  0.00     0.213 C 
ENDBRANCH  24  26
ENDBRANCH  22  24
ENDBRANCH   1  22
BRANCH   3  28
HETATM   28  O3  UNL     1      -3.521   2.284  -1.138  1.00  0.00    -0.316 OA
BRANCH  28  29
HETATM   29  C8  UNL     1      -3.571   3.571  -1.518  1.00  0.00     0.255 C 
HETATM   30  C9  UNL     1      -4.538   4.074  -2.497  1.00  0.00     0.126 C 
HETATM   31  O4  UNL     1      -2.748   4.334  -0.996  1.00  0.00    -0.266 OA
ENDBRANCH  28  29
ENDBRANCH   3  28
BRANCH  14  32
HETATM   32  O6  UNL     1       4.198  -0.830  -0.436  1.00  0.00    -0.313 OA
BRANCH  32  33
HETATM   33  C20 UNL     1       5.494  -1.250  -0.524  1.00  0.00     0.255 C 
HETATM   34  C21 UNL     1       6.431  -0.643  -1.490  1.00  0.00     0.126 C 
HETATM   35  O7  UNL     1       5.853  -2.188   0.265  1.00  0.00    -0.266 OA
ENDBRANCH  32  33
ENDBRANCH  14  32
BRANCH  15  36
HETATM   36  C23 UNL     1       3.993   0.727   1.497  1.00  0.00     0.034 C 
BRANCH  36  37
HETATM   37  C24 UNL     1       3.668   1.826   2.471  1.00  0.00    -0.002 C 
HETATM   38  C25 UNL     1       4.797   2.800   2.501  1.00  0.00     0.005 C 
ENDBRANCH  36  37
ENDBRANCH  15  36
TORSDOF 9
