REMARK  10 active torsions:
REMARK  status: ('A' for Active; 'I' for Inactive)
REMARK    1  A    between atoms: C2_2  and  C3_3 
REMARK    2  A    between atoms: C3_3  and  C4_5 
REMARK    3  A    between atoms: C4_5  and  O3_7 
REMARK    4  A    between atoms: O3_7  and  C5_8 
REMARK    5  A    between atoms: C7_10  and  C8_11 
REMARK    6  A    between atoms: C8_11  and  O5_13 
REMARK    7  A    between atoms: C19_24  and  C20_25 
REMARK    8  A    between atoms: C20_25  and  C21_27 
REMARK    9  A    between atoms: C21_27  and  O7_28 
REMARK   10  A    between atoms: O7_28  and  C22_29 
ROOT
HETATM    1  C5  UNL     1       2.735  -0.466   0.045  1.00  0.00     0.134 C 
HETATM    2  C6  UNL     1       2.941   0.746  -0.820  1.00  0.00     0.048 C 
HETATM    3  C7  UNL     1       2.952   2.024  -0.050  1.00  0.00     0.097 C 
HETATM    4  C10 UNL     1       1.634   2.224   0.715  1.00  0.00    -0.024 C 
HETATM    5  C11 UNL     1       1.980   3.320   1.744  1.00  0.00     0.016 C 
HETATM    6  C12 UNL     1       0.659   2.742  -0.296  1.00  0.00     0.011 C 
HETATM    7  C13 UNL     1      -0.744   2.858   0.218  1.00  0.00     0.010 C 
HETATM    8  C14 UNL     1      -1.212   1.552   0.733  1.00  0.00     0.024 C 
HETATM    9  C15 UNL     1      -0.171   0.549   1.003  1.00  0.00    -0.073 C 
HETATM   10  C16 UNL     1      -0.740  -0.647   0.821  1.00  0.00    -0.012 C 
HETATM   11  C17 UNL     1      -2.177  -0.524   0.424  1.00  0.00    -0.008 C 
HETATM   12  C18 UNL     1      -2.958  -0.686   1.694  1.00  0.00     0.021 C 
HETATM   13  C19 UNL     1      -2.537  -1.451  -0.687  1.00  0.00     0.070 C 
HETATM   14  C24 UNL     1      -2.616  -0.592  -1.964  1.00  0.00     0.014 C 
HETATM   15  C25 UNL     1      -1.719   0.590  -1.560  1.00  0.00     0.012 C 
HETATM   16  C26 UNL     1      -2.201   0.844  -0.163  1.00  0.00    -0.025 C 
HETATM   17  C27 UNL     1      -3.481   1.573  -0.172  1.00  0.00     0.017 C 
HETATM   18  C28 UNL     1       1.192   0.999   1.404  1.00  0.00     0.026 C 
HETATM   19  C29 UNL     1       2.155  -0.156   1.382  1.00  0.00     0.042 C 
ENDROOT
BRANCH   1  20
HETATM   20  O3  UNL     1       3.969  -1.166   0.254  1.00  0.00    -0.310 OA
BRANCH  20  21
HETATM   21  C4  UNL     1       4.188  -2.466  -0.108  1.00  0.00     0.329 C 
HETATM   22  O2  UNL     1       3.286  -3.121  -0.649  1.00  0.00    -0.256 OA
BRANCH  21  23
HETATM   23  C3  UNL     1       5.482  -3.081   0.141  1.00  0.00     0.223 C 
HETATM   24  O1  UNL     1       6.398  -2.426   0.666  1.00  0.00    -0.287 OA
BRANCH  23  25
HETATM   25  C2  UNL     1       5.709  -4.516  -0.242  1.00  0.00     0.085 C 
HETATM   26  C1  UNL     1       6.887  -4.522  -1.180  1.00  0.00     0.013 C 
ENDBRANCH  23  25
ENDBRANCH  21  23
ENDBRANCH  20  21
ENDBRANCH   1  20
BRANCH   3  27
HETATM   27  C8  UNL     1       3.223   3.142  -0.946  1.00  0.00     0.263 C 
HETATM   28  O4  UNL     1       3.407   2.925  -2.170  1.00  0.00    -0.265 OA
BRANCH  27  29
HETATM   29  O5  UNL     1       3.300   4.471  -0.552  1.00  0.00    -0.326 OA
HETATM   30  C9  UNL     1       3.560   5.558  -1.393  1.00  0.00     0.213 C 
ENDBRANCH  27  29
ENDBRANCH   3  27
BRANCH  13  31
HETATM   31  C20 UNL     1      -3.720  -2.282  -0.516  1.00  0.00     0.156 C 
HETATM   32  O6  UNL     1      -3.564  -3.520  -0.483  1.00  0.00    -0.295 OA
BRANCH  31  33
HETATM   33  C21 UNL     1      -5.102  -1.820  -0.376  1.00  0.00     0.257 C 
BRANCH  33  34
HETATM   34  O7  UNL     1      -6.029  -2.869  -0.189  1.00  0.00    -0.314 OA
BRANCH  34  35
HETATM   35  C22 UNL     1      -7.378  -2.571  -0.046  1.00  0.00     0.255 C 
HETATM   36  C23 UNL     1      -8.414  -3.614   0.156  1.00  0.00     0.126 C 
HETATM   37  O8  UNL     1      -7.708  -1.360  -0.093  1.00  0.00    -0.266 OA
ENDBRANCH  34  35
ENDBRANCH  33  34
ENDBRANCH  31  33
ENDBRANCH  13  31
TORSDOF 10
