REMARK  18 active torsions:
REMARK  status: ('A' for Active; 'I' for Inactive)
REMARK    1  A    between atoms: N1_2  and  C3_4 
REMARK    2  A    between atoms: C3_4  and  C4_5 
REMARK    3  A    between atoms: C5_7  and  N2_8 
REMARK    4  A    between atoms: C7_13  and  N4_14 
REMARK    5  A    between atoms: N4_14  and  C8_16 
REMARK    6  A    between atoms: C8_16  and  O3_17 
REMARK    7  A    between atoms: C8_16  and  C9_20 
REMARK    8  A    between atoms: C8_16  and  C10_25 
REMARK    9  A    between atoms: O3_17  and  O4_18 
REMARK   10  A    between atoms: C9_20  and  O5_21 
REMARK   11  A    between atoms: C9_20  and  O6_23 
REMARK   12  A    between atoms: C10_25  and  O7_26 
REMARK   13  A    between atoms: C10_25  and  C11_28 
REMARK   14  A    between atoms: C11_28  and  O8_29 
REMARK   15  A    between atoms: C11_28  and  O9_31 
REMARK   16  A    between atoms: C13_34  and  N5_35 
REMARK   17  A    between atoms: C16_44  and  O10_45 
REMARK   18  A    between atoms: C17_47  and  O11_48 
ROOT
HETATM    1  N2  UNL     1      -0.681  -0.918  -0.421  1.00  0.00    -0.254 N 
HETATM    2  C6  UNL     1       0.400  -1.705  -0.352  1.00  0.00     0.332 A 
HETATM    3  O2  UNL     1       0.306  -2.950  -0.514  1.00  0.00    -0.246 OA
HETATM    4  N3  UNL     1       1.638  -1.196  -0.104  1.00  0.00    -0.293 N 
ATOM      5  H3  UNL     1       2.455  -1.805  -0.054  1.00  0.00     0.172 HD
HETATM    6  C7  UNL     1       1.754   0.126   0.072  1.00  0.00     0.125 A 
HETATM    7  C12 UNL     1       0.647   0.985   0.007  1.00  0.00     0.096 A 
HETATM    8  C13 UNL     1       0.741   2.347   0.183  1.00  0.00     0.117 A 
HETATM    9  N6  UNL     1      -0.368   3.096   0.104  1.00  0.00    -0.338 N 
ATOM     10  H6  UNL     1      -0.320   4.107   0.231  1.00  0.00     0.168 HD
HETATM   11  C14 UNL     1      -1.551   2.492  -0.147  1.00  0.00     0.183 A 
HETATM   12  N7  UNL     1      -1.660   1.169  -0.321  1.00  0.00    -0.337 N 
ATOM     13  H7  UNL     1      -2.572   0.752  -0.509  1.00  0.00     0.168 HD
HETATM   14  C15 UNL     1      -0.582   0.402  -0.249  1.00  0.00     0.132 A 
ENDROOT
BRANCH   6  15
HETATM   15  N4  UNL     1       2.854   0.692   0.317  1.00  0.00    -0.335 N 
ATOM     16  H4  UNL     1       2.811   1.705   0.429  1.00  0.00     0.164 HD
BRANCH  15  17
HETATM   17  C8  UNL     1       4.184   0.099   0.463  1.00  0.00     0.249 C 
BRANCH  17  18
HETATM   18  O3  UNL     1       4.143  -0.993   1.279  1.00  0.00    -0.202 OA
BRANCH  18  19
HETATM   19  O4  UNL     1       5.201  -1.615   1.584  1.00  0.00    -0.248 OA
ATOM     20  H4  UNL     1       5.172  -2.376   2.152  1.00  0.00     0.253 HD
ENDBRANCH  18  19
ENDBRANCH  17  18
BRANCH  17  21
HETATM   21  C9  UNL     1       5.143   1.084   1.159  1.00  0.00     0.316 C 
BRANCH  21  22
HETATM   22  O5  UNL     1       5.320   2.255   0.480  1.00  0.00    -0.367 OA
ATOM     23  H5  UNL     1       5.911   2.862   0.909  1.00  0.00     0.212 HD
ENDBRANCH  21  22
BRANCH  21  24
HETATM   24  O6  UNL     1       4.716   1.297   2.463  1.00  0.00    -0.367 OA
ATOM     25  H6  UNL     1       5.307   1.904   2.892  1.00  0.00     0.212 HD
ENDBRANCH  21  24
ENDBRANCH  17  21
BRANCH  17  26
HETATM   26  C10 UNL     1       4.654  -0.088  -0.954  1.00  0.00     0.236 C 
BRANCH  26  27
HETATM   27  O7  UNL     1       4.641   1.231  -1.517  1.00  0.00    -0.385 OA
ATOM     28  H7  UNL     1       4.938   1.113  -2.412  1.00  0.00     0.210 HD
ENDBRANCH  26  27
BRANCH  26  29
HETATM   29  C11 UNL     1       6.008  -0.630  -1.177  1.00  0.00     0.287 C 
BRANCH  29  30
HETATM   30  O8  UNL     1       6.231  -1.945  -0.830  1.00  0.00    -0.369 OA
ATOM     31  H8  UNL     1       7.103  -2.294  -0.974  1.00  0.00     0.212 HD
ENDBRANCH  29  30
BRANCH  29  32
HETATM   32  O9  UNL     1       6.258  -0.535  -2.573  1.00  0.00    -0.369 OA
ATOM     33  H9  UNL     1       7.130  -0.884  -2.717  1.00  0.00     0.212 HD
ENDBRANCH  29  32
ENDBRANCH  26  29
ENDBRANCH  17  26
ENDBRANCH  15  17
ENDBRANCH   6  15
BRANCH   8  34
HETATM   34  N5  UNL     1       1.884   2.869   0.420  1.00  0.00    -0.385 N 
ATOM     35  H52 UNL     1       2.728   2.299   0.480  1.00  0.00     0.157 HD
ATOM     36  H51 UNL     1       1.954   3.878   0.550  1.00  0.00     0.157 HD
ENDBRANCH   8  34
BRANCH   1  37
HETATM   37  C5  UNL     1      -1.972  -1.538  -0.679  1.00  0.00     0.266 C 
HETATM   38  O1  UNL     1      -2.918  -0.600  -1.052  1.00  0.00    -0.354 OA
HETATM   39  C4  UNL     1      -4.130  -1.198  -0.676  1.00  0.00     0.183 C 
HETATM   40  C17 UNL     1      -3.863  -1.639   0.723  1.00  0.00     0.182 C 
HETATM   41  C16 UNL     1      -2.474  -2.296   0.508  1.00  0.00     0.198 C 
BRANCH  39  42
HETATM   42  C3  UNL     1      -5.298  -0.327  -0.930  1.00  0.00     0.305 C 
BRANCH  42  43
HETATM   43  N1  UNL     1      -5.332   0.955  -0.314  1.00  0.00     0.082 N 
HETATM   44  C1  UNL     1      -6.512   1.639  -0.906  1.00  0.00     0.309 C 
HETATM   45  C2  UNL     1      -5.660   0.868   1.092  1.00  0.00     0.309 C 
ENDBRANCH  42  43
ENDBRANCH  39  42
BRANCH  40  46
HETATM   46  O11 UNL     1      -4.751  -2.624   1.181  1.00  0.00    -0.390 OA
ATOM     47  H11 UNL     1      -4.581  -2.905   2.072  1.00  0.00     0.210 HD
ENDBRANCH  40  46
BRANCH  41  48
HETATM   48  O10 UNL     1      -2.730  -3.604   0.135  1.00  0.00    -0.388 OA
ATOM     49  H10 UNL     1      -3.049  -4.086   0.889  1.00  0.00     0.210 HD
ENDBRANCH  41  48
ENDBRANCH   1  37
TORSDOF 18
