REMARK  13 active torsions:
REMARK  status: ('A' for Active; 'I' for Inactive)
REMARK    1  A    between atoms: C2_2  and  C4_4 
REMARK    2  A    between atoms: C4_4  and  N1_5 
REMARK    3  A    between atoms: N1_5  and  C5_7 
REMARK    4  A    between atoms: C6_10  and  C7_11 
REMARK    5  A    between atoms: C7_11  and  O1_12 
REMARK    6  A    between atoms: C7_11  and  N3_14 
REMARK    7  A    between atoms: N3_14  and  C9_16 
REMARK    8  A    between atoms: C9_16  and  C10_17 
REMARK    9  A    between atoms: C10_17  and  C11_18 
REMARK   10  A    between atoms: C16_25  and  C17_26 
REMARK   11  A    between atoms: C18_27  and  C19_28 
REMARK   12  A    between atoms: C19_28  and  C20_29 
REMARK   13  A    between atoms: C21_31  and  N5_32 
ROOT
HETATM    1  C5  UNL     1       2.872   0.389   0.855  1.00  0.00     0.680 A 
HETATM    2  N2  UNL     1       1.630  -0.101   0.652  1.00  0.00    -0.186 N 
ATOM      3  H2  UNL     1       1.490  -1.111   0.619  1.00  0.00     0.184 HD
HETATM    4  C6  UNL     1       0.570   0.719   0.492  1.00  0.00     0.122 A 
HETATM    5  C16 UNL     1       0.777   2.106   0.539  1.00  0.00     0.093 A 
HETATM    6  C21 UNL     1       2.059   2.568   0.748  1.00  0.00     0.136 A 
HETATM    7  N6  UNL     1       3.070   1.694   0.900  1.00  0.00    -0.176 N 
ATOM      8  H6  UNL     1       4.014   2.048   1.054  1.00  0.00     0.186 HD
ENDROOT
BRANCH   4   9
HETATM    9  C7  UNL     1      -0.746   0.227   0.276  1.00  0.00     0.167 C 
BRANCH   9  10
HETATM   10  O1  UNL     1      -1.670   1.141   0.142  1.00  0.00    -0.344 OA
ATOM     11  H1  UNL     1      -2.550   0.812  -0.002  1.00  0.00     0.219 HD
ENDBRANCH   9  10
BRANCH   9  12
HETATM   12  N3  UNL     1      -1.245  -1.064   0.179  1.00  0.00    -0.364 N 
HETATM   13  C8  UNL     1      -0.547  -2.304   0.272  1.00  0.00     0.151 C 
BRANCH  12  14
HETATM   14  C9  UNL     1      -2.742  -1.225  -0.067  1.00  0.00     0.129 C 
BRANCH  14  15
HETATM   15  C10 UNL     1      -2.864  -1.250  -1.550  1.00  0.00     0.058 C 
BRANCH  15  16
HETATM   16  C11 UNL     1      -4.235  -1.399  -2.044  1.00  0.00    -0.054 A 
HETATM   17  C12 UNL     1      -5.088  -0.350  -2.320  1.00  0.00     0.024 A 
HETATM   18  C13 UNL     1      -6.369  -0.532  -2.783  1.00  0.00     0.088 A 
HETATM   19  N4  UNL     1      -6.812  -1.772  -2.975  1.00  0.00    -0.375 N 
HETATM   20  C14 UNL     1      -6.040  -2.847  -2.730  1.00  0.00     0.088 A 
ATOM     21  H4  UNL     1      -7.763  -1.912  -3.317  1.00  0.00     0.164 HD
HETATM   22  C15 UNL     1      -4.735  -2.666  -2.258  1.00  0.00     0.024 A 
ENDBRANCH  15  16
ENDBRANCH  14  15
ENDBRANCH  12  14
ENDBRANCH   9  12
ENDBRANCH   4   9
BRANCH   5  23
HETATM   23  C17 UNL     1      -0.285   3.044   0.380  1.00  0.00    -0.061 C 
HETATM   24  C18 UNL     1      -1.168   3.892   0.248  1.00  0.00    -0.100 C 
BRANCH  24  25
HETATM   25  C19 UNL     1      -2.208   4.911   0.113  1.00  0.00     0.109 C 
BRANCH  25  26
HETATM   26  C20 UNL     1      -1.778   6.220   0.757  1.00  0.00     0.126 C 
HETATM   27 CL1  UNL     1      -1.485   5.847   2.492  1.00  0.00    -0.130 Cl
ENDBRANCH  25  26
ENDBRANCH  24  25
ENDBRANCH   5  23
BRANCH   1  28
HETATM   28  N1  UNL     1       3.848  -0.434   1.001  1.00  0.00    -0.226 N 
ATOM     29  H1  UNL     1       4.784  -0.060   1.154  1.00  0.00     0.177 HD
BRANCH  28  30
HETATM   30  C4  UNL     1       3.674  -1.866   0.958  1.00  0.00     0.142 C 
BRANCH  30  31
HETATM   31  C2  UNL     1       5.009  -2.570   1.098  1.00  0.00    -0.004 C 
HETATM   32  C1  UNL     1       5.959  -2.194  -0.004  1.00  0.00     0.011 C 
HETATM   33  C3  UNL     1       5.598  -2.212   2.436  1.00  0.00     0.011 C 
ENDBRANCH  30  31
ENDBRANCH  28  30
ENDBRANCH   1  28
BRANCH   6  34
HETATM   34  N5  UNL     1       2.307   3.852   0.801  1.00  0.00    -0.384 N 
ATOM     35  H52 UNL     1       1.540   4.515   0.686  1.00  0.00     0.157 HD
ATOM     36  H51 UNL     1       3.255   4.194   0.956  1.00  0.00     0.157 HD
ENDBRANCH   6  34
TORSDOF 13
