REMARK  10 active torsions:
REMARK  status: ('A' for Active; 'I' for Inactive)
REMARK    1  A    between atoms: C2_2  and  C3_3 
REMARK    2  A    between atoms: C3_3  and  N1_4 
REMARK    3  A    between atoms: N1_4  and  C4_6 
REMARK    4  A    between atoms: C4_6  and  N2_8 
REMARK    5  A    between atoms: N2_8  and  C5_9 
REMARK    6  A    between atoms: N2_8  and  C15_24 
REMARK    7  A    between atoms: C5_9  and  C6_10 
REMARK       I    between atoms: C6_10  and  N3_12 
REMARK    8  A    between atoms: N3_12  and  C7_14 
REMARK    9  A    between atoms: C10_17  and  N4_18 
REMARK   10  A    between atoms: C15_24  and  O2_26 
ROOT
HETATM    1  C6  UNL     1       0.099  -0.859   0.608  1.00  0.00     0.240 C 
HETATM    2  O1  UNL     1       0.073  -0.425  -0.552  1.00  0.00    -0.271 OA
HETATM    3  N3  UNL     1      -1.013  -0.836   1.444  1.00  0.00    -0.325 N 
ATOM      4  H3  UNL     1      -0.862  -1.223   2.376  1.00  0.00     0.169 HD
ENDROOT
BRANCH   1   5
HETATM    5  C5  UNL     1       1.373  -1.417   1.100  1.00  0.00     0.236 C 
BRANCH   5   6
HETATM    6  N2  UNL     1       2.424  -1.339   0.039  1.00  0.00    -0.300 N 
BRANCH   6   7
HETATM    7  C4  UNL     1       3.149  -0.151   0.063  1.00  0.00     0.176 C 
HETATM    8  S1  UNL     1       2.789   1.012   1.231  1.00  0.00    -0.041 SA
BRANCH   7   9
HETATM    9  N1  UNL     1       4.189   0.220  -0.798  1.00  0.00    -0.367 N 
ATOM     10  H1  UNL     1       4.504  -0.396  -1.548  1.00  0.00     0.161 HD
BRANCH   9  11
HETATM   11  C3  UNL     1       4.815   1.551  -0.573  1.00  0.00     0.121 C 
BRANCH  11  12
HETATM   12  C2  UNL     1       5.903   1.721  -1.586  1.00  0.00     0.015 C 
HETATM   13  C1  UNL     1       6.993   0.681  -1.499  1.00  0.00     0.006 C 
ENDBRANCH  11  12
ENDBRANCH   9  11
ENDBRANCH   7   9
ENDBRANCH   6   7
BRANCH   6  14
HETATM   14  C15 UNL     1       2.561  -2.417  -0.830  1.00  0.00     0.116 C 
HETATM   15  C16 UNL     1       3.478  -2.641  -1.954  1.00  0.00     0.097 C 
BRANCH  14  16
HETATM   16  O2  UNL     1       1.737  -3.413  -0.624  1.00  0.00    -0.349 OA
ATOM     17  H2  UNL     1       1.831  -4.149  -1.217  1.00  0.00     0.219 HD
ENDBRANCH  14  16
ENDBRANCH   6  14
ENDBRANCH   5   6
ENDBRANCH   1   5
BRANCH   3  18
HETATM   18  C7  UNL     1      -2.317  -0.359   1.199  1.00  0.00     0.052 A 
HETATM   19  C8  UNL     1      -2.689   0.177   0.007  1.00  0.00     0.033 A 
HETATM   20  C9  UNL     1      -4.005   0.628  -0.165  1.00  0.00     0.031 A 
HETATM   21  C10 UNL     1      -4.951   0.552   0.828  1.00  0.00     0.030 A 
HETATM   22  C13 UNL     1      -4.543   0.004   2.021  1.00  0.00     0.050 A 
HETATM   23  C14 UNL     1      -3.275  -0.446   2.230  1.00  0.00     0.040 A 
HETATM   24 BR1  UNL     1      -2.729  -1.200   3.884  1.00  0.00    -0.049 Br
BRANCH  21  25
HETATM   25  N4  UNL     1      -6.288   1.008   0.655  1.00  0.00    -0.390 N 
HETATM   26  C11 UNL     1      -6.711   1.580  -0.598  1.00  0.00     0.149 C 
HETATM   27  C12 UNL     1      -7.222   0.888   1.757  1.00  0.00     0.149 C 
ENDBRANCH  21  25
ENDBRANCH   3  18
TORSDOF 10
