REMARK  3 active torsions:
REMARK  status: ('A' for Active; 'I' for Inactive)
REMARK    1  A    between atoms: C6_6  and  C7_7 
REMARK    2  A    between atoms: C9_14  and  N4_15 
REMARK    3  A    between atoms: N4_15  and  C10_17 
ROOT
HETATM    1  C1  UNL     1       9.520  -0.167  -0.196  1.00  0.00     0.018 C 
HETATM    2  C2  UNL     1       8.314  -0.206  -0.151  1.00  0.00    -0.078 C 
HETATM    3  C3  UNL     1       6.878  -0.235  -0.101  1.00  0.00     0.017 A 
HETATM    4  C4  UNL     1       6.112  -0.537  -1.209  1.00  0.00     0.021 A 
HETATM    5  C5  UNL     1       4.731  -0.561  -1.142  1.00  0.00     0.014 A 
HETATM    6  C6  UNL     1       4.046  -0.286   0.024  1.00  0.00    -0.024 A 
HETATM    7  C19 UNL     1       4.813   0.016   1.133  1.00  0.00     0.014 A 
HETATM    8  C20 UNL     1       6.195   0.040   1.067  1.00  0.00     0.021 A 
ENDROOT
BRANCH   6   9
HETATM    9  C7  UNL     1       2.582  -0.315   0.085  1.00  0.00    -0.005 A 
HETATM   10  C8  UNL     1       1.992  -0.680   1.273  1.00  0.00     0.121 A 
HETATM   11  N1  UNL     1       0.658  -0.736   1.421  1.00  0.00    -0.288 N 
HETATM   12  N2  UNL     1      -0.107  -0.425   0.380  1.00  0.00    -0.165 N 
ATOM     13  H1  UNL     1       0.242  -1.011   2.311  1.00  0.00     0.188 HD
HETATM   14  N3  UNL     1      -1.445  -0.397   0.252  1.00  0.00    -0.109 N 
HETATM   15  C17 UNL     1       0.399  -0.060  -0.810  1.00  0.00     0.162 A 
HETATM   16  C9  UNL     1      -1.793  -0.024  -0.989  1.00  0.00     0.700 A 
ATOM     17  H3  UNL     1      -2.104  -0.627   0.995  1.00  0.00     0.208 HD
HETATM   18  N7  UNL     1      -0.639   0.184  -1.643  1.00  0.00    -0.172 N 
ATOM     19  H7  UNL     1      -0.558   0.480  -2.616  1.00  0.00     0.186 HD
HETATM   20  C18 UNL     1       1.762   0.001  -0.974  1.00  0.00     0.066 A 
BRANCH  16  21
HETATM   21  N4  UNL     1      -2.990   0.116  -1.486  1.00  0.00    -0.188 N 
ATOM     22  H4  UNL     1      -3.085   0.412  -2.457  1.00  0.00     0.184 HD
BRANCH  21  23
HETATM   23  C10 UNL     1      -4.168  -0.127  -0.729  1.00  0.00     0.078 A 
HETATM   24  C11 UNL     1      -4.390  -1.358  -0.150  1.00  0.00     0.032 A 
HETATM   25  C12 UNL     1      -5.518  -1.662   0.599  1.00  0.00     0.005 A 
HETATM   26  C13 UNL     1      -6.444  -0.631   0.742  1.00  0.00     0.032 A 
HETATM   27  C14 UNL     1      -6.262   0.600   0.185  1.00  0.00     0.065 A 
HETATM   28  N5  UNL     1      -7.006   1.729   0.187  1.00  0.00    -0.306 N 
HETATM   29  C16 UNL     1      -5.133   0.864  -0.550  1.00  0.00     0.090 A 
HETATM   30  C15 UNL     1      -6.334   2.645  -0.530  1.00  0.00     0.325 A 
ATOM     31  H5  UNL     1      -7.907   1.860   0.646  1.00  0.00     0.170 HD
HETATM   32  O1  UNL     1      -6.772   3.816  -0.715  1.00  0.00    -0.247 OA
HETATM   33  N6  UNL     1      -5.181   2.126  -0.989  1.00  0.00    -0.305 N 
ATOM     34  H6  UNL     1      -4.482   2.601  -1.559  1.00  0.00     0.171 HD
ENDBRANCH  21  23
ENDBRANCH  16  21
ENDBRANCH   6   9
TORSDOF 3
