REMARK  6 active torsions:
REMARK  status: ('A' for Active; 'I' for Inactive)
REMARK    1  A    between atoms: N1_1  and  C1_4 
REMARK    2  A    between atoms: C4_9  and  N3_10 
REMARK    3  A    between atoms: N3_10  and  C5_12 
REMARK    4  A    between atoms: C5_12  and  C6_13 
REMARK    5  A    between atoms: C12_23  and  C13_24 
REMARK    6  A    between atoms: C14_25  and  C15_26 
ROOT
HETATM    1  C1  UNL     1       1.505   2.903   1.764  1.00  0.00     0.676 A 
HETATM    2  N2  UNL     1       0.316   3.511   1.789  1.00  0.00    -0.201 N 
ATOM      3  H2  UNL     1       0.220   4.367   2.335  1.00  0.00     0.183 HD
HETATM    4  C2  UNL     1      -0.772   3.044   1.123  1.00  0.00     0.123 A 
HETATM    5  C3  UNL     1      -0.606   1.888   0.399  1.00  0.00     0.052 A 
HETATM    6  C4  UNL     1      -1.661   1.336  -0.313  1.00  0.00     0.115 A 
HETATM    7  N5  UNL     1      -1.491   0.214  -1.013  1.00  0.00    -0.350 N 
ATOM      8  H5  UNL     1      -2.282  -0.172  -1.529  1.00  0.00     0.166 HD
HETATM    9  C11 UNL     1      -0.294  -0.431  -1.060  1.00  0.00     0.112 A 
HETATM   10  C12 UNL     1       0.775   0.086  -0.367  1.00  0.00     0.061 A 
HETATM   11  C20 UNL     1       0.609   1.246   0.359  1.00  0.00     0.084 A 
HETATM   12  N7  UNL     1       1.641   1.765   1.042  1.00  0.00    -0.190 N 
ATOM     13  H7  UNL     1       2.545   1.294   1.017  1.00  0.00     0.184 HD
ENDROOT
BRANCH   6  14
HETATM   14  N3  UNL     1      -2.777   1.939  -0.264  1.00  0.00    -0.371 N 
ATOM     15  H3  UNL     1      -2.860   2.793   0.288  1.00  0.00     0.161 HD
BRANCH  14  16
HETATM   16  C5  UNL     1      -3.927   1.442  -0.971  1.00  0.00     0.160 C 
BRANCH  16  17
HETATM   17  C6  UNL     1      -4.491   0.305  -0.184  1.00  0.00    -0.038 A 
HETATM   18  C7  UNL     1      -5.454  -0.461  -0.804  1.00  0.00     0.025 A 
HETATM   19  C8  UNL     1      -6.008  -1.516  -0.125  1.00  0.00     0.088 A 
HETATM   20  N4  UNL     1      -5.619  -1.809   1.144  1.00  0.00    -0.375 N 
HETATM   21  C9  UNL     1      -4.681  -1.069   1.757  1.00  0.00     0.088 A 
ATOM     22  H4  UNL     1      -6.043  -2.597   1.634  1.00  0.00     0.164 HD
HETATM   23  C10 UNL     1      -4.107  -0.003   1.098  1.00  0.00     0.025 A 
ENDBRANCH  16  17
ENDBRANCH  14  16
ENDBRANCH   6  14
BRANCH  10  24
HETATM   24  C13 UNL     1       2.069  -0.584  -0.400  1.00  0.00    -0.058 C 
HETATM   25  C14 UNL     1       3.146  -1.125  -0.439  1.00  0.00    -0.061 C 
BRANCH  25  26
HETATM   26  C15 UNL     1       4.437  -1.760  -0.505  1.00  0.00     0.020 A 
HETATM   27  C16 UNL     1       4.720  -2.885   0.241  1.00  0.00     0.037 A 
HETATM   28  C17 UNL     1       5.976  -3.493   0.170  1.00  0.00     0.089 A 
HETATM   29  N6  UNL     1       6.918  -2.966  -0.642  1.00  0.00    -0.375 N 
HETATM   30  C18 UNL     1       6.676  -1.870  -1.383  1.00  0.00     0.089 A 
ATOM     31  H6  UNL     1       7.835  -3.410  -0.694  1.00  0.00     0.164 HD
HETATM   32  C19 UNL     1       5.446  -1.258  -1.325  1.00  0.00     0.037 A 
ENDBRANCH  25  26
ENDBRANCH  10  24
BRANCH   1  33
HETATM   33  N1  UNL     1       2.548   3.330   2.388  1.00  0.00    -0.234 N 
ATOM     34  H12 UNL     1       2.446   4.187   2.932  1.00  0.00     0.174 HD
ATOM     35  H11 UNL     1       3.456   2.866   2.369  1.00  0.00     0.174 HD
ENDBRANCH   1  33
TORSDOF 6
