REMARK  6 active torsions:
REMARK  status: ('A' for Active; 'I' for Inactive)
REMARK    1  A    between atoms: O1_2  and  C2_3 
REMARK    2  A    between atoms: C7_8  and  N1_9 
REMARK    3  A    between atoms: N1_9  and  C8_11 
REMARK    4  A    between atoms: C10_15  and  N3_16 
REMARK    5  A    between atoms: C14_26  and  C15_27 
REMARK    6  A    between atoms: C16_28  and  C17_29 
ROOT
HETATM    1  C8  UNL     1      -0.067  -0.675   0.377  1.00  0.00     0.125 A 
HETATM    2  N2  UNL     1      -1.011  -1.632   0.334  1.00  0.00    -0.336 N 
ATOM      3  H2  UNL     1      -1.996  -1.377   0.409  1.00  0.00     0.168 HD
HETATM    4  C9  UNL     1      -0.660  -2.934   0.192  1.00  0.00     0.105 A 
HETATM    5  C10 UNL     1      -1.633  -3.902   0.149  1.00  0.00     0.129 A 
HETATM    6  N4  UNL     1      -1.243  -5.182   0.007  1.00  0.00    -0.337 N 
ATOM      7  H4  UNL     1      -1.952  -5.915  -0.027  1.00  0.00     0.168 HD
HETATM    8  C11 UNL     1       0.054  -5.524  -0.092  1.00  0.00     0.182 A 
HETATM    9  N5  UNL     1       1.022  -4.590  -0.052  1.00  0.00    -0.350 N 
ATOM     10  H5  UNL     1       2.006  -4.849  -0.127  1.00  0.00     0.166 HD
HETATM   11  C12 UNL     1       0.652  -3.304   0.090  1.00  0.00     0.065 A 
HETATM   12  C13 UNL     1       1.618  -2.294   0.137  1.00  0.00     0.056 A 
HETATM   13  C14 UNL     1       1.279  -0.965   0.281  1.00  0.00     0.064 A 
ENDROOT
BRANCH   1  14
HETATM   14  N1  UNL     1      -0.456   0.544   0.513  1.00  0.00    -0.339 N 
ATOM     15  H1  UNL     1       0.249   1.280   0.547  1.00  0.00     0.167 HD
BRANCH  14  16
HETATM   16  C7  UNL     1      -1.808   0.905   0.616  1.00  0.00     0.067 A 
HETATM   17  C2  UNL     1      -2.506   1.383  -0.476  1.00  0.00     0.094 A 
HETATM   18  C3  UNL     1      -3.834   1.747  -0.414  1.00  0.00     0.039 A 
HETATM   19  C4  UNL     1      -4.518   1.637   0.790  1.00  0.00     0.003 A 
HETATM   20  C5  UNL     1      -3.842   1.166   1.884  1.00  0.00     0.002 A 
HETATM   21  C6  UNL     1      -2.511   0.804   1.807  1.00  0.00     0.032 A 
BRANCH  17  22
HETATM   22  O1  UNL     1      -1.850   1.503  -1.689  1.00  0.00    -0.354 OA
HETATM   23  C1  UNL     1      -2.503   1.984  -2.845  1.00  0.00     0.210 C 
ENDBRANCH  17  22
ENDBRANCH  14  16
ENDBRANCH   1  14
BRANCH  13  24
HETATM   24  C15 UNL     1       2.261   0.082   0.331  1.00  0.00    -0.058 C 
HETATM   25  C16 UNL     1       3.085   0.967   0.359  1.00  0.00    -0.061 C 
BRANCH  25  26
HETATM   26  C17 UNL     1       4.059   2.023   0.378  1.00  0.00     0.020 A 
HETATM   27  C18 UNL     1       3.852   3.242  -0.234  1.00  0.00     0.037 A 
HETATM   28  C19 UNL     1       4.789   4.250  -0.212  1.00  0.00     0.089 A 
HETATM   29  N6  UNL     1       5.952   4.050   0.425  1.00  0.00    -0.375 N 
HETATM   30  C20 UNL     1       6.217   2.895   1.037  1.00  0.00     0.089 A 
ATOM     31  H6  UNL     1       6.648   4.796   0.442  1.00  0.00     0.164 HD
HETATM   32  C21 UNL     1       5.294   1.884   1.024  1.00  0.00     0.037 A 
ENDBRANCH  25  26
ENDBRANCH  13  24
BRANCH   5  33
HETATM   33  N3  UNL     1      -2.894  -3.580   0.243  1.00  0.00    -0.384 N 
ATOM     34  H32 UNL     1      -3.190  -2.610   0.351  1.00  0.00     0.157 HD
ATOM     35  H31 UNL     1      -3.617  -4.299   0.211  1.00  0.00     0.157 HD
ENDBRANCH   5  33
TORSDOF 6
