REMARK  3 active torsions:
REMARK  status: ('A' for Active; 'I' for Inactive)
REMARK    1  A    between atoms: C6_9  and  N3_10 
REMARK    2  A    between atoms: N3_10  and  C7_12 
REMARK    3  A    between atoms: C10_19  and  C11_20 
ROOT
HETATM    1  N1  UNL     1       6.513  -2.557  -0.224  1.00  0.00    -0.191 NA
HETATM    2  C1  UNL     1       5.565  -1.915  -0.268  1.00  0.00     0.101 C 
HETATM    3  C2  UNL     1       4.387  -1.095  -0.324  1.00  0.00     0.060 A 
HETATM    4  C3  UNL     1       4.482   0.184  -0.840  1.00  0.00     0.028 A 
HETATM    5  C4  UNL     1       3.384   1.014  -0.916  1.00  0.00     0.051 A 
HETATM    6  C5  UNL     1       2.170   0.553  -0.467  1.00  0.00     0.112 A 
HETATM    7  N2  UNL     1       1.066   1.356  -0.529  1.00  0.00    -0.327 N 
ATOM      8  H2  UNL     1       1.164   2.295  -0.915  1.00  0.00     0.169 HD
HETATM    9  C6  UNL     1      -0.141   0.958  -0.103  1.00  0.00     0.120 A 
HETATM   10  C10 UNL     1      -0.278  -0.327   0.423  1.00  0.00     0.037 A 
HETATM   11  C17 UNL     1       0.882  -1.110   0.465  1.00  0.00     0.114 A 
HETATM   12  N9  UNL     1       2.075  -0.694   0.036  1.00  0.00    -0.317 N 
HETATM   13  C18 UNL     1       3.148  -1.511   0.113  1.00  0.00     0.120 A 
ENDROOT
BRANCH  10  14
HETATM   14  C11 UNL     1      -1.477  -0.886   0.913  1.00  0.00     0.011 A 
HETATM   15  C12 UNL     1      -2.344  -0.275   1.787  1.00  0.00     0.032 A 
HETATM   16  C13 UNL     1      -3.485  -0.916   2.206  1.00  0.00     0.090 A 
HETATM   17  N6  UNL     1      -3.786  -2.172   1.766  1.00  0.00    -0.350 N 
HETATM   18  C14 UNL     1      -2.967  -2.817   0.907  1.00  0.00     0.134 A 
ATOM     19  H6  UNL     1      -4.639  -2.629   2.089  1.00  0.00     0.166 HD
HETATM   20  N7  UNL     1      -3.034  -4.041   0.329  1.00  0.00    -0.337 N 
HETATM   21  C16 UNL     1      -1.814  -2.182   0.477  1.00  0.00     0.089 A 
HETATM   22  C15 UNL     1      -1.953  -4.186  -0.451  1.00  0.00     0.182 A 
ATOM     23  H7  UNL     1      -3.775  -4.729   0.463  1.00  0.00     0.168 HD
HETATM   24  N8  UNL     1      -1.224  -3.062  -0.356  1.00  0.00    -0.349 N 
ATOM     25  H8  UNL     1      -0.345  -2.897  -0.847  1.00  0.00     0.167 HD
ENDBRANCH  10  14
BRANCH   9  26
HETATM   26  N3  UNL     1      -1.200   1.639  -0.132  1.00  0.00    -0.339 N 
ATOM     27  H3  UNL     1      -2.022   1.162   0.239  1.00  0.00     0.167 HD
BRANCH  26  28
HETATM   28  C7  UNL     1      -1.437   2.936  -0.586  1.00  0.00     0.067 A 
HETATM   29  C8  UNL     1      -2.423   3.369  -1.449  1.00  0.00     0.138 A 
HETATM   30  N4  UNL     1      -2.307   4.706  -1.633  1.00  0.00    -0.310 N 
HETATM   31  N5  UNL     1      -1.265   5.140  -0.906  1.00  0.00    -0.310 N 
ATOM     32  H4  UNL     1      -2.907   5.283  -2.222  1.00  0.00     0.186 HD
HETATM   33  C9  UNL     1      -0.732   4.071  -0.268  1.00  0.00     0.138 A 
ATOM     34  H5  UNL     1      -0.934   6.103  -0.845  1.00  0.00     0.186 HD
ENDBRANCH  26  28
ENDBRANCH   9  26
TORSDOF 3
