REMARK  11 active torsions:
REMARK  status: ('A' for Active; 'I' for Inactive)
REMARK    1  A    between atoms: N1_2  and  C2_4 
REMARK    2  A    between atoms: C3_7  and  N3_8 
REMARK    3  A    between atoms: C7_12  and  N4_13 
REMARK    4  A    between atoms: C9_20  and  N6_21 
REMARK    5  A    between atoms: N6_21  and  C10_22 
REMARK    6  A    between atoms: N6_21  and  C19_39 
REMARK    7  A    between atoms: C12_26  and  O1_27 
REMARK    8  A    between atoms: C14_29  and  N8_30 
REMARK    9  A    between atoms: N8_30  and  C15_32 
REMARK   10  A    between atoms: C15_32  and  O2_33 
REMARK   11  A    between atoms: C15_32  and  N9_35 
ROOT
HETATM    1  N6  UNL     1       0.271  -2.554  -0.325  1.00  0.00     0.028 N 
ENDROOT
BRANCH   1   2
HETATM    2  C9  UNL     1      -0.976  -1.955  -0.575  1.00  0.00     0.733 A 
HETATM    3  N5  UNL     1      -1.484  -0.995   0.211  1.00  0.00    -0.020 N 
HETATM    4  C3  UNL     1      -2.707  -0.448  -0.024  1.00  0.00     0.709 A 
ATOM      5  H5  UNL     1      -0.938  -0.666   1.007  1.00  0.00     0.203 HD
HETATM    6  N2  UNL     1      -3.389  -0.922  -1.095  1.00  0.00    -0.021 N 
HETATM    7  C2  UNL     1      -2.940  -1.875  -1.916  1.00  0.00     0.706 A 
ATOM      8  H2  UNL     1      -4.308  -0.524  -1.287  1.00  0.00     0.203 HD
HETATM    9  N14 UNL     1      -1.727  -2.379  -1.636  1.00  0.00    -0.020 N 
ATOM     10  H14 UNL     1      -1.350  -3.109  -2.240  1.00  0.00     0.203 HD
BRANCH   4  11
HETATM   11  N3  UNL     1      -3.271   0.570   0.800  1.00  0.00    -0.215 N 
HETATM   12  C4  UNL     1      -2.590   1.169   1.904  1.00  0.00     0.141 C 
HETATM   13  C5  UNL     1      -3.338   2.396   2.360  1.00  0.00     0.022 C 
HETATM   14  C6  UNL     1      -3.861   3.237   1.219  1.00  0.00     0.036 C 
HETATM   15  C7  UNL     1      -4.729   2.486   0.263  1.00  0.00     0.202 C 
HETATM   16  C8  UNL     1      -4.624   1.014   0.505  1.00  0.00     0.173 C 
BRANCH  15  17
HETATM   17  N4  UNL     1      -4.404   2.873  -1.102  1.00  0.00    -0.073 N 
ATOM     18  H43 UNL     1      -4.464   3.882  -1.240  1.00  0.00     0.274 HD
ATOM     19  H42 UNL     1      -3.412   2.755  -1.309  1.00  0.00     0.274 HD
ATOM     20  H41 UNL     1      -4.997   2.360  -1.755  1.00  0.00     0.274 HD
ENDBRANCH  15  17
ENDBRANCH   4  11
BRANCH   7  21
HETATM   21  N1  UNL     1      -3.637  -2.311  -2.933  1.00  0.00    -0.229 N 
HETATM   22  C1  UNL     1      -4.938  -1.713  -3.145  1.00  0.00     0.165 C 
ATOM     23  H1  UNL     1      -3.280  -3.040  -3.550  1.00  0.00     0.177 HD
ENDBRANCH   7  21
ENDBRANCH   1   2
BRANCH   1  24
HETATM   24  C10 UNL     1       1.532  -2.028  -0.616  1.00  0.00     0.093 A 
HETATM   25  C11 UNL     1       2.482  -2.839  -1.206  1.00  0.00     0.121 A 
HETATM   26  N7  UNL     1       3.720  -2.418  -1.489  1.00  0.00    -0.343 N 
HETATM   27  C12 UNL     1       4.135  -1.170  -1.222  1.00  0.00     0.169 A 
ATOM     28  H7  UNL     1       4.373  -3.070  -1.924  1.00  0.00     0.167 HD
HETATM   29  C14 UNL     1       3.201  -0.316  -0.624  1.00  0.00     0.085 A 
HETATM   30  C18 UNL     1       1.912  -0.738  -0.324  1.00  0.00     0.066 A 
BRANCH  27  31
HETATM   31  O1  UNL     1       5.424  -0.720  -1.511  1.00  0.00    -0.339 OA
HETATM   32  C13 UNL     1       6.310  -1.658  -2.117  1.00  0.00     0.211 C 
ENDBRANCH  27  31
BRANCH  29  33
HETATM   33  N8  UNL     1       3.626   0.994  -0.316  1.00  0.00    -0.336 N 
ATOM     34  H8  UNL     1       4.589   1.276  -0.498  1.00  0.00     0.164 HD
BRANCH  33  35
HETATM   35  C15 UNL     1       2.692   1.932   0.257  1.00  0.00     0.464 C 
BRANCH  35  36
HETATM   36  O2  UNL     1       1.624   2.243  -0.553  1.00  0.00    -0.352 OA
ATOM     37  H2  UNL     1       1.009   2.861  -0.176  1.00  0.00     0.214 HD
ENDBRANCH  35  36
BRANCH  35  38
HETATM   38  N9  UNL     1       3.342   3.166   0.658  1.00  0.00     0.128 N 
HETATM   39  C16 UNL     1       3.975   3.745  -0.506  1.00  0.00     0.315 C 
HETATM   40  C17 UNL     1       4.361   2.895   1.647  1.00  0.00     0.315 C 
ENDBRANCH  35  38
ENDBRANCH  33  35
ENDBRANCH  29  33
ENDBRANCH   1  24
BRANCH   1  41
HETATM   41  C19 UNL     1       0.250  -3.860   0.299  1.00  0.00     0.737 A 
HETATM   42  N10 UNL     1       0.050  -4.987  -0.404  1.00  0.00    -0.114 N 
HETATM   43  N11 UNL     1       0.099  -5.978   0.451  1.00  0.00    -0.213 N 
ATOM     44  H10 UNL     1      -0.109  -5.057  -1.409  1.00  0.00     0.207 HD
HETATM   45  N12 UNL     1       0.321  -5.513   1.657  1.00  0.00    -0.211 N 
ATOM     46  H11 UNL     1      -0.018  -6.963   0.214  1.00  0.00     0.210 HD
HETATM   47  N13 UNL     1       0.415  -4.206   1.566  1.00  0.00    -0.110 N 
ATOM     48  H12 UNL     1       0.405  -6.066   2.510  1.00  0.00     0.210 HD
HETATM   49  C20 UNL     1       0.666  -3.295   2.659  1.00  0.00     0.199 C 
ENDBRANCH   1  41
TORSDOF 11
