REMARK  10 active torsions:
REMARK  status: ('A' for Active; 'I' for Inactive)
REMARK    1  A    between atoms: C2_2  and  C3_3 
REMARK    2  A    between atoms: C3_3  and  C5_5 
REMARK    3  A    between atoms: C5_5  and  O1_6 
REMARK    4  A    between atoms: O1_6  and  C6_7 
REMARK    5  A    between atoms: C6_7  and  C7_8 
REMARK    6  A    between atoms: C6_7  and  C8_13 
REMARK    7  A    between atoms: C7_8  and  N1_9 
REMARK    8  A    between atoms: C8_13  and  C9_14 
REMARK    9  A    between atoms: C9_14  and  O2_15 
REMARK   10  A    between atoms: O2_15  and  C10_16 
ROOT
HETATM    1  C6  UNL     1       0.097  -1.523   1.073  1.00  0.00     0.148 C 
ENDROOT
BRANCH   1   2
HETATM    2  O1  UNL     1      -0.816  -0.762   0.374  1.00  0.00    -0.384 OA
BRANCH   2   3
HETATM    3  C5  UNL     1      -0.773   0.583   0.644  1.00  0.00     0.172 C 
BRANCH   3   4
HETATM    4  C3  UNL     1      -1.855   1.239  -0.225  1.00  0.00     0.005 C 
HETATM    5  C4  UNL     1      -1.865   2.722  -0.091  1.00  0.00     0.012 C 
BRANCH   4   6
HETATM    6  C2  UNL     1      -3.174   0.597   0.201  1.00  0.00     0.002 C 
HETATM    7  C1  UNL     1      -4.324   1.090  -0.620  1.00  0.00     0.005 C 
ENDBRANCH   4   6
ENDBRANCH   3   4
ENDBRANCH   2   3
ENDBRANCH   1   2
BRANCH   1   8
HETATM    8  C7  UNL     1      -0.724  -2.570   1.842  1.00  0.00     0.261 C 
BRANCH   8   9
HETATM    9  N1  UNL     1      -1.433  -3.328   0.835  1.00  0.00    -0.077 N 
ATOM     10  H13 UNL     1      -1.992  -2.751   0.207  1.00  0.00     0.274 HD
ATOM     11  H12 UNL     1      -0.824  -3.729   0.121  1.00  0.00     0.274 HD
ATOM     12  H11 UNL     1      -1.978  -4.023   1.345  1.00  0.00     0.274 HD
ENDBRANCH   8   9
ENDBRANCH   1   8
BRANCH   1  13
HETATM   13  C8  UNL     1       0.903  -2.318   0.055  1.00  0.00     0.060 C 
BRANCH  13  14
HETATM   14  C9  UNL     1       1.628  -1.384  -0.898  1.00  0.00     0.180 C 
BRANCH  14  15
HETATM   15  O2  UNL     1       2.490  -0.579  -0.117  1.00  0.00    -0.336 OA
BRANCH  15  16
HETATM   16  C10 UNL     1       3.309   0.393  -0.670  1.00  0.00     0.141 A 
HETATM   17  C11 UNL     1       3.439   0.747  -1.995  1.00  0.00     0.057 A 
HETATM   18  C12 UNL     1       4.375   1.775  -2.110  1.00  0.00     0.021 A 
HETATM   19  C13 UNL     1       4.791   2.014  -0.806  1.00  0.00     0.090 A 
HETATM   20  N2  UNL     1       4.141   1.179   0.032  1.00  0.00    -0.347 N 
ATOM     21  H2  UNL     1       4.263   1.150   1.044  1.00  0.00     0.167 HD
ENDBRANCH  15  16
ENDBRANCH  14  15
ENDBRANCH  13  14
ENDBRANCH   1  13
TORSDOF 10
