REMARK  10 active torsions:
REMARK  status: ('A' for Active; 'I' for Inactive)
REMARK    1  A    between atoms: C2_2  and  C3_3 
REMARK    2  A    between atoms: C2_2  and  N1_7 
REMARK    3  A    between atoms: C3_3  and  C4_4 
REMARK    4  A    between atoms: N1_7  and  C6_9 
REMARK    5  A    between atoms: C6_9  and  C7_10 
REMARK    6  A    between atoms: C7_10  and  C8_11 
REMARK    7  A    between atoms: C8_11  and  N2_12 
REMARK    8  A    between atoms: N2_12  and  C9_15 
REMARK    9  A    between atoms: C9_15  and  C10_16 
REMARK   10  A    between atoms: C10_16  and  C11_17 
ROOT
HETATM    1  C8  UNL     1       0.326  -1.143   0.265  1.00  0.00     0.234 C 
ENDROOT
BRANCH   1   2
HETATM    2  C7  UNL     1      -1.039  -1.600   0.809  1.00  0.00     0.046 C 
BRANCH   2   3
HETATM    3  C6  UNL     1      -2.131  -0.913   0.044  1.00  0.00     0.115 C 
BRANCH   3   4
HETATM    4  N1  UNL     1      -3.403  -1.316   0.526  1.00  0.00    -0.417 N 
ATOM      5  H1  UNL     1      -3.492  -1.982   1.294  1.00  0.00     0.153 HD
BRANCH   4   6
HETATM    6  C2  UNL     1      -4.542  -0.759  -0.099  1.00  0.00     0.075 C 
HETATM    7  C1  UNL     1      -4.730  -1.066  -1.547  1.00  0.00     0.032 C 
BRANCH   6   8
HETATM    8  C3  UNL     1      -4.585   0.737   0.106  1.00  0.00     0.058 C 
BRANCH   8   9
HETATM    9  C4  UNL     1      -5.913   1.321  -0.338  1.00  0.00     0.147 A 
HETATM   10  C5  UNL     1      -5.990   2.822  -0.143  1.00  0.00     0.200 A 
HETATM   11  O1  UNL     1      -6.731   1.926   0.618  1.00  0.00    -0.381 OA
ENDBRANCH   8   9
ENDBRANCH   6   8
ENDBRANCH   4   6
ENDBRANCH   3   4
ENDBRANCH   2   3
ENDBRANCH   1   2
BRANCH   1  12
HETATM   12  N2  UNL     1       1.323  -1.826   1.027  1.00  0.00    -0.075 N 
ATOM     13  H22 UNL     1       1.217  -1.642   2.025  1.00  0.00     0.277 HD
ATOM     14  H21 UNL     1       1.160  -2.833   1.031  1.00  0.00     0.277 HD
BRANCH  12  15
HETATM   15  C9  UNL     1       2.649  -1.515   0.578  1.00  0.00     0.232 C 
BRANCH  15  16
HETATM   16  C10 UNL     1       3.028  -0.084   0.870  1.00  0.00     0.032 C 
BRANCH  16  17
HETATM   17  C11 UNL     1       4.433   0.219   0.410  1.00  0.00    -0.013 C 
HETATM   18  C12 UNL     1       4.612   0.014  -1.067  1.00  0.00     0.005 C 
HETATM   19  C13 UNL     1       5.830   0.837  -1.449  1.00  0.00     0.000 C 
HETATM   20  C14 UNL     1       6.164   1.652  -0.211  1.00  0.00     0.000 C 
HETATM   21  C15 UNL     1       4.847   1.642   0.582  1.00  0.00     0.005 C 
ENDBRANCH  16  17
ENDBRANCH  15  16
ENDBRANCH  12  15
ENDBRANCH   1  12
TORSDOF 10
