REMARK  14 active torsions:
REMARK  status: ('A' for Active; 'I' for Inactive)
REMARK    1  A    between atoms: C2_2  and  C3_3 
REMARK    2  A    between atoms: C2_2  and  C4_9 
REMARK       I    between atoms: C3_3  and  N1_5 
REMARK    3  A    between atoms: N1_5  and  O2_7 
REMARK    4  A    between atoms: C7_12  and  C8_13 
REMARK    5  A    between atoms: N2_15  and  C10_16 
REMARK    6  A    between atoms: C10_16  and  C11_17 
REMARK    7  A    between atoms: C12_20  and  C13_21 
REMARK    8  A    between atoms: C13_21  and  N4_22 
REMARK    9  A    between atoms: N4_22  and  N5_23 
REMARK       I    between atoms: N5_23  and  C14_24 
REMARK       I    between atoms: C14_24  and  N7_26 
REMARK   10  A    between atoms: N7_26  and  S1_28 
REMARK   11  A    between atoms: S1_28  and  N8_29 
REMARK   12  A    between atoms: C15_34  and  C16_35 
REMARK   13  A    between atoms: C16_35  and  O5_36 
REMARK   14  A    between atoms: C18_44  and  O7_45 
ROOT
HETATM    1  C8  UNL     1      -2.701   0.126  -1.254  1.00  0.00     0.076 A 
HETATM    2  C9  UNL     1      -1.696  -0.770  -1.108  1.00  0.00     0.144 A 
HETATM    3  N2  UNL     1      -0.829  -0.617  -2.167  1.00  0.00    -0.279 N 
HETATM    4  N9  UNL     1      -1.355   0.369  -2.888  1.00  0.00    -0.240 N 
ATOM      5  H9  UNL     1      -0.943   0.732  -3.748  1.00  0.00     0.208 HD
HETATM    6  N10 UNL     1      -2.459   0.815  -2.364  1.00  0.00    -0.284 N 
ATOM      7  H10 UNL     1      -3.039   1.565  -2.741  1.00  0.00     0.188 HD
ENDROOT
BRANCH   3   8
HETATM    8  C10 UNL     1       0.311  -1.441  -2.413  1.00  0.00     0.234 C 
BRANCH   8   9
HETATM    9  C11 UNL     1       1.554  -0.993  -1.783  1.00  0.00     0.144 A 
HETATM   10  N3  UNL     1       1.934  -1.317  -0.531  1.00  0.00    -0.335 N 
HETATM   11  C12 UNL     1       3.150  -0.743  -0.266  1.00  0.00     0.098 A 
ATOM     12  H3  UNL     1       1.401  -1.897   0.117  1.00  0.00     0.168 HD
HETATM   13  C15 UNL     1       3.481  -0.064  -1.400  1.00  0.00     0.107 A 
HETATM   14  O6  UNL     1       2.514  -0.237  -2.263  1.00  0.00    -0.296 OA
BRANCH  11  15
HETATM   15  C13 UNL     1       3.907  -0.971   0.965  1.00  0.00     0.257 C 
BRANCH  15  16
HETATM   16  N4  UNL     1       5.052  -0.713   1.295  1.00  0.00    -0.256 NA
BRANCH  16  17
HETATM   17  N5  UNL     1       6.227  -0.308   1.281  1.00  0.00    -0.213 NA
HETATM   18  C14 UNL     1       7.362   0.070   1.253  1.00  0.00     0.315 C 
HETATM   19  N6  UNL     1       7.879   1.034   2.150  1.00  0.00    -0.045 NA
HETATM   20  N7  UNL     1       8.287  -0.447   0.261  1.00  0.00    -0.227 N 
ATOM     21  H7  UNL     1       8.004  -1.236  -0.320  1.00  0.00     0.184 HD
BRANCH  20  22
HETATM   22  S1  UNL     1       9.844   0.238   0.043  1.00  0.00     0.320 S 
HETATM   23  O3  UNL     1       9.934   1.517   0.874  1.00  0.00    -0.183 OA
HETATM   24  O4  UNL     1      10.095   0.568  -1.414  1.00  0.00    -0.183 OA
BRANCH  22  25
HETATM   25  N8  UNL     1      11.033  -0.873   0.604  1.00  0.00    -0.311 N 
ATOM     26  H82 UNL     1      10.828  -1.790   1.001  1.00  0.00     0.170 HD
ATOM     27  H81 UNL     1      11.959  -0.466   0.474  1.00  0.00     0.170 HD
ENDBRANCH  22  25
ENDBRANCH  20  22
ENDBRANCH  16  17
ENDBRANCH  15  16
ENDBRANCH  11  15
BRANCH  13  28
HETATM   28  C16 UNL     1       4.706   0.749  -1.679  1.00  0.00     0.231 C 
BRANCH  28  29
HETATM   29  O5  UNL     1       4.587   1.301  -2.949  1.00  0.00    -0.394 OA
ATOM     30  H5  UNL     1       5.365   1.817  -3.126  1.00  0.00     0.209 HD
ENDBRANCH  28  29
ENDBRANCH  13  28
ENDBRANCH   8   9
ENDBRANCH   3   8
BRANCH   1  31
HETATM   31  C7  UNL     1      -3.867   0.167  -0.414  1.00  0.00    -0.004 A 
HETATM   32  C6  UNL     1      -4.990   0.794  -0.882  1.00  0.00     0.014 A 
HETATM   33  C5  UNL     1      -6.165   0.817  -0.123  1.00  0.00     0.012 A 
HETATM   34  C4  UNL     1      -6.254   0.225   1.108  1.00  0.00    -0.012 A 
HETATM   35  C18 UNL     1      -5.092  -0.408   1.576  1.00  0.00     0.073 A 
HETATM   36  C17 UNL     1      -3.953  -0.422   0.821  1.00  0.00     0.051 A 
BRANCH  34  37
HETATM   37  C2  UNL     1      -7.443   0.318   1.920  1.00  0.00     0.111 C 
HETATM   38  C1  UNL     1      -8.219  -0.991   2.020  1.00  0.00     0.025 C 
BRANCH  37  39
HETATM   39  C3  UNL     1      -8.463   1.134   1.068  1.00  0.00     0.249 C 
HETATM   40  O1  UNL     1      -8.809   2.252   1.420  1.00  0.00    -0.271 OA
HETATM   41  N1  UNL     1      -8.925   0.479  -0.094  1.00  0.00    -0.237 N 
ATOM     42  H1  UNL     1      -8.571  -0.456  -0.297  1.00  0.00     0.197 HD
BRANCH  41  43
HETATM   43  O2  UNL     1      -9.825   1.037  -0.961  1.00  0.00    -0.287 OA
ATOM     44  H2  UNL     1     -10.136   0.596  -1.743  1.00  0.00     0.244 HD
ENDBRANCH  41  43
ENDBRANCH  37  39
ENDBRANCH  34  37
BRANCH  35  45
HETATM   45  O7  UNL     1      -5.187  -0.991   2.810  1.00  0.00    -0.360 OA
ATOM     46  H7  UNL     1      -4.400  -1.419   3.127  1.00  0.00     0.217 HD
ENDBRANCH  35  45
ENDBRANCH   1  31
TORSDOF 14
