REMARK  11 active torsions:
REMARK  status: ('A' for Active; 'I' for Inactive)
REMARK    1  A    between atoms: C3_3  and  C4_4 
REMARK    2  A    between atoms: C4_4  and  N1_5 
REMARK    3  A    between atoms: N1_5  and  C5_7 
REMARK    4  A    between atoms: C5_7  and  C6_8 
REMARK    5  A    between atoms: C11_16  and  N3_17 
REMARK    6  A    between atoms: C12_20  and  N4_21 
REMARK       I    between atoms: N4_21  and  C13_23 
REMARK    7  A    between atoms: C13_23  and  C14_25 
REMARK    8  A    between atoms: N6_28  and  C15_29 
REMARK    9  A    between atoms: C16_35  and  N9_36 
REMARK   10  A    between atoms: C17_41  and  C18_42 
REMARK   11  A    between atoms: C18_42  and  O4_45 
ROOT
HETATM    1  C1  UNL     1       9.176   2.115   2.934  1.00  0.00     0.012 C 
HETATM    2  C2  UNL     1       8.086   1.660   2.704  1.00  0.00    -0.116 C 
HETATM    3  C3  UNL     1       6.754   1.076   2.420  1.00  0.00     0.112 C 
ENDROOT
BRANCH   3   4
HETATM    4  C4  UNL     1       6.901   0.246   1.186  1.00  0.00     0.126 C 
BRANCH   4   5
HETATM    5  N1  UNL     1       5.713  -0.404   0.751  1.00  0.00    -0.418 N 
ATOM      6  H1  UNL     1       5.608  -1.418   0.789  1.00  0.00     0.153 HD
BRANCH   5   7
HETATM    7  C5  UNL     1       4.676   0.443   0.258  1.00  0.00     0.145 C 
BRANCH   7   8
HETATM    8  C6  UNL     1       3.497  -0.428  -0.163  1.00  0.00     0.139 C 
HETATM    9  C7  UNL     1       2.355   0.376  -0.698  1.00  0.00     0.038 C 
HETATM   10  C8  UNL     1       1.015  -0.337  -0.470  1.00  0.00     0.046 C 
HETATM   11  C9  UNL     1       0.950  -1.535  -1.342  1.00  0.00    -0.000 A 
HETATM   12  C10 UNL     1       1.927  -2.472  -1.579  1.00  0.00     0.065 A 
HETATM   13  C12 UNL     1      -0.274  -1.647  -1.957  1.00  0.00     0.097 A 
HETATM   14  N2  UNL     1       1.651  -3.484  -2.417  1.00  0.00    -0.261 N 
HETATM   15  C21 UNL     1       3.306  -2.532  -1.018  1.00  0.00     0.227 C 
HETATM   16  O1  UNL     1       0.501  -3.594  -2.998  1.00  0.00    -0.218 OA
ATOM     17  H2  UNL     1       2.368  -4.186  -2.600  1.00  0.00     0.194 HD
HETATM   18  C11 UNL     1      -0.456  -2.727  -2.802  1.00  0.00     0.191 A 
HETATM   19  O5  UNL     1       3.947  -1.286  -1.154  1.00  0.00    -0.378 OA
BRANCH  18  20
HETATM   20  N3  UNL     1      -1.579  -2.860  -3.388  1.00  0.00    -0.376 N 
ATOM     21  H32 UNL     1      -1.713  -3.656  -4.011  1.00  0.00     0.158 HD
ATOM     22  H31 UNL     1      -2.326  -2.183  -3.235  1.00  0.00     0.158 HD
ENDBRANCH  18  20
BRANCH  13  23
HETATM   23  N4  UNL     1      -1.281  -0.688  -1.715  1.00  0.00    -0.317 N 
HETATM   24  C13 UNL     1      -2.214  -0.865  -0.640  1.00  0.00     0.276 C 
HETATM   25  O2  UNL     1      -2.078  -1.898   0.051  1.00  0.00    -0.266 OA
ATOM     26  H4  UNL     1      -1.346   0.138  -2.310  1.00  0.00     0.169 HD
BRANCH  24  27
HETATM   27  C14 UNL     1      -3.245   0.112  -0.391  1.00  0.00     0.145 A 
HETATM   28  N5  UNL     1      -3.437   1.234  -1.108  1.00  0.00    -0.271 N 
HETATM   29  N6  UNL     1      -4.472   1.905  -0.614  1.00  0.00    -0.173 N 
ATOM     30  H5  UNL     1      -2.875   1.525  -1.908  1.00  0.00     0.189 HD
HETATM   31  N10 UNL     1      -4.934   1.230   0.396  1.00  0.00    -0.276 N 
HETATM   32  C17 UNL     1      -4.203   0.099   0.580  1.00  0.00     0.095 A 
ATOM     33  H10 UNL     1      -5.731   1.509   0.968  1.00  0.00     0.189 HD
BRANCH  29  34
HETATM   34  C15 UNL     1      -5.019   3.144  -1.070  1.00  0.00     0.212 A 
HETATM   35  N7  UNL     1      -4.743   4.394  -0.663  1.00  0.00    -0.219 N 
HETATM   36  O3  UNL     1      -5.457   5.230  -1.333  1.00  0.00    -0.153 OA
ATOM     37  H7  UNL     1      -4.072   4.642   0.064  1.00  0.00     0.198 HD
HETATM   38  N8  UNL     1      -6.217   4.639  -2.184  1.00  0.00    -0.222 N 
HETATM   39  C16 UNL     1      -5.980   3.302  -2.062  1.00  0.00     0.171 A 
ATOM     40  H8  UNL     1      -6.872   5.084  -2.827  1.00  0.00     0.198 HD
BRANCH  39  41
HETATM   41  N9  UNL     1      -6.553   2.386  -2.748  1.00  0.00    -0.381 N 
ATOM     42  H92 UNL     1      -6.376   1.386  -2.657  1.00  0.00     0.157 HD
ATOM     43  H91 UNL     1      -7.258   2.502  -3.476  1.00  0.00     0.157 HD
ENDBRANCH  39  41
ENDBRANCH  29  34
BRANCH  32  44
HETATM   44  C18 UNL     1      -4.471  -0.872   1.643  1.00  0.00     0.097 C 
HETATM   45  C19 UNL     1      -5.750  -0.427   2.378  1.00  0.00     0.052 C 
HETATM   46  C20 UNL     1      -3.398  -1.023   2.662  1.00  0.00     0.052 C 
BRANCH  44  47
HETATM   47  O4  UNL     1      -4.738  -2.103   1.029  1.00  0.00    -0.384 OA
ATOM     48  H4  UNL     1      -4.912  -2.733   1.719  1.00  0.00     0.211 HD
ENDBRANCH  44  47
ENDBRANCH  32  44
ENDBRANCH  24  27
ENDBRANCH  13  23
ENDBRANCH   7   8
ENDBRANCH   5   7
ENDBRANCH   4   5
ENDBRANCH   3   4
TORSDOF 11
