REMARK  9 active torsions:
REMARK  status: ('A' for Active; 'I' for Inactive)
REMARK    1  A    between atoms: C3_7  and  S1_8 
REMARK    2  A    between atoms: S1_8  and  C4_9 
REMARK    3  A    between atoms: C4_9  and  C5_10 
REMARK    4  A    between atoms: C6_11  and  C7_12 
REMARK    5  A    between atoms: C8_16  and  C9_17 
REMARK    6  A    between atoms: C10_20  and  S2_21 
REMARK    7  A    between atoms: S2_21  and  S3_22 
REMARK    8  A    between atoms: S3_22  and  C11_23 
REMARK    9  A    between atoms: N6_28  and  O5_29 
ROOT
HETATM    1  C5  UNL     1       1.254  -1.747  -1.130  1.00  0.00     0.025 C 
HETATM    2  C6  UNL     1       1.026  -0.460  -1.266  1.00  0.00     0.128 C 
HETATM    3  N3  UNL     1      -0.158   0.001  -0.602  1.00  0.00    -0.302 N 
HETATM    4  C8  UNL     1      -1.237   0.792  -1.043  1.00  0.00     0.150 C 
HETATM    5  C10 UNL     1      -2.073   1.329  -0.151  1.00  0.00     0.127 C 
HETATM    6  N7  UNL     1      -1.869   0.956   1.200  1.00  0.00    -0.292 N 
ATOM      7  H7  UNL     1      -2.087   1.604   1.957  1.00  0.00     0.183 HD
HETATM    8  N8  UNL     1      -1.352  -0.344   1.480  1.00  0.00    -0.103 NA
HETATM    9  C12 UNL     1      -0.151  -0.543   0.772  1.00  0.00     0.272 C 
HETATM   10  S4  UNL     1       0.039  -2.284   0.155  1.00  0.00    -0.086 SA
ENDROOT
BRANCH   1  11
HETATM   11  C4  UNL     1       2.219  -2.691  -1.651  1.00  0.00     0.130 C 
BRANCH  11  12
HETATM   12  S1  UNL     1       3.187  -3.470  -0.293  1.00  0.00    -0.098 SA
BRANCH  12  13
HETATM   13  C3  UNL     1       4.219  -2.247   0.522  1.00  0.00     0.128 A 
HETATM   14  N2  UNL     1       5.461  -1.873   0.237  1.00  0.00    -0.287 N 
HETATM   15  N1  UNL     1       6.034  -0.990   0.931  1.00  0.00    -0.297 N 
ATOM     16  H2  UNL     1       5.953  -2.302  -0.547  1.00  0.00     0.188 HD
HETATM   17  C2  UNL     1       5.391  -0.432   1.950  1.00  0.00     0.065 A 
ATOM     18  H1  UNL     1       6.988  -0.705   0.710  1.00  0.00     0.187 HD
HETATM   19  C1  UNL     1       5.906   0.631   2.888  1.00  0.00     0.078 C 
HETATM   20  S5  UNL     1       3.888  -1.240   1.881  1.00  0.00    -0.050 SA
ENDBRANCH  12  13
ENDBRANCH  11  12
ENDBRANCH   1  11
BRANCH   2  21
HETATM   21  C7  UNL     1       1.813   0.450  -2.086  1.00  0.00     0.228 C 
HETATM   22  O1  UNL     1       1.610   1.711  -2.163  1.00  0.00    -0.643 OA
HETATM   23  O2  UNL     1       2.872  -0.080  -2.851  1.00  0.00    -0.643 OA
ENDBRANCH   2  21
BRANCH   4  24
HETATM   24  C9  UNL     1      -1.525   1.036  -2.450  1.00  0.00     0.230 C 
HETATM   25  O3  UNL     1      -2.504   1.807  -2.727  1.00  0.00    -0.643 OA
HETATM   26  O4  UNL     1      -0.856   0.511  -3.510  1.00  0.00    -0.643 OA
ENDBRANCH   4  24
BRANCH   5  27
HETATM   27  S2  UNL     1      -3.439   2.343  -0.633  1.00  0.00    -0.028 SA
BRANCH  27  28
HETATM   28  S3  UNL     1      -4.656   2.872   1.013  1.00  0.00    -0.009 SA
BRANCH  28  29
HETATM   29  C11 UNL     1      -5.929   1.632   1.211  1.00  0.00     0.218 A 
HETATM   30  N4  UNL     1      -6.968   1.404   2.045  1.00  0.00    -0.259 N 
HETATM   31  N5  UNL     1      -7.283   0.283   1.393  1.00  0.00    -0.212 N 
ATOM     32  H4  UNL     1      -7.356   1.894   2.851  1.00  0.00     0.191 HD
HETATM   33  N6  UNL     1      -6.269   0.507   0.580  1.00  0.00    -0.122 N 
ATOM     34  H5  UNL     1      -8.000  -0.437   1.484  1.00  0.00     0.211 HD
BRANCH  33  35
HETATM   35  O5  UNL     1      -5.778  -0.192  -0.509  1.00  0.00    -0.265 OA
ATOM     36  H5  UNL     1      -6.020  -0.993  -0.958  1.00  0.00     0.247 HD
ENDBRANCH  33  35
ENDBRANCH  28  29
ENDBRANCH  27  28
ENDBRANCH   5  27
TORSDOF 9
