REMARK  7 active torsions:
REMARK  status: ('A' for Active; 'I' for Inactive)
REMARK    1  A    between atoms: C2_2  and  C4_4 
REMARK    2  A    between atoms: C4_4  and  C5_5 
REMARK    3  A    between atoms: C5_5  and  O1_6 
REMARK    4  A    between atoms: C5_5  and  C6_8 
REMARK    5  A    between atoms: C6_8  and  C8_10 
REMARK    6  A    between atoms: C8_10  and  O2_11 
REMARK    7  A    between atoms: C8_10  and  C9_13 
ROOT
HETATM    1  C6  UNL     1       0.617   0.348  -0.245  1.00  0.00     0.042 C 
HETATM    2  C7  UNL     1       0.851  -0.539  -1.397  1.00  0.00     0.015 C 
ENDROOT
BRANCH   1   3
HETATM    3  C5  UNL     1      -0.648   0.071   0.498  1.00  0.00     0.124 C 
BRANCH   3   4
HETATM    4  C4  UNL     1      -1.811   0.264  -0.430  1.00  0.00     0.036 C 
BRANCH   4   5
HETATM    5  C2  UNL     1      -3.163   0.162   0.236  1.00  0.00    -0.020 C 
HETATM    6  C1  UNL     1      -3.308  -1.210   0.843  1.00  0.00     0.009 C 
HETATM    7  C3  UNL     1      -4.202   0.269  -0.871  1.00  0.00     0.009 C 
ENDBRANCH   4   5
ENDBRANCH   3   4
BRANCH   3   8
HETATM    8  O1  UNL     1      -0.707  -1.205   1.054  1.00  0.00    -0.395 OA
ATOM      9  H1  UNL     1       0.029  -1.327   1.642  1.00  0.00     0.210 HD
ENDBRANCH   3   8
ENDBRANCH   1   3
BRANCH   1  10
HETATM   10  C8  UNL     1       1.826   0.354   0.667  1.00  0.00     0.165 C 
BRANCH  10  11
HETATM   11  O2  UNL     1       1.666   1.346   1.656  1.00  0.00    -0.392 OA
ATOM     12  H2  UNL     1       2.424   1.350   2.228  1.00  0.00     0.210 HD
ENDBRANCH  10  11
BRANCH  10  13
HETATM   13  C9  UNL     1       3.024   0.808  -0.133  1.00  0.00     0.278 C 
HETATM   14  N1  UNL     1       4.225   0.975   0.698  1.00  0.00    -0.051 N 
HETATM   15  C10 UNL     1       4.640  -0.384   0.504  1.00  0.00     0.309 C 
ATOM     16  H12 UNL     1       4.878   1.724   0.470  1.00  0.00     0.279 HD
ATOM     17  H11 UNL     1       4.117   1.323   1.651  1.00  0.00     0.279 HD
HETATM   18  S1  UNL     1       3.856  -0.477  -1.108  1.00  0.00    -0.106 SA
ENDBRANCH  10  13
ENDBRANCH   1  10
TORSDOF 7
