REMARK  7 active torsions:
REMARK  status: ('A' for Active; 'I' for Inactive)
REMARK    1  A    between atoms: C2_2  and  C3_3 
REMARK    2  A    between atoms: C3_3  and  O1_4 
REMARK    3  A    between atoms: O1_4  and  C4_5 
REMARK    4  A    between atoms: C6_10  and  C7_11 
REMARK    5  A    between atoms: C9_13  and  C10_14 
REMARK    6  A    between atoms: C10_14  and  O2_15 
REMARK    7  A    between atoms: C10_14  and  O3_17 
ROOT
HETATM    1  C4  UNL     1      -0.731   0.092   0.326  1.00  0.00     0.285 C 
HETATM    2  C5  UNL     1      -0.268   1.271   1.132  1.00  0.00     0.293 C 
HETATM    3  N1  UNL     1       0.821   1.906   0.438  1.00  0.00    -0.064 N 
ATOM      4  H11 UNL     1       1.074   2.815   0.825  1.00  0.00     0.277 HD
ATOM      5  H12 UNL     1       0.572   2.233  -0.496  1.00  0.00     0.277 HD
HETATM    6  C6  UNL     1       1.929   0.937   0.444  1.00  0.00     0.219 C 
HETATM    7  C9  UNL     1       1.487  -0.244  -0.347  1.00  0.00     0.209 C 
HETATM    8  O4  UNL     1       0.159  -0.367  -0.598  1.00  0.00    -0.347 OA
ENDROOT
BRANCH   7   9
HETATM    9  C10 UNL     1       2.040  -1.553   0.214  1.00  0.00     0.284 C 
BRANCH   9  10
HETATM   10  O2  UNL     1       1.860  -2.597  -0.690  1.00  0.00    -0.369 OA
ATOM     11  H2  UNL     1       2.204  -3.411  -0.341  1.00  0.00     0.212 HD
ENDBRANCH   9  10
BRANCH   9  12
HETATM   12  O3  UNL     1       1.347  -1.878   1.375  1.00  0.00    -0.369 OA
ATOM     13  H3  UNL     1       1.691  -2.692   1.724  1.00  0.00     0.212 HD
ENDBRANCH   9  12
ENDBRANCH   7   9
BRANCH   6  14
HETATM   14  C7  UNL     1       3.090   1.661  -0.211  1.00  0.00     0.031 C 
HETATM   15  C8  UNL     1       4.329   0.821  -0.296  1.00  0.00     0.007 C 
ENDBRANCH   6  14
BRANCH   1  16
HETATM   16  O1  UNL     1      -1.924   0.373  -0.367  1.00  0.00    -0.360 OA
BRANCH  16  17
HETATM   17  C3  UNL     1      -2.967  -0.445   0.027  1.00  0.00     0.170 C 
BRANCH  17  18
HETATM   18  C2  UNL     1      -4.196  -0.072  -0.766  1.00  0.00     0.022 C 
HETATM   19  C1  UNL     1      -5.370  -0.933  -0.378  1.00  0.00     0.007 C 
ENDBRANCH  17  18
ENDBRANCH  16  17
ENDBRANCH   1  16
TORSDOF 7
