REMARK  8 active torsions:
REMARK  status: ('A' for Active; 'I' for Inactive)
REMARK    1  A    between atoms: C3_3  and  C4_4 
REMARK    2  A    between atoms: C4_4  and  N1_5 
REMARK    3  A    between atoms: C5_6  and  C6_7 
REMARK    4  A    between atoms: C6_7  and  O1_8 
REMARK    5  A    between atoms: C6_7  and  C7_10 
REMARK    6  A    between atoms: C6_7  and  C8_13 
REMARK    7  A    between atoms: C11_16  and  O2_17 
REMARK    8  A    between atoms: C12_19  and  N2_20 
ROOT
HETATM    1  C1  UNL     1       2.927  -0.667  -2.122  1.00  0.00     0.050 C 
HETATM    2  C2  UNL     1       3.617  -0.255  -0.828  1.00  0.00    -0.040 A 
HETATM    3  C3  UNL     1       3.174  -0.729   0.355  1.00  0.00     0.008 A 
HETATM    4  S1  UNL     1       4.293   0.050   1.464  1.00  0.00    -0.096 SA
HETATM    5  C21 UNL     1       5.238   0.917   0.360  1.00  0.00    -0.009 A 
HETATM    6  C22 UNL     1       4.670   0.587  -0.843  1.00  0.00    -0.038 A 
HETATM    7  C23 UNL     1       5.380   1.277  -2.003  1.00  0.00     0.041 C 
HETATM    8  C24 UNL     1       5.335   2.758  -1.632  1.00  0.00     0.024 C 
HETATM    9  C25 UNL     1       6.267   3.026  -0.481  1.00  0.00     0.098 C 
HETATM   10  C26 UNL     1       7.570   3.466  -1.022  1.00  0.00     0.064 C 
HETATM   11  N4  UNL     1       8.588   3.804  -1.465  1.00  0.00    -0.197 NA
HETATM   12  C27 UNL     1       6.423   1.857   0.431  1.00  0.00     0.066 C 
ENDROOT
BRANCH   3  13
HETATM   13  C4  UNL     1       2.110  -1.656   0.819  1.00  0.00     0.179 C 
BRANCH  13  14
HETATM   14  N1  UNL     1       0.768  -1.208   0.781  1.00  0.00    -0.306 N 
HETATM   15  C5  UNL     1      -0.157  -1.677  -0.082  1.00  0.00     0.091 A 
HETATM   16  C11 UNL     1      -1.405  -1.007  -0.031  1.00  0.00     0.120 A 
HETATM   17  C12 UNL     1      -1.659   0.035   0.829  1.00  0.00     0.093 A 
HETATM   18  C19 UNL     1      -0.687   0.477   1.694  1.00  0.00     0.131 A 
HETATM   19 CL1  UNL     1      -0.999   1.800   2.794  1.00  0.00    -0.076 Cl
HETATM   20  C20 UNL     1       0.511  -0.170   1.640  1.00  0.00     0.272 A 
HETATM   21  O3  UNL     1       1.423   0.200   2.413  1.00  0.00    -0.266 OA
BRANCH  15  22
HETATM   22  C6  UNL     1      -0.111  -2.819  -0.935  1.00  0.00     0.165 C 
BRANCH  22  23
HETATM   23  O1  UNL     1       1.064  -3.512  -1.131  1.00  0.00    -0.377 OA
ATOM     24  H1  UNL     1       1.095  -4.273  -1.699  1.00  0.00     0.211 HD
ENDBRANCH  22  23
BRANCH  22  25
HETATM   25  C7  UNL     1      -0.780  -2.680  -2.276  1.00  0.00     0.393 C 
HETATM   26  F1  UNL     1      -0.333  -1.664  -3.073  1.00  0.00    -0.211 F 
HETATM   27  F2  UNL     1      -0.362  -3.841  -3.064  1.00  0.00    -0.211 F 
ENDBRANCH  22  25
BRANCH  22  28
HETATM   28  C8  UNL     1      -0.957  -3.989  -0.288  1.00  0.00     0.032 A 
HETATM   29  C9  UNL     1      -0.444  -4.478   1.048  1.00  0.00     0.009 A 
HETATM   30  C10 UNL     1      -1.799  -3.854   0.863  1.00  0.00     0.009 A 
ENDBRANCH  22  28
ENDBRANCH  15  22
BRANCH  16  31
HETATM   31  O2  UNL     1      -2.476  -1.339  -0.841  1.00  0.00    -0.357 OA
ATOM     32  H2  UNL     1      -3.312  -0.890  -0.807  1.00  0.00     0.218 HD
ENDBRANCH  16  31
BRANCH  17  33
HETATM   33  N2  UNL     1      -2.928   0.689   0.844  1.00  0.00    -0.375 N 
HETATM   34  C13 UNL     1      -2.928   1.818  -0.095  1.00  0.00     0.125 C 
HETATM   35  C14 UNL     1      -4.141   2.676   0.055  1.00  0.00     0.050 C 
HETATM   36  C15 UNL     1      -5.360   1.814  -0.116  1.00  0.00     0.273 C 
HETATM   37  N3  UNL     1      -5.905   1.439   1.151  1.00  0.00     0.085 N 
HETATM   38  C16 UNL     1      -6.863   2.464   1.536  1.00  0.00     0.309 C 
HETATM   39  C17 UNL     1      -4.921   1.215   2.182  1.00  0.00     0.291 C 
HETATM   40  C18 UNL     1      -3.944   0.176   1.717  1.00  0.00     0.153 C 
ENDBRANCH  17  33
ENDBRANCH  13  14
ENDBRANCH   3  13
TORSDOF 8
