REMARK  8 active torsions:
REMARK  status: ('A' for Active; 'I' for Inactive)
REMARK    1  A    between atoms: C2_2  and  C3_3 
REMARK    2  A    between atoms: C3_3  and  C4_4 
REMARK    3  A    between atoms: C9_10  and  O1_11 
REMARK    4  A    between atoms: C9_10  and  C10_13 
REMARK    5  A    between atoms: C22_29  and  C23_30 
REMARK    6  A    between atoms: C23_30  and  N2_31 
REMARK    7  A    between atoms: C23_30  and  C24_35 
REMARK    8  A    between atoms: C24_35  and  C25_37 
ROOT
HETATM    1  C4  UNL     1      -1.569  -1.965   0.124  1.00  0.00     0.060 C 
HETATM    2  C5  UNL     1      -0.821  -2.548   1.177  1.00  0.00     0.070 C 
HETATM    3  N1  UNL     1      -0.227  -3.002   2.058  1.00  0.00    -0.196 NA
HETATM    4  C6  UNL     1      -2.579  -0.980   0.867  1.00  0.00     0.064 C 
HETATM    5  C7  UNL     1      -2.194   0.342   0.196  1.00  0.00    -0.052 C 
HETATM    6  C8  UNL     1      -1.474   1.266   0.724  1.00  0.00     0.021 C 
HETATM    7  C9  UNL     1      -1.075   2.555  -0.036  1.00  0.00     0.108 C 
HETATM    8  C14 UNL     1       0.346   2.144  -0.523  1.00  0.00     0.178 C 
HETATM    9  O3  UNL     1       0.922   1.843   0.644  1.00  0.00    -0.379 OA
HETATM   10  C15 UNL     1       2.109   1.456   0.993  1.00  0.00     0.201 C 
HETATM   11  C16 UNL     1       3.004   0.593   0.266  1.00  0.00     0.162 C 
HETATM   12  O4  UNL     1       3.057   1.214  -1.070  1.00  0.00    -0.313 OA
HETATM   13  C17 UNL     1       1.927   1.184  -1.846  1.00  0.00     0.270 C 
HETATM   14  O5  UNL     1       2.250   1.362  -3.042  1.00  0.00    -0.264 OA
HETATM   15  C18 UNL     1       0.439   0.982  -1.461  1.00  0.00     0.078 C 
HETATM   16  C19 UNL     1      -0.126   1.076  -2.809  1.00  0.00     0.029 C 
HETATM   17  C20 UNL     1       0.311  -0.329  -0.719  1.00  0.00     0.016 C 
HETATM   18  C21 UNL     1       1.634  -1.126  -0.965  1.00  0.00     0.016 C 
HETATM   19  C22 UNL     1       2.782  -0.801  -0.077  1.00  0.00     0.056 C 
HETATM   20  C26 UNL     1      -0.850  -1.232  -0.964  1.00  0.00     0.037 C 
HETATM   21  C27 UNL     1      -1.958  -0.669  -1.783  1.00  0.00    -0.013 C 
HETATM   22  C28 UNL     1      -2.784   0.259  -1.171  1.00  0.00    -0.059 C 
HETATM   23  C29 UNL     1      -3.864   0.790  -2.015  1.00  0.00     0.048 C 
ENDROOT
BRANCH   1  24
HETATM   24  C3  UNL     1      -2.390  -3.031  -0.568  1.00  0.00     0.025 C 
BRANCH  24  25
HETATM   25  C2  UNL     1      -3.406  -3.756   0.207  1.00  0.00    -0.003 C 
HETATM   26  C1  UNL     1      -2.978  -4.563   1.374  1.00  0.00     0.005 C 
ENDBRANCH  24  25
ENDBRANCH   1  24
BRANCH   7  27
HETATM   27  O1  UNL     1      -2.002   2.737  -0.964  1.00  0.00    -0.383 OA
ATOM     28  H1  UNL     1      -1.757   3.528  -1.430  1.00  0.00     0.211 HD
ENDBRANCH   7  27
BRANCH   7  29
HETATM   29  C10 UNL     1      -1.082   3.747   0.806  1.00  0.00     0.040 C 
HETATM   30  C11 UNL     1      -0.755   5.069   0.156  1.00  0.00     0.086 C 
HETATM   31  C12 UNL     1      -0.622   5.552   1.568  1.00  0.00     0.128 C 
HETATM   32  O2  UNL     1      -0.830   6.565   2.149  1.00  0.00    -0.298 OA
HETATM   33  C13 UNL     1      -0.114   4.134   1.820  1.00  0.00     0.086 C 
ENDBRANCH   7  29
BRANCH  19  34
HETATM   34  C23 UNL     1       3.133  -1.765   1.005  1.00  0.00     0.268 C 
BRANCH  34  35
HETATM   35  N2  UNL     1       2.883  -3.101   0.368  1.00  0.00    -0.068 N 
ATOM     36  H23 UNL     1       1.946  -3.219  -0.018  1.00  0.00     0.275 HD
ATOM     37  H22 UNL     1       3.378  -3.251  -0.511  1.00  0.00     0.275 HD
ATOM     38  H21 UNL     1       3.123  -3.760   1.108  1.00  0.00     0.275 HD
ENDBRANCH  34  35
BRANCH  34  39
HETATM   39  C24 UNL     1       4.593  -1.769   1.233  1.00  0.00     0.263 C 
HETATM   40  O6  UNL     1       5.296  -2.159   0.318  1.00  0.00    -0.286 OA
BRANCH  39  41
HETATM   41  C25 UNL     1       5.263  -1.348   2.481  1.00  0.00     0.453 C 
HETATM   42  F1  UNL     1       6.634  -1.244   2.212  1.00  0.00    -0.163 F 
HETATM   43  F2  UNL     1       4.740  -0.265   3.101  1.00  0.00    -0.163 F 
HETATM   44  F3  UNL     1       5.215  -2.462   3.373  1.00  0.00    -0.163 F 
ENDBRANCH  39  41
ENDBRANCH  34  39
ENDBRANCH  19  34
TORSDOF 8
