REMARK  4 active torsions:
REMARK  status: ('A' for Active; 'I' for Inactive)
REMARK    1  A    between atoms: C5_6  and  N2_7 
REMARK    2  A    between atoms: N2_7  and  C6_9 
REMARK    3  A    between atoms: C6_9  and  C7_11 
REMARK       I    between atoms: N3_13  and  C9_15 
REMARK    4  A    between atoms: C9_15  and  C10_17 
ROOT
HETATM    1  C1  UNL     1      -5.610  -3.003  -1.550  1.00  0.00     0.229 C 
HETATM    2  N1  UNL     1      -4.922  -2.353  -0.897  1.00  0.00    -0.427 NA
HETATM    3  C2  UNL     1      -4.086  -1.578  -0.118  1.00  0.00     0.136 A 
HETATM    4  C3  UNL     1      -2.935  -1.040  -0.642  1.00  0.00     0.008 A 
HETATM    5  C4  UNL     1      -2.558  -1.284  -2.080  1.00  0.00     0.054 C 
HETATM    6  C5  UNL     1      -2.120  -0.270   0.159  1.00  0.00     0.050 A 
HETATM    7  C13 UNL     1      -2.472  -0.049   1.481  1.00  0.00    -0.011 A 
HETATM    8  C14 UNL     1      -1.548   0.800   2.317  1.00  0.00     0.052 C 
HETATM    9  C15 UNL     1      -3.611  -0.580   2.005  1.00  0.00     0.066 A 
HETATM   10 CL1  UNL     1      -4.057  -0.303   3.669  1.00  0.00    -0.082 Cl
HETATM   11  C16 UNL     1      -4.431  -1.350   1.210  1.00  0.00     0.108 A 
HETATM   12  C17 UNL     1      -5.639  -1.922   1.740  1.00  0.00     0.104 C 
HETATM   13  N5  UNL     1      -6.594  -2.395   2.163  1.00  0.00    -0.191 NA
ENDROOT
BRANCH   6  14
HETATM   14  N2  UNL     1      -0.932   0.287  -0.377  1.00  0.00    -0.345 N 
ATOM     15  H2  UNL     1      -0.976   1.212  -0.805  1.00  0.00     0.167 HD
BRANCH  14  16
HETATM   16  C6  UNL     1       0.314  -0.387  -0.343  1.00  0.00     0.123 C 
HETATM   17  S1  UNL     1       0.401  -1.887   0.347  1.00  0.00    -0.058 SA
BRANCH  16  18
HETATM   18  C7  UNL     1       1.513   0.220  -0.905  1.00  0.00     0.046 C 
HETATM   19  C8  UNL     1       1.458   1.556  -1.524  1.00  0.00     0.071 C 
HETATM   20  N3  UNL     1       2.621  -0.405  -0.862  1.00  0.00    -0.322 N 
HETATM   21  C9  UNL     1       3.840   0.100  -1.380  1.00  0.00     0.279 C 
ATOM     22  H3  UNL     1       2.632  -1.328  -0.427  1.00  0.00     0.169 HD
HETATM   23  O1  UNL     1       4.009   0.395  -2.581  1.00  0.00    -0.265 OA
BRANCH  21  24
HETATM   24  C10 UNL     1       4.962   0.285  -0.457  1.00  0.00     0.142 A 
HETATM   25  N4  UNL     1       6.167   0.741  -0.755  1.00  0.00    -0.355 N 
HETATM   26  C11 UNL     1       7.063   0.851   0.171  1.00  0.00     0.096 A 
ATOM     27  H4  UNL     1       6.390   1.006  -1.715  1.00  0.00     0.166 HD
HETATM   28  C12 UNL     1       6.718   0.483   1.445  1.00  0.00     0.069 A 
HETATM   29  S2  UNL     1       5.089  -0.008   1.220  1.00  0.00    -0.077 SA
ENDBRANCH  21  24
ENDBRANCH  16  18
ENDBRANCH  14  16
ENDBRANCH   6  14
TORSDOF 4
