REMARK  3 active torsions:
REMARK  status: ('A' for Active; 'I' for Inactive)
REMARK    1  A    between atoms: C8_11  and  S1_12 
REMARK    2  A    between atoms: S1_12  and  C9_13 
REMARK    3  A    between atoms: C11_15  and  C12_16 
ROOT
HETATM    1  C1  UNL     1       3.165  -2.023   1.512  1.00  0.00     0.049 C 
HETATM    2  C2  UNL     1       3.540  -0.813   0.730  1.00  0.00    -0.042 A 
HETATM    3  C3  UNL     1       4.716  -0.143   0.973  1.00  0.00     0.034 A 
HETATM    4  C4  UNL     1       5.045   0.983   0.242  1.00  0.00     0.060 A 
HETATM    5 CL1  UNL     1       6.547   1.831   0.557  1.00  0.00    -0.082 Cl
HETATM    6  C5  UNL     1       4.166   1.418  -0.738  1.00  0.00     0.090 A 
HETATM    7  N1  UNL     1       4.528   2.566  -1.467  1.00  0.00    -0.099 NA
HETATM    8  C6  UNL     1       2.975   0.717  -0.965  1.00  0.00     0.087 A 
HETATM    9  C7  UNL     1       2.133   1.195  -1.996  1.00  0.00     0.103 C 
HETATM   10  N2  UNL     1       1.442   1.565  -2.845  1.00  0.00    -0.191 NA
HETATM   11  C8  UNL     1       2.627  -0.404  -0.250  1.00  0.00     0.029 A 
ENDROOT
BRANCH  11  12
HETATM   12  S1  UNL     1       1.143  -1.335  -0.534  1.00  0.00    -0.120 SA
BRANCH  12  13
HETATM   13  C9  UNL     1      -0.233  -0.931   0.505  1.00  0.00     0.081 C 
HETATM   14  C10 UNL     1      -0.861   0.392   0.366  1.00  0.00     0.025 C 
HETATM   15  C11 UNL     1      -2.003   0.489  -0.611  1.00  0.00     0.019 C 
HETATM   16  C15 UNL     1      -2.652  -0.811  -0.919  1.00  0.00     0.122 C 
HETATM   17  C16 UNL     1      -3.408  -0.652  -2.231  1.00  0.00     0.040 C 
HETATM   18  O1  UNL     1      -1.776  -1.891  -0.960  1.00  0.00    -0.380 OA
HETATM   19  C17 UNL     1      -1.279  -2.048   0.333  1.00  0.00     0.132 C 
HETATM   20  C18 UNL     1      -0.599  -3.394   0.416  1.00  0.00     0.040 C 
BRANCH  15  21
HETATM   21  C12 UNL     1      -3.091   1.439  -0.100  1.00  0.00    -0.016 C 
HETATM   22  C13 UNL     1      -2.558   2.836   0.111  1.00  0.00     0.010 C 
HETATM   23  C14 UNL     1      -3.741   0.935   1.152  1.00  0.00     0.010 C 
ENDBRANCH  15  21
ENDBRANCH  12  13
ENDBRANCH  11  12
TORSDOF 3
