REMARK  18 active torsions:
REMARK  status: ('A' for Active; 'I' for Inactive)
REMARK    1  A    between atoms: O1_1  and  C1_3 
REMARK    2  A    between atoms: C1_3  and  C2_4 
REMARK    3  A    between atoms: C3_6  and  O3_7 
REMARK    4  A    between atoms: O3_7  and  C4_8 
REMARK    5  A    between atoms: C7_12  and  O5_13 
REMARK    6  A    between atoms: O5_13  and  C8_14 
REMARK    7  A    between atoms: C16_25  and  O9_26 
REMARK    8  A    between atoms: O9_26  and  C17_27 
REMARK    9  A    between atoms: C19_30  and  O11_31 
REMARK   10  A    between atoms: C19_30  and  C20_33 
REMARK   11  A    between atoms: C20_33  and  O12_34 
REMARK   12  A    between atoms: C21_36  and  O13_37 
REMARK   13  A    between atoms: O13_37  and  C22_38 
REMARK   14  A    between atoms: C24_41  and  O15_42 
REMARK   15  A    between atoms: C24_41  and  C25_44 
REMARK   16  A    between atoms: C25_44  and  O16_45 
REMARK   17  A    between atoms: C26_47  and  O17_48 
REMARK   18  A    between atoms: C28_51  and  O18_52 
ROOT
HETATM    1  C2  UNL     1       1.297  -4.256  -0.382  1.00  0.00     0.177 C 
HETATM    2  O2  UNL     1       1.019  -2.998  -0.903  1.00  0.00    -0.349 OA
HETATM    3  C3  UNL     1       0.670  -2.082   0.081  1.00  0.00     0.290 C 
HETATM    4  C16 UNL     1       1.455  -2.363   1.372  1.00  0.00     0.182 C 
HETATM    5  C27 UNL     1       0.882  -3.631   2.006  1.00  0.00     0.071 C 
HETATM    6  C28 UNL     1       0.521  -4.569   0.876  1.00  0.00     0.151 C 
ENDROOT
BRANCH   4   7
HETATM    7  O9  UNL     1       2.805  -2.459   1.181  1.00  0.00    -0.348 OA
BRANCH   7   8
HETATM    8  C17 UNL     1       3.466  -1.529   1.969  1.00  0.00     0.292 C 
HETATM    9  O10 UNL     1       4.354  -2.170   2.855  1.00  0.00    -0.355 OA
HETATM   10  C18 UNL     1       5.461  -2.516   2.126  1.00  0.00     0.213 C 
HETATM   11  C19 UNL     1       5.614  -1.547   0.990  1.00  0.00     0.131 C 
HETATM   12  C21 UNL     1       4.419  -0.642   1.204  1.00  0.00     0.218 C 
BRANCH  11  13
HETATM   13  O11 UNL     1       6.830  -0.873   1.053  1.00  0.00    -0.383 OA
ATOM     14  H11 UNL     1       6.927  -0.260   0.334  1.00  0.00     0.210 HD
ENDBRANCH  11  13
BRANCH  11  15
HETATM   15  C20 UNL     1       5.568  -2.287  -0.330  1.00  0.00     0.207 C 
BRANCH  15  16
HETATM   16  O12 UNL     1       5.677  -1.452  -1.433  1.00  0.00    -0.398 OA
ATOM     17  H12 UNL     1       5.648  -1.916  -2.261  1.00  0.00     0.209 HD
ENDBRANCH  15  16
ENDBRANCH  11  15
BRANCH  12  18
HETATM   18  O13 UNL     1       3.904  -0.092   0.060  1.00  0.00    -0.345 OA
BRANCH  18  19
HETATM   19  C22 UNL     1       4.000   1.280   0.121  1.00  0.00     0.292 C 
HETATM   20  O14 UNL     1       4.911   1.778  -0.845  1.00  0.00    -0.355 OA
HETATM   21  C23 UNL     1       4.772   3.166  -0.611  1.00  0.00     0.213 C 
HETATM   22  C24 UNL     1       3.295   3.369  -0.648  1.00  0.00     0.130 C 
HETATM   23  C26 UNL     1       2.729   2.025  -0.163  1.00  0.00     0.211 C 
BRANCH  22  24
HETATM   24  O15 UNL     1       2.883   3.613  -1.956  1.00  0.00    -0.383 OA
ATOM     25  H15 UNL     1       1.942   3.742  -1.980  1.00  0.00     0.210 HD
ENDBRANCH  22  24
BRANCH  22  26
HETATM   26  C25 UNL     1       2.792   4.424   0.290  1.00  0.00     0.207 C 
BRANCH  26  27
HETATM   27  O16 UNL     1       3.214   4.161   1.575  1.00  0.00    -0.398 OA
ATOM     28  H16 UNL     1       2.895   4.830   2.170  1.00  0.00     0.209 HD
ENDBRANCH  26  27
ENDBRANCH  22  26
BRANCH  23  29
HETATM   29  O17 UNL     1       2.002   1.438  -1.205  1.00  0.00    -0.387 OA
ATOM     30  H17 UNL     1       1.197   1.910  -1.385  1.00  0.00     0.210 HD
ENDBRANCH  23  29
ENDBRANCH  18  19
ENDBRANCH  12  18
ENDBRANCH   7   8
ENDBRANCH   4   7
BRANCH   3  31
HETATM   31  O3  UNL     1      -0.645  -2.111   0.427  1.00  0.00    -0.349 OA
BRANCH  31  32
HETATM   32  C4  UNL     1      -1.335  -0.892   0.291  1.00  0.00     0.154 C 
HETATM   33  C5  UNL     1      -1.689  -0.337   1.599  1.00  0.00     0.029 C 
HETATM   34  C6  UNL     1      -2.963  -0.279   1.957  1.00  0.00     0.136 C 
HETATM   35  O4  UNL     1      -3.920  -0.754   1.054  1.00  0.00    -0.332 OA
HETATM   36  C7  UNL     1      -3.694  -0.398  -0.321  1.00  0.00     0.271 C 
HETATM   37  C15 UNL     1      -2.386  -0.966  -0.749  1.00  0.00     0.097 C 
BRANCH  36  38
HETATM   38  O5  UNL     1      -3.703   0.999  -0.492  1.00  0.00    -0.326 OA
BRANCH  38  39
HETATM   39  C8  UNL     1      -4.700   1.438  -1.330  1.00  0.00     0.329 C 
HETATM   40  O6  UNL     1      -4.159   2.121  -2.387  1.00  0.00    -0.205 OA
HETATM   41  O7  UNL     1      -4.598   3.356  -2.495  1.00  0.00    -0.238 OA
HETATM   42  C9  UNL     1      -5.943   3.254  -2.924  1.00  0.00     0.217 C 
HETATM   43  C10 UNL     1      -6.723   2.754  -1.715  1.00  0.00     0.046 C 
HETATM   44  C11 UNL     1      -7.618   3.808  -1.132  1.00  0.00     0.011 C 
HETATM   45  C14 UNL     1      -5.732   2.323  -0.655  1.00  0.00     0.185 C 
HETATM   46  C12 UNL     1      -7.524   3.773   0.373  1.00  0.00     0.027 C 
HETATM   47  C13 UNL     1      -7.406   2.365   0.903  1.00  0.00     0.168 C 
HETATM   48  O8  UNL     1      -6.423   1.619   0.308  1.00  0.00    -0.380 OA
ENDBRANCH  38  39
ENDBRANCH  36  38
ENDBRANCH  31  32
ENDBRANCH   3  31
BRANCH   6  49
HETATM   49  O18 UNL     1       0.820  -5.904   1.218  1.00  0.00    -0.393 OA
ATOM     50  H18 UNL     1       0.332  -6.101   2.009  1.00  0.00     0.210 HD
ENDBRANCH   6  49
BRANCH   1  51
HETATM   51  C1  UNL     1       0.791  -5.262  -1.427  1.00  0.00     0.198 C 
BRANCH  51  52
HETATM   52  O1  UNL     1       1.420  -5.100  -2.643  1.00  0.00    -0.398 OA
ATOM     53  H1  UNL     1       1.107  -5.722  -3.289  1.00  0.00     0.209 HD
ENDBRANCH  51  52
ENDBRANCH   1  51
TORSDOF 18
