REMARK  15 active torsions:
REMARK  status: ('A' for Active; 'I' for Inactive)
REMARK    1  A    between atoms: C5_13  and  S1_14 
REMARK    2  A    between atoms: S1_14  and  S2_15 
REMARK    3  A    between atoms: S2_15  and  C6_16 
REMARK    4  A    between atoms: C6_16  and  C7_17 
REMARK    5  A    between atoms: C8_18  and  C9_19 
REMARK    6  A    between atoms: C9_19  and  N4_20 
REMARK    7  A    between atoms: N5_23  and  C12_24 
REMARK    8  A    between atoms: C13_25  and  S3_26 
REMARK    9  A    between atoms: C14_30  and  O5_31 
REMARK   10  A    between atoms: C18_37  and  C19_38 
REMARK   11  A    between atoms: C19_38  and  O7_39 
REMARK   12  A    between atoms: C19_38  and  O8_41 
REMARK   13  A    between atoms: N8_47  and  C20_48 
REMARK   14  A    between atoms: C20_48  and  C21_49 
REMARK   15  A    between atoms: C21_49  and  O9_50 
ROOT
HETATM    1  C7  UNL     1       0.854  -1.702   1.477  1.00  0.00     0.069 A 
HETATM    2  C8  UNL     1      -0.499  -1.256   1.414  1.00  0.00     0.089 A 
HETATM    3  N6  UNL     1      -1.183  -1.909   2.314  1.00  0.00    -0.283 N 
ATOM      4  H6  UNL     1      -2.175  -1.789   2.517  1.00  0.00     0.188 HD
HETATM    5  N7  UNL     1      -0.381  -2.735   2.902  1.00  0.00    -0.240 N 
ATOM      6  H7  UNL     1      -0.660  -3.380   3.641  1.00  0.00     0.208 HD
HETATM    7  N8  UNL     1       0.883  -2.634   2.408  1.00  0.00    -0.277 N 
ENDROOT
BRANCH   2   8
HETATM    8  C9  UNL     1      -0.853  -0.446   0.210  1.00  0.00     0.119 C 
BRANCH   8   9
HETATM    9  N4  UNL     1      -2.158   0.001   0.041  1.00  0.00    -0.377 N 
HETATM   10  C10 UNL     1      -2.480   1.096   0.945  1.00  0.00     0.143 C 
HETATM   11  C11 UNL     1      -3.865   1.594   0.846  1.00  0.00     0.143 C 
HETATM   12  N5  UNL     1      -4.548   1.368  -0.398  1.00  0.00    -0.375 N 
HETATM   13  C16 UNL     1      -4.015   0.855  -1.679  1.00  0.00     0.125 C 
HETATM   14  C17 UNL     1      -3.775  -0.574  -1.568  1.00  0.00     0.050 C 
HETATM   15  C18 UNL     1      -3.189  -0.945  -0.122  1.00  0.00     0.140 C 
BRANCH  12  16
HETATM   16  C12 UNL     1      -5.900   1.765  -0.475  1.00  0.00     0.111 A 
HETATM   17  C13 UNL     1      -6.656   2.772  -1.026  1.00  0.00     0.148 A 
HETATM   18  C14 UNL     1      -7.799   2.238  -0.477  1.00  0.00     0.145 A 
HETATM   19  C15 UNL     1      -7.069   1.235   0.080  1.00  0.00     0.234 A 
HETATM   20  O6  UNL     1      -7.388   0.224   0.823  1.00  0.00    -0.283 OA
BRANCH  17  21
HETATM   21  S3  UNL     1      -6.234   4.163  -2.010  1.00  0.00     0.143 S 
HETATM   22  O2  UNL     1      -5.190   5.055  -1.500  1.00  0.00    -0.591 OA
HETATM   23  O3  UNL     1      -7.574   4.933  -2.260  1.00  0.00    -0.591 OA
HETATM   24  O4  UNL     1      -5.851   3.625  -3.578  1.00  0.00    -0.591 OA
ENDBRANCH  17  21
BRANCH  18  25
HETATM   25  O5  UNL     1      -9.051   2.595  -0.502  1.00  0.00    -0.356 OA
ATOM     26  H5  UNL     1      -9.840   2.226  -0.123  1.00  0.00     0.218 HD
ENDBRANCH  18  25
ENDBRANCH  12  16
BRANCH  15  27
HETATM   27  C19 UNL     1      -2.982  -2.387  -0.327  1.00  0.00     0.276 C 
BRANCH  27  28
HETATM   28  O7  UNL     1      -2.414  -2.690  -1.598  1.00  0.00    -0.369 OA
ATOM     29  H7  UNL     1      -2.280  -3.621  -1.730  1.00  0.00     0.212 HD
ENDBRANCH  27  28
BRANCH  27  30
HETATM   30  O8  UNL     1      -4.232  -3.067  -0.255  1.00  0.00    -0.369 OA
ATOM     31  H8  UNL     1      -4.098  -3.998  -0.387  1.00  0.00     0.212 HD
ENDBRANCH  27  30
ENDBRANCH  15  27
ENDBRANCH   8   9
ENDBRANCH   2   8
BRANCH   1  32
HETATM   32  C6  UNL     1       1.937  -0.986   0.754  1.00  0.00     0.147 C 
BRANCH  32  33
HETATM   33  S2  UNL     1       2.762  -1.955  -0.461  1.00  0.00    -0.086 SA
BRANCH  33  34
HETATM   34  S1  UNL     1       3.604  -0.805  -2.050  1.00  0.00    -0.051 SA
BRANCH  34  35
HETATM   35  C5  UNL     1       5.293  -0.402  -1.858  1.00  0.00     0.099 C 
HETATM   36  C3  UNL     1       5.865   0.810  -1.335  1.00  0.00     0.100 A 
HETATM   37  C2  UNL     1       7.118   1.005  -2.010  1.00  0.00     0.141 A 
HETATM   38  C4  UNL     1       5.620   1.762  -0.384  1.00  0.00     0.275 A 
HETATM   39  N2  UNL     1       7.889   2.026  -1.668  1.00  0.00    -0.176 N 
HETATM   40  N9  UNL     1       7.252  -0.024  -3.023  1.00  0.00    -0.307 N 
HETATM   41  C1  UNL     1       7.608   2.920  -0.740  1.00  0.00     0.680 A 
ATOM     42  H2  UNL     1       8.774   2.130  -2.164  1.00  0.00     0.186 HD
HETATM   43  N1  UNL     1       8.368   3.884  -0.414  1.00  0.00    -0.234 N 
HETATM   44  N3  UNL     1       6.427   2.782  -0.073  1.00  0.00    -0.155 N 
ATOM     45  H12 UNL     1       9.252   3.987  -0.913  1.00  0.00     0.174 HD
ATOM     46  H11 UNL     1       8.151   4.575   0.304  1.00  0.00     0.174 HD
ATOM     47  H3  UNL     1       6.163   3.448   0.653  1.00  0.00     0.187 HD
HETATM   48  C22 UNL     1       6.126  -0.839  -3.011  1.00  0.00     0.265 C 
ATOM     49  H9  UNL     1       8.050  -0.133  -3.649  1.00  0.00     0.170 HD
HETATM   50  O10 UNL     1       5.793  -1.755  -3.774  1.00  0.00    -0.267 OA
HETATM   51  O1  UNL     1       4.542   1.732   0.307  1.00  0.00    -0.267 OA
ENDBRANCH  34  35
ENDBRANCH  33  34
ENDBRANCH  32  33
ENDBRANCH   1  32
BRANCH   7  52
HETATM   52  C20 UNL     1       1.929  -3.416   3.015  1.00  0.00     0.176 C 
BRANCH  52  53
HETATM   53  C21 UNL     1       2.003  -3.248   4.493  1.00  0.00     0.185 C 
BRANCH  53  54
HETATM   54  O9  UNL     1       3.048  -4.089   4.951  1.00  0.00    -0.399 OA
ATOM     55  H9  UNL     1       3.095  -3.982   5.894  1.00  0.00     0.209 HD
ENDBRANCH  53  54
ENDBRANCH  52  53
ENDBRANCH   7  52
TORSDOF 15
