REMARK  15 active torsions:
REMARK  status: ('A' for Active; 'I' for Inactive)
REMARK    1  A    between atoms: N1_1  and  N2_4 
REMARK       I    between atoms: N2_4  and  C1_6 
REMARK    2  A    between atoms: C1_6  and  C2_8 
REMARK       I    between atoms: C2_8  and  N3_10 
REMARK    3  A    between atoms: N3_10  and  N4_12 
REMARK    4  A    between atoms: N4_12  and  C3_13 
REMARK    5  A    between atoms: C3_13  and  C4_14 
REMARK    6  A    between atoms: C4_14  and  C5_15 
REMARK    7  A    between atoms: C5_15  and  C6_17 
REMARK       I    between atoms: C6_17  and  N5_19 
REMARK    8  A    between atoms: N5_19  and  N6_21 
REMARK    9  A    between atoms: N7_26  and  O7_27 
REMARK   10  A    between atoms: C11_33  and  C12_34 
REMARK   11  A    between atoms: C12_34  and  O8_35 
REMARK   12  A    between atoms: C12_34  and  N9_37 
REMARK   13  A    between atoms: N9_37  and  C13_39 
REMARK   14  A    between atoms: N10_44  and  C16_45 
REMARK   15  A    between atoms: C16_45  and  N11_46 
ROOT
HETATM    1  N6  UNL     1       1.656   2.082  -0.791  1.00  0.00    -0.174 N 
HETATM    2  C7  UNL     1       1.466   1.493  -2.008  1.00  0.00     0.340 C 
HETATM    3  O5  UNL     1       2.272   1.816  -2.882  1.00  0.00    -0.260 OA
HETATM    4  C8  UNL     1       0.456   0.586  -2.321  1.00  0.00     0.343 C 
HETATM    5  O6  UNL     1       0.773  -0.396  -3.023  1.00  0.00    -0.259 OA
HETATM    6  N7  UNL     1      -0.845   0.653  -1.945  1.00  0.00    -0.163 N 
HETATM    7  C9  UNL     1      -1.337   1.245  -0.847  1.00  0.00     0.178 A 
HETATM    8  C10 UNL     1      -0.682   2.168  -0.004  1.00  0.00     0.152 A 
HETATM    9  N8  UNL     1      -1.561   2.581   0.953  1.00  0.00    -0.334 N 
ATOM     10  H8  UNL     1      -1.364   3.250   1.698  1.00  0.00     0.167 HD
HETATM   11  C11 UNL     1      -2.692   1.975   0.752  1.00  0.00     0.140 A 
HETATM   12  N10 UNL     1      -2.577   1.150  -0.345  1.00  0.00    -0.275 N 
HETATM   13  C23 UNL     1       0.616   2.606  -0.051  1.00  0.00     0.300 C 
HETATM   14  O9  UNL     1       0.905   3.623   0.675  1.00  0.00    -0.263 OA
ENDROOT
BRANCH   1  15
HETATM   15  N5  UNL     1       2.871   2.175  -0.198  1.00  0.00    -0.251 N 
HETATM   16  C6  UNL     1       4.094   1.652  -0.602  1.00  0.00     0.306 C 
HETATM   17  O4  UNL     1       4.313   0.962  -1.641  1.00  0.00    -0.263 OA
ATOM     18  H5  UNL     1       2.891   2.707   0.672  1.00  0.00     0.191 HD
BRANCH  16  19
HETATM   19  C5  UNL     1       5.282   1.915   0.256  1.00  0.00     0.219 C 
HETATM   20  O3  UNL     1       5.123   2.541   1.336  1.00  0.00    -0.287 OA
BRANCH  19  21
HETATM   21  C4  UNL     1       6.593   1.431  -0.195  1.00  0.00     0.107 C 
BRANCH  21  22
HETATM   22  C3  UNL     1       6.733  -0.069  -0.109  1.00  0.00     0.143 C 
BRANCH  22  23
HETATM   23  N4  UNL     1       8.054  -0.462  -0.565  1.00  0.00    -0.138 NA
BRANCH  23  24
HETATM   24  N3  UNL     1       8.235  -1.824  -0.581  1.00  0.00    -0.266 N 
HETATM   25  C2  UNL     1       9.098  -2.462   0.336  1.00  0.00     0.326 C 
HETATM   26  O2  UNL     1       9.700  -1.764   1.185  1.00  0.00    -0.261 OA
ATOM     27  H3  UNL     1       7.735  -2.386  -1.270  1.00  0.00     0.185 HD
BRANCH  25  28
HETATM   28  C1  UNL     1       9.288  -3.900   0.299  1.00  0.00     0.328 C 
HETATM   29  N2  UNL     1      10.162  -4.506   1.232  1.00  0.00    -0.268 N 
ATOM     30  H2  UNL     1      10.657  -3.957   1.935  1.00  0.00     0.190 HD
HETATM   31  O1  UNL     1       8.674  -4.571  -0.561  1.00  0.00    -0.261 OA
BRANCH  29  32
HETATM   32  N1  UNL     1      10.316  -5.909   1.143  1.00  0.00    -0.342 N 
ATOM     33  H12 UNL     1       9.814  -6.444   0.434  1.00  0.00     0.176 HD
ATOM     34  H11 UNL     1      10.946  -6.346   1.816  1.00  0.00     0.176 HD
ENDBRANCH  29  32
ENDBRANCH  25  28
ENDBRANCH  23  24
ENDBRANCH  22  23
ENDBRANCH  21  22
ENDBRANCH  19  21
ENDBRANCH  16  19
ENDBRANCH   1  15
BRANCH   6  35
HETATM   35  O7  UNL     1      -1.763   0.085  -2.776  1.00  0.00    -0.278 OA
ATOM     36  H7  UNL     1      -2.675   0.132  -2.513  1.00  0.00     0.245 HD
ENDBRANCH   6  35
BRANCH  12  37
HETATM   37  C16 UNL     1      -3.651   0.307  -0.798  1.00  0.00     0.193 C 
BRANCH  37  38
HETATM   38  N11 UNL     1      -3.828  -0.931  -0.131  1.00  0.00    -0.356 N 
HETATM   39  C17 UNL     1      -2.838  -1.898  -0.068  1.00  0.00     0.065 C 
HETATM   40  C18 UNL     1      -2.927  -2.985  -1.122  1.00  0.00     0.044 C 
HETATM   41  C19 UNL     1      -3.969  -3.978  -0.663  1.00  0.00     0.005 C 
HETATM   42  C20 UNL     1      -5.363  -3.658  -1.121  1.00  0.00     0.002 C 
HETATM   43  C21 UNL     1      -5.566  -2.160  -1.355  1.00  0.00     0.020 C 
HETATM   44  C22 UNL     1      -5.185  -1.403  -0.109  1.00  0.00     0.129 C 
ENDBRANCH  37  38
ENDBRANCH  12  37
BRANCH  11  45
HETATM   45  C12 UNL     1      -3.960   2.138   1.512  1.00  0.00     0.283 C 
BRANCH  45  46
HETATM   46  O8  UNL     1      -3.596   2.514   2.790  1.00  0.00    -0.370 OA
ATOM     47  H8  UNL     1      -4.406   2.618   3.275  1.00  0.00     0.212 HD
ENDBRANCH  45  46
BRANCH  45  48
HETATM   48  N9  UNL     1      -4.835   3.021   0.898  1.00  0.00    -0.385 N 
ATOM     49  H9  UNL     1      -4.550   3.434   0.010  1.00  0.00     0.156 HD
BRANCH  48  50
HETATM   50  C13 UNL     1      -6.081   3.382   1.415  1.00  0.00     0.099 C 
HETATM   51  C14 UNL     1      -5.953   4.168   2.698  1.00  0.00     0.111 C 
HETATM   52  S1  UNL     1      -4.743   5.467   2.178  1.00  0.00    -0.096 SA
HETATM   53  S2  UNL     1      -5.485   5.538   0.134  1.00  0.00    -0.096 SA
HETATM   54  C15 UNL     1      -6.843   4.325   0.451  1.00  0.00     0.111 C 
ENDBRANCH  48  50
ENDBRANCH  45  48
ENDBRANCH  11  45
TORSDOF 15
