REMARK  15 active torsions:
REMARK  status: ('A' for Active; 'I' for Inactive)
REMARK    1  A    between atoms: O1_2  and  C2_3 
REMARK    2  A    between atoms: C2_3  and  C3_5 
REMARK    3  A    between atoms: C3_5  and  O3_6 
REMARK    4  A    between atoms: C3_5  and  N1_8 
REMARK    5  A    between atoms: N1_8  and  C4_10 
REMARK    6  A    between atoms: C5_11  and  N2_12 
REMARK    7  A    between atoms: N2_12  and  N3_14 
REMARK    8  A    between atoms: C9_23  and  C10_24 
REMARK    9  A    between atoms: C13_30  and  C14_31 
REMARK   10  A    between atoms: C15_34  and  C16_35 
REMARK   11  A    between atoms: C16_35  and  N7_36 
REMARK   12  A    between atoms: N7_36  and  C17_37 
REMARK   13  A    between atoms: C17_37  and  N8_38 
REMARK   14  A    between atoms: C21_47  and  N11_48 
REMARK   15  A    between atoms: C23_54  and  O12_56 
ROOT
HETATM    1  C4  UNL     1      -2.833  -1.112   1.134  1.00  0.00     0.148 A 
HETATM    2  C5  UNL     1      -1.538  -0.776   1.514  1.00  0.00     0.179 A 
HETATM    3  N4  UNL     1      -1.157   0.289   0.796  1.00  0.00    -0.231 N 
HETATM    4  N5  UNL     1      -2.140   0.668  -0.035  1.00  0.00    -0.245 N 
HETATM    5  C6  UNL     1      -3.184  -0.191   0.164  1.00  0.00     0.293 A 
HETATM    6  O6  UNL     1      -4.310  -0.168  -0.435  1.00  0.00    -0.264 OA
HETATM    7  C7  UNL     1      -2.288   1.717  -0.997  1.00  0.00     0.179 C 
HETATM    8  C8  UNL     1      -1.204   2.736  -1.010  1.00  0.00     0.129 C 
HETATM    9  C9  UNL     1      -1.683   4.180  -0.983  1.00  0.00     0.171 C 
HETATM   10  C12 UNL     1      -1.967   3.878   0.460  1.00  0.00     0.234 C 
HETATM   11  O8  UNL     1      -2.785   4.208   1.331  1.00  0.00    -0.272 OA
HETATM   12  N6  UNL     1      -0.858   3.020   0.403  1.00  0.00    -0.324 N 
HETATM   13  C13 UNL     1       0.303   2.406   1.053  1.00  0.00     0.242 C 
HETATM   14  C15 UNL     1       0.160   0.940   0.938  1.00  0.00     0.085 C 
ENDROOT
BRANCH  14  15
HETATM   15  C16 UNL     1       1.130   0.133   0.974  1.00  0.00     0.124 C 
BRANCH  15  16
HETATM   16  N7  UNL     1       2.527   0.013   1.084  1.00  0.00    -0.322 N 
HETATM   17  C23 UNL     1       3.596   0.838   1.214  1.00  0.00     0.114 C 
HETATM   18  C24 UNL     1       3.795   2.286   1.041  1.00  0.00     0.097 C 
BRANCH  16  19
HETATM   19  C17 UNL     1       2.930  -1.468   0.890  1.00  0.00     0.264 C 
BRANCH  19  20
HETATM   20  N8  UNL     1       3.043  -1.789  -0.506  1.00  0.00    -0.309 N 
HETATM   21  C18 UNL     1       1.962  -2.002  -1.306  1.00  0.00     0.187 A 
HETATM   22  N9  UNL     1       2.429  -2.210  -2.546  1.00  0.00    -0.345 N 
HETATM   23  C19 UNL     1       3.750  -2.143  -2.580  1.00  0.00     0.147 A 
ATOM     24  H9  UNL     1       1.841  -2.396  -3.359  1.00  0.00     0.167 HD
HETATM   25  C20 UNL     1       4.677  -2.304  -3.588  1.00  0.00     0.290 A 
HETATM   26  C22 UNL     1       4.146  -1.871  -1.252  1.00  0.00     0.158 A 
HETATM   27  O11 UNL     1       4.269  -2.541  -4.748  1.00  0.00    -0.265 OA
HETATM   28  N10 UNL     1       5.977  -2.198  -3.273  1.00  0.00    -0.154 N 
HETATM   29  C21 UNL     1       6.351  -1.939  -1.987  1.00  0.00     0.680 A 
ATOM     30  H10 UNL     1       6.687  -2.311  -3.997  1.00  0.00     0.187 HD
HETATM   31  N12 UNL     1       5.465  -1.780  -1.002  1.00  0.00    -0.174 N 
ATOM     32  H12 UNL     1       5.789  -1.588  -0.054  1.00  0.00     0.186 HD
BRANCH  29  33
HETATM   33  N11 UNL     1       7.613  -1.838  -1.681  1.00  0.00    -0.234 N 
ATOM     34 2H11 UNL     1       8.290  -1.960  -2.434  1.00  0.00     0.174 HD
ATOM     35 1H11 UNL     1       7.893  -1.644  -0.719  1.00  0.00     0.174 HD
ENDBRANCH  29  33
ENDBRANCH  19  20
ENDBRANCH  16  19
BRANCH  17  36
HETATM   36  O12 UNL     1       4.750   0.260   1.568  1.00  0.00    -0.349 OA
ATOM     37  H12 UNL     1       5.499   0.838   1.659  1.00  0.00     0.219 HD
ENDBRANCH  17  36
ENDBRANCH  15  16
ENDBRANCH  14  15
BRANCH  13  38
HETATM   38  C14 UNL     1       0.270   2.843   2.461  1.00  0.00     0.203 C 
HETATM   39  O9  UNL     1       0.961   2.231   3.307  1.00  0.00    -0.646 OA
HETATM   40  O10 UNL     1      -0.492   3.900   2.871  1.00  0.00    -0.646 OA
ENDBRANCH  13  38
BRANCH   2  41
HETATM   41  N2  UNL     1      -0.830  -1.460   2.537  1.00  0.00    -0.222 N 
ATOM     42  H2  UNL     1      -0.387  -2.352   2.315  1.00  0.00     0.195 HD
BRANCH  41  43
HETATM   43  N3  UNL     1      -0.716  -0.958   3.838  1.00  0.00    -0.037 N 
HETATM   44  O4  UNL     1      -1.569  -0.235   4.372  1.00  0.00    -0.516 OA
HETATM   45  O5  UNL     1       0.398  -1.273   4.575  1.00  0.00    -0.516 OA
ENDBRANCH  41  43
ENDBRANCH   2  41
BRANCH   1  46
HETATM   46  N1  UNL     1      -3.593  -2.176   1.669  1.00  0.00    -0.348 N 
ATOM     47  H1  UNL     1      -4.227  -1.965   2.440  1.00  0.00     0.163 HD
BRANCH  46  48
HETATM   48  C3  UNL     1      -3.535  -3.529   1.205  1.00  0.00     0.320 C 
BRANCH  48  49
HETATM   49  C2  UNL     1      -3.789  -3.702  -0.241  1.00  0.00     0.307 C 
HETATM   50  O2  UNL     1      -2.981  -3.199  -1.078  1.00  0.00    -0.260 OA
BRANCH  49  51
HETATM   51  O1  UNL     1      -4.860  -4.384  -0.777  1.00  0.00    -0.323 OA
HETATM   52  C1  UNL     1      -5.064  -4.527  -2.171  1.00  0.00     0.213 C 
ENDBRANCH  49  51
ENDBRANCH  48  49
BRANCH  48  53
HETATM   53  O3  UNL     1      -4.573  -4.254   1.845  1.00  0.00    -0.368 OA
ATOM     54  H3  UNL     1      -4.410  -4.143   2.774  1.00  0.00     0.212 HD
ENDBRANCH  48  53
ENDBRANCH  46  48
ENDBRANCH   1  46
BRANCH   9  55
HETATM   55  C10 UNL     1      -2.823   4.530  -1.819  1.00  0.00     0.138 C 
HETATM   56  C11 UNL     1      -3.292   5.965  -1.734  1.00  0.00     0.091 C 
HETATM   57  O7  UNL     1      -3.448   3.828  -2.573  1.00  0.00    -0.297 OA
ENDBRANCH   9  55
TORSDOF 15
