REMARK  2 active torsions:
REMARK  status: ('A' for Active; 'I' for Inactive)
REMARK    1  A    between atoms: C2_4  and  N2_5 
REMARK    2  A    between atoms: C2_4  and  O1_10 
ROOT
HETATM    1  C1  UNL     1      -0.268   2.068   0.796  1.00  0.00     0.150 C 
HETATM    2  N1  UNL     1      -1.034   1.046   0.136  1.00  0.00    -0.360 N 
ATOM      3  H1  UNL     1      -1.854   1.322  -0.404  1.00  0.00     0.162 HD
HETATM    4  C2  UNL     1      -0.726  -0.208   0.199  1.00  0.00     0.220 C 
ENDROOT
BRANCH   4   5
HETATM    5  N2  UNL     1       0.397  -0.625   0.934  1.00  0.00    -0.299 N 
HETATM    6  C3  UNL     1       1.599  -0.662   0.499  1.00  0.00     0.204 C 
HETATM    7  N3  UNL     1       2.631  -1.105   1.357  1.00  0.00    -0.066 NA
HETATM    8  N4  UNL     1       1.944  -0.264  -0.841  1.00  0.00    -0.066 NA
ATOM      9  H2  UNL     1       0.240  -0.924   1.897  1.00  0.00     0.171 HD
ENDBRANCH   4   5
BRANCH   4  10
HETATM   10  O1  UNL     1      -1.559  -1.083  -0.490  1.00  0.00    -0.327 OA
HETATM   11  C4  UNL     1      -2.949  -0.853  -0.629  1.00  0.00     0.213 C 
ENDBRANCH   4  10
TORSDOF 2
