REMARK  1 active torsions:
REMARK  status: ('A' for Active; 'I' for Inactive)
REMARK    1  A    between atoms: N1_1  and  C1_5 
ROOT
HETATM    1  C1  UNL     1       0.199  -0.414  -0.404  1.00  0.00     0.359 A 
HETATM    2  O1  UNL     1      -0.823  -1.202   0.105  1.00  0.00    -0.336 OA
HETATM    3  C2  UNL     1      -1.039   0.209   0.183  1.00  0.00     0.251 A 
HETATM    4 BR1  UNL     1      -2.380   0.949  -0.975  1.00  0.00    -0.057 Br
ENDROOT
BRANCH   1   5
HETATM    5  N1  UNL     1       1.447  -0.319   0.356  1.00  0.00    -0.050 N 
ATOM      6  H13 UNL     1       1.235  -0.016   1.306  1.00  0.00     0.277 HD
ATOM      7  H12 UNL     1       1.805  -1.259   0.526  1.00  0.00     0.277 HD
ATOM      8  H11 UNL     1       2.198   0.260  -0.018  1.00  0.00     0.277 HD
ENDBRANCH   1   5
TORSDOF 1
