REMARK  2 active torsions:
REMARK  status: ('A' for Active; 'I' for Inactive)
REMARK    1  A    between atoms: N1_2  and  C2_4 
REMARK    2  A    between atoms: C2_4  and  N2_6 
ROOT
HETATM    1  C2  UNL     1       0.685   0.681  -0.139  1.00  0.00     0.238 C 
HETATM    2  S1  UNL     1       1.686   1.933  -0.412  1.00  0.00    -0.035 SA
ENDROOT
BRANCH   1   3
HETATM    3  N1  UNL     1      -0.490   0.856   0.618  1.00  0.00    -0.367 N 
HETATM    4  C1  UNL     1      -1.434  -0.194   0.910  1.00  0.00     0.148 C 
ATOM      5  H1  UNL     1      -0.686   1.788   0.984  1.00  0.00     0.161 HD
ENDBRANCH   1   3
BRANCH   1   6
HETATM    6  N2  UNL     1       1.035  -0.574  -0.684  1.00  0.00    -0.086 N 
HETATM    7  O1  UNL     1       0.257  -1.669  -0.504  1.00  0.00    -0.530 OA
HETATM    8  O2  UNL     1       2.170  -0.712  -1.407  1.00  0.00    -0.530 OA
ENDBRANCH   1   6
TORSDOF 2
