REMARK  7 active torsions:
REMARK  status: ('A' for Active; 'I' for Inactive)
REMARK    1  A    between atoms: N1_2  and  C3_4 
REMARK    2  A    between atoms: C3_4  and  C4_5 
REMARK    3  A    between atoms: C5_8  and  N3_9 
REMARK    4  A    between atoms: N3_9  and  C6_11 
REMARK    5  A    between atoms: C6_11  and  C7_12 
REMARK    6  A    between atoms: C7_12  and  C8_13 
REMARK    7  A    between atoms: C8_13  and  N4_14 
ROOT
HETATM    1  C4  UNL     1      -1.244   0.900   0.871  1.00  0.00     0.140 A 
HETATM    2  N2  UNL     1      -0.829  -0.324   0.513  1.00  0.00    -0.176 N 
ATOM      3  H2  UNL     1      -1.393  -1.010   0.012  1.00  0.00     0.185 HD
HETATM    4  C5  UNL     1       0.455  -0.514   0.917  1.00  0.00     0.694 A 
HETATM    5  N5  UNL     1       0.804   0.629   1.528  1.00  0.00    -0.131 N 
ATOM      6  H5  UNL     1       1.713   0.819   1.950  1.00  0.00     0.205 HD
HETATM    7  N6  UNL     1      -0.224   1.476   1.497  1.00  0.00    -0.273 N 
ATOM      8  H6  UNL     1      -0.227   2.417   1.891  1.00  0.00     0.189 HD
ENDROOT
BRANCH   4   9
HETATM    9  N3  UNL     1       1.160  -1.594   0.744  1.00  0.00    -0.225 N 
ATOM     10  H3  UNL     1       0.767  -2.407   0.269  1.00  0.00     0.177 HD
BRANCH   9  11
HETATM   11  C6  UNL     1       2.514  -1.608   1.244  1.00  0.00     0.140 C 
BRANCH  11  12
HETATM   12  C7  UNL     1       3.291  -2.550   0.333  1.00  0.00     0.047 C 
BRANCH  12  13
HETATM   13  C8  UNL     1       3.260  -2.050  -1.093  1.00  0.00     0.231 C 
BRANCH  13  14
HETATM   14  N4  UNL     1       3.855  -0.728  -1.204  1.00  0.00    -0.079 N 
ATOM     15  H43 UNL     1       3.415  -0.065  -0.566  1.00  0.00     0.274 HD
ATOM     16  H42 UNL     1       4.801  -0.710  -0.822  1.00  0.00     0.274 HD
ATOM     17  H41 UNL     1       3.834  -0.391  -2.166  1.00  0.00     0.274 HD
ENDBRANCH  13  14
ENDBRANCH  12  13
ENDBRANCH  11  12
ENDBRANCH   9  11
ENDBRANCH   4   9
BRANCH   1  18
HETATM   18  C3  UNL     1      -2.558   1.549   0.645  1.00  0.00     0.349 C 
BRANCH  18  19
HETATM   19  N1  UNL     1      -3.332   0.871  -0.375  1.00  0.00     0.086 N 
HETATM   20  C1  UNL     1      -4.599   1.598  -0.487  1.00  0.00     0.309 C 
HETATM   21  C2  UNL     1      -2.678   0.901  -1.667  1.00  0.00     0.309 C 
ENDBRANCH  18  19
ENDBRANCH   1  18
TORSDOF 7
