REMARK  9 active torsions:
REMARK  status: ('A' for Active; 'I' for Inactive)
REMARK    1  A    between atoms: C2_2  and  C3_3 
REMARK    2  A    between atoms: C3_3  and  O1_4 
REMARK    3  A    between atoms: O1_4  and  C4_5 
REMARK    4  A    between atoms: C10_11  and  O2_12 
REMARK    5  A    between atoms: O2_12  and  C11_13 
REMARK    6  A    between atoms: C20_23  and  O4_24 
REMARK    7  A    between atoms: C22_28  and  C23_29 
REMARK    8  A    between atoms: C26_32  and  O6_33 
REMARK    9  A    between atoms: C29_37  and  O7_38 
ROOT
HETATM    1  C4  UNL     1       0.776   1.506   0.366  1.00  0.00     0.133 C 
HETATM    2  C5  UNL     1       1.936   1.021  -0.573  1.00  0.00     0.039 C 
HETATM    3  C6  UNL     1       2.877   0.173   0.245  1.00  0.00     0.007 C 
HETATM    4  C7  UNL     1       4.153   0.034  -0.478  1.00  0.00    -0.016 C 
HETATM    5  C8  UNL     1       4.087   0.198  -1.962  1.00  0.00     0.018 C 
HETATM    6  C9  UNL     1       5.114   1.152  -0.013  1.00  0.00     0.018 C 
HETATM    7  C10 UNL     1       4.906  -1.242  -0.161  1.00  0.00     0.140 C 
HETATM    8  C13 UNL     1       4.019  -2.422  -0.357  1.00  0.00     0.034 C 
HETATM    9  C14 UNL     1       2.558  -2.158  -0.361  1.00  0.00     0.012 C 
HETATM   10  C15 UNL     1       2.120  -1.055   0.626  1.00  0.00    -0.035 C 
HETATM   11  C16 UNL     1       2.620  -1.539   1.985  1.00  0.00     0.016 C 
HETATM   12  C17 UNL     1       0.659  -0.982   0.528  1.00  0.00     0.007 C 
HETATM   13  C18 UNL     1      -0.047  -2.163   1.105  1.00  0.00     0.011 C 
HETATM   14  C19 UNL     1      -1.337  -2.529   0.354  1.00  0.00     0.069 C 
HETATM   15  C20 UNL     1      -2.452  -1.777   0.918  1.00  0.00     0.172 C 
HETATM   16  O5  UNL     1      -1.943  -0.597   1.448  1.00  0.00    -0.347 OA
HETATM   17  C21 UNL     1      -1.370   0.100   0.349  1.00  0.00     0.147 C 
HETATM   18  C22 UNL     1      -2.439   0.996  -0.046  1.00  0.00     0.079 C 
HETATM   19  C26 UNL     1      -3.741   0.170   0.036  1.00  0.00     0.086 C 
HETATM   20  C27 UNL     1      -4.819   0.647  -0.839  1.00  0.00     0.046 C 
HETATM   21  C28 UNL     1      -5.862   1.487  -0.069  1.00  0.00     0.016 C 
HETATM   22  C29 UNL     1      -5.610  -0.396  -1.565  1.00  0.00     0.124 C 
HETATM   23  C30 UNL     1      -4.943  -1.635  -1.974  1.00  0.00     0.033 C 
HETATM   24  C31 UNL     1      -3.685  -2.015  -1.258  1.00  0.00     0.020 C 
HETATM   25  C32 UNL     1      -3.591  -1.337   0.087  1.00  0.00     0.045 C 
HETATM   26  C33 UNL     1      -4.867  -1.839   0.796  1.00  0.00     0.024 C 
HETATM   27  C34 UNL     1      -0.028   0.365   0.846  1.00  0.00     0.014 C 
HETATM   28  C35 UNL     1      -0.101   0.545   2.376  1.00  0.00     0.021 C 
ENDROOT
BRANCH   1  29
HETATM   29  O1  UNL     1       1.401   2.168   1.436  1.00  0.00    -0.381 OA
BRANCH  29  30
HETATM   30  C3  UNL     1       1.425   3.512   1.430  1.00  0.00     0.194 C 
BRANCH  30  31
HETATM   31  C2  UNL     1       0.153   4.250   1.443  1.00  0.00    -0.011 C 
HETATM   32  C1  UNL     1      -0.111   5.082   2.445  1.00  0.00     0.009 C 
ENDBRANCH  30  31
ENDBRANCH  29  30
ENDBRANCH   1  29
BRANCH  18  33
HETATM   33  C23 UNL     1      -2.298   1.609  -1.406  1.00  0.00    -0.084 C 
HETATM   34  C24 UNL     1      -2.320   2.942  -1.581  1.00  0.00     0.014 C 
HETATM   35  C25 UNL     1      -2.090   0.863  -2.677  1.00  0.00     0.043 C 
ENDBRANCH  18  33
BRANCH   7  36
HETATM   36  O2  UNL     1       6.012  -1.320  -1.032  1.00  0.00    -0.316 OA
BRANCH  36  37
HETATM   37  C11 UNL     1       7.299  -1.244  -0.531  1.00  0.00     0.255 C 
HETATM   38  C12 UNL     1       8.517  -1.317  -1.377  1.00  0.00     0.126 C 
HETATM   39  O3  UNL     1       7.459  -1.103   0.714  1.00  0.00    -0.266 OA
ENDBRANCH  36  37
ENDBRANCH   7  36
BRANCH  15  40
HETATM   40  O4  UNL     1      -2.804  -2.458   2.118  1.00  0.00    -0.364 OA
ATOM     41  H4  UNL     1      -3.530  -1.968   2.485  1.00  0.00     0.213 HD
ENDBRANCH  15  40
BRANCH  19  42
HETATM   42  O6  UNL     1      -4.171   0.444   1.377  1.00  0.00    -0.388 OA
ATOM     43  H6  UNL     1      -4.972  -0.064   1.427  1.00  0.00     0.210 HD
ENDBRANCH  19  42
BRANCH  22  44
HETATM   44  O7  UNL     1      -6.153   0.219  -2.727  1.00  0.00    -0.395 OA
ATOM     45  H7  UNL     1      -6.655  -0.443  -3.188  1.00  0.00     0.210 HD
ENDBRANCH  22  44
TORSDOF 9
