REMARK  9 active torsions:
REMARK  status: ('A' for Active; 'I' for Inactive)
REMARK    1  A    between atoms: C2_2  and  C3_3 
REMARK    2  A    between atoms: C3_3  and  C4_4 
REMARK    3  A    between atoms: C4_4  and  O1_5 
REMARK    4  A    between atoms: O1_5  and  C5_6 
REMARK    5  A    between atoms: C5_6  and  C6_8 
REMARK    6  A    between atoms: C23_25  and  C24_26 
REMARK    7  A    between atoms: C24_26  and  O4_28 
REMARK    8  A    between atoms: C35_39  and  O5_40 
REMARK    9  A    between atoms: C36_42  and  O6_43 
ROOT
HETATM    1  C6  UNL     1       2.862  -0.934  -0.271  1.00  0.00     0.052 C 
HETATM    2  C7  UNL     1       3.727  -2.029  -0.793  1.00  0.00     0.021 C 
HETATM    3  C8  UNL     1       2.988  -3.179  -1.421  1.00  0.00     0.010 C 
HETATM    4  C9  UNL     1       2.070  -3.680  -0.322  1.00  0.00    -0.047 C 
HETATM    5  C10 UNL     1       2.776  -4.079   0.920  1.00  0.00     0.015 C 
HETATM    6  C11 UNL     1       1.390  -4.931  -0.889  1.00  0.00     0.015 C 
HETATM    7  C12 UNL     1       1.004  -2.650  -0.154  1.00  0.00     0.015 C 
HETATM    8  C13 UNL     1       1.450  -1.228   0.036  1.00  0.00     0.012 C 
HETATM    9  C14 UNL     1       0.418  -0.360  -0.624  1.00  0.00     0.038 C 
HETATM   10  C15 UNL     1       0.806   1.031  -0.932  1.00  0.00    -0.027 C 
HETATM   11  C16 UNL     1       0.534   1.509  -2.368  1.00  0.00     0.016 C 
HETATM   12  C17 UNL     1       2.238   1.359  -0.619  1.00  0.00     0.012 C 
HETATM   13  C18 UNL     1       3.018   0.215  -1.288  1.00  0.00     0.021 C 
HETATM   14  C19 UNL     1      -0.236   1.482   0.049  1.00  0.00    -0.002 C 
HETATM   15  C20 UNL     1       0.464   2.139   1.248  1.00  0.00     0.019 C 
HETATM   16  C21 UNL     1      -1.246   2.468  -0.450  1.00  0.00     0.014 C 
HETATM   17  C22 UNL     1      -2.376   2.464   0.551  1.00  0.00     0.021 C 
HETATM   18  C23 UNL     1      -3.509   1.726  -0.051  1.00  0.00     0.055 C 
HETATM   19  C26 UNL     1      -4.801   2.111   0.683  1.00  0.00     0.020 C 
HETATM   20  C27 UNL     1      -5.807   1.077   0.140  1.00  0.00     0.007 C 
HETATM   21  C28 UNL     1      -5.620  -0.113   0.984  1.00  0.00     0.003 A 
HETATM   22  C29 UNL     1      -5.253  -1.453   0.614  1.00  0.00    -0.035 A 
HETATM   23  C30 UNL     1      -5.431  -1.862  -0.825  1.00  0.00     0.016 C 
HETATM   24  C31 UNL     1      -5.524  -2.585   1.590  1.00  0.00     0.016 C 
HETATM   25  C32 UNL     1      -4.154  -0.478   1.006  1.00  0.00    -0.025 A 
HETATM   26  C33 UNL     1      -3.605  -0.652   2.382  1.00  0.00     0.017 C 
HETATM   27  C34 UNL     1      -3.349   0.234  -0.071  1.00  0.00     0.045 C 
HETATM   28  C35 UNL     1      -2.020  -0.306  -0.346  1.00  0.00     0.159 C 
HETATM   29  C36 UNL     1      -0.758   0.107   0.263  1.00  0.00     0.097 C 
ENDROOT
BRANCH   1  30
HETATM   30  C5  UNL     1       3.613  -0.414   0.941  1.00  0.00     0.268 C 
HETATM   31  O2  UNL     1       3.094  -0.465   2.083  1.00  0.00    -0.264 OA
BRANCH  30  32
HETATM   32  O1  UNL     1       4.872   0.125   0.839  1.00  0.00    -0.321 OA
BRANCH  32  33
HETATM   33  C4  UNL     1       5.522   0.593   2.005  1.00  0.00     0.178 C 
BRANCH  33  34
HETATM   34  C3  UNL     1       6.874   1.121   1.571  1.00  0.00     0.026 C 
BRANCH  34  35
HETATM   35  C2  UNL     1       6.736   2.253   0.570  1.00  0.00    -0.002 C 
HETATM   36  C1  UNL     1       8.142   2.701   0.209  1.00  0.00     0.005 C 
ENDBRANCH  34  35
ENDBRANCH  33  34
ENDBRANCH  32  33
ENDBRANCH  30  32
ENDBRANCH   1  30
BRANCH  29  37
HETATM   37  O6  UNL     1      -0.539  -0.228   1.608  1.00  0.00    -0.386 OA
ATOM     38  H6  UNL     1      -1.262   0.059   2.153  1.00  0.00     0.210 HD
ENDBRANCH  29  37
BRANCH  28  39
HETATM   39  O5  UNL     1      -2.121  -1.699  -0.053  1.00  0.00    -0.392 OA
ATOM     40  H5  UNL     1      -1.257  -2.050  -0.232  1.00  0.00     0.210 HD
ENDBRANCH  28  39
BRANCH  18  41
HETATM   41  C24 UNL     1      -3.731   2.297  -1.426  1.00  0.00     0.267 C 
HETATM   42  O3  UNL     1      -3.681   1.604  -2.473  1.00  0.00    -0.264 OA
BRANCH  41  43
HETATM   43  O4  UNL     1      -4.004   3.647  -1.558  1.00  0.00    -0.326 OA
HETATM   44  C25 UNL     1      -4.226   4.257  -2.826  1.00  0.00     0.213 C 
ENDBRANCH  41  43
ENDBRANCH  18  41
TORSDOF 9
