REMARK  1 active torsions:
REMARK  status: ('A' for Active; 'I' for Inactive)
REMARK    1  A    between atoms: C5_6  and  C6_7 
ROOT
HETATM    1  C1  UNL     1      -2.719   2.028   0.987  1.00  0.00     0.026 C 
HETATM    2  C2  UNL     1      -2.101   1.006   0.418  1.00  0.00     0.018 C 
HETATM    3  C3  UNL     1      -0.663   0.801   0.563  1.00  0.00     0.196 C 
HETATM    4  O1  UNL     1      -0.078   1.275   1.582  1.00  0.00    -0.287 OA
HETATM    5  C4  UNL     1       0.050   0.062  -0.461  1.00  0.00     0.090 C 
HETATM    6  C5  UNL     1       1.319  -0.188  -0.452  1.00  0.00     0.022 C 
HETATM    7  C10 UNL     1      -0.759  -0.436  -1.599  1.00  0.00     0.298 C 
HETATM    8  O2  UNL     1      -0.216  -1.097  -2.550  1.00  0.00    -0.259 OA
HETATM    9  O3  UNL     1      -2.118  -0.187  -1.639  1.00  0.00    -0.302 OA
HETATM   10  C11 UNL     1      -2.840   0.002  -0.407  1.00  0.00     0.094 C 
HETATM   11  C12 UNL     1      -2.839  -1.298   0.365  1.00  0.00     0.052 C 
HETATM   12  C13 UNL     1      -4.238   0.426  -0.712  1.00  0.00     0.052 C 
ENDROOT
BRANCH   6  13
HETATM   13  C6  UNL     1       2.351   0.154   0.494  1.00  0.00     0.003 C 
HETATM   14  C7  UNL     1       3.624  -0.229   0.275  1.00  0.00    -0.088 C 
HETATM   15  C8  UNL     1       4.009  -0.998  -0.916  1.00  0.00     0.043 C 
HETATM   16  C9  UNL     1       4.651   0.145   1.273  1.00  0.00     0.043 C 
ENDBRANCH   6  13
TORSDOF 1
