REMARK  3 active torsions:
REMARK  status: ('A' for Active; 'I' for Inactive)
REMARK    1  A    between atoms: C2_2  and  C3_3 
REMARK    2  A    between atoms: C3_3  and  O1_5 
REMARK    3  A    between atoms: O1_5  and  C5_6 
REMARK       I    between atoms: C5_6  and  N1_8 
ROOT
HETATM    1  C5  UNL     1       0.344   1.215  -0.940  1.00  0.00     0.363 C 
HETATM    2  O2  UNL     1       0.914   1.800  -1.891  1.00  0.00    -0.238 OA
HETATM    3  N1  UNL     1      -1.067   1.180  -0.797  1.00  0.00    -0.318 N 
HETATM    4  C6  UNL     1      -1.962   1.818  -1.741  1.00  0.00     0.203 C 
HETATM    5  S1  UNL     1      -3.285   0.544  -1.823  1.00  0.00    -0.138 SA
HETATM    6  C7  UNL     1      -2.782  -0.416  -0.340  1.00  0.00     0.019 C 
HETATM    7  C8  UNL     1      -2.212  -1.743  -0.707  1.00  0.00     0.028 C 
HETATM    8  C9  UNL     1      -3.933  -0.578   0.611  1.00  0.00     0.028 C 
HETATM    9  C10 UNL     1      -1.771   0.534   0.260  1.00  0.00     0.148 C 
ENDROOT
BRANCH   1  10
HETATM   10  O1  UNL     1       1.175   0.596  -0.022  1.00  0.00    -0.299 OA
BRANCH  10  11
HETATM   11  C3  UNL     1       2.560   0.575  -0.076  1.00  0.00     0.129 C 
HETATM   12  C4  UNL     1       3.233   1.291   1.076  1.00  0.00     0.040 C 
BRANCH  11  13
HETATM   13  C2  UNL     1       3.150  -0.803  -0.261  1.00  0.00     0.028 C 
HETATM   14  C1  UNL     1       2.975  -1.655   0.984  1.00  0.00     0.007 C 
ENDBRANCH  11  13
ENDBRANCH  10  11
ENDBRANCH   1  10
TORSDOF 3
