REMARK  1 active torsions:
REMARK  status: ('A' for Active; 'I' for Inactive)
REMARK    1  A    between atoms: C2_2  and  C3_3 
ROOT
HETATM    1  C3  UNL     1       1.493  -0.279   0.032  1.00  0.00     0.261 C 
HETATM    2  O1  UNL     1       1.073   0.858  -0.558  1.00  0.00    -0.350 OA
HETATM    3  C4  UNL     1      -0.259   1.141  -0.559  1.00  0.00     0.066 C 
HETATM    4  C5  UNL     1      -0.400   2.406  -1.438  1.00  0.00     0.046 C 
HETATM    5  C6  UNL     1      -0.810   1.582   0.766  1.00  0.00     0.041 C 
HETATM    6  C7  UNL     1      -1.227   0.525   1.688  1.00  0.00     0.038 C 
HETATM    7  C8  UNL     1      -1.663  -0.761   1.096  1.00  0.00     0.155 C 
HETATM    8  O2  UNL     1      -2.732  -0.674   0.241  1.00  0.00    -0.382 OA
HETATM    9  C9  UNL     1      -2.560   0.230  -0.785  1.00  0.00     0.176 C 
HETATM   10  C10 UNL     1      -1.121   0.129  -1.262  1.00  0.00     0.047 C 
HETATM   11  C11 UNL     1      -0.683  -1.290  -1.040  1.00  0.00     0.050 C 
HETATM   12  C12 UNL     1      -0.463  -1.462   0.440  1.00  0.00     0.087 C 
HETATM   13  C13 UNL     1      -0.476  -2.947   0.735  1.00  0.00     0.049 C 
HETATM   14  O3  UNL     1       0.669  -0.884   0.922  1.00  0.00    -0.348 OA
ENDROOT
BRANCH   1  15
HETATM   15  C2  UNL     1       2.804   0.039   0.772  1.00  0.00     0.056 C 
HETATM   16  C1  UNL     1       3.838   0.533  -0.220  1.00  0.00     0.010 C 
ENDBRANCH   1  15
TORSDOF 1
