REMARK  6 active torsions:
REMARK  status: ('A' for Active; 'I' for Inactive)
REMARK    1  A    between atoms: C1_4  and  N2_5 
REMARK    2  A    between atoms: C1_4  and  C12_25 
REMARK    3  A    between atoms: N3_7  and  N4_9 
REMARK    4  A    between atoms: C4_15  and  O1_16 
REMARK    5  A    between atoms: C12_25  and  N7_29 
REMARK    6  A    between atoms: N7_29  and  N8_31 
ROOT
HETATM    1  N2  UNL     1      -2.076   0.434   0.384  1.00  0.00    -0.267 N 
ATOM      2  H2  UNL     1      -1.971   1.413   0.650  1.00  0.00     0.190 HD
HETATM    3  N3  UNL     1      -1.058  -0.219  -0.020  1.00  0.00    -0.223 N 
ATOM      4  H3  UNL     1      -1.200  -1.196  -0.277  1.00  0.00     0.210 HD
ENDROOT
BRANCH   3   5
HETATM    5  N4  UNL     1       0.202   0.280  -0.136  1.00  0.00    -0.206 N 
HETATM    6  N5  UNL     1       0.601   1.097  -1.253  1.00  0.00    -0.274 N 
HETATM    7  C2  UNL     1       1.982   1.145  -1.641  1.00  0.00     0.104 A 
ATOM      8  H5  UNL     1      -0.095   1.639  -1.766  1.00  0.00     0.189 HD
HETATM    9  S1  UNL     1       2.873   2.074  -2.791  1.00  0.00    -0.079 SA
HETATM   10  C5  UNL     1       2.969   0.429  -1.001  1.00  0.00     0.042 A 
HETATM   11  C3  UNL     1       4.445   1.531  -2.419  1.00  0.00     0.089 A 
HETATM   12  C4  UNL     1       4.227   0.635  -1.405  1.00  0.00     0.086 A 
HETATM   13  C6  UNL     1       2.409  -0.528  -0.006  1.00  0.00    -0.012 C 
HETATM   14  C7  UNL     1       3.293  -1.454   0.656  1.00  0.00     0.011 C 
HETATM   15  C11 UNL     1       1.320   0.104   0.777  1.00  0.00     0.185 C 
HETATM   16  C8  UNL     1       2.999  -1.813   1.913  1.00  0.00     0.001 C 
HETATM   17  C9  UNL     1       1.857  -1.302   2.649  1.00  0.00    -0.002 C 
HETATM   18  C10 UNL     1       1.058  -0.404   2.102  1.00  0.00     0.007 C 
BRANCH  12  19
HETATM   19  O1  UNL     1       5.344  -0.024  -0.837  1.00  0.00    -0.359 OA
ATOM     20  H1  UNL     1       5.193  -0.645  -0.134  1.00  0.00     0.217 HD
ENDBRANCH  12  19
ENDBRANCH   3   5
BRANCH   1  21
HETATM   21  C1  UNL     1      -3.358  -0.182   0.470  1.00  0.00     0.160 C 
HETATM   22  N1  UNL     1      -3.500  -1.427   0.760  1.00  0.00    -0.381 N 
ATOM     23  H12 UNL     1      -2.651  -1.967   0.928  1.00  0.00     0.157 HD
ATOM     24  H11 UNL     1      -4.418  -1.868   0.822  1.00  0.00     0.157 HD
BRANCH  21  25
HETATM   25  C12 UNL     1      -4.589   0.601   0.226  1.00  0.00     0.159 C 
HETATM   26  N6  UNL     1      -4.470   1.853  -0.066  1.00  0.00    -0.381 N 
ATOM     27  H62 UNL     1      -3.549   2.288  -0.126  1.00  0.00     0.157 HD
ATOM     28  H61 UNL     1      -5.319   2.393  -0.234  1.00  0.00     0.157 HD
BRANCH  25  29
HETATM   29  N7  UNL     1      -5.858   0.001   0.309  1.00  0.00    -0.289 N 
ATOM     30  H7  UNL     1      -6.145  -0.388   1.207  1.00  0.00     0.188 HD
BRANCH  29  31
HETATM   31  N8  UNL     1      -6.750  -0.096  -0.760  1.00  0.00    -0.344 N 
ATOM     32  H82 UNL     1      -6.447   0.298  -1.651  1.00  0.00     0.176 HD
ATOM     33  H81 UNL     1      -7.671  -0.531  -0.700  1.00  0.00     0.176 HD
ENDBRANCH  29  31
ENDBRANCH  25  29
ENDBRANCH  21  25
ENDBRANCH   1  21
TORSDOF 6
