REMARK  4 active torsions:
REMARK  status: ('A' for Active; 'I' for Inactive)
REMARK    1  A    between atoms: C6_8  and  O2_9 
REMARK    2  A    between atoms: C10_14  and  N1_15 
REMARK    3  A    between atoms: N1_15  and  C11_17 
REMARK    4  A    between atoms: C12_24  and  N5_25 
ROOT
HETATM    1  C1  UNL     1       0.214  -1.555   2.041  1.00  0.00     0.049 C 
HETATM    2  C2  UNL     1      -1.036  -0.990   1.486  1.00  0.00    -0.047 A 
HETATM    3  C3  UNL     1      -2.225  -1.389   1.917  1.00  0.00     0.024 A 
HETATM    4  C4  UNL     1      -3.529  -0.885   1.426  1.00  0.00     0.225 A 
HETATM    5  S1  UNL     1      -4.378  -0.163   2.881  1.00  0.00    -0.058 SA
HETATM    6  O1  UNL     1      -3.455   0.089   0.444  1.00  0.00    -0.327 OA
HETATM    7  C5  UNL     1      -2.242   0.549  -0.048  1.00  0.00     0.117 A 
HETATM    8  C6  UNL     1      -2.303   1.522  -1.032  1.00  0.00     0.106 A 
HETATM    9  C7  UNL     1      -1.107   1.992  -1.533  1.00  0.00    -0.024 A 
HETATM   10  C8  UNL     1      -1.150   3.037  -2.589  1.00  0.00     0.051 C 
HETATM   11  C9  UNL     1       0.104   1.491  -1.052  1.00  0.00     0.040 A 
HETATM   12  C10 UNL     1       0.141   0.519  -0.070  1.00  0.00     0.063 A 
HETATM   13  C13 UNL     1      -1.039   0.040   0.441  1.00  0.00     0.033 A 
ENDROOT
BRANCH  12  14
HETATM   14  N1  UNL     1       1.372   0.053   0.367  1.00  0.00    -0.189 N 
ATOM     15  H1  UNL     1       1.475  -0.012   1.380  1.00  0.00     0.184 HD
BRANCH  14  16
HETATM   16  C11 UNL     1       2.390  -0.305  -0.300  1.00  0.00     0.713 A 
HETATM   17  N2  UNL     1       2.352  -0.256  -1.636  1.00  0.00    -0.116 N 
HETATM   18  N3  UNL     1       3.398  -0.623  -2.369  1.00  0.00    -0.214 N 
ATOM     19  H2  UNL     1       1.504   0.069  -2.101  1.00  0.00     0.207 HD
HETATM   20  N4  UNL     1       4.521  -1.051  -1.818  1.00  0.00    -0.117 N 
ATOM     21  H3  UNL     1       3.333  -0.573  -3.386  1.00  0.00     0.209 HD
HETATM   22  C12 UNL     1       4.598  -1.114  -0.469  1.00  0.00     0.706 A 
ATOM     23  H4  UNL     1       5.313  -1.328  -2.398  1.00  0.00     0.207 HD
HETATM   24  N6  UNL     1       3.520  -0.737   0.282  1.00  0.00    -0.020 N 
ATOM     25  H6  UNL     1       3.575  -0.785   1.299  1.00  0.00     0.203 HD
BRANCH  22  26
HETATM   26  N5  UNL     1       5.686  -1.530   0.083  1.00  0.00    -0.233 N 
ATOM     27  H52 UNL     1       6.490  -1.811  -0.477  1.00  0.00     0.174 HD
ATOM     28  H51 UNL     1       5.744  -1.578   1.100  1.00  0.00     0.174 HD
ENDBRANCH  22  26
ENDBRANCH  14  16
ENDBRANCH  12  14
BRANCH   8  29
HETATM   29  O2  UNL     1      -3.508   2.019  -1.509  1.00  0.00    -0.357 OA
ATOM     30  H2  UNL     1      -3.550   2.686  -2.184  1.00  0.00     0.217 HD
ENDBRANCH   8  29
TORSDOF 4
