REMARK  6 active torsions:
REMARK  status: ('A' for Active; 'I' for Inactive)
REMARK    1  A    between atoms: C3_3  and  O1_4 
REMARK    2  A    between atoms: C4_7  and  O3_8 
REMARK    3  A    between atoms: C5_10  and  C6_11 
REMARK    4  A    between atoms: C11_16  and  O4_17 
REMARK    5  A    between atoms: N1_20  and  O5_22 
REMARK    6  A    between atoms: C14_28  and  O6_29 
ROOT
HETATM    1  C6  UNL     1      -0.528   0.689   0.407  1.00  0.00    -0.030 C 
HETATM    2  C7  UNL     1      -0.150   1.985  -0.191  1.00  0.00     0.016 C 
HETATM    3  C8  UNL     1      -0.323   3.213   0.660  1.00  0.00     0.015 C 
HETATM    4  C9  UNL     1       1.319   2.006  -0.606  1.00  0.00     0.013 C 
HETATM    5  C10 UNL     1       1.862   0.746  -1.189  1.00  0.00     0.050 C 
HETATM    6  C11 UNL     1       1.518  -0.524  -0.465  1.00  0.00     0.131 C 
HETATM    7  C12 UNL     1       2.635  -1.192   0.227  1.00  0.00     0.095 C 
HETATM    8  N1  UNL     1       3.841  -1.452  -0.159  1.00  0.00    -0.268 N 
ATOM      9  H1  UNL     1       4.483  -1.928   0.475  1.00  0.00     0.194 HD
HETATM   10  C13 UNL     1       2.101  -1.598   1.554  1.00  0.00     0.064 C 
HETATM   11  N2  UNL     1       2.677  -2.067   2.560  1.00  0.00    -0.398 N 
ATOM     12  H21 UNL     1       2.311  -2.346   3.470  1.00  0.00     0.156 HD
ATOM     13  H22 UNL     1       3.682  -2.241   2.591  1.00  0.00     0.156 HD
HETATM   14  C14 UNL     1       0.591  -1.336   1.507  1.00  0.00     0.202 C 
HETATM   15  C15 UNL     1       0.650  -0.137   0.668  1.00  0.00     0.002 C 
ENDROOT
BRANCH   1  16
HETATM   16  C5  UNL     1      -1.866   0.160   0.317  1.00  0.00     0.040 A 
HETATM   17  C2  UNL     1      -2.548  -0.404  -0.774  1.00  0.00     0.012 A 
HETATM   18  C1  UNL     1      -2.152  -0.299  -2.178  1.00  0.00     0.054 C 
HETATM   19  C3  UNL     1      -3.710  -0.961  -0.316  1.00  0.00     0.192 A 
HETATM   20  O2  UNL     1      -3.800  -0.782   0.975  1.00  0.00    -0.264 OA
HETATM   21  C4  UNL     1      -2.754  -0.140   1.361  1.00  0.00     0.197 A 
BRANCH  19  22
HETATM   22  O1  UNL     1      -4.626  -1.614  -1.157  1.00  0.00    -0.340 OA
ATOM     23  H1  UNL     1      -5.433  -2.001  -0.839  1.00  0.00     0.220 HD
ENDBRANCH  19  22
BRANCH  21  24
HETATM   24  O3  UNL     1      -2.572   0.197   2.719  1.00  0.00    -0.340 OA
ATOM     25  H3  UNL     1      -1.800   0.671   3.004  1.00  0.00     0.220 HD
ENDBRANCH  21  24
ENDBRANCH   1  16
BRANCH   6  26
HETATM   26  O4  UNL     1       1.038  -1.539  -1.291  1.00  0.00    -0.379 OA
ATOM     27  H4  UNL     1       0.820  -2.342  -0.833  1.00  0.00     0.211 HD
ENDBRANCH   6  26
BRANCH  14  28
HETATM   28  O6  UNL     1       0.034  -2.472   0.981  1.00  0.00    -0.385 OA
ATOM     29  H6  UNL     1      -0.902  -2.310   0.952  1.00  0.00     0.210 HD
ENDBRANCH  14  28
BRANCH   8  30
HETATM   30  O5  UNL     1       4.261  -1.096  -1.404  1.00  0.00    -0.290 OA
ATOM     31  H5  UNL     1       5.147  -1.287  -1.688  1.00  0.00     0.244 HD
ENDBRANCH   8  30
TORSDOF 6
