REMARK  12 active torsions:
REMARK  status: ('A' for Active; 'I' for Inactive)
REMARK    1  A    between atoms: C2_2  and  S1_4 
REMARK    2  A    between atoms: S1_4  and  C3_5 
REMARK    3  A    between atoms: C3_5  and  C4_6 
REMARK    4  A    between atoms: C4_6  and  C5_7 
REMARK    5  A    between atoms: C5_7  and  C7_9 
REMARK       I    between atoms: C7_9  and  N1_11 
REMARK    6  A    between atoms: N1_11  and  C8_13 
REMARK    7  A    between atoms: C13_18  and  N2_19 
REMARK       I    between atoms: N2_19  and  C14_21 
REMARK    8  A    between atoms: C14_21  and  C15_23 
REMARK       I    between atoms: N3_26  and  C18_27 
REMARK    9  A    between atoms: C18_27  and  O5_29 
REMARK   10  A    between atoms: O5_29  and  C19_30 
REMARK   11  A    between atoms: C19_30  and  C20_31 
REMARK   12  A    between atoms: C20_31  and  O6_32 
ROOT
HETATM    1  C8  UNL     1      -2.748  -0.419   0.230  1.00  0.00     0.034 C 
HETATM    2  C9  UNL     1      -3.358  -1.060  -0.996  1.00  0.00     0.035 C 
HETATM    3  C10 UNL     1      -2.717  -2.289  -1.490  1.00  0.00    -0.012 C 
HETATM    4  C11 UNL     1      -1.962  -2.098  -2.795  1.00  0.00     0.007 C 
HETATM    5  C12 UNL     1      -0.975  -0.970  -2.722  1.00  0.00     0.026 C 
HETATM    6  C13 UNL     1       0.007  -1.130  -1.597  1.00  0.00     0.089 C 
HETATM    7  C23 UNL     1      -0.512  -0.889  -0.232  1.00  0.00     0.015 C 
HETATM    8  C24 UNL     1      -1.455   0.270  -0.102  1.00  0.00     0.038 C 
HETATM    9  C25 UNL     1      -1.143  -2.084   0.438  1.00  0.00    -0.006 C 
HETATM   10  C26 UNL     1      -1.813  -3.007  -0.548  1.00  0.00     0.010 C 
HETATM   11  C27 UNL     1      -2.299  -1.450   1.236  1.00  0.00     0.036 C 
ENDROOT
BRANCH   6  12
HETATM   12  N2  UNL     1       1.210  -0.349  -1.806  1.00  0.00    -0.356 N 
HETATM   13  C14 UNL     1       2.466  -0.877  -2.108  1.00  0.00     0.222 C 
HETATM   14  O3  UNL     1       2.587  -2.125  -2.212  1.00  0.00    -0.273 OA
ATOM     15  H2  UNL     1       1.133   0.665  -1.726  1.00  0.00     0.162 HD
BRANCH  13  16
HETATM   16  C15 UNL     1       3.649  -0.045  -2.308  1.00  0.00     0.081 C 
HETATM   17  C16 UNL     1       4.110   0.714  -1.099  1.00  0.00     0.034 C 
HETATM   18  C17 UNL     1       4.801  -0.170  -0.077  1.00  0.00     0.129 C 
HETATM   19  N3  UNL     1       5.896  -0.831  -0.754  1.00  0.00    -0.328 N 
HETATM   20  C18 UNL     1       7.237  -0.723  -0.266  1.00  0.00     0.362 C 
HETATM   21  C21 UNL     1       5.576  -1.602  -1.936  1.00  0.00     0.129 C 
HETATM   22  O4  UNL     1       8.186  -1.299  -0.855  1.00  0.00    -0.238 OA
HETATM   23  C22 UNL     1       4.814  -0.761  -2.937  1.00  0.00     0.034 C 
BRANCH  20  24
HETATM   24  O5  UNL     1       7.540   0.017   0.868  1.00  0.00    -0.302 OA
BRANCH  24  25
HETATM   25  C19 UNL     1       8.873   0.083   1.298  1.00  0.00     0.206 C 
BRANCH  25  26
HETATM   26  C20 UNL     1       9.042   0.921   2.539  1.00  0.00     0.191 C 
BRANCH  26  27
HETATM   27  O6  UNL     1       8.637   2.230   2.379  1.00  0.00    -0.399 OA
ATOM     28  H6  UNL     1       8.744   2.758   3.161  1.00  0.00     0.209 HD
ENDBRANCH  26  27
ENDBRANCH  25  26
ENDBRANCH  24  25
ENDBRANCH  20  24
ENDBRANCH  13  16
ENDBRANCH   6  12
BRANCH   1  29
HETATM   29  N1  UNL     1      -3.754   0.462   0.808  1.00  0.00    -0.351 N 
HETATM   30  C7  UNL     1      -3.622   1.235   1.952  1.00  0.00     0.222 C 
HETATM   31  O2  UNL     1      -2.541   1.239   2.654  1.00  0.00    -0.273 OA
ATOM     32  H1  UNL     1      -4.648   0.516   0.321  1.00  0.00     0.163 HD
BRANCH  30  33
HETATM   33  C5  UNL     1      -4.709   2.130   2.473  1.00  0.00     0.074 C 
HETATM   34  C6  UNL     1      -4.089   2.736   3.809  1.00  0.00     0.020 C 
BRANCH  33  35
HETATM   35  C4  UNL     1      -4.951   3.312   1.629  1.00  0.00     0.024 C 
BRANCH  35  36
HETATM   36  C3  UNL     1      -5.651   3.139   0.332  1.00  0.00     0.083 C 
BRANCH  36  37
HETATM   37  S1  UNL     1      -7.318   2.709   0.447  1.00  0.00    -0.093 SA
BRANCH  37  38
HETATM   38  C2  UNL     1      -8.058   1.281   0.912  1.00  0.00     0.182 C 
HETATM   39  C1  UNL     1      -7.463  -0.061   1.131  1.00  0.00     0.104 C 
HETATM   40  O1  UNL     1      -9.336   1.270   1.131  1.00  0.00    -0.286 OA
ENDBRANCH  37  38
ENDBRANCH  36  37
ENDBRANCH  35  36
ENDBRANCH  33  35
ENDBRANCH  30  33
ENDBRANCH   1  29
TORSDOF 12
