REMARK  16 active torsions:
REMARK  status: ('A' for Active; 'I' for Inactive)
REMARK    1  A    between atoms: O1_2  and  C2_3 
REMARK    2  A    between atoms: C4_5  and  C5_6 
REMARK    3  A    between atoms: C5_6  and  O2_7 
REMARK    4  A    between atoms: C5_6  and  C6_9 
REMARK    5  A    between atoms: C6_9  and  C7_10 
REMARK    6  A    between atoms: N1_14  and  C11_15 
REMARK    7  A    between atoms: C11_15  and  C13_17 
REMARK    8  A    between atoms: C11_15  and  C17_27 
REMARK    9  A    between atoms: C13_17  and  C14_18 
REMARK   10  A    between atoms: C14_18  and  C15_19 
REMARK   11  A    between atoms: C15_19  and  N2_20 
REMARK       I    between atoms: N2_20  and  C16_22 
REMARK   12  A    between atoms: C17_27  and  C18_28 
REMARK   13  A    between atoms: C18_28  and  S1_29 
REMARK   14  A    between atoms: S1_29  and  C19_30 
REMARK   15  A    between atoms: C25_40  and  C26_41 
REMARK   16  A    between atoms: C26_41  and  N6_43 
ROOT
HETATM    1  C7  UNL     1      -0.487   0.167   0.409  1.00  0.00     0.080 C 
HETATM    2  C8  UNL     1       0.165   1.387   0.970  1.00  0.00     0.015 C 
HETATM    3  C9  UNL     1      -0.797   2.524   1.109  1.00  0.00     0.021 C 
HETATM    4  C10 UNL     1      -2.212   2.117   1.501  1.00  0.00     0.127 C 
HETATM    5  N1  UNL     1      -2.749   1.239   0.447  1.00  0.00    -0.343 N 
HETATM    6  C22 UNL     1      -1.702   0.644  -0.324  1.00  0.00     0.224 C 
HETATM    7  O4  UNL     1      -1.834   0.550  -1.554  1.00  0.00    -0.273 OA
ENDROOT
BRANCH   5   8
HETATM    8  C11 UNL     1      -4.157   0.976   0.200  1.00  0.00     0.032 C 
HETATM    9  C12 UNL     1      -4.582   1.129  -1.222  1.00  0.00     0.039 C 
BRANCH   8  10
HETATM   10  C13 UNL     1      -4.659  -0.246   0.838  1.00  0.00     0.032 C 
BRANCH  10  11
HETATM   11  C14 UNL     1      -4.067  -1.573   0.603  1.00  0.00     0.022 C 
BRANCH  11  12
HETATM   12  C15 UNL     1      -4.118  -2.158  -0.767  1.00  0.00     0.122 C 
BRANCH  12  13
HETATM   13  N2  UNL     1      -5.462  -2.294  -1.301  1.00  0.00    -0.365 N 
HETATM   14  C16 UNL     1      -5.567  -2.820  -2.605  1.00  0.00     0.181 C 
HETATM   15  N3  UNL     1      -5.532  -4.092  -2.797  1.00  0.00    -0.374 N 
HETATM   16  N4  UNL     1      -5.713  -1.974  -3.751  1.00  0.00    -0.064 NA
ATOM     17  H32 UNL     1      -5.428  -4.695  -1.981  1.00  0.00     0.158 HD
ATOM     18  H31 UNL     1      -5.608  -4.473  -3.740  1.00  0.00     0.158 HD
ATOM     19  H2  UNL     1      -6.285  -2.024  -0.762  1.00  0.00     0.162 HD
ENDBRANCH  12  13
ENDBRANCH  11  12
ENDBRANCH  10  11
ENDBRANCH   8  10
BRANCH   8  20
HETATM   20  C17 UNL     1      -4.802   2.156   0.990  1.00  0.00     0.041 C 
BRANCH  20  21
HETATM   21  C18 UNL     1      -6.252   2.284   0.973  1.00  0.00     0.085 C 
BRANCH  21  22
HETATM   22  S1  UNL     1      -7.264   1.018   1.732  1.00  0.00    -0.086 SA
BRANCH  22  23
HETATM   23  C19 UNL     1      -8.991   1.431   1.443  1.00  0.00     0.186 A 
HETATM   24  N5  UNL     1      -9.685   1.015   0.343  1.00  0.00    -0.339 N 
HETATM   25  C20 UNL     1     -10.919   1.484   0.429  1.00  0.00     0.115 A 
ATOM     26  H5  UNL     1      -9.315   0.441  -0.415  1.00  0.00     0.167 HD
HETATM   27  C21 UNL     1     -10.992   2.207   1.608  1.00  0.00     0.162 A 
HETATM   28  O3  UNL     1      -9.813   2.135   2.161  1.00  0.00    -0.299 OA
ENDBRANCH  22  23
ENDBRANCH  21  22
ENDBRANCH  20  21
ENDBRANCH   8  20
ENDBRANCH   5   8
BRANCH   1  29
HETATM   29  C6  UNL     1       0.306  -0.697  -0.502  1.00  0.00     0.046 C 
BRANCH  29  30
HETATM   30  C5  UNL     1       1.547  -1.302  -0.021  1.00  0.00     0.123 C 
BRANCH  30  31
HETATM   31  C4  UNL     1       2.693  -0.448   0.374  1.00  0.00     0.017 C 
HETATM   32  C3  UNL     1       3.348   0.172  -0.881  1.00  0.00     0.039 C 
HETATM   33  C2  UNL     1       4.475   1.047  -0.373  1.00  0.00     0.127 C 
HETATM   34  C25 UNL     1       5.569   0.255   0.262  1.00  0.00     0.037 C 
HETATM   35  C24 UNL     1       5.021  -0.677   1.320  1.00  0.00     0.010 C 
HETATM   36  C23 UNL     1       3.791  -1.420   0.869  1.00  0.00     0.008 C 
BRANCH  33  37
HETATM   37  O1  UNL     1       4.912   1.908  -1.338  1.00  0.00    -0.390 OA
HETATM   38  C1  UNL     1       4.661   3.251  -1.106  1.00  0.00     0.202 C 
ENDBRANCH  33  37
BRANCH  34  39
HETATM   39  C26 UNL     1       6.415  -0.492  -0.749  1.00  0.00     0.089 C 
HETATM   40  C27 UNL     1       7.088   0.435  -1.733  1.00  0.00     0.033 C 
BRANCH  39  41
HETATM   41  N6  UNL     1       7.442  -1.285  -0.131  1.00  0.00    -0.347 N 
HETATM   42  C28 UNL     1       8.540  -0.768   0.643  1.00  0.00     0.127 C 
HETATM   43  C29 UNL     1       9.094  -1.969   1.364  1.00  0.00     0.029 C 
HETATM   44  C30 UNL     1       8.848  -3.101   0.398  1.00  0.00     0.104 C 
HETATM   45  C31 UNL     1       7.540  -2.695  -0.205  1.00  0.00     0.220 C 
HETATM   46  O5  UNL     1       6.727  -3.528  -0.675  1.00  0.00    -0.273 OA
ENDBRANCH  39  41
ENDBRANCH  34  39
ENDBRANCH  30  31
BRANCH  30  47
HETATM   47  O2  UNL     1       2.030  -2.317  -0.871  1.00  0.00    -0.395 OA
ATOM     48  H2  UNL     1       1.296  -2.864  -1.124  1.00  0.00     0.210 HD
ENDBRANCH  30  47
ENDBRANCH  29  30
ENDBRANCH   1  29
TORSDOF 16
