REMARK  16 active torsions:
REMARK  status: ('A' for Active; 'I' for Inactive)
REMARK    1  A    between atoms: O1_2  and  C2_3 
REMARK       I    between atoms: C2_3  and  N1_5 
REMARK    2  A    between atoms: N1_5  and  C3_6 
REMARK    3  A    between atoms: C3_6  and  C5_8 
REMARK       I    between atoms: C5_8  and  N2_10 
REMARK    4  A    between atoms: N2_10  and  C6_12 
REMARK    5  A    between atoms: C6_12  and  C7_13 
REMARK    6  A    between atoms: C6_12  and  C14_20 
REMARK    7  A    between atoms: C7_13  and  C8_14 
REMARK    8  A    between atoms: C14_20  and  O5_22 
REMARK    9  A    between atoms: O5_22  and  C15_23 
REMARK   10  A    between atoms: C15_23  and  C16_24 
REMARK   11  A    between atoms: C15_23  and  C26_43 
REMARK       I    between atoms: C16_24  and  N3_26 
REMARK   12  A    between atoms: N3_26  and  C17_28 
REMARK   13  A    between atoms: C17_28  and  C18_29 
REMARK   14  A    between atoms: C17_28  and  C23_40 
REMARK       I    between atoms: C18_29  and  N4_31 
REMARK   15  A    between atoms: N4_31  and  C19_33 
REMARK   16  A    between atoms: C19_33  and  C20_34 
ROOT
HETATM    1  C15 UNL     1       0.768  -0.040  -1.537  1.00  0.00     0.228 C 
ENDROOT
BRANCH   1   2
HETATM    2  O5  UNL     1      -0.452  -0.099  -0.844  1.00  0.00    -0.304 OA
BRANCH   2   3
HETATM    3  C14 UNL     1      -1.631   0.522  -1.006  1.00  0.00     0.282 C 
HETATM    4  O4  UNL     1      -1.754   1.354  -1.940  1.00  0.00    -0.263 OA
BRANCH   3   5
HETATM    5  C6  UNL     1      -2.809   0.265  -0.122  1.00  0.00     0.184 C 
BRANCH   5   6
HETATM    6  N2  UNL     1      -3.953   0.993  -0.669  1.00  0.00    -0.345 N 
HETATM    7  C5  UNL     1      -4.548   2.120  -0.072  1.00  0.00     0.254 C 
HETATM    8  O3  UNL     1      -4.057   2.572   0.965  1.00  0.00    -0.270 OA
ATOM      9  H2  UNL     1      -4.349   0.660  -1.548  1.00  0.00     0.163 HD
BRANCH   7  10
HETATM   10  C3  UNL     1      -5.761   2.697  -0.736  1.00  0.00     0.256 C 
HETATM   11  C4  UNL     1      -6.813   1.513  -0.590  1.00  0.00     0.058 C 
BRANCH  10  12
HETATM   12  N1  UNL     1      -6.250   3.830  -0.124  1.00  0.00    -0.376 NA
HETATM   13  C2  UNL     1      -6.735   4.952   0.481  1.00  0.00     0.435 C 
HETATM   14  O2  UNL     1      -7.760   5.641   0.108  1.00  0.00    -0.221 OA
BRANCH  13  15
HETATM   15  O1  UNL     1      -6.126   5.495   1.644  1.00  0.00    -0.298 OA
HETATM   16  C1  UNL     1      -6.665   6.657   2.221  1.00  0.00     0.216 C 
ENDBRANCH  13  15
ENDBRANCH  10  12
ENDBRANCH   7  10
ENDBRANCH   5   6
BRANCH   5  17
HETATM   17  C7  UNL     1      -3.234  -1.173  -0.161  1.00  0.00     0.040 C 
BRANCH  17  18
HETATM   18  C8  UNL     1      -2.292  -2.196   0.387  1.00  0.00    -0.012 C 
HETATM   19  C9  UNL     1      -2.003  -1.979   1.865  1.00  0.00     0.005 C 
HETATM   20  C10 UNL     1      -2.936  -2.861   2.684  1.00  0.00     0.000 C 
HETATM   21  C11 UNL     1      -2.480  -4.281   2.482  1.00  0.00     0.000 C 
HETATM   22  C12 UNL     1      -2.558  -4.644   1.041  1.00  0.00     0.000 C 
HETATM   23  C13 UNL     1      -2.942  -3.537   0.122  1.00  0.00     0.005 C 
ENDBRANCH  17  18
ENDBRANCH   5  17
ENDBRANCH   3   5
ENDBRANCH   2   3
ENDBRANCH   1   2
BRANCH   1  24
HETATM   24  C16 UNL     1       1.826   0.515  -0.584  1.00  0.00     0.252 C 
HETATM   25  O6  UNL     1       1.350   0.832   0.566  1.00  0.00    -0.270 OA
HETATM   26  N3  UNL     1       3.154   0.674  -0.896  1.00  0.00    -0.323 N 
ATOM     27  H3  UNL     1       3.374   0.383  -1.849  1.00  0.00     0.169 HD
BRANCH  26  28
HETATM   28  C17 UNL     1       4.305   1.158  -0.182  1.00  0.00     0.083 C 
BRANCH  28  29
HETATM   29  C18 UNL     1       4.469   0.585   1.134  1.00  0.00     0.264 C 
HETATM   30  O7  UNL     1       3.510   0.579   1.940  1.00  0.00    -0.266 OA
HETATM   31  N4  UNL     1       5.660  -0.011   1.679  1.00  0.00    -0.348 N 
ATOM     32  H4  UNL     1       6.477  -0.089   1.073  1.00  0.00     0.163 HD
BRANCH  31  33
HETATM   33  C19 UNL     1       5.769  -0.504   3.027  1.00  0.00     0.207 C 
BRANCH  33  34
HETATM   34  C20 UNL     1       5.772   0.639   4.005  1.00  0.00     0.140 A 
HETATM   35  N5  UNL     1       5.708   0.596   5.331  1.00  0.00    -0.347 N 
HETATM   36  C21 UNL     1       5.750   1.867   5.783  1.00  0.00     0.114 A 
ATOM     37  H5  UNL     1       5.640  -0.245   5.904  1.00  0.00     0.167 HD
HETATM   38  C22 UNL     1       5.841   2.682   4.688  1.00  0.00     0.161 A 
HETATM   39  O8  UNL     1       5.849   1.888   3.644  1.00  0.00    -0.307 OA
ENDBRANCH  33  34
ENDBRANCH  31  33
ENDBRANCH  28  29
BRANCH  28  40
HETATM   40  C23 UNL     1       5.501   1.323  -1.041  1.00  0.00     0.033 C 
HETATM   41  C24 UNL     1       5.998   0.083  -1.683  1.00  0.00     0.016 C 
HETATM   42  C25 UNL     1       6.622   2.107  -0.425  1.00  0.00     0.016 C 
ENDBRANCH  28  40
ENDBRANCH  26  28
ENDBRANCH   1  24
BRANCH   1  43
HETATM   43  C26 UNL     1       1.038  -1.427  -2.012  1.00  0.00     0.024 C 
HETATM   44  C27 UNL     1      -0.089  -1.851  -2.937  1.00  0.00     0.007 C 
HETATM   45  C28 UNL     1       0.314  -2.037  -4.369  1.00  0.00     0.000 C 
HETATM   46  C29 UNL     1       1.451  -3.015  -4.530  1.00  0.00     0.000 C 
HETATM   47  C30 UNL     1       2.145  -3.226  -3.184  1.00  0.00     0.000 C 
HETATM   48  C31 UNL     1       2.311  -1.787  -2.640  1.00  0.00     0.007 C 
ENDBRANCH   1  43
TORSDOF 16
