REMARK  17 active torsions:
REMARK  status: ('A' for Active; 'I' for Inactive)
REMARK    1  A    between atoms: C2_2  and  C3_3 
REMARK    2  A    between atoms: C3_3  and  C4_4 
REMARK    3  A    between atoms: C3_3  and  C26_36 
REMARK    4  A    between atoms: C4_4  and  N1_5 
REMARK       I    between atoms: N1_5  and  C5_7 
REMARK       I    between atoms: C5_7  and  N2_9 
REMARK    5  A    between atoms: N3_14  and  C10_15 
REMARK    6  A    between atoms: C10_15  and  C11_16 
REMARK    7  A    between atoms: C11_16  and  C12_17 
REMARK    8  A    between atoms: C13_20  and  C14_21 
REMARK    9  A    between atoms: C17_24  and  C18_25 
REMARK       I    between atoms: C18_25  and  N5_27 
REMARK   10  A    between atoms: N5_27  and  C20_29 
REMARK   11  A    between atoms: C26_36  and  O3_37 
REMARK   12  A    between atoms: C26_36  and  C27_39 
REMARK   13  A    between atoms: C27_39  and  O4_40 
REMARK   14  A    between atoms: C27_39  and  C28_42 
REMARK   15  A    between atoms: C28_42  and  O5_43 
REMARK   16  A    between atoms: C28_42  and  C29_45 
REMARK   17  A    between atoms: C29_45  and  C30_46 
ROOT
HETATM    1  N1  UNL     1      -2.450  -0.996  -0.821  1.00  0.00    -0.318 N 
ATOM      2  H1  UNL     1      -1.859  -1.730  -1.212  1.00  0.00     0.170 HD
HETATM    3  C5  UNL     1      -1.775  -0.112  -0.020  1.00  0.00     0.323 C 
HETATM    4  O1  UNL     1      -2.431   0.843   0.503  1.00  0.00    -0.247 OA
HETATM    5  N2  UNL     1      -0.372  -0.197   0.267  1.00  0.00    -0.324 N 
HETATM    6  C6  UNL     1       0.388  -1.248  -0.347  1.00  0.00     0.086 C 
HETATM    7  C7  UNL     1       0.515  -2.446   0.615  1.00  0.00     0.032 C 
HETATM    8  C8  UNL     1       1.767  -0.818  -0.804  1.00  0.00     0.044 C 
HETATM    9  C9  UNL     1       1.740   0.655  -1.142  1.00  0.00     0.119 C 
HETATM   10  N3  UNL     1       2.254   1.330   0.024  1.00  0.00    -0.410 N 
HETATM   11  C23 UNL     1       1.644   0.882   1.239  1.00  0.00     0.141 C 
HETATM   12  C24 UNL     1       0.165   0.771   1.195  1.00  0.00     0.102 C 
HETATM   13  C25 UNL     1      -0.412   2.139   1.155  1.00  0.00     0.034 C 
ENDROOT
BRANCH   1  14
HETATM   14  C4  UNL     1      -3.808  -1.089  -1.212  1.00  0.00     0.102 C 
BRANCH  14  15
HETATM   15  C3  UNL     1      -4.880  -1.375  -0.275  1.00  0.00    -0.011 C 
BRANCH  15  16
HETATM   16  C2  UNL     1      -4.704  -2.691   0.511  1.00  0.00     0.038 C 
HETATM   17  C1  UNL     1      -4.640  -3.874  -0.419  1.00  0.00     0.010 C 
ENDBRANCH  15  16
BRANCH  15  18
HETATM   18  C26 UNL     1      -5.647  -0.420   0.512  1.00  0.00     0.082 C 
BRANCH  18  19
HETATM   19  O3  UNL     1      -5.160  -0.022   1.742  1.00  0.00    -0.362 OA
ATOM     20  H3  UNL     1      -5.660   0.601   2.256  1.00  0.00     0.217 HD
ENDBRANCH  18  19
BRANCH  18  21
HETATM   21  C27 UNL     1      -6.338   0.688  -0.253  1.00  0.00     0.203 C 
BRANCH  21  22
HETATM   22  O4  UNL     1      -5.445   1.721  -0.457  1.00  0.00    -0.386 OA
ATOM     23  H4  UNL     1      -5.879   2.417  -0.937  1.00  0.00     0.210 HD
ENDBRANCH  21  22
BRANCH  21  24
HETATM   24  C28 UNL     1      -7.549   1.245   0.421  1.00  0.00     0.153 C 
BRANCH  24  25
HETATM   25  O5  UNL     1      -8.081   2.218  -0.426  1.00  0.00    -0.393 OA
ATOM     26  H5  UNL     1      -8.851   2.572   0.003  1.00  0.00     0.210 HD
ENDBRANCH  24  25
BRANCH  24  27
HETATM   27  C29 UNL     1      -8.596   0.259   0.779  1.00  0.00     0.038 C 
BRANCH  27  28
HETATM   28  C30 UNL     1      -9.154  -0.495  -0.403  1.00  0.00    -0.020 C 
HETATM   29  C31 UNL     1      -9.798   0.373  -1.435  1.00  0.00     0.009 C 
HETATM   30  C32 UNL     1     -10.179  -1.475   0.125  1.00  0.00     0.009 C 
ENDBRANCH  27  28
ENDBRANCH  24  27
ENDBRANCH  21  24
ENDBRANCH  18  21
ENDBRANCH  15  18
ENDBRANCH  14  15
ENDBRANCH   1  14
BRANCH  10  31
HETATM   31  C10 UNL     1       2.505   2.713  -0.107  1.00  0.00     0.123 C 
BRANCH  31  32
HETATM   32  C11 UNL     1       3.665   3.005  -1.043  1.00  0.00     0.084 C 
BRANCH  32  33
HETATM   33  C12 UNL     1       4.933   2.358  -0.538  1.00  0.00     0.053 A 
HETATM   34  N4  UNL     1       5.832   2.848   0.284  1.00  0.00    -0.356 N 
HETATM   35  C13 UNL     1       6.882   2.173   0.630  1.00  0.00     0.036 A 
ATOM     36  H4  UNL     1       5.700   3.787   0.661  1.00  0.00     0.166 HD
HETATM   37  C17 UNL     1       7.005   0.893   0.081  1.00  0.00     0.097 A 
HETATM   38  S1  UNL     1       5.585   0.825  -0.868  1.00  0.00    -0.069 SA
BRANCH  35  39
HETATM   39  C14 UNL     1       7.898   2.735   1.610  1.00  0.00     0.029 C 
HETATM   40  C15 UNL     1       7.666   4.252   1.768  1.00  0.00     0.016 C 
HETATM   41  C16 UNL     1       7.764   2.077   2.971  1.00  0.00     0.016 C 
ENDBRANCH  35  39
BRANCH  37  42
HETATM   42  C18 UNL     1       8.079  -0.063   0.276  1.00  0.00     0.262 C 
HETATM   43  O2  UNL     1       9.082   0.232   1.024  1.00  0.00    -0.267 OA
HETATM   44  N5  UNL     1       8.137  -1.337  -0.295  1.00  0.00    -0.347 N 
HETATM   45  C19 UNL     1       9.338  -2.147   0.070  1.00  0.00     0.153 C 
BRANCH  44  46
HETATM   46  C20 UNL     1       7.226  -1.981  -1.196  1.00  0.00     0.087 A 
HETATM   47  C21 UNL     1       7.757  -2.930  -2.242  1.00  0.00     0.027 A 
HETATM   48  C22 UNL     1       7.031  -3.450  -1.058  1.00  0.00     0.027 A 
ENDBRANCH  44  46
ENDBRANCH  37  42
ENDBRANCH  32  33
ENDBRANCH  31  32
ENDBRANCH  10  31
TORSDOF 17
