REMARK  17 active torsions:
REMARK  status: ('A' for Active; 'I' for Inactive)
REMARK    1  A    between atoms: C2_2  and  C3_3 
REMARK    2  A    between atoms: C5_5  and  C6_6 
REMARK    3  A    between atoms: C6_6  and  N1_7 
REMARK       I    between atoms: N1_7  and  C7_9 
REMARK    4  A    between atoms: N2_14  and  C11_15 
REMARK    5  A    between atoms: C11_15  and  C12_16 
REMARK    6  A    between atoms: C12_16  and  N3_17 
REMARK    7  A    between atoms: C12_16  and  C31_47 
REMARK       I    between atoms: N3_17  and  C13_19 
REMARK    8  A    between atoms: C13_19  and  C14_21 
REMARK    9  A    between atoms: C17_25  and  O4_26 
REMARK   10  A    between atoms: C19_28  and  C20_29 
REMARK       I    between atoms: C20_29  and  N4_31 
REMARK   11  A    between atoms: N4_31  and  C21_33 
REMARK   12  A    between atoms: C21_33  and  C22_34 
REMARK   13  A    between atoms: C21_33  and  C28_44 
REMARK   14  A    between atoms: C22_34  and  C23_36 
REMARK   15  A    between atoms: C23_36  and  C24_37 
REMARK   16  A    between atoms: C23_36  and  N5_40 
REMARK   17  A    between atoms: C24_37  and  C25_38 
ROOT
HETATM    1  C14 UNL     1      -1.094   0.483  -2.295  1.00  0.00     0.161 A 
HETATM    2  O3  UNL     1      -0.643   0.255  -3.547  1.00  0.00    -0.306 OA
HETATM    3  C15 UNL     1      -1.638   0.286  -4.388  1.00  0.00     0.084 A 
HETATM    4  C16 UNL     1      -1.607   0.090  -5.863  1.00  0.00     0.079 C 
HETATM    5  C17 UNL     1      -2.798   0.547  -3.671  1.00  0.00     0.116 A 
HETATM    6  C19 UNL     1      -2.405   0.669  -2.328  1.00  0.00     0.107 A 
ENDROOT
BRANCH   1   7
HETATM    7  C13 UNL     1      -0.145   0.488  -1.145  1.00  0.00     0.277 C 
HETATM    8  N3  UNL     1       1.219   0.520  -1.426  1.00  0.00    -0.345 N 
ATOM      9  H3  UNL     1       1.469   0.604  -2.411  1.00  0.00     0.163 HD
HETATM   10  O2  UNL     1      -0.634   0.448  -0.013  1.00  0.00    -0.265 OA
BRANCH   8  11
HETATM   11  C12 UNL     1       2.353   0.447  -0.476  1.00  0.00     0.130 C 
BRANCH  11  12
HETATM   12  C11 UNL     1       3.375  -0.425  -1.144  1.00  0.00     0.084 C 
BRANCH  12  13
HETATM   13  N2  UNL     1       4.567  -0.787  -0.580  1.00  0.00    -0.383 N 
HETATM   14  C3  UNL     1       4.680  -1.691   0.467  1.00  0.00     0.106 C 
HETATM   15  C4  UNL     1       6.009  -1.969   1.060  1.00  0.00     0.035 C 
HETATM   16  C5  UNL     1       7.198  -1.449   0.354  1.00  0.00     0.007 C 
HETATM   17  C9  UNL     1       6.939  -1.314  -1.113  1.00  0.00     0.026 C 
HETATM   18  C10 UNL     1       5.744  -0.469  -1.324  1.00  0.00     0.123 C 
BRANCH  14  19
HETATM   19  C2  UNL     1       4.097  -3.043   0.122  1.00  0.00    -0.012 C 
HETATM   20  C1  UNL     1       4.086  -3.442  -1.125  1.00  0.00     0.009 C 
ENDBRANCH  14  19
BRANCH  16  21
HETATM   21  C6  UNL     1       7.819  -0.218   0.965  1.00  0.00     0.127 C 
BRANCH  21  22
HETATM   22  N1  UNL     1       8.249  -0.573   2.316  1.00  0.00    -0.361 N 
HETATM   23  C7  UNL     1       8.873   0.387   3.152  1.00  0.00     0.213 C 
HETATM   24  C8  UNL     1       9.312  -0.003   4.523  1.00  0.00     0.117 C 
HETATM   25  O1  UNL     1       9.061   1.558   2.750  1.00  0.00    -0.274 OA
ATOM     26  H1  UNL     1       8.099  -1.521   2.661  1.00  0.00     0.162 HD
ENDBRANCH  21  22
ENDBRANCH  16  21
ENDBRANCH  12  13
ENDBRANCH  11  12
BRANCH  11  27
HETATM   27  C31 UNL     1       2.798   1.811  -0.086  1.00  0.00    -0.026 C 
HETATM   28  C32 UNL     1       1.648   2.610   0.562  1.00  0.00     0.017 C 
HETATM   29  C33 UNL     1       3.303   2.662  -1.222  1.00  0.00     0.017 C 
HETATM   30  C34 UNL     1       3.880   1.819   0.971  1.00  0.00     0.017 C 
ENDBRANCH  11  27
ENDBRANCH   8  11
ENDBRANCH   1   7
BRANCH   6  31
HETATM   31  C20 UNL     1      -3.348   1.053  -1.266  1.00  0.00     0.261 C 
HETATM   32  O5  UNL     1      -3.038   1.973  -0.465  1.00  0.00    -0.267 OA
HETATM   33  N4  UNL     1      -4.600   0.419  -1.120  1.00  0.00    -0.323 N 
ATOM     34  H4  UNL     1      -4.768  -0.347  -1.772  1.00  0.00     0.169 HD
BRANCH  33  35
HETATM   35  C21 UNL     1      -5.661   0.671  -0.218  1.00  0.00     0.064 C 
BRANCH  35  36
HETATM   36  C22 UNL     1      -5.395   0.406   1.239  1.00  0.00     0.202 C 
HETATM   37  O6  UNL     1      -4.321   0.724   1.671  1.00  0.00    -0.289 OA
BRANCH  36  38
HETATM   38  C23 UNL     1      -6.388  -0.208   2.129  1.00  0.00     0.260 C 
BRANCH  38  39
HETATM   39  C24 UNL     1      -5.977  -1.571   2.698  1.00  0.00     0.041 C 
BRANCH  39  40
HETATM   40  C25 UNL     1      -4.750  -1.493   3.545  1.00  0.00    -0.002 C 
HETATM   41  C26 UNL     1      -4.456  -2.889   4.104  1.00  0.00     0.005 C 
ENDBRANCH  39  40
ENDBRANCH  38  39
BRANCH  38  42
HETATM   42  N5  UNL     1      -6.401   0.656   3.359  1.00  0.00    -0.068 N 
HETATM   43  C27 UNL     1      -7.818   0.809   3.755  1.00  0.00     0.267 C 
ATOM     44  H52 UNL     1      -5.810   0.298   4.109  1.00  0.00     0.277 HD
ATOM     45  H51 UNL     1      -5.920   1.546   3.231  1.00  0.00     0.277 HD
ENDBRANCH  38  42
ENDBRANCH  36  38
ENDBRANCH  35  36
BRANCH  35  46
HETATM   46  C28 UNL     1      -7.002   0.225  -0.686  1.00  0.00     0.031 C 
HETATM   47  C29 UNL     1      -7.079  -1.254  -0.954  1.00  0.00     0.016 C 
HETATM   48  C30 UNL     1      -7.304   0.969  -1.996  1.00  0.00     0.016 C 
ENDBRANCH  35  46
ENDBRANCH  33  35
ENDBRANCH   6  31
BRANCH   5  49
HETATM   49  O4  UNL     1      -4.085   0.670  -4.129  1.00  0.00    -0.352 OA
HETATM   50  C18 UNL     1      -4.606   1.919  -4.572  1.00  0.00     0.210 C 
ENDBRANCH   5  49
TORSDOF 17
