REMARK  12 active torsions:
REMARK  status: ('A' for Active; 'I' for Inactive)
REMARK    1  A    between atoms: N1_2  and  C3_4 
REMARK    2  A    between atoms: N2_7  and  C6_8 
REMARK    3  A    between atoms: C6_8  and  C7_9 
REMARK    4  A    between atoms: C7_9  and  C8_10 
REMARK    5  A    between atoms: C8_10  and  C9_11 
REMARK    6  A    between atoms: C9_11  and  C10_12 
REMARK    7  A    between atoms: C10_12  and  C11_13 
REMARK       I    between atoms: C11_13  and  N3_15 
REMARK    8  A    between atoms: C16_22  and  N5_23 
REMARK    9  A    between atoms: N5_23  and  C17_25 
REMARK   10  A    between atoms: C17_25  and  O2_26 
REMARK   11  A    between atoms: C17_25  and  C18_28 
REMARK   12  A    between atoms: C18_28  and  C19_29 
ROOT
HETATM    1  C11 UNL     1       0.035  -2.027  -2.545  1.00  0.00     0.219 C 
HETATM    2  O1  UNL     1       0.352  -3.219  -2.766  1.00  0.00    -0.273 OA
HETATM    3  N3  UNL     1       0.975  -0.965  -2.634  1.00  0.00    -0.352 N 
HETATM    4  C12 UNL     1       2.338  -1.277  -2.987  1.00  0.00     0.126 C 
HETATM    5  C13 UNL     1       3.054   0.008  -3.232  1.00  0.00     0.031 C 
HETATM    6  C14 UNL     1       2.963   0.969  -2.047  1.00  0.00     0.044 C 
HETATM    7  C15 UNL     1       3.919   0.510  -0.941  1.00  0.00     0.029 A 
HETATM    8  N4  UNL     1       5.241   0.637  -1.003  1.00  0.00    -0.339 N 
ATOM      9  H4  UNL     1       5.687   1.059  -1.817  1.00  0.00     0.168 HD
HETATM   10  C16 UNL     1       5.961   0.204   0.013  1.00  0.00     0.147 A 
HETATM   11  S1  UNL     1       4.815  -0.404   1.104  1.00  0.00    -0.057 SA
HETATM   12  C22 UNL     1       3.407  -0.066   0.181  1.00  0.00     0.009 A 
HETATM   13  C23 UNL     1       1.927  -0.288   0.425  1.00  0.00     0.049 C 
HETATM   14  C24 UNL     1       1.284   0.936  -0.137  1.00  0.00     0.012 C 
HETATM   15  C25 UNL     1       1.612   1.170  -1.566  1.00  0.00     0.014 C 
HETATM   16  C26 UNL     1       0.561   0.374  -2.376  1.00  0.00     0.131 C 
ENDROOT
BRANCH   1  17
HETATM   17  C10 UNL     1      -1.386  -1.740  -2.178  1.00  0.00     0.103 C 
BRANCH  17  18
HETATM   18  C9  UNL     1      -2.161  -3.018  -2.117  1.00  0.00     0.009 C 
BRANCH  18  19
HETATM   19  C8  UNL     1      -3.601  -2.783  -1.770  1.00  0.00     0.002 C 
BRANCH  19  20
HETATM   20  C7  UNL     1      -3.675  -2.121  -0.408  1.00  0.00     0.030 C 
BRANCH  20  21
HETATM   21  C6  UNL     1      -5.107  -1.877   0.004  1.00  0.00     0.272 C 
BRANCH  21  22
HETATM   22  N2  UNL     1      -5.148  -1.275   1.289  1.00  0.00     0.088 N 
HETATM   23  C5  UNL     1      -4.667   0.075   1.383  1.00  0.00     0.274 C 
HETATM   24  C4  UNL     1      -5.575   1.085   0.797  1.00  0.00     0.066 C 
HETATM   25  C3  UNL     1      -7.032   0.843   0.859  1.00  0.00     0.225 C 
HETATM   26  C28 UNL     1      -7.471  -0.506   1.298  1.00  0.00     0.066 C 
HETATM   27  C27 UNL     1      -6.461  -1.397   1.918  1.00  0.00     0.274 C 
BRANCH  25  28
HETATM   28  N1  UNL     1      -7.749   1.915   1.552  1.00  0.00     0.084 N 
HETATM   29  C1  UNL     1      -9.160   1.654   1.611  1.00  0.00     0.309 C 
HETATM   30  C2  UNL     1      -7.227   2.233   2.836  1.00  0.00     0.309 C 
ENDBRANCH  25  28
ENDBRANCH  21  22
ENDBRANCH  20  21
ENDBRANCH  19  20
ENDBRANCH  18  19
ENDBRANCH  17  18
ENDBRANCH   1  17
BRANCH  10  31
HETATM   31  N5  UNL     1       7.273   0.237   0.146  1.00  0.00    -0.344 N 
ATOM     32  H5  UNL     1       7.859   0.632  -0.590  1.00  0.00     0.164 HD
BRANCH  31  33
HETATM   33  C17 UNL     1       7.861  -0.291   1.340  1.00  0.00     0.225 C 
BRANCH  33  34
HETATM   34  O2  UNL     1       8.966  -1.074   1.053  1.00  0.00    -0.376 OA
ATOM     35  H2  UNL     1       9.356  -1.424   1.845  1.00  0.00     0.212 HD
ENDBRANCH  33  34
BRANCH  33  36
HETATM   36  C18 UNL     1       8.301   0.873   2.209  1.00  0.00     0.112 C 
BRANCH  36  37
HETATM   37  C19 UNL     1       9.287   1.717   1.513  1.00  0.00     0.029 A 
HETATM   38  C20 UNL     1      10.674   1.541   1.562  1.00  0.00     0.114 A 
HETATM   39  N6  UNL     1      11.251   2.487   0.815  1.00  0.00    -0.360 N 
HETATM   40  C21 UNL     1      10.285   3.258   0.294  1.00  0.00     0.180 A 
ATOM     41  H6  UNL     1      12.253   2.603   0.667  1.00  0.00     0.166 HD
HETATM   42  N7  UNL     1       9.098   2.790   0.718  1.00  0.00    -0.354 N 
ATOM     43  H7  UNL     1       8.190   3.187   0.475  1.00  0.00     0.166 HD
ENDBRANCH  36  37
ENDBRANCH  33  36
ENDBRANCH  31  33
ENDBRANCH  10  31
TORSDOF 12
