REMARK  13 active torsions:
REMARK  status: ('A' for Active; 'I' for Inactive)
REMARK    1  A    between atoms: N1_2  and  C2_5 
REMARK    2  A    between atoms: C2_5  and  C4_7 
REMARK    3  A    between atoms: C4_7  and  O1_8 
REMARK    4  A    between atoms: C4_7  and  N2_10 
REMARK    5  A    between atoms: N3_12  and  C6_13 
REMARK    6  A    between atoms: C6_13  and  C7_14 
REMARK    7  A    between atoms: C13_23  and  C14_24 
REMARK       I    between atoms: C14_24  and  N6_26 
REMARK    8  A    between atoms: N6_26  and  C15_28 
REMARK    9  A    between atoms: C15_28  and  C16_29 
REMARK   10  A    between atoms: C15_28  and  C24_37 
REMARK   11  A    between atoms: C16_29  and  C17_30 
REMARK   12  A    between atoms: C24_37  and  O3_38 
REMARK   13  A    between atoms: C24_37  and  C25_40 
ROOT
HETATM    1  N2  UNL     1       3.050  -0.778  -0.359  1.00  0.00    -0.324 N 
HETATM    2  C5  UNL     1       3.905   0.119  -1.138  1.00  0.00     0.400 C 
HETATM    3  N3  UNL     1       4.151   1.370  -0.497  1.00  0.00     0.111 N 
HETATM    4  C11 UNL     1       3.225   1.726   0.522  1.00  0.00     0.277 C 
HETATM    5  C12 UNL     1       1.824   1.242   0.214  1.00  0.00     0.065 C 
HETATM    6  C13 UNL     1       1.793  -0.287   0.171  1.00  0.00     0.181 C 
ENDROOT
BRANCH   6   7
HETATM    7  C14 UNL     1       0.618  -0.658  -0.628  1.00  0.00     0.241 C 
HETATM    8  O2  UNL     1       0.735  -1.395  -1.621  1.00  0.00    -0.271 OA
HETATM    9  N6  UNL     1      -0.657  -0.173  -0.264  1.00  0.00    -0.352 N 
ATOM     10  H6  UNL     1      -0.743   0.432   0.553  1.00  0.00     0.163 HD
BRANCH   9  11
HETATM   11  C15 UNL     1      -1.893  -0.524  -1.049  1.00  0.00     0.114 C 
BRANCH  11  12
HETATM   12  C16 UNL     1      -2.448   0.739  -1.523  1.00  0.00     0.033 C 
BRANCH  12  13
HETATM   13  C17 UNL     1      -3.673   0.873  -2.332  1.00  0.00    -0.009 C 
HETATM   14  C18 UNL     1      -4.985   0.467  -1.790  1.00  0.00     0.005 C 
HETATM   15  C19 UNL     1      -6.035   1.601  -1.960  1.00  0.00     0.000 C 
HETATM   16  C20 UNL     1      -5.572   2.842  -1.275  1.00  0.00     0.000 C 
HETATM   17  C21 UNL     1      -4.205   3.225  -1.778  1.00  0.00     0.004 C 
HETATM   18  C22 UNL     1      -3.813   2.296  -2.886  1.00  0.00    -0.014 C 
HETATM   19  C23 UNL     1      -2.492   2.778  -3.451  1.00  0.00     0.010 C 
ENDBRANCH  12  13
ENDBRANCH  11  12
BRANCH  11  20
HETATM   20  C24 UNL     1      -2.576  -1.590  -0.383  1.00  0.00     0.144 C 
BRANCH  20  21
HETATM   21  O3  UNL     1      -3.682  -2.128  -1.108  1.00  0.00    -0.393 OA
ATOM     22  H3  UNL     1      -4.136  -2.836  -0.666  1.00  0.00     0.210 HD
ENDBRANCH  20  21
BRANCH  20  23
HETATM   23  C25 UNL     1      -3.094  -1.499   1.022  1.00  0.00     0.016 C 
HETATM   24  C26 UNL     1      -2.130  -1.242   2.099  1.00  0.00     0.007 C 
HETATM   25  C27 UNL     1      -2.505  -1.730   3.453  1.00  0.00     0.000 C 
HETATM   26  C28 UNL     1      -3.158  -3.063   3.547  1.00  0.00     0.000 C 
HETATM   27  C29 UNL     1      -4.376  -2.978   2.601  1.00  0.00     0.000 C 
HETATM   28  C30 UNL     1      -3.749  -2.879   1.233  1.00  0.00     0.007 C 
ENDBRANCH  20  23
ENDBRANCH  11  20
ENDBRANCH   9  11
ENDBRANCH   6   7
BRANCH   1  29
HETATM   29  C4  UNL     1       3.463  -2.089  -0.154  1.00  0.00     0.146 C 
BRANCH  29  30
HETATM   30  C2  UNL     1       2.810  -3.167   0.597  1.00  0.00     0.255 C 
HETATM   31  C3  UNL     1       2.658  -2.877   2.083  1.00  0.00     0.049 C 
BRANCH  30  32
HETATM   32  N1  UNL     1       3.559  -4.424   0.487  1.00  0.00    -0.068 N 
HETATM   33  C1  UNL     1       2.826  -5.521   1.086  1.00  0.00     0.267 C 
ATOM     34  H12 UNL     1       4.496  -4.339   0.881  1.00  0.00     0.277 HD
ATOM     35  H11 UNL     1       3.814  -4.626  -0.480  1.00  0.00     0.277 HD
ENDBRANCH  30  32
ENDBRANCH  29  30
BRANCH  29  36
HETATM   36  O1  UNL     1       4.598  -2.398  -0.716  1.00  0.00    -0.348 OA
ATOM     37  H1  UNL     1       5.021  -1.700  -1.202  1.00  0.00     0.219 HD
ENDBRANCH  29  36
ENDBRANCH   1  29
BRANCH   3  38
HETATM   38  C6  UNL     1       5.534   1.532  -0.094  1.00  0.00     0.333 C 
BRANCH  38  39
HETATM   39  C7  UNL     1       5.760   2.810   0.572  1.00  0.00     0.056 A 
HETATM   40  C8  UNL     1       5.594   3.052   1.918  1.00  0.00     0.115 A 
HETATM   41  N4  UNL     1       5.897   4.351   2.178  1.00  0.00    -0.360 N 
HETATM   42  C9  UNL     1       6.250   4.917   0.999  1.00  0.00     0.182 A 
ATOM     43  H4  UNL     1       5.865   4.812   3.087  1.00  0.00     0.166 HD
HETATM   44  N5  UNL     1       6.160   3.963   0.035  1.00  0.00    -0.348 N 
HETATM   45  C10 UNL     1       6.465   4.208  -1.340  1.00  0.00     0.157 C 
ENDBRANCH  38  39
ENDBRANCH   3  38
TORSDOF 13
