REMARK  11 active torsions:
REMARK  status: ('A' for Active; 'I' for Inactive)
REMARK    1  A    between atoms: C2_2  and  C3_3 
REMARK    2  A    between atoms: N1_10  and  C10_11 
REMARK    3  A    between atoms: C10_11  and  C11_12 
REMARK    4  A    between atoms: C11_12  and  N2_13 
REMARK       I    between atoms: N2_13  and  C12_15 
REMARK    5  A    between atoms: C12_15  and  C13_17 
REMARK    6  A    between atoms: C13_17  and  O2_18 
REMARK    7  A    between atoms: C13_17  and  C14_20 
REMARK    8  A    between atoms: C14_20  and  C15_21 
REMARK    9  A    between atoms: C14_20  and  N3_26 
REMARK   10  A    between atoms: C15_21  and  C16_22 
REMARK       I    between atoms: N3_26  and  C20_28 
REMARK   11  A    between atoms: C20_28  and  C21_30 
REMARK       I    between atoms: N5_39  and  C27_40 
ROOT
HETATM    1  N2  UNL     1       0.730  -0.533   2.118  1.00  0.00    -0.354 N 
ATOM      2  H2  UNL     1       0.276   0.339   1.847  1.00  0.00     0.162 HD
HETATM    3  C12 UNL     1       2.139  -0.747   1.907  1.00  0.00     0.248 C 
HETATM    4  O1  UNL     1       2.610  -1.833   2.261  1.00  0.00    -0.271 OA
ENDROOT
BRANCH   3   5
HETATM    5  C13 UNL     1       2.937   0.301   1.301  1.00  0.00     0.232 C 
BRANCH   5   6
HETATM    6  O2  UNL     1       2.183   1.449   1.021  1.00  0.00    -0.384 OA
ATOM      7  H2  UNL     1       2.706   2.136   0.624  1.00  0.00     0.210 HD
ENDBRANCH   5   6
BRANCH   5   8
HETATM    8  C14 UNL     1       3.808  -0.070   0.118  1.00  0.00     0.123 C 
BRANCH   8   9
HETATM    9  C15 UNL     1       4.359  -1.432   0.183  1.00  0.00     0.036 C 
BRANCH   9  10
HETATM   10  C16 UNL     1       5.248  -1.899  -0.916  1.00  0.00    -0.049 C 
HETATM   11  C17 UNL     1       6.518  -1.125  -1.115  1.00  0.00     0.014 C 
HETATM   12  C18 UNL     1       4.552  -1.951  -2.261  1.00  0.00     0.014 C 
HETATM   13  C19 UNL     1       5.651  -3.355  -0.636  1.00  0.00     0.014 C 
ENDBRANCH   9  10
ENDBRANCH   8   9
BRANCH   8  14
HETATM   14  N3  UNL     1       4.701   1.021  -0.125  1.00  0.00    -0.348 N 
HETATM   15  C20 UNL     1       4.682   1.866  -1.258  1.00  0.00     0.270 C 
HETATM   16  O3  UNL     1       3.853   1.729  -2.188  1.00  0.00    -0.266 OA
ATOM     17  H3  UNL     1       5.414   1.205   0.581  1.00  0.00     0.163 HD
BRANCH  15  18
HETATM   18  C21 UNL     1       5.641   2.971  -1.422  1.00  0.00     0.124 A 
HETATM   19  C22 UNL     1       6.610   3.361  -0.498  1.00  0.00     0.071 A 
HETATM   20  C23 UNL     1       7.271   4.423  -1.065  1.00  0.00     0.075 A 
HETATM   21  C24 UNL     1       8.411   5.219  -0.484  1.00  0.00     0.079 C 
HETATM   22  O4  UNL     1       6.724   4.627  -2.224  1.00  0.00    -0.242 OA
HETATM   23  N4  UNL     1       5.776   3.801  -2.458  1.00  0.00    -0.256 N 
ATOM     24  H4  UNL     1       5.210   3.780  -3.306  1.00  0.00     0.195 HD
ENDBRANCH  15  18
ENDBRANCH   8  14
ENDBRANCH   5   8
ENDBRANCH   3   5
BRANCH   1  25
HETATM   25  C11 UNL     1      -0.002  -1.602   2.726  1.00  0.00     0.166 C 
BRANCH  25  26
HETATM   26  C10 UNL     1      -1.439  -1.353   2.943  1.00  0.00     0.077 C 
BRANCH  26  27
HETATM   27  N1  UNL     1      -2.231  -1.137   1.821  1.00  0.00    -0.392 N 
HETATM   28  C9  UNL     1      -2.146   0.036   1.065  1.00  0.00     0.124 C 
HETATM   29  C8  UNL     1      -3.488   0.528   0.485  1.00  0.00     0.051 C 
HETATM   30  C7  UNL     1      -4.320  -0.655   0.112  1.00  0.00     0.042 C 
HETATM   31  C5  UNL     1      -5.496  -0.919   1.008  1.00  0.00     0.012 C 
HETATM   32  C26 UNL     1      -3.503  -1.885  -0.107  1.00  0.00     0.051 C 
HETATM   33  N5  UNL     1      -5.065  -0.292  -1.129  1.00  0.00    -0.338 N 
HETATM   34  C4  UNL     1      -6.668  -0.112   0.476  1.00  0.00     0.032 C 
HETATM   35  C6  UNL     1      -5.321  -0.676   2.458  1.00  0.00     0.012 C 
HETATM   36  C3  UNL     1      -5.972   0.707  -0.631  1.00  0.00     0.088 C 
HETATM   37  C25 UNL     1      -2.803  -2.291   1.194  1.00  0.00     0.124 C 
HETATM   38  C27 UNL     1      -4.911  -0.827  -2.414  1.00  0.00     0.216 C 
HETATM   39  C28 UNL     1      -5.695  -0.469  -3.605  1.00  0.00     0.117 C 
HETATM   40  O5  UNL     1      -4.007  -1.725  -2.616  1.00  0.00    -0.274 OA
BRANCH  36  41
HETATM   41  C2  UNL     1      -6.951   1.307  -1.557  1.00  0.00     0.021 C 
HETATM   42  C1  UNL     1      -7.874   2.230  -0.704  1.00  0.00     0.007 C 
ENDBRANCH  36  41
ENDBRANCH  26  27
ENDBRANCH  25  26
ENDBRANCH   1  25
TORSDOF 11
