REMARK  15 active torsions:
REMARK  status: ('A' for Active; 'I' for Inactive)
REMARK    1  A    between atoms: N1_2  and  C2_4 
REMARK    2  A    between atoms: C2_4  and  O1_5 
REMARK    3  A    between atoms: C2_4  and  C3_7 
REMARK    4  A    between atoms: C3_7  and  C4_8 
REMARK    5  A    between atoms: C4_8  and  C5_9 
REMARK    6  A    between atoms: C8_12  and  C9_13 
REMARK       I    between atoms: C9_13  and  N2_15 
REMARK    7  A    between atoms: N2_15  and  C10_17 
REMARK    8  A    between atoms: C10_17  and  C11_18 
REMARK    9  A    between atoms: C10_17  and  C19_31 
REMARK       I    between atoms: C11_18  and  N3_20 
REMARK   10  A    between atoms: N3_20  and  C12_22 
REMARK   11  A    between atoms: C12_22  and  C13_23 
REMARK   12  A    between atoms: C12_22  and  C15_27 
REMARK   13  A    between atoms: C13_23  and  O5_25 
REMARK       I    between atoms: N4_36  and  C24_38 
REMARK   14  A    between atoms: C24_38  and  O7_40 
REMARK   15  A    between atoms: O7_40  and  C25_41 
ROOT
HETATM    1  C5  UNL     1      -3.937  -0.079  -0.848  1.00  0.00    -0.078 C 
HETATM    2  C6  UNL     1      -2.981   0.554   0.159  1.00  0.00     0.035 C 
HETATM    3  C7  UNL     1      -1.583   0.381  -0.389  1.00  0.00     0.018 C 
HETATM    4  C8  UNL     1      -1.226  -1.082  -0.263  1.00  0.00     0.078 C 
HETATM    5  C22 UNL     1      -2.242  -1.956  -0.919  1.00  0.00     0.018 C 
HETATM    6  C23 UNL     1      -3.340  -1.184  -1.607  1.00  0.00     0.035 C 
ENDROOT
BRANCH   4   7
HETATM    7  C9  UNL     1       0.157  -1.403  -0.657  1.00  0.00     0.222 C 
HETATM    8  O2  UNL     1       0.313  -2.133  -1.670  1.00  0.00    -0.273 OA
HETATM    9  N2  UNL     1       1.307  -0.953   0.017  1.00  0.00    -0.347 N 
ATOM     10  H2  UNL     1       1.156  -0.364   0.836  1.00  0.00     0.163 HD
BRANCH   9  11
HETATM   11  C10 UNL     1       2.658  -1.235  -0.325  1.00  0.00     0.180 C 
BRANCH  11  12
HETATM   12  C11 UNL     1       3.514  -0.061  -0.450  1.00  0.00     0.241 C 
HETATM   13  O3  UNL     1       3.027   1.090  -0.291  1.00  0.00    -0.271 OA
HETATM   14  N3  UNL     1       4.903  -0.170  -0.747  1.00  0.00    -0.345 N 
ATOM     15  H3  UNL     1       5.292  -1.103  -0.881  1.00  0.00     0.163 HD
BRANCH  14  16
HETATM   16  C12 UNL     1       5.797   0.962  -0.870  1.00  0.00     0.191 C 
BRANCH  16  17
HETATM   17  C13 UNL     1       6.386   1.063  -2.217  1.00  0.00     0.282 C 
HETATM   18  O4  UNL     1       6.139   0.234  -3.148  1.00  0.00    -0.263 OA
BRANCH  17  19
HETATM   19  O5  UNL     1       7.262   2.087  -2.560  1.00  0.00    -0.325 OA
HETATM   20  C14 UNL     1       7.854   2.234  -3.836  1.00  0.00     0.213 C 
ENDBRANCH  17  19
ENDBRANCH  16  17
BRANCH  16  21
HETATM   21  C15 UNL     1       6.852   0.951   0.213  1.00  0.00    -0.022 C 
HETATM   22  C16 UNL     1       6.267   1.009   1.601  1.00  0.00     0.017 C 
HETATM   23  C17 UNL     1       7.628  -0.350   0.136  1.00  0.00     0.017 C 
HETATM   24  C18 UNL     1       7.845   2.069   0.065  1.00  0.00     0.017 C 
ENDBRANCH  16  21
ENDBRANCH  14  16
ENDBRANCH  11  12
BRANCH  11  25
HETATM   25  C19 UNL     1       3.326  -2.205   0.665  1.00  0.00     0.009 C 
HETATM   26  C20 UNL     1       3.357  -1.673   2.064  1.00  0.00     0.012 C 
HETATM   27  C21 UNL     1       2.676  -3.577   0.554  1.00  0.00     0.012 C 
ENDBRANCH  11  25
ENDBRANCH   9  11
ENDBRANCH   4   7
BRANCH   1  28
HETATM   28  C4  UNL     1      -5.351  -0.087  -0.430  1.00  0.00     0.037 C 
BRANCH  28  29
HETATM   29  C3  UNL     1      -5.781  -0.696   0.795  1.00  0.00     0.087 C 
HETATM   30  N4  UNL     1      -6.179   0.100   1.806  1.00  0.00    -0.299 N 
HETATM   31  C24 UNL     1      -6.244   1.493   1.710  1.00  0.00     0.365 C 
ATOM     32  H4  UNL     1      -6.447  -0.337   2.688  1.00  0.00     0.171 HD
HETATM   33  O6  UNL     1      -5.376   2.288   2.131  1.00  0.00    -0.238 OA
BRANCH  29  34
HETATM   34  C2  UNL     1      -5.809  -2.080   1.145  1.00  0.00     0.163 C 
BRANCH  34  35
HETATM   35  N1  UNL     1      -5.537  -3.232   0.401  1.00  0.00    -0.373 N 
HETATM   36  C1  UNL     1      -5.626  -4.574   1.008  1.00  0.00     0.148 C 
ATOM     37  H1  UNL     1      -5.272  -3.143  -0.580  1.00  0.00     0.161 HD
ENDBRANCH  34  35
BRANCH  34  38
HETATM   38  O1  UNL     1      -6.147  -2.357   2.387  1.00  0.00    -0.345 OA
ATOM     39  H1  UNL     1      -6.332  -1.574   2.893  1.00  0.00     0.219 HD
ENDBRANCH  34  38
ENDBRANCH  29  34
BRANCH  31  40
HETATM   40  O7  UNL     1      -7.356   2.071   1.101  1.00  0.00    -0.299 OA
BRANCH  40  41
HETATM   41  C25 UNL     1      -7.482   3.455   0.964  1.00  0.00     0.125 C 
HETATM   42  C26 UNL     1      -7.648   3.900  -0.462  1.00  0.00     0.040 C 
HETATM   43  C27 UNL     1      -8.627   4.008   1.801  1.00  0.00     0.040 C 
ENDBRANCH  40  41
ENDBRANCH  31  40
ENDBRANCH  28  29
ENDBRANCH   1  28
TORSDOF 15
