REMARK  3 active torsions:
REMARK  status: ('A' for Active; 'I' for Inactive)
REMARK    1  A    between atoms: C1_2  and  C2_3 
REMARK       I    between atoms: C1_2  and  N1_10 
REMARK    2  A    between atoms: C2_3  and  C3_4 
REMARK    3  A    between atoms: C3_4  and  C4_5 
ROOT
HETATM    1  O1  UNL     1       0.081  -0.067   2.187  1.00  0.00    -0.273 OA
HETATM    2  C1  UNL     1      -0.112  -0.448   1.010  1.00  0.00     0.219 C 
HETATM    3  N1  UNL     1      -1.305  -0.001   0.367  1.00  0.00    -0.352 N 
HETATM    4  C7  UNL     1      -1.582  -0.435  -0.984  1.00  0.00     0.125 C 
HETATM    5  C8  UNL     1      -3.071  -0.804  -1.047  1.00  0.00     0.020 C 
HETATM    6  C9  UNL     1      -3.841   0.456  -0.716  1.00  0.00     0.003 C 
HETATM    7  C10 UNL     1      -3.656   0.666   0.781  1.00  0.00     0.020 C 
HETATM    8  C11 UNL     1      -2.201   0.887   1.077  1.00  0.00     0.125 C 
ENDROOT
BRANCH   2   9
HETATM    9  C2  UNL     1       0.834  -1.320   0.309  1.00  0.00     0.104 C 
BRANCH   9  10
HETATM   10  C3  UNL     1       2.238  -1.318   0.779  1.00  0.00     0.025 C 
BRANCH  10  11
HETATM   11  C4  UNL     1       3.058  -0.114   0.634  1.00  0.00     0.060 C 
HETATM   12  C5  UNL     1       3.149   0.232  -0.869  1.00  0.00     0.027 C 
HETATM   13  C6  UNL     1       4.288   1.250  -0.992  1.00  0.00     0.087 C 
HETATM   14  S1  UNL     1       3.543   2.691  -0.105  1.00  0.00    -0.097 SA
HETATM   15  S2  UNL     1       2.417   1.442   1.271  1.00  0.00    -0.093 SA
ENDBRANCH  10  11
ENDBRANCH   9  10
ENDBRANCH   2   9
TORSDOF 3
