REMARK  3 active torsions:
REMARK  status: ('A' for Active; 'I' for Inactive)
REMARK    1  A    between atoms: C2_3  and  C3_4 
REMARK    2  A    between atoms: C3_4  and  C4_5 
REMARK    3  A    between atoms: C12_13  and  C13_14 
ROOT
HETATM    1  N1  UNL     1       4.411  -0.708   1.577  1.00  0.00    -0.197 NA
HETATM    2  C1  UNL     1       3.863  -0.768   0.555  1.00  0.00     0.059 C 
HETATM    3  C2  UNL     1       3.155  -0.828  -0.722  1.00  0.00     0.124 C 
ENDROOT
BRANCH   3   4
HETATM    4  C3  UNL     1       2.111   0.235  -0.805  1.00  0.00     0.022 C 
BRANCH   4   5
HETATM    5  C4  UNL     1       1.074   0.142   0.258  1.00  0.00     0.031 C 
HETATM    6  C5  UNL     1       0.383  -1.197   0.135  1.00  0.00     0.127 C 
HETATM    7  C6  UNL     1      -0.417  -1.348   1.424  1.00  0.00     0.037 C 
HETATM    8  O2  UNL     1      -0.333  -1.370  -0.992  1.00  0.00    -0.380 OA
HETATM    9  C7  UNL     1      -1.524  -0.328   1.399  1.00  0.00    -0.011 C 
HETATM   10  C8  UNL     1      -2.620  -0.857   0.524  1.00  0.00     0.007 C 
HETATM   11  C14 UNL     1      -1.091   1.055   1.106  1.00  0.00     0.021 C 
HETATM   12  C9  UNL     1      -2.538  -0.483  -0.903  1.00  0.00     0.032 C 
HETATM   13  C10 UNL     1      -1.122  -0.373  -1.440  1.00  0.00     0.123 C 
HETATM   14  C11 UNL     1      -0.600   1.025  -1.265  1.00  0.00     0.049 C 
HETATM   15  C12 UNL     1       0.024   1.201   0.109  1.00  0.00     0.021 C 
BRANCH  15  16
HETATM   16  C13 UNL     1       0.541   2.582   0.186  1.00  0.00     0.241 C 
HETATM   17  O1  UNL     1      -0.127   3.492   0.631  1.00  0.00    -0.306 OA
ENDBRANCH  15  16
ENDBRANCH   4   5
ENDBRANCH   3   4
TORSDOF 3
