REMARK  3 active torsions:
REMARK  status: ('A' for Active; 'I' for Inactive)
REMARK    1  A    between atoms: C2_2  and  C3_3 
REMARK    2  A    between atoms: C3_3  and  N1_4 
REMARK    3  A    between atoms: C5_6  and  C6_7 
ROOT
HETATM    1  N1  UNL     1       2.626  -0.425  -0.691  1.00  0.00    -0.300 N 
HETATM    2  C4  UNL     1       1.665   0.489  -0.409  1.00  0.00     0.119 A 
HETATM    3  C5  UNL     1       0.430  -0.126  -0.412  1.00  0.00    -0.018 A 
HETATM    4  C13 UNL     1       0.684  -1.447  -0.708  1.00  0.00     0.116 A 
HETATM    5  N2  UNL     1       2.020  -1.587  -0.869  1.00  0.00    -0.309 N 
ATOM      6  H2  UNL     1       2.492  -2.463  -1.095  1.00  0.00     0.186 HD
ENDROOT
BRANCH   3   7
HETATM    7  C6  UNL     1      -0.888   0.509  -0.152  1.00  0.00     0.051 C 
HETATM    8  C7  UNL     1      -1.821   0.386  -1.345  1.00  0.00     0.018 C 
HETATM    9  C8  UNL     1      -3.196   0.038  -0.769  1.00  0.00     0.010 C 
HETATM   10  C9  UNL     1      -3.471   1.049   0.328  1.00  0.00     0.009 C 
HETATM   11  C12 UNL     1      -3.049  -1.352  -0.166  1.00  0.00     0.172 C 
HETATM   12  C10 UNL     1      -2.710   0.568   1.558  1.00  0.00     0.033 C 
HETATM   13  C11 UNL     1      -1.496  -0.175   1.047  1.00  0.00     0.130 C 
HETATM   14  O1  UNL     1      -1.933  -1.436   0.642  1.00  0.00    -0.385 OA
ENDBRANCH   3   7
BRANCH   1  15
HETATM   15  C3  UNL     1       4.047  -0.155  -0.777  1.00  0.00     0.174 C 
BRANCH  15  16
HETATM   16  C2  UNL     1       4.717  -0.325   0.521  1.00  0.00    -0.015 C 
HETATM   17  C1  UNL     1       5.344   0.676   1.078  1.00  0.00     0.008 C 
ENDBRANCH  15  16
ENDBRANCH   1  15
TORSDOF 3
