REMARK  10 active torsions:
REMARK  status: ('A' for Active; 'I' for Inactive)
REMARK    1  A    between atoms: C3_3  and  C4_4 
REMARK    2  A    between atoms: C4_4  and  S1_5 
REMARK    3  A    between atoms: S1_5  and  N1_6 
REMARK    4  A    between atoms: N2_10  and  C5_11 
REMARK    5  A    between atoms: C5_11  and  C6_12 
REMARK    6  A    between atoms: C6_12  and  C7_13 
REMARK    7  A    between atoms: C7_13  and  O2_14 
REMARK    8  A    between atoms: O2_14  and  S2_15 
REMARK    9  A    between atoms: N4_24  and  N5_25 
REMARK   10  A    between atoms: C10_28  and  N6_29 
ROOT
HETATM    1  C1  UNL     1      -2.689  -1.725  -1.776  1.00  0.00     0.051 C 
HETATM    2  C2  UNL     1      -1.870  -0.882  -0.853  1.00  0.00    -0.021 A 
HETATM    3  C3  UNL     1      -0.661  -0.326  -1.220  1.00  0.00     0.033 A 
HETATM    4  N2  UNL     1      -0.211   0.335  -0.139  1.00  0.00    -0.334 N 
HETATM    5  C8  UNL     1      -1.091   0.221   0.891  1.00  0.00     0.126 A 
HETATM    6  N3  UNL     1      -1.107   0.684   2.131  1.00  0.00    -0.292 N 
ATOM      7  H3  UNL     1      -0.332   1.250   2.476  1.00  0.00     0.172 HD
HETATM    8  C9  UNL     1      -2.148   0.406   2.935  1.00  0.00     0.348 A 
HETATM    9  O6  UNL     1      -2.162   0.850   4.133  1.00  0.00    -0.245 OA
HETATM   10  N4  UNL     1      -3.190  -0.329   2.540  1.00  0.00    -0.195 N 
HETATM   11  C10 UNL     1      -3.256  -0.849   1.280  1.00  0.00     0.140 A 
HETATM   12  C11 UNL     1      -2.163  -0.552   0.461  1.00  0.00     0.062 A 
ENDROOT
BRANCH   4  13
HETATM   13  C5  UNL     1       1.089   1.004  -0.067  1.00  0.00     0.133 C 
BRANCH  13  14
HETATM   14  C6  UNL     1       2.130   0.025   0.400  1.00  0.00     0.048 C 
BRANCH  14  15
HETATM   15  C7  UNL     1       3.527   0.538   0.491  1.00  0.00     0.194 C 
BRANCH  15  16
HETATM   16  O2  UNL     1       4.295  -0.579   0.897  1.00  0.00    -0.257 OA
BRANCH  16  17
HETATM   17  S2  UNL     1       5.910  -0.192   1.063  1.00  0.00     0.251 S 
HETATM   18  O3  UNL     1       6.571  -1.338   1.804  1.00  0.00    -0.572 OA
HETATM   19  O4  UNL     1       6.554  -0.132  -0.273  1.00  0.00    -0.572 OA
HETATM   20  O5  UNL     1       6.100   1.257   1.873  1.00  0.00    -0.572 OA
ENDBRANCH  16  17
ENDBRANCH  15  16
ENDBRANCH  14  15
ENDBRANCH  13  14
ENDBRANCH   4  13
BRANCH   3  21
HETATM   21  C4  UNL     1       0.058  -0.500  -2.480  1.00  0.00     0.189 C 
BRANCH  21  22
HETATM   22  S1  UNL     1      -0.816   0.009  -3.917  1.00  0.00     0.113 S 
HETATM   23  O1  UNL     1      -0.037  -0.499  -5.316  1.00  0.00    -0.236 OA
BRANCH  22  24
HETATM   24  N1  UNL     1      -1.324   1.640  -3.976  1.00  0.00    -0.349 NA
ATOM     25  H12 UNL     1      -1.797   1.948  -3.127  1.00  0.00     0.166 HD
ATOM     26  H11 UNL     1      -1.831   1.935  -4.810  1.00  0.00     0.166 HD
ENDBRANCH  22  24
ENDBRANCH  21  22
ENDBRANCH   3  21
BRANCH  11  27
HETATM   27  N6  UNL     1      -4.213  -1.509   0.887  1.00  0.00    -0.383 N 
ATOM     28  H62 UNL     1      -5.011  -1.726   1.485  1.00  0.00     0.157 HD
ATOM     29  H61 UNL     1      -4.262  -1.898  -0.055  1.00  0.00     0.157 HD
ENDBRANCH  11  27
BRANCH  10  30
HETATM   30  N5  UNL     1      -4.283  -0.655   3.366  1.00  0.00    -0.333 N 
ATOM     31  H52 UNL     1      -4.234  -0.266   4.308  1.00  0.00     0.177 HD
ATOM     32  H51 UNL     1      -5.079  -1.217   3.064  1.00  0.00     0.177 HD
ENDBRANCH  10  30
TORSDOF 10
