REMARK  5 active torsions:
REMARK  status: ('A' for Active; 'I' for Inactive)
REMARK    1  A    between atoms: C3_3  and  O1_4 
REMARK    2  A    between atoms: C5_7  and  O2_8 
REMARK    3  A    between atoms: C11_15  and  O3_16 
REMARK    4  A    between atoms: C16_23  and  C17_24 
REMARK    5  A    between atoms: C17_24  and  C18_25 
ROOT
HETATM    1  C1  UNL     1      -2.827   0.300  -1.464  1.00  0.00     0.022 C 
HETATM    2  C2  UNL     1      -1.907   0.494  -0.308  1.00  0.00     0.024 C 
HETATM    3  C3  UNL     1      -2.781   0.722   0.930  1.00  0.00     0.132 C 
HETATM    4  C4  UNL     1      -3.700  -0.462   1.020  1.00  0.00     0.064 C 
HETATM    5  C5  UNL     1      -3.064  -1.784   0.962  1.00  0.00     0.121 C 
HETATM    6  C6  UNL     1      -1.897  -1.950   0.065  1.00  0.00     0.037 C 
HETATM    7  C7  UNL     1      -1.042  -0.674   0.036  1.00  0.00     0.006 C 
HETATM    8  C8  UNL     1       0.196  -0.813  -0.739  1.00  0.00    -0.005 C 
HETATM    9  C9  UNL     1       0.008  -0.066  -2.070  1.00  0.00     0.009 C 
HETATM   10  C10 UNL     1      -0.269   1.380  -1.870  1.00  0.00     0.046 C 
HETATM   11  C11 UNL     1      -1.063   1.707  -0.623  1.00  0.00     0.121 C 
HETATM   12  C12 UNL     1      -0.215   2.154   0.488  1.00  0.00     0.125 C 
HETATM   13  F1  UNL     1      -0.424   3.444   0.925  1.00  0.00    -0.208 F 
HETATM   14  C13 UNL     1       0.759   1.624   1.234  1.00  0.00     0.019 C 
HETATM   15  C14 UNL     1       1.391   0.277   1.208  1.00  0.00     0.015 C 
HETATM   16  C15 UNL     1       2.888   0.518   1.479  1.00  0.00     0.014 C 
HETATM   17  C16 UNL     1       3.559  -0.693   0.823  1.00  0.00    -0.005 C 
HETATM   18  C19 UNL     1       2.514  -1.411   0.038  1.00  0.00     0.010 C 
HETATM   19  C20 UNL     1       1.453  -0.315  -0.152  1.00  0.00    -0.002 C 
ENDROOT
BRANCH  17  20
HETATM   20  C17 UNL     1       4.688  -0.165  -0.011  1.00  0.00     0.101 C 
BRANCH  20  21
HETATM   21  C18 UNL     1       5.434  -1.232  -0.711  1.00  0.00     0.219 C 
HETATM   22  O4  UNL     1       5.182  -2.414  -0.637  1.00  0.00    -0.280 OA
HETATM   23 CL1  UNL     1       6.788  -0.742  -1.725  1.00  0.00    -0.044 Cl
ENDBRANCH  20  21
ENDBRANCH  17  20
BRANCH  11  24
HETATM   24  O3  UNL     1      -1.954   2.723  -0.989  1.00  0.00    -0.382 OA
ATOM     25  H3  UNL     1      -1.423   3.486  -1.187  1.00  0.00     0.211 HD
ENDBRANCH  11  24
BRANCH   3  26
HETATM   26  O1  UNL     1      -3.515   1.866   0.729  1.00  0.00    -0.395 OA
ATOM     27  H1  UNL     1      -4.057   2.007   1.496  1.00  0.00     0.210 HD
ENDBRANCH   3  26
BRANCH   5  28
HETATM   28  O2  UNL     1      -2.742  -2.177   2.283  1.00  0.00    -0.395 OA
ATOM     29  H2  UNL     1      -2.330  -3.032   2.245  1.00  0.00     0.210 HD
ENDBRANCH   5  28
TORSDOF 5
