REMARK  3 active torsions:
REMARK  status: ('A' for Active; 'I' for Inactive)
REMARK    1  A    between atoms: C3_3  and  O1_4 
REMARK    2  A    between atoms: C4_6  and  C5_7 
REMARK    3  A    between atoms: C14_19  and  O3_20 
ROOT
HETATM    1  C1  UNL     1      -2.054  -3.166   0.667  1.00  0.00     0.017 C 
HETATM    2  C2  UNL     1      -2.249  -1.859   0.559  1.00  0.00    -0.050 A 
HETATM    3  C3  UNL     1      -3.236  -0.884   1.040  1.00  0.00     0.183 A 
HETATM    4  C4  UNL     1      -2.440   0.258   0.439  1.00  0.00     0.111 A 
HETATM    5  O2  UNL     1      -1.955   1.066   1.440  1.00  0.00    -0.372 OA
HETATM    6  C7  UNL     1      -0.653   1.442   1.300  1.00  0.00     0.217 C 
HETATM    7  C8  UNL     1       0.300   0.235   1.324  1.00  0.00     0.151 C 
HETATM    8  F1  UNL     1       0.113  -0.433   2.498  1.00  0.00    -0.235 F 
HETATM    9  C9  UNL     1       1.637   0.831   1.231  1.00  0.00    -0.048 C 
HETATM   10  C10 UNL     1       2.447   0.294   2.117  1.00  0.00     0.017 C 
HETATM   11  C11 UNL     1       2.371   1.874   0.444  1.00  0.00     0.037 C 
HETATM   12  C12 UNL     1       3.291   1.247  -0.509  1.00  0.00     0.012 C 
HETATM   13  C13 UNL     1       3.306  -0.206  -0.712  1.00  0.00     0.022 A 
HETATM   14  C14 UNL     1       3.117  -0.840  -2.043  1.00  0.00     0.127 A 
HETATM   15  C15 UNL     1       2.139  -1.004  -0.867  1.00  0.00     0.022 A 
HETATM   16  C16 UNL     1       0.800  -0.410  -1.033  1.00  0.00     0.016 C 
HETATM   17  C17 UNL     1      -0.092  -0.652   0.198  1.00  0.00     0.044 C 
HETATM   18  C18 UNL     1      -1.530  -0.727  -0.127  1.00  0.00     0.063 A 
ENDROOT
BRANCH   4  19
HETATM   19  C5  UNL     1      -3.311   1.045  -0.506  1.00  0.00     0.092 C 
HETATM   20  C6  UNL     1      -2.567   2.201  -1.139  1.00  0.00     0.025 C 
HETATM   21 BR1  UNL     1      -4.017  -0.059  -1.923  1.00  0.00    -0.088 Br
ENDBRANCH   4  19
BRANCH   3  22
HETATM   22  O1  UNL     1      -4.525  -1.028   0.508  1.00  0.00    -0.388 OA
ATOM     23  H1  UNL     1      -5.164  -0.397   0.819  1.00  0.00     0.210 HD
ENDBRANCH   3  22
BRANCH  14  24
HETATM   24  O3  UNL     1       3.861  -1.963  -2.403  1.00  0.00    -0.395 OA
ATOM     25  H3  UNL     1       3.740  -2.368  -3.254  1.00  0.00     0.210 HD
ENDBRANCH  14  24
TORSDOF 3
