REMARK  12 active torsions:
REMARK  status: ('A' for Active; 'I' for Inactive)
REMARK    1  A    between atoms: C2_2  and  N1_3 
REMARK    2  A    between atoms: N1_3  and  C3_4 
REMARK    3  A    between atoms: N1_3  and  C5_10 
REMARK    4  A    between atoms: C3_4  and  C4_5 
REMARK    5  A    between atoms: C4_5  and  N2_6 
REMARK    6  A    between atoms: C5_10  and  C6_11 
REMARK    7  A    between atoms: C6_11  and  O1_12 
REMARK    8  A    between atoms: O1_12  and  C7_13 
REMARK    9  A    between atoms: C7_13  and  C8_14 
REMARK   10  A    between atoms: C12_18  and  O2_19 
REMARK   11  A    between atoms: C22_30  and  C23_31 
REMARK   12  A    between atoms: C25_36  and  O6_37 
ROOT
HETATM    1  C8  UNL     1       1.998  -1.119   1.928  1.00  0.00     0.068 C 
HETATM    2  C9  UNL     1       0.948  -0.456   1.021  1.00  0.00     0.032 C 
HETATM    3  C10 UNL     1      -0.313  -0.773   1.775  1.00  0.00    -0.029 C 
HETATM    4  C11 UNL     1      -0.069  -2.158   2.303  1.00  0.00     0.043 C 
HETATM    5  C12 UNL     1       1.393  -2.482   2.063  1.00  0.00     0.137 C 
HETATM    6  C13 UNL     1      -0.409   0.192   2.933  1.00  0.00     0.001 C 
HETATM    7  C14 UNL     1      -0.385   1.626   2.408  1.00  0.00     0.006 C 
HETATM    8  C15 UNL     1      -1.208   1.773   1.142  1.00  0.00     0.006 C 
HETATM    9  C16 UNL     1      -2.187   0.644   1.121  1.00  0.00    -0.001 C 
HETATM   10  C17 UNL     1      -1.563  -0.709   0.942  1.00  0.00    -0.001 C 
HETATM   11  C18 UNL     1      -2.542  -1.718   1.559  1.00  0.00     0.006 C 
HETATM   12  C19 UNL     1      -3.977  -1.176   1.509  1.00  0.00     0.006 C 
HETATM   13  C20 UNL     1      -4.147  -0.418   0.210  1.00  0.00    -0.005 C 
HETATM   14  C21 UNL     1      -5.578  -0.290  -0.147  1.00  0.00     0.021 C 
HETATM   15  C22 UNL     1      -5.877  -0.042  -1.595  1.00  0.00     0.071 C 
HETATM   16  C26 UNL     1      -5.187   1.056  -2.242  1.00  0.00    -0.019 C 
HETATM   17  C27 UNL     1      -3.974   1.543  -2.090  1.00  0.00    -0.029 C 
HETATM   18  C28 UNL     1      -2.911   1.107  -1.188  1.00  0.00     0.036 C 
HETATM   19  C29 UNL     1      -3.382   0.874   0.219  1.00  0.00    -0.033 C 
HETATM   20  C30 UNL     1      -4.115   2.051   0.755  1.00  0.00     0.016 C 
HETATM   21  C31 UNL     1       0.748   0.039   3.871  1.00  0.00     0.084 C 
HETATM   22  C32 UNL     1       1.991  -0.410   3.240  1.00  0.00     0.140 C 
HETATM   23  O7  UNL     1       3.041  -0.174   3.848  1.00  0.00    -0.297 OA
ENDROOT
BRANCH   1  24
HETATM   24  C7  UNL     1       3.355  -1.084   1.295  1.00  0.00     0.187 C 
BRANCH  24  25
HETATM   25  O1  UNL     1       3.462  -1.717   0.106  1.00  0.00    -0.388 OA
BRANCH  25  26
HETATM   26  C6  UNL     1       4.688  -1.704  -0.502  1.00  0.00     0.198 C 
BRANCH  26  27
HETATM   27  C5  UNL     1       5.198  -0.326  -0.817  1.00  0.00     0.298 C 
BRANCH  27  28
HETATM   28  N1  UNL     1       6.485  -0.319  -1.457  1.00  0.00     0.091 N 
BRANCH  28  29
HETATM   29  C2  UNL     1       7.550  -0.781  -0.593  1.00  0.00     0.268 C 
HETATM   30  C1  UNL     1       8.815  -0.862  -1.414  1.00  0.00     0.037 C 
ENDBRANCH  28  29
BRANCH  28  31
HETATM   31  C3  UNL     1       6.839   1.072  -1.774  1.00  0.00     0.299 C 
BRANCH  31  32
HETATM   32  C4  UNL     1       5.863   1.755  -2.675  1.00  0.00     0.259 C 
BRANCH  32  33
HETATM   33  N2  UNL     1       6.412   3.116  -2.876  1.00  0.00    -0.078 N 
ATOM     34  H23 UNL     1       6.595   3.620  -2.008  1.00  0.00     0.274 HD
ATOM     35  H22 UNL     1       7.371   3.127  -3.222  1.00  0.00     0.274 HD
ATOM     36  H21 UNL     1       5.745   3.582  -3.491  1.00  0.00     0.274 HD
ENDBRANCH  32  33
ENDBRANCH  31  32
ENDBRANCH  28  31
ENDBRANCH  27  28
ENDBRANCH  26  27
ENDBRANCH  25  26
ENDBRANCH  24  25
ENDBRANCH   1  24
BRANCH   5  37
HETATM   37  O2  UNL     1       1.938  -3.228   3.091  1.00  0.00    -0.394 OA
ATOM     38  H2  UNL     1       1.554  -4.093   3.177  1.00  0.00     0.210 HD
ENDBRANCH   5  37
BRANCH  15  39
HETATM   39  C23 UNL     1      -7.337   0.208  -1.715  1.00  0.00     0.125 A 
HETATM   40  O3  UNL     1      -8.161   0.276  -0.706  1.00  0.00    -0.254 OA
HETATM   41  C24 UNL     1      -9.384   0.505  -1.092  1.00  0.00     0.418 A 
HETATM   42  O4  UNL     1     -10.350   0.611  -0.292  1.00  0.00    -0.229 OA
HETATM   43  O5  UNL     1      -9.338   0.587  -2.395  1.00  0.00    -0.229 OA
HETATM   44  C25 UNL     1      -8.106   0.413  -2.839  1.00  0.00     0.219 A 
BRANCH  44  45
HETATM   45  O6  UNL     1      -7.653   0.427  -4.133  1.00  0.00    -0.339 OA
ATOM     46  H6  UNL     1      -8.183   0.568  -4.908  1.00  0.00     0.220 HD
ENDBRANCH  44  45
ENDBRANCH  15  39
TORSDOF 12
