REMARK  12 active torsions:
REMARK  status: ('A' for Active; 'I' for Inactive)
REMARK    1  A    between atoms: C2_2  and  C3_3 
REMARK    2  A    between atoms: C12_14  and  O3_15 
REMARK    3  A    between atoms: C20_26  and  O6_27 
REMARK    4  A    between atoms: O6_27  and  C21_28 
REMARK    5  A    between atoms: C21_28  and  C22_30 
REMARK    6  A    between atoms: C22_30  and  C23_31 
REMARK    7  A    between atoms: C23_31  and  C24_32 
REMARK    8  A    between atoms: C24_32  and  C25_33 
REMARK    9  A    between atoms: C25_33  and  C26_34 
REMARK   10  A    between atoms: C26_34  and  C27_35 
REMARK   11  A    between atoms: C30_38  and  O8_39 
REMARK   12  A    between atoms: C31_41  and  O9_42 
ROOT
HETATM    1  C3  UNL     1      -5.896   0.815   0.644  1.00  0.00    -0.014 C 
HETATM    2  C4  UNL     1      -6.165   0.277   2.018  1.00  0.00     0.020 C 
HETATM    3  C5  UNL     1      -5.614  -0.284  -0.301  1.00  0.00     0.092 C 
HETATM    4  C6  UNL     1      -4.288  -0.884  -0.319  1.00  0.00     0.133 C 
HETATM    5  O1  UNL     1      -3.780  -1.279   0.706  1.00  0.00    -0.298 OA
HETATM    6  C7  UNL     1      -3.524  -1.035  -1.561  1.00  0.00     0.067 C 
HETATM    7  C8  UNL     1      -4.486  -1.144  -2.696  1.00  0.00     0.019 C 
HETATM    8  C9  UNL     1      -2.416  -0.006  -1.758  1.00  0.00     0.038 C 
HETATM    9  C10 UNL     1      -2.293   0.158  -3.285  1.00  0.00     0.025 C 
HETATM   10  C11 UNL     1      -2.826   1.352  -1.295  1.00  0.00     0.186 C 
HETATM   11  O2  UNL     1      -3.481   2.104  -2.047  1.00  0.00    -0.293 OA
HETATM   12  C12 UNL     1      -2.537   1.950   0.010  1.00  0.00     0.241 C 
HETATM   13  C13 UNL     1      -3.635   1.880   1.001  1.00  0.00     0.177 C 
HETATM   14  O4  UNL     1      -3.313   1.701   2.179  1.00  0.00    -0.294 OA
HETATM   15  C14 UNL     1      -5.020   2.017   0.601  1.00  0.00     0.096 C 
HETATM   16  C15 UNL     1      -1.276   1.360   0.510  1.00  0.00     0.185 C 
HETATM   17  O5  UNL     1      -1.009   1.628   1.660  1.00  0.00    -0.293 OA
HETATM   18  C16 UNL     1      -0.389   0.511  -0.299  1.00  0.00     0.034 C 
HETATM   19  C17 UNL     1       0.499   1.471  -1.084  1.00  0.00     0.025 C 
HETATM   20  C18 UNL     1       0.553  -0.157   0.689  1.00  0.00     0.027 C 
HETATM   21  C19 UNL     1      -0.093  -0.724   1.901  1.00  0.00     0.014 C 
HETATM   22  C20 UNL     1       1.514  -1.126   0.113  1.00  0.00     0.139 C 
HETATM   23  C29 UNL     1       0.798  -2.410  -0.211  1.00  0.00     0.067 C 
HETATM   24  C30 UNL     1       0.366  -2.487  -1.642  1.00  0.00     0.149 C 
HETATM   25  C31 UNL     1      -0.253  -1.206  -2.149  1.00  0.00     0.153 C 
HETATM   26  C32 UNL     1      -1.100  -0.475  -1.151  1.00  0.00     0.049 C 
ENDROOT
BRANCH  22  27
HETATM   27  O6  UNL     1       2.430  -1.460   1.174  1.00  0.00    -0.316 OA
BRANCH  27  28
HETATM   28  C21 UNL     1       3.810  -1.303   1.036  1.00  0.00     0.259 C 
HETATM   29  O7  UNL     1       4.193  -0.852  -0.073  1.00  0.00    -0.265 OA
BRANCH  28  30
HETATM   30  C22 UNL     1       4.757  -1.646   2.124  1.00  0.00     0.111 C 
BRANCH  30  31
HETATM   31  C23 UNL     1       5.089  -0.388   2.884  1.00  0.00     0.010 C 
BRANCH  31  32
HETATM   32  C24 UNL     1       5.736   0.682   2.069  1.00  0.00     0.000 C 
BRANCH  32  33
HETATM   33  C25 UNL     1       7.046   0.248   1.472  1.00  0.00     0.000 C 
BRANCH  33  34
HETATM   34  C26 UNL     1       7.639   1.386   0.661  1.00  0.00    -0.000 C 
BRANCH  34  35
HETATM   35  C27 UNL     1       8.964   0.946   0.058  1.00  0.00    -0.005 C 
HETATM   36  C28 UNL     1       8.722  -0.249  -0.841  1.00  0.00     0.005 C 
ENDBRANCH  34  35
ENDBRANCH  33  34
ENDBRANCH  32  33
ENDBRANCH  31  32
ENDBRANCH  30  31
ENDBRANCH  28  30
ENDBRANCH  27  28
ENDBRANCH  22  27
BRANCH  24  37
HETATM   37  O8  UNL     1      -0.534  -3.536  -1.781  1.00  0.00    -0.393 OA
ATOM     38  H8  UNL     1      -0.808  -3.585  -2.689  1.00  0.00     0.210 HD
ENDBRANCH  24  37
BRANCH  25  39
HETATM   39  O9  UNL     1       0.676  -0.415  -2.822  1.00  0.00    -0.393 OA
ATOM     40  H9  UNL     1       0.287   0.391  -3.141  1.00  0.00     0.210 HD
ENDBRANCH  25  39
BRANCH  12  41
HETATM   41  O3  UNL     1      -2.310   3.358  -0.138  1.00  0.00    -0.369 OA
ATOM     42  H3  UNL     1      -2.123   3.746   0.709  1.00  0.00     0.212 HD
ENDBRANCH  12  41
BRANCH   1  43
HETATM   43  C2  UNL     1      -7.264   1.349   0.198  1.00  0.00    -0.027 C 
HETATM   44  C1  UNL     1      -8.158   1.771   1.063  1.00  0.00     0.007 C 
ENDBRANCH   1  43
TORSDOF 12
