REMARK  14 active torsions:
REMARK  status: ('A' for Active; 'I' for Inactive)
REMARK    1  A    between atoms: O1_2  and  C2_3 
REMARK    2  A    between atoms: C2_3  and  O3_5 
REMARK    3  A    between atoms: O3_5  and  C3_6 
REMARK    4  A    between atoms: C3_6  and  C4_8 
REMARK    5  A    between atoms: C11_18  and  C12_19 
REMARK    6  A    between atoms: C12_19  and  O8_21 
REMARK    7  A    between atoms: C12_19  and  C14_23 
REMARK    8  A    between atoms: C14_23  and  O9_24 
REMARK    9  A    between atoms: C14_23  and  C15_26 
REMARK   10  A    between atoms: C15_26  and  C16_27 
REMARK   11  A    between atoms: C16_27  and  C18_29 
REMARK   12  A    between atoms: C19_30  and  C21_32 
REMARK   13  A    between atoms: C21_32  and  O10_33 
REMARK   14  A    between atoms: C21_32  and  C22_35 
ROOT
HETATM    1  C4  UNL     1      -4.991  -0.837  -0.434  1.00  0.00     0.166 C 
HETATM    2  C5  UNL     1      -4.572  -2.233  -0.620  1.00  0.00     0.170 C 
HETATM    3  O5  UNL     1      -4.747  -3.051   0.282  1.00  0.00    -0.294 OA
HETATM    4  C6  UNL     1      -3.931  -2.762  -1.853  1.00  0.00     0.204 C 
HETATM    5  O6  UNL     1      -2.939  -3.669  -1.484  1.00  0.00    -0.364 OA
HETATM    6  C7  UNL     1      -2.028  -2.968  -2.266  1.00  0.00     0.203 C 
HETATM    7  C8  UNL     1      -0.741  -2.657  -1.646  1.00  0.00     0.160 C 
HETATM    8  O7  UNL     1      -0.312  -3.600  -0.962  1.00  0.00    -0.295 OA
HETATM    9  C9  UNL     1       0.151  -1.458  -1.665  1.00  0.00     0.061 C 
HETATM   10  C10 UNL     1       0.368  -0.957  -3.078  1.00  0.00     0.018 C 
HETATM   11  C11 UNL     1      -0.449  -0.423  -0.768  1.00  0.00     0.033 C 
HETATM   12  C25 UNL     1      -1.917  -0.772  -0.468  1.00  0.00     0.014 C 
HETATM   13  C26 UNL     1      -2.792  -0.632  -1.667  1.00  0.00     0.009 C 
HETATM   14  C27 UNL     1      -4.114   0.042  -1.272  1.00  0.00    -0.024 C 
HETATM   15  C28 UNL     1      -4.943   0.310  -2.543  1.00  0.00     0.016 C 
HETATM   16  C29 UNL     1      -3.879   1.410  -0.710  1.00  0.00     0.016 C 
HETATM   17  C30 UNL     1      -2.960  -1.840  -2.492  1.00  0.00     0.027 C 
HETATM   18  C31 UNL     1      -3.135  -1.612  -3.999  1.00  0.00     0.022 C 
ENDROOT
BRANCH  11  19
HETATM   19  C12 UNL     1       0.225  -0.288   0.551  1.00  0.00     0.084 C 
HETATM   20  C13 UNL     1      -0.456   0.780   1.370  1.00  0.00     0.049 C 
BRANCH  19  21
HETATM   21  O8  UNL     1       0.105  -1.498   1.232  1.00  0.00    -0.387 OA
ATOM     22  H8  UNL     1       0.535  -1.412   2.074  1.00  0.00     0.210 HD
ENDBRANCH  19  21
BRANCH  19  23
HETATM   23  C14 UNL     1       1.688   0.054   0.505  1.00  0.00     0.153 C 
BRANCH  23  24
HETATM   24  O9  UNL     1       2.117   0.161   1.830  1.00  0.00    -0.393 OA
ATOM     25  H9  UNL     1       3.042   0.377   1.801  1.00  0.00     0.210 HD
ENDBRANCH  23  24
BRANCH  23  26
HETATM   26  C15 UNL     1       1.980   1.338  -0.179  1.00  0.00     0.043 C 
BRANCH  26  27
HETATM   27  C16 UNL     1       3.493   1.657  -0.199  1.00  0.00     0.007 C 
HETATM   28  C17 UNL     1       3.517   3.018  -0.951  1.00  0.00     0.014 C 
BRANCH  27  29
HETATM   29  C18 UNL     1       3.991   1.870   1.159  1.00  0.00    -0.018 C 
HETATM   30  C19 UNL     1       4.991   1.439   1.843  1.00  0.00    -0.059 C 
HETATM   31  C20 UNL     1       5.058   2.007   3.306  1.00  0.00     0.046 C 
BRANCH  30  32
HETATM   32  C21 UNL     1       6.133   0.581   1.591  1.00  0.00     0.149 C 
BRANCH  32  33
HETATM   33  O10 UNL     1       6.397  -0.262   2.711  1.00  0.00    -0.391 OA
ATOM     34  H10 UNL     1       7.145  -0.824   2.546  1.00  0.00     0.210 HD
ENDBRANCH  32  33
BRANCH  32  35
HETATM   35  C22 UNL     1       6.226  -0.275   0.401  1.00  0.00     0.010 C 
HETATM   36  C23 UNL     1       7.623  -0.980   0.481  1.00  0.00     0.012 C 
HETATM   37  C24 UNL     1       5.268  -1.476   0.506  1.00  0.00     0.012 C 
ENDBRANCH  32  35
ENDBRANCH  30  32
ENDBRANCH  27  29
ENDBRANCH  26  27
ENDBRANCH  23  26
ENDBRANCH  19  23
ENDBRANCH  11  19
BRANCH   1  38
HETATM   38  C3  UNL     1      -5.042  -0.463   0.985  1.00  0.00     0.280 C 
HETATM   39  O4  UNL     1      -4.702  -1.305   1.852  1.00  0.00    -0.264 OA
BRANCH  38  40
HETATM   40  O3  UNL     1      -5.446   0.774   1.448  1.00  0.00    -0.220 OA
BRANCH  40  41
HETATM   41  C2  UNL     1      -5.509   1.160   2.758  1.00  0.00     0.413 C 
HETATM   42  O2  UNL     1      -5.173   0.330   3.640  1.00  0.00    -0.229 OA
BRANCH  41  43
HETATM   43  O1  UNL     1      -5.929   2.429   3.150  1.00  0.00    -0.303 OA
HETATM   44  C1  UNL     1      -5.986   2.801   4.506  1.00  0.00     0.215 C 
ENDBRANCH  41  43
ENDBRANCH  40  41
ENDBRANCH  38  40
ENDBRANCH   1  38
TORSDOF 14
