REMARK  14 active torsions:
REMARK  status: ('A' for Active; 'I' for Inactive)
REMARK    1  A    between atoms: C2_2  and  C4_4 
REMARK    2  A    between atoms: C4_4  and  O1_6 
REMARK    3  A    between atoms: C4_4  and  C6_8 
REMARK    4  A    between atoms: C7_9  and  C8_10 
REMARK    5  A    between atoms: C8_10  and  C10_12 
REMARK    6  A    between atoms: C10_12  and  C11_13 
REMARK    7  A    between atoms: C23_26  and  C24_27 
REMARK    8  A    between atoms: C23_26  and  C25_30 
REMARK    9  A    between atoms: C24_27  and  O3_28 
REMARK   10  A    between atoms: C25_30  and  O4_31 
REMARK   11  A    between atoms: O4_31  and  C26_32 
REMARK   12  A    between atoms: C29_38  and  C30_39 
REMARK   13  A    between atoms: C30_39  and  O8_40 
REMARK   14  A    between atoms: C32_42  and  O9_43 
ROOT
HETATM    1  C11 UNL     1       0.048  -0.021  -0.105  1.00  0.00     0.128 C 
HETATM    2  O2  UNL     1      -0.358   0.742   0.942  1.00  0.00    -0.377 OA
HETATM    3  C12 UNL     1      -0.947   1.906   0.870  1.00  0.00     0.167 C 
HETATM    4  C13 UNL     1      -2.157   1.876   1.799  1.00  0.00     0.117 C 
HETATM    5  C14 UNL     1      -3.242   0.945   1.363  1.00  0.00     0.018 C 
HETATM    6  C15 UNL     1      -3.302  -0.380   2.025  1.00  0.00     0.012 C 
HETATM    7  C16 UNL     1      -2.533  -1.496   1.472  1.00  0.00    -0.023 A 
HETATM    8  C17 UNL     1      -1.520  -2.194   2.329  1.00  0.00     0.020 C 
HETATM    9  C18 UNL     1      -0.151  -1.724   1.783  1.00  0.00    -0.041 C 
HETATM   10  C19 UNL     1       0.398  -0.828   2.787  1.00  0.00     0.015 C 
HETATM   11  C20 UNL     1       0.801  -2.942   1.808  1.00  0.00     0.015 C 
HETATM   12  C21 UNL     1      -0.473  -1.397   0.406  1.00  0.00     0.028 C 
HETATM   13  C22 UNL     1      -1.952  -1.348   0.149  1.00  0.00     0.016 A 
HETATM   14  C23 UNL     1      -2.978  -2.342   0.303  1.00  0.00     0.016 A 
HETATM   15  C28 UNL     1      -2.682   3.268   2.025  1.00  0.00     0.266 C 
HETATM   16  O6  UNL     1      -3.322   3.476   3.078  1.00  0.00    -0.265 OA
HETATM   17  O7  UNL     1      -2.429   4.212   1.074  1.00  0.00    -0.311 OA
HETATM   18  C29 UNL     1      -1.564   4.078  -0.005  1.00  0.00     0.186 C 
HETATM   19  C32 UNL     1      -1.346   2.588  -0.364  1.00  0.00     0.179 C 
ENDROOT
BRANCH   1  20
HETATM   20  C10 UNL     1       1.458   0.015  -0.473  1.00  0.00     0.040 C 
BRANCH  20  21
HETATM   21  C8  UNL     1       2.023  -0.679  -1.628  1.00  0.00     0.006 C 
HETATM   22  C9  UNL     1       1.874  -2.120  -1.849  1.00  0.00     0.014 C 
BRANCH  21  23
HETATM   23  C7  UNL     1       3.510  -0.395  -1.700  1.00  0.00    -0.023 C 
HETATM   24  C6  UNL     1       4.145   0.360  -0.850  1.00  0.00     0.011 C 
BRANCH  24  25
HETATM   25  C4  UNL     1       5.612   0.615  -0.955  1.00  0.00     0.094 C 
HETATM   26  C5  UNL     1       6.109   0.005  -2.240  1.00  0.00     0.055 C 
BRANCH  25  27
HETATM   27  C2  UNL     1       6.364   0.046   0.195  1.00  0.00    -0.056 C 
HETATM   28  C1  UNL     1       7.328  -0.853   0.072  1.00  0.00     0.017 C 
HETATM   29  C3  UNL     1       6.004   0.524   1.554  1.00  0.00     0.046 C 
ENDBRANCH  25  27
BRANCH  25  30
HETATM   30  O1  UNL     1       5.872   1.984  -1.028  1.00  0.00    -0.382 OA
ATOM     31  H1  UNL     1       5.392   2.347  -1.763  1.00  0.00     0.211 HD
ENDBRANCH  25  30
ENDBRANCH  24  25
ENDBRANCH  21  23
ENDBRANCH  20  21
ENDBRANCH   1  20
BRANCH  19  32
HETATM   32  O9  UNL     1      -0.452   2.640  -1.401  1.00  0.00    -0.390 OA
ATOM     33  H9  UNL     1      -0.711   3.082  -2.201  1.00  0.00     0.210 HD
ENDBRANCH  19  32
BRANCH  14  34
HETATM   34  C24 UNL     1      -2.785  -3.836   0.388  1.00  0.00     0.177 C 
BRANCH  34  35
HETATM   35  O3  UNL     1      -3.217  -4.555  -0.713  1.00  0.00    -0.400 OA
ATOM     36  H3  UNL     1      -3.095  -5.496  -0.659  1.00  0.00     0.209 HD
ENDBRANCH  34  35
ENDBRANCH  14  34
BRANCH  14  37
HETATM   37  C25 UNL     1      -4.417  -1.996  -0.023  1.00  0.00     0.191 C 
BRANCH  37  38
HETATM   38  O4  UNL     1      -4.991  -2.650  -1.094  1.00  0.00    -0.321 OA
BRANCH  38  39
HETATM   39  C26 UNL     1      -4.633  -2.592  -2.423  1.00  0.00     0.254 C 
HETATM   40  C27 UNL     1      -5.377  -3.374  -3.425  1.00  0.00     0.126 C 
HETATM   41  O5  UNL     1      -3.663  -1.855  -2.727  1.00  0.00    -0.266 OA
ENDBRANCH  38  39
ENDBRANCH  37  38
ENDBRANCH  14  37
BRANCH  18  42
HETATM   42  C30 UNL     1      -2.088   4.827  -1.200  1.00  0.00     0.202 C 
BRANCH  42  43
HETATM   43  O8  UNL     1      -2.223   6.180  -0.914  1.00  0.00    -0.393 OA
HETATM   44  C31 UNL     1      -1.042   6.798  -0.554  1.00  0.00     0.201 C 
ENDBRANCH  42  43
ENDBRANCH  18  42
TORSDOF 14
