REMARK  9 active torsions:
REMARK  status: ('A' for Active; 'I' for Inactive)
REMARK       I    between atoms: C2_2  and  N1_4 
REMARK    1  A    between atoms: N1_4  and  C3_6 
REMARK    2  A    between atoms: C5_8  and  C6_9 
REMARK       I    between atoms: C6_9  and  N2_11 
REMARK    3  A    between atoms: N2_11  and  C7_12 
REMARK    4  A    between atoms: C9_14  and  S1_15 
REMARK    5  A    between atoms: S1_15  and  C10_16 
REMARK    6  A    between atoms: C11_17  and  C12_18 
REMARK    7  A    between atoms: C12_18  and  O3_19 
REMARK    8  A    between atoms: C15_25  and  O4_26 
REMARK    9  A    between atoms: C16_28  and  O5_29 
ROOT
HETATM    1  C7  UNL     1      -0.649  -1.552   0.758  1.00  0.00     0.309 C 
HETATM    2  C8  UNL     1       0.665  -0.791   0.373  1.00  0.00     0.111 C 
HETATM    3  C9  UNL     1       1.618  -1.026   1.527  1.00  0.00     0.191 C 
HETATM    4  O6  UNL     1       2.039  -2.343   1.401  1.00  0.00    -0.351 OA
HETATM    5  C17 UNL     1       1.084  -3.093   0.779  1.00  0.00     0.343 C 
HETATM    6  O7  UNL     1      -0.230  -2.811   1.062  1.00  0.00    -0.331 OA
ENDROOT
BRANCH   3   7
HETATM    7  S1  UNL     1       2.830   0.153   1.863  1.00  0.00    -0.127 SA
BRANCH   7   8
HETATM    8  C10 UNL     1       4.183   0.486   0.842  1.00  0.00     0.105 C 
HETATM    9  C11 UNL     1       4.017   1.170  -0.450  1.00  0.00     0.117 C 
HETATM   10  N3  UNL     1       5.248   1.874  -0.714  1.00  0.00    -0.407 N 
HETATM   11  C13 UNL     1       6.458   1.233  -0.426  1.00  0.00     0.104 C 
ATOM     12  H3  UNL     1       5.237   2.817  -1.102  1.00  0.00     0.154 HD
HETATM   13  C14 UNL     1       7.340   2.236   0.348  1.00  0.00     0.034 C 
HETATM   14  C15 UNL     1       6.471  -0.057   0.238  1.00  0.00     0.170 C 
HETATM   15  C16 UNL     1       5.150  -0.674   0.614  1.00  0.00     0.164 C 
BRANCH   9  16
HETATM   16  C12 UNL     1       3.751   0.309  -1.646  1.00  0.00     0.190 C 
BRANCH  16  17
HETATM   17  O3  UNL     1       3.657   1.174  -2.771  1.00  0.00    -0.399 OA
ATOM     18  H3  UNL     1       3.488   0.628  -3.530  1.00  0.00     0.209 HD
ENDBRANCH  16  17
ENDBRANCH   9  16
BRANCH  14  19
HETATM   19  O4  UNL     1       7.147  -1.054  -0.504  1.00  0.00    -0.391 OA
ATOM     20  H4  UNL     1       7.156  -1.899  -0.069  1.00  0.00     0.210 HD
ENDBRANCH  14  19
BRANCH  15  21
HETATM   21  O5  UNL     1       5.226  -1.362   1.809  1.00  0.00    -0.392 OA
ATOM     22  H5  UNL     1       5.827  -2.084   1.667  1.00  0.00     0.210 HD
ENDBRANCH  15  21
ENDBRANCH   7   8
ENDBRANCH   3   7
BRANCH   1  23
HETATM   23  N2  UNL     1      -1.726  -1.355  -0.073  1.00  0.00    -0.380 NA
HETATM   24  C6  UNL     1      -2.796  -1.159  -0.901  1.00  0.00     0.318 C 
HETATM   25  O2  UNL     1      -2.776  -0.823  -2.141  1.00  0.00    -0.254 OA
BRANCH  24  26
HETATM   26  C5  UNL     1      -4.233  -1.336  -0.394  1.00  0.00     0.230 C 
HETATM   27  C4  UNL     1      -4.675  -0.012   0.212  1.00  0.00     0.070 C 
HETATM   28  C3  UNL     1      -5.802   0.416  -0.708  1.00  0.00     0.116 C 
HETATM   29  C18 UNL     1      -6.271  -0.962  -1.187  1.00  0.00     0.141 C 
HETATM   30  O8  UNL     1      -5.080  -1.596  -1.445  1.00  0.00    -0.368 OA
HETATM   31  C19 UNL     1      -7.056  -1.583  -0.083  1.00  0.00     0.041 C 
BRANCH  28  32
HETATM   32  N1  UNL     1      -6.811   1.213  -0.115  1.00  0.00    -0.354 N 
HETATM   33  C2  UNL     1      -7.024   2.564  -0.454  1.00  0.00     0.214 C 
HETATM   34  C1  UNL     1      -8.016   3.495   0.056  1.00  0.00     0.117 C 
HETATM   35  O1  UNL     1      -6.219   3.027  -1.349  1.00  0.00    -0.274 OA
ATOM     36  H1  UNL     1      -7.412   0.789   0.591  1.00  0.00     0.162 HD
ENDBRANCH  28  32
ENDBRANCH  24  26
ENDBRANCH   1  23
TORSDOF 9
