REMARK  13 active torsions:
REMARK  status: ('A' for Active; 'I' for Inactive)
REMARK    1  A    between atoms: C2_2  and  C3_3 
REMARK    2  A    between atoms: C3_3  and  N1_4 
REMARK    3  A    between atoms: N1_4  and  C4_5 
REMARK    4  A    between atoms: N1_4  and  C17_27 
REMARK    5  A    between atoms: C4_5  and  C5_6 
REMARK    6  A    between atoms: C7_8  and  C8_9 
REMARK    7  A    between atoms: C13_17  and  C14_18 
REMARK    8  A    between atoms: C14_18  and  O3_19 
REMARK    9  A    between atoms: C15_21  and  O4_22 
REMARK   10  A    between atoms: C16_24  and  O5_25 
REMARK   11  A    between atoms: C19_30  and  O7_31 
REMARK   12  A    between atoms: C20_33  and  O8_34 
REMARK   13  A    between atoms: C21_36  and  O9_37 
ROOT
HETATM    1  C8  UNL     1      -2.231   2.309   0.033  1.00  0.00     0.008 C 
HETATM    2  C9  UNL     1      -2.538   3.052   1.058  1.00  0.00     0.015 C 
HETATM    3  C10 UNL     1      -2.032   4.472   1.074  1.00  0.00     0.060 C 
HETATM    4  C11 UNL     1      -3.322   2.679   2.187  1.00  0.00     0.094 C 
HETATM    5  N2  UNL     1      -3.975   2.396   3.115  1.00  0.00    -0.192 NA
ENDROOT
BRANCH   1   6
HETATM    6  C7  UNL     1      -2.577   0.918  -0.243  1.00  0.00     0.059 C 
HETATM    7  C6  UNL     1      -1.679   0.388  -1.368  1.00  0.00     0.058 C 
HETATM    8  C5  UNL     1      -0.323   0.448  -0.606  1.00  0.00     0.164 C 
HETATM    9  O1  UNL     1      -0.664   0.455   0.740  1.00  0.00    -0.350 OA
HETATM   10  C12 UNL     1      -1.977   0.043   0.858  1.00  0.00     0.276 C 
HETATM   11  O2  UNL     1      -2.148  -1.305   0.538  1.00  0.00    -0.350 OA
HETATM   12  C13 UNL     1      -3.466  -1.632   0.340  1.00  0.00     0.179 C 
HETATM   13  C15 UNL     1      -4.432  -0.495   0.466  1.00  0.00     0.179 C 
HETATM   14  C16 UNL     1      -4.010   0.622  -0.493  1.00  0.00     0.166 C 
BRANCH   8  15
HETATM   15  C4  UNL     1       0.463  -0.772  -0.852  1.00  0.00     0.092 C 
BRANCH  15  16
HETATM   16  N1  UNL     1       1.661  -1.036  -0.158  1.00  0.00    -0.363 N 
BRANCH  16  17
HETATM   17  C3  UNL     1       2.139  -2.343  -0.527  1.00  0.00     0.124 C 
BRANCH  17  18
HETATM   18  C2  UNL     1       2.636  -2.469  -1.938  1.00  0.00     0.015 C 
HETATM   19  C1  UNL     1       3.093  -3.903  -2.115  1.00  0.00     0.006 C 
ENDBRANCH  17  18
ENDBRANCH  16  17
BRANCH  16  20
HETATM   20  C17 UNL     1       2.637  -0.032  -0.021  1.00  0.00     0.254 C 
HETATM   21  O6  UNL     1       2.022   1.168   0.295  1.00  0.00    -0.361 OA
HETATM   22  C18 UNL     1       2.753   2.107   0.940  1.00  0.00     0.205 C 
HETATM   23  C19 UNL     1       4.202   2.198   0.613  1.00  0.00     0.173 C 
HETATM   24  C20 UNL     1       4.799   0.808   0.604  1.00  0.00     0.182 C 
HETATM   25  C21 UNL     1       3.695  -0.188   1.003  1.00  0.00     0.198 C 
BRANCH  23  26
HETATM   26  O7  UNL     1       4.836   2.882   1.667  1.00  0.00    -0.391 OA
ATOM     27  H7  UNL     1       5.761   2.940   1.458  1.00  0.00     0.210 HD
ENDBRANCH  23  26
BRANCH  24  28
HETATM   28  O8  UNL     1       5.100   0.527  -0.743  1.00  0.00    -0.390 OA
ATOM     29  H8  UNL     1       5.475  -0.346  -0.749  1.00  0.00     0.210 HD
ENDBRANCH  24  28
BRANCH  25  30
HETATM   30  O9  UNL     1       4.315  -1.382   1.141  1.00  0.00    -0.388 OA
ATOM     31  H9  UNL     1       4.994  -1.482   1.798  1.00  0.00     0.210 HD
ENDBRANCH  25  30
ENDBRANCH  16  20
ENDBRANCH  15  16
ENDBRANCH   8  15
BRANCH  12  32
HETATM   32  C14 UNL     1      -3.904  -2.704   1.349  1.00  0.00     0.198 C 
BRANCH  32  33
HETATM   33  O3  UNL     1      -3.131  -3.858   1.189  1.00  0.00    -0.398 OA
ATOM     34  H3  UNL     1      -3.402  -4.521   1.813  1.00  0.00     0.209 HD
ENDBRANCH  32  33
ENDBRANCH  12  32
BRANCH  13  35
HETATM   35  O4  UNL     1      -5.661  -0.964  -0.063  1.00  0.00    -0.390 OA
ATOM     36  H4  UNL     1      -6.274  -0.243   0.017  1.00  0.00     0.210 HD
ENDBRANCH  13  35
BRANCH  14  37
HETATM   37  O5  UNL     1      -4.115   0.171  -1.816  1.00  0.00    -0.392 OA
ATOM     38  H5  UNL     1      -5.032  -0.018  -1.976  1.00  0.00     0.210 HD
ENDBRANCH  14  37
ENDBRANCH   1   6
TORSDOF 13
