REMARK  9 active torsions:
REMARK  status: ('A' for Active; 'I' for Inactive)
REMARK    1  A    between atoms: N1_1  and  N2_4 
REMARK       I    between atoms: N2_4  and  C1_6 
REMARK    2  A    between atoms: C1_6  and  C2_8 
REMARK    3  A    between atoms: C2_8  and  N3_9 
REMARK    4  A    between atoms: N3_9  and  N4_11 
REMARK       I    between atoms: N4_11  and  C3_13 
REMARK    5  A    between atoms: C3_13  and  C4_15 
REMARK    6  A    between atoms: C6_17  and  N5_18 
REMARK    7  A    between atoms: C11_29  and  O7_30 
REMARK    8  A    between atoms: C11_29  and  N7_32 
REMARK    9  A    between atoms: N7_32  and  N8_34 
ROOT
HETATM    1  N3  UNL     1      -1.691   0.631  -0.613  1.00  0.00    -0.289 N 
ATOM      2  H3  UNL     1      -1.767   1.146  -1.490  1.00  0.00     0.187 HD
ENDROOT
BRANCH   1   3
HETATM    3  C2  UNL     1      -2.791   0.220  -0.135  1.00  0.00     0.170 C 
HETATM    4  C11 UNL     1      -2.855  -0.537   1.077  1.00  0.00     0.189 C 
BRANCH   3   5
HETATM    5  C1  UNL     1      -3.985   0.568  -0.935  1.00  0.00     0.291 C 
HETATM    6  N2  UNL     1      -3.803   1.308  -2.132  1.00  0.00    -0.271 N 
ATOM      7  H2  UNL     1      -2.856   1.571  -2.404  1.00  0.00     0.189 HD
HETATM    8  O1  UNL     1      -5.131   0.247  -0.609  1.00  0.00    -0.264 OA
BRANCH   6   9
HETATM    9  N1  UNL     1      -4.857   1.688  -2.947  1.00  0.00    -0.342 N 
ATOM     10  H12 UNL     1      -5.797   1.416  -2.660  1.00  0.00     0.176 HD
ATOM     11  H11 UNL     1      -4.726   2.220  -3.807  1.00  0.00     0.176 HD
ENDBRANCH   6   9
ENDBRANCH   3   5
BRANCH   4  12
HETATM   12  O7  UNL     1      -1.712  -0.802   1.650  1.00  0.00    -0.343 OA
ATOM     13  H7  UNL     1      -1.755  -1.305   2.455  1.00  0.00     0.219 HD
ENDBRANCH   4  12
BRANCH   4  14
HETATM   14  N7  UNL     1      -3.998  -1.045   1.748  1.00  0.00    -0.285 N 
ATOM     15  H7  UNL     1      -4.938  -0.899   1.381  1.00  0.00     0.188 HD
BRANCH  14  16
HETATM   16  N8  UNL     1      -3.777  -1.765   2.950  1.00  0.00    -0.343 N 
ATOM     17  H82 UNL     1      -2.830  -1.903   3.304  1.00  0.00     0.176 HD
ATOM     18  H81 UNL     1      -4.598  -2.130   3.432  1.00  0.00     0.176 HD
ENDBRANCH  14  16
ENDBRANCH   4  14
ENDBRANCH   1   3
BRANCH   1  19
HETATM   19  N4  UNL     1      -0.431   0.491  -0.138  1.00  0.00    -0.265 N 
HETATM   20  C3  UNL     1       0.671   0.396  -1.048  1.00  0.00     0.273 C 
HETATM   21  O2  UNL     1       0.431   0.454  -2.284  1.00  0.00    -0.266 OA
ATOM     22  H4  UNL     1      -0.266   0.453   0.868  1.00  0.00     0.190 HD
BRANCH  20  23
HETATM   23  C4  UNL     1       2.034   0.250  -0.545  1.00  0.00     0.072 A 
HETATM   24  C5  UNL     1       2.802   1.379  -0.429  1.00  0.00     0.056 A 
HETATM   25  C6  UNL     1       4.068   1.276   0.104  1.00  0.00     0.106 A 
HETATM   26  C7  UNL     1       4.555   0.052   0.512  1.00  0.00     0.068 A 
HETATM   27  C8  UNL     1       3.786  -1.086   0.396  1.00  0.00     0.074 A 
HETATM   28  N6  UNL     1       3.950  -2.397   0.682  1.00  0.00    -0.300 N 
HETATM   29  C10 UNL     1       2.513  -0.970  -0.141  1.00  0.00     0.123 A 
HETATM   30  C9  UNL     1       2.829  -3.070   0.342  1.00  0.00     0.370 A 
ATOM     31  H6  UNL     1       4.788  -2.812   1.090  1.00  0.00     0.171 HD
HETATM   32  O5  UNL     1       2.704  -4.302   0.501  1.00  0.00    -0.238 OA
HETATM   33  O6  UNL     1       1.980  -2.204  -0.147  1.00  0.00    -0.258 OA
BRANCH  25  34
HETATM   34  N5  UNL     1       4.885   2.458   0.254  1.00  0.00    -0.116 N 
HETATM   35  O3  UNL     1       4.482   3.569  -0.100  1.00  0.00    -0.532 OA
HETATM   36  O4  UNL     1       6.138   2.355   0.804  1.00  0.00    -0.532 OA
ENDBRANCH  25  34
ENDBRANCH  20  23
ENDBRANCH   1  19
TORSDOF 9
