REMARK  8 active torsions:
REMARK  status: ('A' for Active; 'I' for Inactive)
REMARK       I    between atoms: C1_4  and  N2_5 
REMARK       I    between atoms: C1_4  and  N5_21 
REMARK    1  A    between atoms: N2_5  and  N3_7 
REMARK       I    between atoms: N3_7  and  C2_9 
REMARK    2  A    between atoms: C2_9  and  C3_11 
REMARK    3  A    between atoms: C3_11  and  N4_12 
REMARK    4  A    between atoms: C4_13  and  O2_14 
REMARK    5  A    between atoms: C7_18  and  O3_19 
REMARK    6  A    between atoms: N5_21  and  S1_23 
REMARK    7  A    between atoms: S1_23  and  C8_26 
REMARK    8  A    between atoms: N6_28  and  O6_29 
ROOT
HETATM    1  N1  UNL     1       2.582   1.249   0.438  1.00  0.00    -0.233 N 
ATOM      2  H11 UNL     1       3.403   0.733   0.754  1.00  0.00     0.174 HD
ATOM      3  H12 UNL     1       2.471   2.263   0.453  1.00  0.00     0.174 HD
HETATM    4  C1  UNL     1       1.555   0.575  -0.045  1.00  0.00     0.700 C 
HETATM    5  N2  UNL     1       0.430   1.282  -0.478  1.00  0.00    -0.129 N 
ATOM      6  H2  UNL     1       0.603   2.160  -0.967  1.00  0.00     0.205 HD
HETATM    7  N5  UNL     1       1.710  -0.844  -0.066  1.00  0.00    -0.110 N 
ATOM      8  H5  UNL     1       1.022  -1.434  -0.533  1.00  0.00     0.197 HD
ENDROOT
BRANCH   5   9
HETATM    9  N3  UNL     1      -0.897   0.914  -0.312  1.00  0.00    -0.254 N 
HETATM   10  C2  UNL     1      -1.919   1.842  -0.582  1.00  0.00     0.254 C 
HETATM   11  O1  UNL     1      -1.623   3.018  -0.971  1.00  0.00    -0.270 OA
ATOM     12  H3  UNL     1      -1.131  -0.027   0.005  1.00  0.00     0.190 HD
BRANCH  10  13
HETATM   13  C3  UNL     1      -3.338   1.513  -0.432  1.00  0.00     0.237 C 
BRANCH  13  14
HETATM   14  N4  UNL     1      -3.639   0.166  -0.054  1.00  0.00    -0.300 N 
HETATM   15  C4  UNL     1      -3.743  -0.311   1.188  1.00  0.00     0.144 A 
HETATM   16  C5  UNL     1      -4.077  -1.641   1.085  1.00  0.00     0.060 A 
HETATM   17  C6  UNL     1      -4.175  -1.972  -0.256  1.00  0.00     0.060 A 
HETATM   18  C7  UNL     1      -3.896  -0.821  -0.946  1.00  0.00     0.144 A 
BRANCH  15  19
HETATM   19  O2  UNL     1      -3.549   0.400   2.357  1.00  0.00    -0.346 OA
ATOM     20  H2  UNL     1      -3.623   0.060   3.241  1.00  0.00     0.219 HD
ENDBRANCH  15  19
BRANCH  18  21
HETATM   21  O3  UNL     1      -3.874  -0.663  -2.347  1.00  0.00    -0.346 OA
ATOM     22  H3  UNL     1      -4.054  -1.355  -2.972  1.00  0.00     0.219 HD
ENDBRANCH  18  21
ENDBRANCH  13  14
ENDBRANCH  10  13
ENDBRANCH   5   9
BRANCH   7  23
HETATM   23  S1  UNL     1       3.099  -1.551   0.723  1.00  0.00     0.295 S 
HETATM   24  O4  UNL     1       3.040  -1.272   2.178  1.00  0.00    -0.198 OA
HETATM   25  O5  UNL     1       3.073  -3.047   0.523  1.00  0.00    -0.198 OA
BRANCH  23  26
HETATM   26  C8  UNL     1       4.591  -0.995  -0.019  1.00  0.00     0.192 A 
HETATM   27  C9  UNL     1       5.508  -0.177   0.596  1.00  0.00     0.198 A 
HETATM   28  N6  UNL     1       6.485   0.037  -0.311  1.00  0.00    -0.111 N 
HETATM   29  O7  UNL     1       6.187  -0.601  -1.400  1.00  0.00    -0.128 OA
HETATM   30  N7  UNL     1       5.040  -1.240  -1.261  1.00  0.00    -0.225 N 
ATOM     31  H7  UNL     1       4.579  -1.814  -1.967  1.00  0.00     0.198 HD
BRANCH  28  32
HETATM   32  O6  UNL     1       7.610   0.821  -0.083  1.00  0.00    -0.262 OA
ATOM     33  H6  UNL     1       8.297   0.972  -0.721  1.00  0.00     0.247 HD
ENDBRANCH  28  32
ENDBRANCH  23  26
ENDBRANCH   7  23
TORSDOF 8
