REMARK  4 active torsions:
REMARK  status: ('A' for Active; 'I' for Inactive)
REMARK    1  A    between atoms: N4_19  and  C9_20 
REMARK    2  A    between atoms: C9_20  and  C10_21 
REMARK    3  A    between atoms: C10_21  and  N5_22 
REMARK    4  A    between atoms: N5_22  and  C11_24 
ROOT
HETATM    1  O1  UNL     1       0.574   3.691   0.196  1.00  0.00    -0.263 OA
HETATM    2  C1  UNL     1       0.132   2.595  -0.220  1.00  0.00     0.286 C 
HETATM    3  C2  UNL     1      -1.271   2.587  -0.690  1.00  0.00     0.343 C 
HETATM    4  N1  UNL     1      -2.224   2.735   0.364  1.00  0.00    -0.065 N 
ATOM      5  H11 UNL     1      -2.333   3.703   0.666  1.00  0.00     0.277 HD
ATOM      6  H12 UNL     1      -1.895   2.353   1.251  1.00  0.00     0.277 HD
HETATM    7  C3  UNL     1      -3.471   2.139  -0.078  1.00  0.00     0.260 C 
HETATM    8  C4  UNL     1      -3.958   1.088   0.919  1.00  0.00     0.259 C 
HETATM    9  N2  UNL     1      -3.843  -0.247   0.395  1.00  0.00    -0.072 N 
ATOM     10  H21 UNL     1      -3.272  -0.268  -0.450  1.00  0.00     0.277 HD
ATOM     11  H22 UNL     1      -4.726  -0.569  -0.002  1.00  0.00     0.277 HD
HETATM   12  C5  UNL     1      -3.341  -1.176   1.401  1.00  0.00     0.259 C 
HETATM   13  C6  UNL     1      -3.121  -2.525   0.795  1.00  0.00     0.259 C 
HETATM   14  N3  UNL     1      -2.549  -2.485  -0.527  1.00  0.00    -0.072 N 
ATOM     15  H31 UNL     1      -2.930  -1.721  -1.085  1.00  0.00     0.277 HD
ATOM     16  H32 UNL     1      -2.866  -3.264  -1.104  1.00  0.00     0.277 HD
HETATM   17  C7  UNL     1      -1.106  -2.426  -0.443  1.00  0.00     0.262 C 
HETATM   18  C8  UNL     1      -0.545  -1.555  -1.535  1.00  0.00     0.302 C 
HETATM   19  N4  UNL     1       0.601  -0.843  -1.011  1.00  0.00     0.115 N 
HETATM   20  C14 UNL     1       0.275   0.136  -0.036  1.00  0.00     0.450 C 
HETATM   21  O3  UNL     1       0.836   1.409  -0.276  1.00  0.00    -0.290 OA
ENDROOT
BRANCH  19  22
HETATM   22  C9  UNL     1       1.570  -1.809  -0.590  1.00  0.00     0.294 C 
BRANCH  22  23
HETATM   23  C10 UNL     1       2.820  -1.171  -0.019  1.00  0.00     0.150 C 
BRANCH  23  24
HETATM   24  N5  UNL     1       3.396  -0.347  -1.063  1.00  0.00    -0.381 N 
ATOM     25  H5  UNL     1       2.941  -0.292  -1.974  1.00  0.00     0.160 HD
BRANCH  24  26
HETATM   26  C11 UNL     1       4.613   0.399  -0.821  1.00  0.00     0.090 A 
HETATM   27  C12 UNL     1       5.352   0.443   0.330  1.00  0.00     0.128 A 
HETATM   28  N6  UNL     1       6.424   1.184   0.336  1.00  0.00    -0.325 N 
HETATM   29  C13 UNL     1       6.740   1.856  -0.772  1.00  0.00     0.289 A 
ATOM     30  H6  UNL     1       7.008   1.249   1.169  1.00  0.00     0.169 HD
HETATM   31  O2  UNL     1       7.753   2.630  -0.948  1.00  0.00    -0.260 OA
HETATM   32  S1  UNL     1       5.491   1.430  -1.853  1.00  0.00    -0.010 SA
ENDBRANCH  24  26
ENDBRANCH  23  24
ENDBRANCH  22  23
ENDBRANCH  19  22
TORSDOF 4
