REMARK  8 active torsions:
REMARK  status: ('A' for Active; 'I' for Inactive)
REMARK    1  A    between atoms: O1_2  and  C2_3 
REMARK    2  A    between atoms: C2_3  and  C3_5 
REMARK    3  A    between atoms: C3_5  and  N1_7 
REMARK    4  A    between atoms: N3_14  and  C8_15 
REMARK    5  A    between atoms: C8_15  and  C9_16 
REMARK    6  A    between atoms: N4_18  and  C11_19 
REMARK    7  A    between atoms: C13_23  and  N6_24 
REMARK    8  A    between atoms: C14_29  and  N8_30 
ROOT
HETATM    1  C9  UNL     1      -1.262   2.234   0.088  1.00  0.00     0.059 A 
HETATM    2  C10 UNL     1      -1.654   0.980   0.505  1.00  0.00     0.146 A 
HETATM    3  N4  UNL     1      -2.798   0.632  -0.121  1.00  0.00    -0.246 N 
HETATM    4  N9  UNL     1      -3.097   1.650  -0.902  1.00  0.00    -0.236 N 
ATOM      5  H9  UNL     1      -3.915   1.688  -1.511  1.00  0.00     0.209 HD
HETATM    6  N10 UNL     1      -2.190   2.627  -0.794  1.00  0.00    -0.287 N 
ATOM      7  H10 UNL     1      -2.203   3.515  -1.295  1.00  0.00     0.188 HD
ENDROOT
BRANCH   1   8
HETATM    8  C8  UNL     1      -0.072   2.939   0.549  1.00  0.00     0.174 C 
BRANCH   8   9
HETATM    9  N3  UNL     1       1.111   2.712  -0.205  1.00  0.00    -0.209 NA
HETATM   10  C7  UNL     1       1.074   3.069  -1.573  1.00  0.00     0.134 C 
HETATM   11  C6  UNL     1       2.490   2.969  -2.136  1.00  0.00     0.154 C 
HETATM   12  N2  UNL     1       2.930   1.570  -2.034  1.00  0.00    -0.224 N 
HETATM   13  C5  UNL     1       2.412   0.759  -0.989  1.00  0.00     0.685 C 
ATOM     14  H2  UNL     1       3.597   1.187  -2.704  1.00  0.00     0.177 HD
HETATM   15  N1  UNL     1       2.745  -0.482  -0.898  1.00  0.00    -0.212 N 
HETATM   16  N11 UNL     1       1.524   1.382  -0.071  1.00  0.00    -0.152 N 
ATOM     17  H1  UNL     1       3.388  -0.851  -1.599  1.00  0.00     0.178 HD
ATOM     18  H11 UNL     1       1.174   0.838   0.717  1.00  0.00     0.199 HD
BRANCH  15  19
HETATM   19  C3  UNL     1       2.282  -1.379   0.110  1.00  0.00     0.195 C 
HETATM   20  C4  UNL     1       2.336  -2.791  -0.488  1.00  0.00     0.043 C 
BRANCH  19  21
HETATM   21  C2  UNL     1       3.242  -1.387   1.260  1.00  0.00     0.281 C 
HETATM   22  O2  UNL     1       3.047  -2.102   2.270  1.00  0.00    -0.263 OA
BRANCH  21  23
HETATM   23  O1  UNL     1       4.366  -0.598   1.221  1.00  0.00    -0.325 OA
HETATM   24  C1  UNL     1       5.324  -0.555   2.277  1.00  0.00     0.213 C 
ENDBRANCH  21  23
ENDBRANCH  19  21
ENDBRANCH  15  19
ENDBRANCH   8   9
ENDBRANCH   1   8
BRANCH   3  25
HETATM   25  C11 UNL     1      -3.564  -0.562  -0.005  1.00  0.00     0.117 A 
HETATM   26  C12 UNL     1      -3.173  -1.757  -0.577  1.00  0.00     0.141 A 
HETATM   27  N5  UNL     1      -3.914  -2.873  -0.455  1.00  0.00    -0.200 N 
HETATM   28  C13 UNL     1      -5.072  -2.882   0.230  1.00  0.00     0.677 A 
ATOM     29  H5  UNL     1      -3.590  -3.735  -0.893  1.00  0.00     0.183 HD
HETATM   30  N7  UNL     1      -5.466  -1.726   0.792  1.00  0.00    -0.175 N 
HETATM   31  C14 UNL     1      -4.754  -0.589   0.693  1.00  0.00     0.145 A 
ATOM     32  H7  UNL     1      -6.341  -1.710   1.315  1.00  0.00     0.186 HD
BRANCH  28  33
HETATM   33  N6  UNL     1      -5.772  -3.973   0.335  1.00  0.00    -0.234 N 
ATOM     34  H62 UNL     1      -5.473  -4.850  -0.091  1.00  0.00     0.174 HD
ATOM     35  H61 UNL     1      -6.650  -3.980   0.854  1.00  0.00     0.174 HD
ENDBRANCH  28  33
BRANCH  31  36
HETATM   36  N8  UNL     1      -5.147   0.519   1.241  1.00  0.00    -0.383 N 
ATOM     37  H82 UNL     1      -4.607   1.381   1.166  1.00  0.00     0.157 HD
ATOM     38  H81 UNL     1      -6.027   0.499   1.757  1.00  0.00     0.157 HD
ENDBRANCH  31  36
ENDBRANCH   3  25
TORSDOF 8
