REMARK  9 active torsions:
REMARK  status: ('A' for Active; 'I' for Inactive)
REMARK    1  A    between atoms: C2_2  and  C3_3 
REMARK    2  A    between atoms: C3_3  and  O1_4 
REMARK    3  A    between atoms: C4_9  and  N2_10 
REMARK    4  A    between atoms: C6_16  and  C7_17 
REMARK       I    between atoms: C7_17  and  N5_19 
REMARK    5  A    between atoms: N5_19  and  C8_21 
REMARK    6  A    between atoms: C9_24  and  N7_25 
REMARK    7  A    between atoms: N7_25  and  C10_27 
REMARK    8  A    between atoms: C10_27  and  C11_28 
REMARK    9  A    between atoms: C11_28  and  O4_29 
ROOT
HETATM    1  N2  UNL     1      -3.850   2.961   0.603  1.00  0.00    -0.124 N 
ATOM      2  H2  UNL     1      -3.319   3.808   0.399  1.00  0.00     0.197 HD
HETATM    3  C5  UNL     1      -5.053   3.020   1.309  1.00  0.00     0.196 C 
HETATM    4  N3  UNL     1      -6.053   3.062   1.909  1.00  0.00    -0.171 NA
ENDROOT
BRANCH   1   5
HETATM    5  C4  UNL     1      -3.386   1.688   0.177  1.00  0.00     0.707 C 
HETATM    6  N1  UNL     1      -4.305   0.851  -0.509  1.00  0.00    -0.095 N 
HETATM    7  O2  UNL     1      -3.798  -0.125  -1.286  1.00  0.00    -0.251 OA
ATOM      8  H1  UNL     1      -5.312   0.984  -0.417  1.00  0.00     0.213 HD
HETATM    9  C2  UNL     1      -2.870  -0.894  -0.557  1.00  0.00     0.136 C 
HETATM   10  C1  UNL     1      -2.465  -2.042  -1.434  1.00  0.00     0.054 C 
HETATM   11  C6  UNL     1      -1.727  -0.064  -0.068  1.00  0.00     0.230 C 
HETATM   12  N4  UNL     1      -2.199   1.261   0.377  1.00  0.00    -0.207 N 
ATOM     13  H4  UNL     1      -1.543   1.867   0.870  1.00  0.00     0.178 HD
BRANCH   9  14
HETATM   14  C3  UNL     1      -3.644  -1.519   0.613  1.00  0.00     0.207 C 
BRANCH  14  15
HETATM   15  O1  UNL     1      -2.809  -2.300   1.395  1.00  0.00    -0.398 OA
ATOM     16  H1  UNL     1      -3.288  -2.687   2.119  1.00  0.00     0.209 HD
ENDBRANCH  14  15
ENDBRANCH   9  14
BRANCH  11  17
HETATM   17  C7  UNL     1      -0.609   0.081  -1.016  1.00  0.00     0.250 C 
HETATM   18  O3  UNL     1      -0.285   1.272  -1.371  1.00  0.00    -0.271 OA
HETATM   19  N5  UNL     1       0.111  -1.024  -1.540  1.00  0.00    -0.304 N 
ATOM     20  H5  UNL     1      -0.345  -1.696  -2.156  1.00  0.00     0.171 HD
BRANCH  19  21
HETATM   21  C8  UNL     1       1.373  -1.164  -1.217  1.00  0.00     0.183 A 
HETATM   22  N6  UNL     1       2.115  -0.386  -0.433  1.00  0.00    -0.168 N 
HETATM   23  C9  UNL     1       3.363  -0.716  -0.246  1.00  0.00     0.686 A 
ATOM     24  H6  UNL     1       1.720   0.444   0.009  1.00  0.00     0.186 HD
HETATM   25  N8  UNL     1       3.824  -1.814  -0.851  1.00  0.00    -0.157 N 
HETATM   26  S1  UNL     1       2.477  -2.376  -1.687  1.00  0.00     0.039 SA
ATOM     27  H8  UNL     1       4.762  -2.213  -0.815  1.00  0.00     0.193 HD
BRANCH  23  28
HETATM   28  N7  UNL     1       4.170   0.008   0.523  1.00  0.00    -0.223 N 
ATOM     29  H7  UNL     1       3.795   0.842   0.975  1.00  0.00     0.177 HD
BRANCH  28  30
HETATM   30  C10 UNL     1       5.530  -0.329   0.742  1.00  0.00     0.164 C 
BRANCH  30  31
HETATM   31  C11 UNL     1       6.234   0.878   1.325  1.00  0.00     0.184 C 
BRANCH  31  32
HETATM   32  O4  UNL     1       6.128   1.911   0.420  1.00  0.00    -0.399 OA
ATOM     33  H4  UNL     1       6.570   2.668   0.786  1.00  0.00     0.209 HD
ENDBRANCH  31  32
ENDBRANCH  30  31
ENDBRANCH  28  30
ENDBRANCH  23  28
ENDBRANCH  19  21
ENDBRANCH  11  17
ENDBRANCH   1   5
TORSDOF 9
