REMARK  8 active torsions:
REMARK  status: ('A' for Active; 'I' for Inactive)
REMARK    1  A    between atoms: C2_3  and  C3_4 
REMARK    2  A    between atoms: C6_7  and  C7_8 
REMARK    3  A    between atoms: C17_21  and  C18_22 
REMARK       I    between atoms: C18_22  and  N2_24 
REMARK    4  A    between atoms: N2_24  and  C19_25 
REMARK    5  A    between atoms: C19_25  and  C20_26 
REMARK    6  A    between atoms: C20_26  and  N3_27 
REMARK       I    between atoms: N3_27  and  C21_29 
REMARK    7  A    between atoms: C21_29  and  O5_31 
REMARK    8  A    between atoms: O5_31  and  C22_32 
ROOT
HETATM    1  N1  UNL     1      -5.440  -2.089  -3.948  1.00  0.00    -0.197 NA
HETATM    2  C1  UNL     1      -5.146  -1.301  -3.152  1.00  0.00     0.059 C 
HETATM    3  C2  UNL     1      -4.745  -0.282  -2.141  1.00  0.00     0.134 C 
ENDROOT
BRANCH   3   4
HETATM    4  C3  UNL     1      -3.609  -0.870  -1.393  1.00  0.00     0.065 C 
HETATM    5  C4  UNL     1      -4.101  -2.156  -0.721  1.00  0.00     0.012 C 
HETATM    6  C5  UNL     1      -4.765  -1.629   0.534  1.00  0.00     0.015 C 
HETATM    7  C6  UNL     1      -3.960  -0.372   0.926  1.00  0.00     0.084 C 
HETATM    8  C13 UNL     1      -3.116  -0.113  -0.196  1.00  0.00     0.212 C 
HETATM    9  O1  UNL     1      -2.710   1.164  -0.477  1.00  0.00    -0.196 OA
HETATM   10  O6  UNL     1      -1.857  -0.734   0.063  1.00  0.00    -0.312 OA
HETATM   11  O2  UNL     1      -1.691   1.377   0.320  1.00  0.00    -0.197 OA
HETATM   12  C14 UNL     1      -0.903   0.279  -0.000  1.00  0.00     0.200 C 
HETATM   13  C15 UNL     1       0.172  -0.021   0.989  1.00  0.00     0.072 C 
HETATM   14  C24 UNL     1      -0.353   0.463  -1.374  1.00  0.00     0.072 C 
HETATM   15  C16 UNL     1       1.463   0.663   0.820  1.00  0.00     0.020 C 
HETATM   16  C17 UNL     1       1.784   1.266  -0.491  1.00  0.00     0.093 C 
HETATM   17  C23 UNL     1       0.622   1.613  -1.341  1.00  0.00     0.020 C 
BRANCH   7  18
HETATM   18  C7  UNL     1      -4.939   0.557   1.446  1.00  0.00    -0.049 A 
HETATM   19  C8  UNL     1      -5.378   1.713   0.901  1.00  0.00     0.011 A 
HETATM   20  C9  UNL     1      -6.344   2.474   1.510  1.00  0.00     0.043 A 
HETATM   21  C10 UNL     1      -6.922   2.107   2.709  1.00  0.00     0.116 A 
HETATM   22  F1  UNL     1      -7.871   2.811   3.346  1.00  0.00    -0.206 F 
HETATM   23  C11 UNL     1      -6.486   0.941   3.267  1.00  0.00     0.043 A 
HETATM   24  C12 UNL     1      -5.528   0.184   2.666  1.00  0.00     0.011 A 
ENDBRANCH   7  18
BRANCH  16  25
HETATM   25  C18 UNL     1       2.725   0.353  -1.292  1.00  0.00     0.295 C 
HETATM   26  O3  UNL     1       2.367   0.113  -2.469  1.00  0.00    -0.257 OA
HETATM   27  N2  UNL     1       3.813  -0.077  -0.645  1.00  0.00    -0.386 NA
BRANCH  27  28
HETATM   28  C19 UNL     1       4.927  -0.518   0.017  1.00  0.00     0.178 C 
BRANCH  28  29
HETATM   29  C20 UNL     1       6.285  -0.145  -0.562  1.00  0.00     0.184 C 
BRANCH  29  30
HETATM   30  N3  UNL     1       7.302  -0.729   0.318  1.00  0.00    -0.331 N 
HETATM   31  C21 UNL     1       8.681  -0.566   0.064  1.00  0.00     0.365 C 
HETATM   32  O4  UNL     1       9.048   0.100  -0.945  1.00  0.00    -0.238 OA
ATOM     33  H3  UNL     1       7.006  -1.266   1.133  1.00  0.00     0.165 HD
BRANCH  31  34
HETATM   34  O5  UNL     1       9.614  -1.117   0.893  1.00  0.00    -0.240 OA
BRANCH  34  35
HETATM   35  C22 UNL     1      10.986  -0.957   0.648  1.00  0.00     0.508 C 
HETATM   36  F2  UNL     1      11.572  -0.198   1.666  1.00  0.00    -0.184 F 
HETATM   37  F3  UNL     1      11.639  -2.163   0.538  1.00  0.00    -0.184 F 
ENDBRANCH  34  35
ENDBRANCH  31  34
ENDBRANCH  29  30
ENDBRANCH  28  29
ENDBRANCH  27  28
ENDBRANCH  16  25
ENDBRANCH   3   4
TORSDOF 8
