REMARK  8 active torsions:
REMARK  status: ('A' for Active; 'I' for Inactive)
REMARK    1  A    between atoms: O1_2  and  N1_3 
REMARK    2  A    between atoms: N2_12  and  C8_13 
REMARK    3  A    between atoms: C8_13  and  C9_14 
REMARK    4  A    between atoms: C8_13  and  C14_20 
REMARK    5  A    between atoms: C9_14  and  C10_15 
REMARK    6  A    between atoms: N5_25  and  C15_26 
REMARK    7  A    between atoms: C15_26  and  C16_27 
REMARK    8  A    between atoms: C22_35  and  N6_36 
ROOT
HETATM    1  C14 UNL     1       0.356  -0.044  -0.067  1.00  0.00     0.095 A 
HETATM    2  N3  UNL     1       0.793  -0.071  -1.330  1.00  0.00    -0.284 N 
ATOM      3  H3  UNL     1       0.325  -0.546  -2.102  1.00  0.00     0.188 HD
HETATM    4  N4  UNL     1       1.915   0.606  -1.430  1.00  0.00    -0.234 N 
ATOM      5  H4  UNL     1       2.438   0.728  -2.297  1.00  0.00     0.209 HD
HETATM    6  N5  UNL     1       2.287   1.119  -0.240  1.00  0.00    -0.234 N 
HETATM    7  C22 UNL     1       1.327   0.722   0.608  1.00  0.00     0.148 A 
ENDROOT
BRANCH   1   8
HETATM    8  C8  UNL     1      -0.923  -0.561   0.513  1.00  0.00     0.141 C 
BRANCH   8   9
HETATM    9  N2  UNL     1      -1.868   0.541   0.229  1.00  0.00    -0.355 N 
HETATM   10  C2  UNL     1      -3.275   0.519   0.513  1.00  0.00     0.107 C 
HETATM   11  N1  UNL     1      -3.870  -0.201   1.398  1.00  0.00    -0.255 N 
HETATM   12  C3  UNL     1      -3.862   1.505  -0.442  1.00  0.00     0.092 C 
ATOM     13  H1  UNL     1      -3.342  -0.840   1.993  1.00  0.00     0.195 HD
HETATM   14  C4  UNL     1      -3.903   0.988  -1.861  1.00  0.00     0.021 C 
HETATM   15  C5  UNL     1      -2.817   2.594  -0.382  1.00  0.00     0.126 C 
HETATM   16  C6  UNL     1      -2.952   3.347   0.948  1.00  0.00     0.054 C 
HETATM   17  F1  UNL     1      -2.869   3.464  -1.436  1.00  0.00    -0.241 F 
HETATM   18  C7  UNL     1      -1.524   1.786  -0.385  1.00  0.00     0.169 C 
BRANCH  11  19
HETATM   19  O1  UNL     1      -5.245  -0.087   1.523  1.00  0.00    -0.284 OA
HETATM   20  C1  UNL     1      -5.854   0.935   2.302  1.00  0.00     0.237 C 
ENDBRANCH  11  19
ENDBRANCH   8   9
BRANCH   8  21
HETATM   21  C9  UNL     1      -1.360  -1.776  -0.265  1.00  0.00     0.038 C 
BRANCH  21  22
HETATM   22  C10 UNL     1      -0.543  -2.948   0.062  1.00  0.00     0.014 C 
HETATM   23  C11 UNL     1      -1.011  -4.207  -0.735  1.00  0.00     0.033 C 
HETATM   24  C12 UNL     1       0.090  -5.146  -0.256  1.00  0.00     0.168 C 
HETATM   25  O2  UNL     1       1.229  -4.397  -0.016  1.00  0.00    -0.391 OA
HETATM   26  C13 UNL     1       0.892  -3.036  -0.266  1.00  0.00     0.172 C 
ENDBRANCH  21  22
ENDBRANCH   8  21
ENDBRANCH   1   8
BRANCH   7  27
HETATM   27  N6  UNL     1       1.181   0.960   1.857  1.00  0.00    -0.382 N 
ATOM     28  H62 UNL     1       0.451   0.658   2.502  1.00  0.00     0.157 HD
ATOM     29  H61 UNL     1       1.884   1.515   2.346  1.00  0.00     0.157 HD
ENDBRANCH   7  27
BRANCH   6  30
HETATM   30  C15 UNL     1       3.508   1.856  -0.001  1.00  0.00     0.134 C 
BRANCH  30  31
HETATM   31  C16 UNL     1       4.770   1.149  -0.027  1.00  0.00     0.025 A 
HETATM   32  C17 UNL     1       5.299   0.363   0.945  1.00  0.00     0.047 A 
HETATM   33 CL1  UNL     1       4.562   0.094   2.507  1.00  0.00    -0.083 Cl
HETATM   34  C18 UNL     1       6.543  -0.285   0.789  1.00  0.00     0.025 A 
HETATM   35  C19 UNL     1       7.284  -0.152  -0.359  1.00  0.00     0.003 A 
HETATM   36  C20 UNL     1       6.746   0.652  -1.350  1.00  0.00     0.025 A 
HETATM   37  C21 UNL     1       5.545   1.280  -1.204  1.00  0.00     0.047 A 
HETATM   38 CL2  UNL     1       5.008   2.313  -2.536  1.00  0.00    -0.083 Cl
ENDBRANCH  30  31
ENDBRANCH   6  30
TORSDOF 8
