REMARK  11 active torsions:
REMARK  status: ('A' for Active; 'I' for Inactive)
REMARK    1  A    between atoms: C7_8  and  C8_9 
REMARK    2  A    between atoms: C8_9  and  C9_10 
REMARK    3  A    between atoms: C9_10  and  C10_11 
REMARK    4  A    between atoms: C10_11  and  O1_12 
REMARK    5  A    between atoms: C12_15  and  N1_16 
REMARK    6  A    between atoms: N1_16  and  C13_18 
REMARK    7  A    between atoms: C13_18  and  C14_19 
REMARK    8  A    between atoms: C14_19  and  C15_20 
REMARK    9  A    between atoms: C15_20  and  C16_21 
REMARK   10  A    between atoms: C16_21  and  C17_22 
REMARK   11  A    between atoms: C17_22  and  C18_23 
ROOT
HETATM    1  C1  UNL     1      -1.050  -3.524  -0.685  1.00  0.00     0.050 C 
HETATM    2  C2  UNL     1      -2.101  -2.480  -0.518  1.00  0.00    -0.033 A 
HETATM    3  C3  UNL     1      -3.424  -2.739  -0.798  1.00  0.00     0.033 A 
HETATM    4  C4  UNL     1      -4.374  -1.750  -0.633  1.00  0.00     0.035 A 
HETATM    5 CL1  UNL     1      -6.064  -2.073  -0.989  1.00  0.00    -0.084 Cl
HETATM    6  C5  UNL     1      -4.038  -0.489  -0.188  1.00  0.00     0.038 A 
HETATM    7  C6  UNL     1      -2.714  -0.223   0.095  1.00  0.00    -0.001 A 
HETATM    8  C7  UNL     1      -2.362   1.039   0.546  1.00  0.00    -0.042 A 
HETATM    9  C11 UNL     1      -1.029   1.251   0.818  1.00  0.00     0.056 A 
HETATM   10  C12 UNL     1      -0.057   0.246   0.652  1.00  0.00     0.101 A 
HETATM   11  N2  UNL     1      -0.454  -0.953   0.213  1.00  0.00    -0.342 N 
ATOM     12  H2  UNL     1       0.241  -1.689   0.088  1.00  0.00     0.167 HD
HETATM   13  C19 UNL     1      -1.760  -1.221  -0.073  1.00  0.00     0.050 A 
ENDROOT
BRANCH  10  14
HETATM   14  N1  UNL     1       1.161   0.465   0.908  1.00  0.00    -0.376 N 
ATOM     15  H1  UNL     1       1.399   1.400   1.238  1.00  0.00     0.161 HD
BRANCH  14  16
HETATM   16  C13 UNL     1       2.239  -0.464   0.782  1.00  0.00     0.121 C 
BRANCH  16  17
HETATM   17  C14 UNL     1       2.714  -0.468  -0.655  1.00  0.00     0.020 C 
BRANCH  17  18
HETATM   18  C15 UNL     1       3.843  -1.411  -0.905  1.00  0.00     0.002 C 
BRANCH  18  19
HETATM   19  C16 UNL     1       5.049  -1.094  -0.080  1.00  0.00     0.001 C 
BRANCH  19  20
HETATM   20  C17 UNL     1       5.589   0.293  -0.351  1.00  0.00     0.011 C 
BRANCH  20  21
HETATM   21  C18 UNL     1       6.806   0.519   0.527  1.00  0.00     0.085 C 
HETATM   22 BR1  UNL     1       7.556   2.274   0.237  1.00  0.00    -0.097 Br
ENDBRANCH  20  21
ENDBRANCH  19  20
ENDBRANCH  18  19
ENDBRANCH  17  18
ENDBRANCH  16  17
ENDBRANCH  14  16
ENDBRANCH  10  14
BRANCH   8  23
HETATM   23  C8  UNL     1      -3.364   2.129   0.719  1.00  0.00     0.042 C 
BRANCH  23  24
HETATM   24  C9  UNL     1      -3.751   2.762  -0.593  1.00  0.00     0.030 C 
BRANCH  24  25
HETATM   25  C10 UNL     1      -4.758   3.847  -0.403  1.00  0.00     0.164 C 
BRANCH  25  26
HETATM   26  O1  UNL     1      -5.941   3.379   0.189  1.00  0.00    -0.401 OA
ATOM     27  H1  UNL     1      -6.582   4.070   0.310  1.00  0.00     0.209 HD
ENDBRANCH  25  26
ENDBRANCH  24  25
ENDBRANCH  23  24
ENDBRANCH   8  23
TORSDOF 11
