REMARK  9 active torsions:
REMARK  status: ('A' for Active; 'I' for Inactive)
REMARK    1  A    between atoms: C2_2  and  C3_3 
REMARK    2  A    between atoms: C4_4  and  C5_5 
REMARK    3  A    between atoms: C5_5  and  C6_6 
REMARK    4  A    between atoms: C6_6  and  C7_7 
REMARK    5  A    between atoms: C7_7  and  C9_9 
REMARK    6  A    between atoms: C9_9  and  N1_10 
REMARK    7  A    between atoms: C9_9  and  C17_23 
REMARK    8  A    between atoms: N1_10  and  C10_12 
REMARK    9  A    between atoms: C13_18  and  C14_19 
ROOT
HETATM    1  N1  UNL     1      -0.877  -0.487   0.641  1.00  0.00    -0.375 N 
ATOM      2  H1  UNL     1      -0.226  -0.302   1.404  1.00  0.00     0.160 HD
ENDROOT
BRANCH   1   3
HETATM    3  C9  UNL     1      -0.318  -0.907  -0.614  1.00  0.00     0.187 C 
BRANCH   3   4
HETATM    4  C7  UNL     1       1.016  -1.555  -0.486  1.00  0.00     0.015 C 
HETATM    5  C8  UNL     1       0.824  -2.783   0.418  1.00  0.00     0.012 C 
BRANCH   4   6
HETATM    6  C6  UNL     1       2.099  -0.747   0.120  1.00  0.00     0.010 C 
BRANCH   6   7
HETATM    7  C5  UNL     1       2.478   0.510  -0.581  1.00  0.00     0.027 C 
BRANCH   7   8
HETATM    8  C4  UNL     1       3.605   1.176   0.179  1.00  0.00    -0.031 C 
HETATM    9  C3  UNL     1       4.771   1.404  -0.378  1.00  0.00    -0.031 C 
BRANCH   9  10
HETATM   10  C2  UNL     1       5.909   2.053   0.322  1.00  0.00     0.022 C 
HETATM   11  C1  UNL     1       7.098   1.145   0.369  1.00  0.00     0.009 C 
ENDBRANCH   9  10
ENDBRANCH   7   8
ENDBRANCH   6   7
ENDBRANCH   4   6
ENDBRANCH   3   4
BRANCH   3  12
HETATM   12  C17 UNL     1      -0.421   0.111  -1.683  1.00  0.00     0.197 C 
HETATM   13  O1  UNL     1       0.059  -0.097  -2.825  1.00  0.00    -0.646 OA
HETATM   14  O2  UNL     1      -1.046   1.356  -1.508  1.00  0.00    -0.646 OA
ENDBRANCH   3  12
ENDBRANCH   1   3
BRANCH   1  15
HETATM   15  C10 UNL     1      -2.125  -0.325   0.883  1.00  0.00     0.033 A 
HETATM   16  C11 UNL     1      -2.586   0.086   2.130  1.00  0.00     0.071 A 
HETATM   17  C12 UNL     1      -3.930   0.259   2.388  1.00  0.00     0.105 A 
HETATM   18 CL1  UNL     1      -4.498   0.774   3.950  1.00  0.00    -0.064 Cl
HETATM   19  N2  UNL     1      -4.851   0.032   1.425  1.00  0.00    -0.349 N 
HETATM   20  C13 UNL     1      -4.437  -0.366   0.210  1.00  0.00     0.026 A 
ATOM     21  H2  UNL     1      -5.844   0.161   1.617  1.00  0.00     0.166 HD
HETATM   22  C16 UNL     1      -3.095  -0.545  -0.067  1.00  0.00     0.055 A 
BRANCH  20  23
HETATM   23  C14 UNL     1      -5.456  -0.619  -0.863  1.00  0.00     0.103 C 
HETATM   24  C15 UNL     1      -6.280   0.629  -1.125  1.00  0.00     0.028 C 
HETATM   25 BR1  UNL     1      -6.599  -2.063  -0.279  1.00  0.00    -0.085 Br
ENDBRANCH  20  23
ENDBRANCH   1  15
TORSDOF 9
