REMARK  8 active torsions:
REMARK  status: ('A' for Active; 'I' for Inactive)
REMARK    1  A    between atoms: C4_4  and  C5_5 
REMARK    2  A    between atoms: C5_5  and  C6_6 
REMARK    3  A    between atoms: C6_6  and  C7_7 
REMARK    4  A    between atoms: C11_12  and  C12_13 
REMARK       I    between atoms: C12_13  and  N1_15 
REMARK    5  A    between atoms: N1_15  and  C13_17 
REMARK    6  A    between atoms: C13_17  and  C14_18 
REMARK    7  A    between atoms: C13_17  and  C18_22 
REMARK    8  A    between atoms: C14_18  and  C15_19 
ROOT
HETATM    1  C7  UNL     1      -1.737  -1.176   0.435  1.00  0.00    -0.018 C 
HETATM    2  C8  UNL     1      -1.965  -1.394  -1.025  1.00  0.00     0.017 C 
HETATM    3  C9  UNL     1      -1.399  -2.522   1.107  1.00  0.00     0.067 C 
HETATM    4 BR1  UNL     1      -2.842  -3.254   2.143  1.00  0.00    -0.090 Br
HETATM    5  C10 UNL     1      -0.399  -1.764   1.950  1.00  0.00     0.031 C 
HETATM    6  C11 UNL     1      -0.333  -0.754   0.812  1.00  0.00     0.088 C 
ENDROOT
BRANCH   6   7
HETATM    7  C12 UNL     1       0.751  -1.100  -0.104  1.00  0.00     0.223 C 
HETATM    8  O1  UNL     1       0.627  -1.739  -1.194  1.00  0.00    -0.273 OA
HETATM    9  N1  UNL     1       2.071  -0.707   0.215  1.00  0.00    -0.346 N 
ATOM     10  H1  UNL     1       2.221  -0.191   1.082  1.00  0.00     0.163 HD
BRANCH   9  11
HETATM   11  C13 UNL     1       3.223  -0.993  -0.615  1.00  0.00     0.185 C 
BRANCH  11  12
HETATM   12  C14 UNL     1       3.883   0.220  -1.171  1.00  0.00     0.040 C 
BRANCH  12  13
HETATM   13  C15 UNL     1       4.399   1.220  -0.210  1.00  0.00    -0.020 C 
HETATM   14  C16 UNL     1       5.450   0.762   0.747  1.00  0.00     0.009 C 
HETATM   15  C17 UNL     1       5.042   2.344  -1.039  1.00  0.00     0.009 C 
ENDBRANCH  12  13
ENDBRANCH  11  12
BRANCH  11  16
HETATM   16  C18 UNL     1       4.154  -1.888   0.064  1.00  0.00     0.196 C 
HETATM   17  O2  UNL     1       3.922  -2.329   1.238  1.00  0.00    -0.646 OA
HETATM   18  O3  UNL     1       5.341  -2.324  -0.500  1.00  0.00    -0.646 OA
ENDBRANCH  11  16
ENDBRANCH   9  11
ENDBRANCH   6   7
BRANCH   1  19
HETATM   19  C6  UNL     1      -2.820  -0.532   1.216  1.00  0.00     0.015 C 
BRANCH  19  20
HETATM   20  C5  UNL     1      -3.257   0.829   0.881  1.00  0.00     0.028 C 
BRANCH  20  21
HETATM   21  C4  UNL     1      -3.801   1.075  -0.464  1.00  0.00    -0.025 C 
HETATM   22  C2  UNL     1      -5.059   1.465  -0.658  1.00  0.00    -0.091 C 
HETATM   23  C1  UNL     1      -5.534   1.692  -2.041  1.00  0.00     0.042 C 
HETATM   24  C3  UNL     1      -5.997   1.678   0.474  1.00  0.00     0.042 C 
ENDBRANCH  20  21
ENDBRANCH  19  20
ENDBRANCH   1  19
TORSDOF 8
