REMARK  9 active torsions:
REMARK  status: ('A' for Active; 'I' for Inactive)
REMARK    1  A    between atoms: C6_7  and  C7_8 
REMARK    2  A    between atoms: C7_8  and  C8_9 
REMARK    3  A    between atoms: C8_9  and  N1_10 
REMARK    4  A    between atoms: N1_10  and  C9_13 
REMARK    5  A    between atoms: C9_13  and  C10_14 
REMARK    6  A    between atoms: C10_14  and  O1_15 
REMARK    7  A    between atoms: C10_14  and  C11_17 
REMARK    8  A    between atoms: C11_17  and  O2_18 
REMARK    9  A    between atoms: O2_18  and  C12_19 
ROOT
HETATM    1  C8  UNL     1      -0.281  -0.241  -0.674  1.00  0.00     0.237 C 
ENDROOT
BRANCH   1   2
HETATM    2  C7  UNL     1      -1.456   0.669  -0.843  1.00  0.00     0.067 C 
BRANCH   2   3
HETATM    3  C6  UNL     1      -2.652   0.068  -0.187  1.00  0.00    -0.042 A 
HETATM    4  C4  UNL     1      -3.309  -0.974  -0.784  1.00  0.00    -0.033 A 
HETATM    5  C3  UNL     1      -4.422  -1.474  -0.108  1.00  0.00     0.047 A 
HETATM    6  C5  UNL     1      -2.890  -1.563  -2.075  1.00  0.00     0.050 C 
HETATM    7  C2  UNL     1      -4.862  -0.974   1.091  1.00  0.00    -0.022 A 
HETATM    8 CL1  UNL     1      -5.269  -2.811  -0.867  1.00  0.00    -0.083 Cl
HETATM    9  C1  UNL     1      -6.071  -1.546   1.782  1.00  0.00     0.051 C 
HETATM   10  C17 UNL     1      -4.173   0.081   1.667  1.00  0.00     0.025 A 
HETATM   11  C15 UNL     1      -3.071   0.603   1.032  1.00  0.00    -0.037 A 
HETATM   12 BR1  UNL     1      -4.744   0.820   3.339  1.00  0.00    -0.050 Br
HETATM   13  C16 UNL     1      -2.351   1.733   1.667  1.00  0.00     0.050 C 
ENDBRANCH   2   3
ENDBRANCH   1   2
BRANCH   1  14
HETATM   14  N1  UNL     1       0.881   0.293  -1.296  1.00  0.00    -0.072 N 
ATOM     15  H12 UNL     1       1.607  -0.417  -1.394  1.00  0.00     0.277 HD
ATOM     16  H11 UNL     1       0.714   0.491  -2.283  1.00  0.00     0.277 HD
BRANCH  14  17
HETATM   17  C9  UNL     1       1.375   1.450  -0.610  1.00  0.00     0.265 C 
BRANCH  17  18
HETATM   18  C10 UNL     1       2.624   2.014  -1.243  1.00  0.00     0.167 C 
BRANCH  18  19
HETATM   19  O1  UNL     1       2.471   2.423  -2.547  1.00  0.00    -0.392 OA
ATOM     20  H1  UNL     1       3.257   2.778  -2.945  1.00  0.00     0.210 HD
ENDBRANCH  18  19
BRANCH  18  21
HETATM   21  C11 UNL     1       3.755   1.039  -1.087  1.00  0.00     0.201 C 
BRANCH  21  22
HETATM   22  O2  UNL     1       3.838   0.634   0.231  1.00  0.00    -0.384 OA
BRANCH  22  23
HETATM   23  C12 UNL     1       4.902  -0.255   0.426  1.00  0.00     0.113 C 
HETATM   24  C13 UNL     1       5.855   0.365   1.393  1.00  0.00     0.039 C 
HETATM   25  C14 UNL     1       4.429  -1.624   0.835  1.00  0.00     0.039 C 
ENDBRANCH  22  23
ENDBRANCH  21  22
ENDBRANCH  18  21
ENDBRANCH  17  18
ENDBRANCH  14  17
ENDBRANCH   1  14
TORSDOF 9
