REMARK  5 active torsions:
REMARK  status: ('A' for Active; 'I' for Inactive)
REMARK    1  A    between atoms: C2_2  and  O1_3 
REMARK    2  A    between atoms: C2_2  and  C3_5 
REMARK    3  A    between atoms: N1_6  and  C4_8 
REMARK    4  A    between atoms: C7_13  and  C8_14 
REMARK    5  A    between atoms: C8_14  and  O2_15 
ROOT
HETATM    1  C4  UNL     1       2.754  -0.522   0.145  1.00  0.00     0.035 A 
HETATM    2  C5  UNL     1       3.185  -1.504  -0.723  1.00  0.00     0.046 A 
HETATM    3  C6  UNL     1       2.322  -2.356  -1.359  1.00  0.00     0.090 A 
HETATM    4  N2  UNL     1       0.990  -2.267  -1.153  1.00  0.00    -0.367 N 
ATOM      5  H2  UNL     1       0.362  -2.911  -1.634  1.00  0.00     0.165 HD
HETATM    6  C7  UNL     1       0.479  -1.335  -0.318  1.00  0.00     0.046 A 
HETATM    7  C18 UNL     1       1.346  -0.491   0.309  1.00  0.00     0.057 A 
ENDROOT
BRANCH   6   8
HETATM    8  C8  UNL     1      -0.995  -1.219  -0.090  1.00  0.00     0.100 C 
HETATM    9  C9  UNL     1      -1.699  -0.627  -1.264  1.00  0.00     0.044 C 
HETATM   10  C10 UNL     1      -1.744   0.862  -1.312  1.00  0.00     0.003 C 
HETATM   11  C11 UNL     1      -3.090   1.306  -1.775  1.00  0.00     0.000 C 
HETATM   12  C12 UNL     1      -3.924   1.944  -0.655  1.00  0.00     0.000 C 
HETATM   13  C13 UNL     1      -4.975   1.013  -0.167  1.00  0.00     0.000 C 
HETATM   14  C14 UNL     1      -4.830   0.394   1.144  1.00  0.00     0.000 C 
HETATM   15  C15 UNL     1      -3.532   0.400   1.850  1.00  0.00     0.000 C 
HETATM   16  C16 UNL     1      -2.738  -0.886   1.607  1.00  0.00     0.003 C 
HETATM   17  C17 UNL     1      -1.293  -0.575   1.226  1.00  0.00     0.044 C 
BRANCH   8  18
HETATM   18  O2  UNL     1      -1.473  -2.553   0.032  1.00  0.00    -0.384 OA
ATOM     19  H2  UNL     1      -2.409  -2.479   0.177  1.00  0.00     0.211 HD
ENDBRANCH   8  18
ENDBRANCH   6   8
BRANCH   1  20
HETATM   20  N1  UNL     1       3.444   0.295   0.749  1.00  0.00    -0.367 N 
HETATM   21  C3  UNL     1       4.660   0.789   1.020  1.00  0.00     0.092 C 
ATOM     22  H1  UNL     1       2.791   0.856   1.296  1.00  0.00     0.165 HD
BRANCH  21  23
HETATM   23  C2  UNL     1       5.866   0.378   0.190  1.00  0.00     0.152 C 
HETATM   24  C1  UNL     1       7.077   1.217   0.680  1.00  0.00     0.045 C 
BRANCH  23  25
HETATM   25  O1  UNL     1       5.743   0.712  -1.150  1.00  0.00    -0.391 OA
ATOM     26  H1  UNL     1       5.002   0.199  -1.450  1.00  0.00     0.210 HD
ENDBRANCH  23  25
ENDBRANCH  21  23
ENDBRANCH   1  20
TORSDOF 5
