REMARK  3 active torsions:
REMARK  status: ('A' for Active; 'I' for Inactive)
REMARK    1  A    between atoms: C5_8  and  N2_9 
REMARK    2  A    between atoms: N2_9  and  C6_11 
REMARK    3  A    between atoms: C15_22  and  C16_23 
ROOT
HETATM    1  N2  UNL     1       0.860  -0.294   0.791  1.00  0.00    -0.372 N 
ATOM      2  H2  UNL     1       1.536  -0.123   1.535  1.00  0.00     0.161 HD
ENDROOT
BRANCH   1   3
HETATM    3  C5  UNL     1       1.312  -0.782  -0.451  1.00  0.00     0.215 C 
HETATM    4  N1  UNL     1       1.411   0.184  -1.526  1.00  0.00    -0.333 N 
HETATM    5  C4  UNL     1       2.276   1.310  -1.713  1.00  0.00     0.243 C 
ATOM      6  H1  UNL     1       0.746   0.036  -2.285  1.00  0.00     0.165 HD
HETATM    7  C3  UNL     1       3.510   1.580  -0.964  1.00  0.00     0.080 C 
HETATM    8  O1  UNL     1       1.977   2.152  -2.583  1.00  0.00    -0.269 OA
HETATM    9  C2  UNL     1       4.199   0.658  -0.275  1.00  0.00    -0.056 C 
HETATM   10  C1  UNL     1       5.416   1.074   0.426  1.00  0.00     0.048 C 
HETATM   11  C17 UNL     1       3.878  -0.771  -0.129  1.00  0.00     0.014 C 
HETATM   12  C15 UNL     1       2.688  -1.328  -0.206  1.00  0.00    -0.024 C 
BRANCH  12  13
HETATM   13  C16 UNL     1       2.751  -2.822  -0.003  1.00  0.00     0.152 C 
HETATM   14 CL1  UNL     1       4.382  -3.381   0.278  1.00  0.00    -0.126 Cl
ENDBRANCH  12  13
ENDBRANCH   1   3
BRANCH   1  15
HETATM   15  C6  UNL     1      -0.506  -0.037   1.029  1.00  0.00    -0.011 C 
HETATM   16  C7  UNL     1      -1.404  -1.238   0.926  1.00  0.00     0.082 C 
HETATM   17  C8  UNL     1      -2.615  -1.008   0.071  1.00  0.00     0.024 C 
HETATM   18  C9  UNL     1      -2.344  -1.172  -1.403  1.00  0.00     0.038 C 
HETATM   19  C10 UNL     1      -3.599  -2.146   0.413  1.00  0.00     0.038 C 
HETATM   20  N3  UNL     1      -3.278   0.201   0.415  1.00  0.00    -0.405 N 
HETATM   21  C11 UNL     1      -2.499   1.376   0.437  1.00  0.00     0.024 C 
ATOM     22  H3  UNL     1      -4.274   0.218   0.636  1.00  0.00     0.154 HD
HETATM   23  C12 UNL     1      -2.915   2.224  -0.773  1.00  0.00     0.038 C 
HETATM   24  C13 UNL     1      -2.901   2.197   1.656  1.00  0.00     0.038 C 
HETATM   25  C14 UNL     1      -1.013   1.203   0.375  1.00  0.00     0.082 C 
ENDBRANCH   1  15
TORSDOF 3
