REMARK  5 active torsions:
REMARK  status: ('A' for Active; 'I' for Inactive)
REMARK    1  A    between atoms: C2_2  and  C3_3 
REMARK    2  A    between atoms: C3_3  and  N1_4 
REMARK    3  A    between atoms: C3_3  and  C11_19 
REMARK    4  A    between atoms: N1_4  and  C4_6 
REMARK    5  A    between atoms: C9_14  and  N3_15 
ROOT
HETATM    1  C4  UNL     1      -1.012  -0.611  -0.004  1.00  0.00     0.108 C 
HETATM    2  C5  UNL     1      -1.376  -1.864   0.820  1.00  0.00     0.257 C 
HETATM    3  N2  UNL     1      -2.686  -1.736   1.406  1.00  0.00    -0.069 N 
ATOM      4  H21 UNL     1      -2.685  -1.012   2.125  1.00  0.00     0.277 HD
ATOM      5  H22 UNL     1      -2.900  -2.551   1.980  1.00  0.00     0.277 HD
HETATM    6  C6  UNL     1      -3.737  -1.500   0.459  1.00  0.00     0.188 C 
HETATM    7  C7  UNL     1      -3.128  -1.297  -0.936  1.00  0.00     0.042 C 
HETATM    8  C8  UNL     1      -2.256  -0.061  -0.624  1.00  0.00     0.041 C 
HETATM    9  C9  UNL     1      -3.149   0.758   0.226  1.00  0.00     0.164 C 
HETATM   10  C10 UNL     1      -4.285  -0.113   0.721  1.00  0.00     0.065 C 
ENDROOT
BRANCH   1  11
HETATM   11  N1  UNL     1      -0.181   0.190   0.770  1.00  0.00    -0.411 N 
ATOM     12  H1  UNL     1      -0.480   0.446   1.711  1.00  0.00     0.154 HD
BRANCH  11  13
HETATM   13  C3  UNL     1       1.069   0.663   0.294  1.00  0.00     0.080 C 
BRANCH  13  14
HETATM   14  C2  UNL     1       0.846   1.718  -0.808  1.00  0.00     0.021 C 
HETATM   15  C1  UNL     1       0.096   2.851  -0.087  1.00  0.00     0.007 C 
ENDBRANCH  13  14
BRANCH  13  16
HETATM   16  C11 UNL     1       2.012  -0.404  -0.195  1.00  0.00     0.008 C 
HETATM   17  C12 UNL     1       2.294  -1.412   0.837  1.00  0.00     0.007 C 
HETATM   18  C13 UNL     1       3.642  -1.425   1.452  1.00  0.00     0.000 C 
HETATM   19  C14 UNL     1       4.648  -0.442   0.999  1.00  0.00     0.000 C 
HETATM   20  C15 UNL     1       4.092   0.760   0.260  1.00  0.00     0.000 C 
HETATM   21  C16 UNL     1       3.246   0.190  -0.832  1.00  0.00     0.007 C 
ENDBRANCH  13  16
ENDBRANCH  11  13
ENDBRANCH   1  11
BRANCH   9  22
HETATM   22  N3  UNL     1      -3.710   1.809  -0.646  1.00  0.00    -0.150 N 
HETATM   23  O1  UNL     1      -3.444   1.884  -1.860  1.00  0.00    -0.536 OA
HETATM   24  O2  UNL     1      -4.564   2.742  -0.118  1.00  0.00    -0.536 OA
ENDBRANCH   9  22
TORSDOF 5
