REMARK  7 active torsions:
REMARK  status: ('A' for Active; 'I' for Inactive)
REMARK    1  A    between atoms: C2_2  and  O1_3 
REMARK    2  A    between atoms: O1_3  and  C3_4 
REMARK    3  A    between atoms: C5_10  and  C6_11 
REMARK    4  A    between atoms: N3_12  and  N4_14 
REMARK    5  A    between atoms: N4_14  and  C7_16 
REMARK    6  A    between atoms: C7_16  and  N5_18 
REMARK    7  A    between atoms: N5_18  and  C8_20 
ROOT
HETATM    1  C6  UNL     1       2.031   1.159  -0.959  1.00  0.00     0.141 C 
HETATM    2  N3  UNL     1       1.070   1.604  -1.651  1.00  0.00    -0.307 N 
ATOM      3  H3  UNL     1       0.801   2.572  -1.473  1.00  0.00     0.186 HD
ENDROOT
BRANCH   2   4
HETATM    4  N4  UNL     1       0.348   0.948  -2.608  1.00  0.00    -0.277 N 
ATOM      5  H4  UNL     1       0.778   0.731  -3.507  1.00  0.00     0.189 HD
BRANCH   4   6
HETATM    6  C7  UNL     1      -0.985   0.570  -2.361  1.00  0.00     0.186 C 
HETATM    7  S1  UNL     1      -1.868  -0.198  -3.486  1.00  0.00    -0.040 SA
BRANCH   6   8
HETATM    8  N5  UNL     1      -1.573   0.876  -1.112  1.00  0.00    -0.361 N 
ATOM      9  H5  UNL     1      -1.002   1.372  -0.427  1.00  0.00     0.162 HD
BRANCH   8  10
HETATM   10  C8  UNL     1      -2.931   0.534  -0.737  1.00  0.00     0.083 C 
HETATM   11  C9  UNL     1      -3.184   1.181   0.637  1.00  0.00     0.025 C 
HETATM   12  C10 UNL     1      -4.637   1.048   0.950  1.00  0.00     0.002 C 
HETATM   13  C11 UNL     1      -4.938  -0.429   1.137  1.00  0.00     0.000 C 
HETATM   14  C12 UNL     1      -4.478  -1.252  -0.018  1.00  0.00     0.002 C 
HETATM   15  C13 UNL     1      -3.070  -0.956  -0.473  1.00  0.00     0.025 C 
ENDBRANCH   8  10
ENDBRANCH   6   8
ENDBRANCH   4   6
ENDBRANCH   2   4
BRANCH   1  16
HETATM   16  C5  UNL     1       2.600  -0.170  -1.021  1.00  0.00     0.099 A 
HETATM   17  C3  UNL     1       3.667  -0.599  -0.223  1.00  0.00     0.115 A 
HETATM   18  C4  UNL     1       3.927  -1.896  -0.556  1.00  0.00     0.146 A 
HETATM   19  N1  UNL     1       3.071  -2.258  -1.509  1.00  0.00    -0.309 N 
HETATM   20  N2  UNL     1       2.274  -1.217  -1.785  1.00  0.00    -0.297 N 
ATOM     21  H1  UNL     1       3.029  -3.175  -1.955  1.00  0.00     0.186 HD
ATOM     22  H2  UNL     1       1.526  -1.223  -2.478  1.00  0.00     0.187 HD
BRANCH  17  23
HETATM   23  O1  UNL     1       4.306   0.187   0.716  1.00  0.00    -0.348 OA
BRANCH  23  24
HETATM   24  C2  UNL     1       5.371  -0.313   1.480  1.00  0.00     0.171 C 
HETATM   25  C1  UNL     1       5.873   0.771   2.423  1.00  0.00     0.034 C 
ENDBRANCH  23  24
ENDBRANCH  17  23
ENDBRANCH   1  16
TORSDOF 7
