REMARK  6 active torsions:
REMARK  status: ('A' for Active; 'I' for Inactive)
REMARK    1  A    between atoms: C2_2  and  C3_3 
REMARK    2  A    between atoms: C3_3  and  N1_4 
REMARK       I    between atoms: N1_4  and  C4_6 
REMARK       I    between atoms: C4_6  and  N2_8 
REMARK    3  A    between atoms: N2_8  and  O2_10 
REMARK    4  A    between atoms: O2_10  and  N3_11 
REMARK    5  A    between atoms: C5_13  and  C7_15 
REMARK    6  A    between atoms: C15_23  and  N4_24 
ROOT
HETATM    1  N3  UNL     1       0.385   0.887  -0.100  1.00  0.00    -0.250 N 
ATOM      2  H3  UNL     1       0.428  -0.100  -0.355  1.00  0.00     0.196 HD
HETATM    3  C5  UNL     1      -0.727   1.355   0.379  1.00  0.00     0.014 C 
HETATM    4  C6  UNL     1      -0.755   2.795   0.739  1.00  0.00     0.066 C 
ENDROOT
BRANCH   3   5
HETATM    5  C7  UNL     1      -1.863   0.448   0.532  1.00  0.00     0.064 C 
HETATM    6  C8  UNL     1      -1.497  -0.922   0.082  1.00  0.00     0.013 C 
HETATM    7  C9  UNL     1      -2.206  -1.334  -1.193  1.00  0.00     0.006 C 
HETATM    8  C10 UNL     1      -3.707  -1.335  -1.016  1.00  0.00    -0.004 C 
HETATM    9  C11 UNL     1      -4.204  -2.152   0.142  1.00  0.00     0.006 C 
HETATM   10  C13 UNL     1      -4.153  -0.099  -0.296  1.00  0.00    -0.011 C 
HETATM   11  C12 UNL     1      -4.434  -0.901   0.930  1.00  0.00     0.012 C 
HETATM   12  C14 UNL     1      -5.451   0.483  -0.844  1.00  0.00     0.018 C 
HETATM   13  C15 UNL     1      -3.085   0.947  -0.197  1.00  0.00     0.201 C 
BRANCH  13  14
HETATM   14  N4  UNL     1      -3.656   2.130   0.376  1.00  0.00    -0.074 N 
ATOM     15  H43 UNL     1      -3.860   1.988   1.365  1.00  0.00     0.274 HD
ATOM     16  H42 UNL     1      -2.955   2.868   0.450  1.00  0.00     0.274 HD
ATOM     17  H41 UNL     1      -4.483   2.468  -0.117  1.00  0.00     0.274 HD
ENDBRANCH  13  14
ENDBRANCH   3   5
BRANCH   1  18
HETATM   18  O2  UNL     1       1.496   1.653  -0.278  1.00  0.00    -0.153 OA
BRANCH  18  19
HETATM   19  N2  UNL     1       2.722   1.356   0.256  1.00  0.00    -0.191 N 
HETATM   20  C4  UNL     1       3.602   0.506  -0.443  1.00  0.00     0.341 C 
HETATM   21  N1  UNL     1       4.873   0.188   0.093  1.00  0.00    -0.341 N 
HETATM   22  O1  UNL     1       3.264   0.029  -1.543  1.00  0.00    -0.245 OA
ATOM     23  H1  UNL     1       5.157   0.576   0.993  1.00  0.00     0.164 HD
ATOM     24  H2  UNL     1       2.997   1.749   1.156  1.00  0.00     0.201 HD
BRANCH  21  25
HETATM   25  C3  UNL     1       5.775  -0.689  -0.634  1.00  0.00     0.124 C 
BRANCH  25  26
HETATM   26  C2  UNL     1       7.034  -0.837   0.181  1.00  0.00     0.015 C 
HETATM   27  C1  UNL     1       7.996  -1.739  -0.539  1.00  0.00     0.006 C 
ENDBRANCH  25  26
ENDBRANCH  21  25
ENDBRANCH  18  19
ENDBRANCH   1  18
TORSDOF 6
