REMARK  7 active torsions:
REMARK  status: ('A' for Active; 'I' for Inactive)
REMARK    1  A    between atoms: C4_5  and  C5_6 
REMARK    2  A    between atoms: C5_6  and  C6_7 
REMARK    3  A    between atoms: C8_10  and  C9_11 
REMARK    4  A    between atoms: C9_11  and  C10_12 
REMARK    5  A    between atoms: C10_12  and  C11_13 
REMARK    6  A    between atoms: C11_13  and  O3_16 
REMARK    7  A    between atoms: C14_18  and  O4_19 
ROOT
HETATM    1  C1  UNL     1      -5.251   1.351   1.047  1.00  0.00     0.038 C 
HETATM    2  C2  UNL     1      -3.908   0.979   1.515  1.00  0.00     0.003 C 
HETATM    3  C3  UNL     1      -3.116   0.172   0.845  1.00  0.00     0.065 C 
HETATM    4  O1  UNL     1      -1.834  -0.155   1.336  1.00  0.00    -0.344 OA
HETATM    5  C4  UNL     1      -0.805  -0.579   0.411  1.00  0.00     0.179 C 
HETATM    6  C14 UNL     1      -1.497  -1.594  -0.428  1.00  0.00     0.243 C 
HETATM    7  N1  UNL     1      -2.621  -1.128  -1.159  1.00  0.00    -0.385 N 
ATOM      8  H1  UNL     1      -2.722  -1.316  -2.156  1.00  0.00     0.156 HD
HETATM    9  C15 UNL     1      -3.602  -0.387  -0.440  1.00  0.00     0.131 C 
HETATM   10  C16 UNL     1      -4.801  -1.291  -0.239  1.00  0.00     0.039 C 
ENDROOT
BRANCH   5  11
HETATM   11  C5  UNL     1      -0.327   0.650  -0.234  1.00  0.00     0.077 C 
BRANCH  11  12
HETATM   12  C6  UNL     1       0.765   0.575  -1.238  1.00  0.00     0.086 A 
HETATM   13  C7  UNL     1       0.578  -0.249  -2.513  1.00  0.00     0.049 C 
HETATM   14  O2  UNL     1       0.926   2.008  -1.707  1.00  0.00    -0.369 OA
HETATM   15  C8  UNL     1       1.991   1.344  -1.154  1.00  0.00     0.157 A 
BRANCH  15  16
HETATM   16  C9  UNL     1       2.601   1.934   0.059  1.00  0.00     0.038 C 
BRANCH  16  17
HETATM   17  C10 UNL     1       2.946   0.879   1.053  1.00  0.00     0.040 C 
BRANCH  17  18
HETATM   18  C11 UNL     1       3.934  -0.147   0.573  1.00  0.00     0.051 C 
HETATM   19  C12 UNL     1       4.138  -1.119   1.745  1.00  0.00     0.045 C 
HETATM   20  C13 UNL     1       5.284   0.445   0.271  1.00  0.00     0.045 C 
BRANCH  18  21
HETATM   21  O3  UNL     1       3.507  -0.914  -0.486  1.00  0.00    -0.391 OA
ATOM     22  H3  UNL     1       4.131  -1.562  -0.789  1.00  0.00     0.210 HD
ENDBRANCH  18  21
ENDBRANCH  17  18
ENDBRANCH  16  17
ENDBRANCH  15  16
ENDBRANCH  11  12
ENDBRANCH   5  11
BRANCH   6  23
HETATM   23  O4  UNL     1      -2.004  -2.558   0.490  1.00  0.00    -0.374 OA
ATOM     24  H4  UNL     1      -2.446  -3.206  -0.046  1.00  0.00     0.212 HD
ENDBRANCH   6  23
TORSDOF 7
