REMARK  16 active torsions:
REMARK  status: ('A' for Active; 'I' for Inactive)
REMARK    1  A    between atoms: C2_2  and  N1_3 
REMARK    2  A    between atoms: C2_2  and  N3_31 
REMARK    3  A    between atoms: C3_4  and  C4_5 
REMARK    4  A    between atoms: C5_8  and  S1_9 
REMARK    5  A    between atoms: S1_9  and  S2_10 
REMARK    6  A    between atoms: S2_10  and  C6_11 
REMARK    7  A    between atoms: C8_13  and  N2_14 
REMARK       I    between atoms: N2_14  and  C9_16 
REMARK    8  A    between atoms: C11_19  and  O4_20 
REMARK    9  A    between atoms: C12_23  and  O6_24 
REMARK   10  A    between atoms: C13_26  and  O7_27 
REMARK   11  A    between atoms: C15_36  and  C16_37 
REMARK   12  A    between atoms: C16_37  and  C17_38 
REMARK   13  A    between atoms: N6_40  and  N7_42 
REMARK       I    between atoms: N7_42  and  C18_44 
REMARK   14  A    between atoms: C18_44  and  C19_46 
REMARK   15  A    between atoms: C19_46  and  N8_48 
REMARK   16  A    between atoms: C21_52  and  N9_53 
ROOT
HETATM    1  N1  UNL     1      -0.254   0.218   2.113  1.00  0.00    -0.333 N 
HETATM    2  C3  UNL     1       0.336   0.359   0.797  1.00  0.00     0.205 C 
HETATM    3  C5  UNL     1       1.789  -0.039   0.939  1.00  0.00     0.124 C 
HETATM    4  C12 UNL     1       1.969  -0.868   2.188  1.00  0.00     0.183 C 
HETATM    5  C13 UNL     1       1.810   0.011   3.384  1.00  0.00     0.164 A 
HETATM    6  S3  UNL     1       1.851   1.774   3.180  1.00  0.00    -0.096 SA
HETATM    7  C14 UNL     1       0.476   0.733   3.280  1.00  0.00     0.199 A 
ENDROOT
BRANCH   1   8
HETATM    8  C2  UNL     1      -1.506  -0.435   2.256  1.00  0.00     0.121 C 
HETATM    9  C1  UNL     1      -1.698  -1.168   3.352  1.00  0.00     0.065 C 
BRANCH   8  10
HETATM   10  N3  UNL     1      -2.533  -0.366   1.304  1.00  0.00    -0.208 N 
HETATM   11  N4  UNL     1      -3.170   0.735   0.964  1.00  0.00    -0.232 N 
HETATM   12  N5  UNL     1      -4.038   0.514   0.042  1.00  0.00    -0.280 N 
ATOM     13  H4  UNL     1      -2.996   1.650   1.381  1.00  0.00     0.209 HD
HETATM   14  C15 UNL     1      -4.022  -0.844  -0.308  1.00  0.00     0.126 A 
ATOM     15  H5  UNL     1      -4.647   1.220  -0.373  1.00  0.00     0.188 HD
HETATM   16  C21 UNL     1      -3.068  -1.357   0.506  1.00  0.00     0.158 A 
BRANCH  14  17
HETATM   17  C16 UNL     1      -4.829  -1.377  -1.365  1.00  0.00     0.117 C 
HETATM   18  N6  UNL     1      -5.780  -0.604  -1.886  1.00  0.00    -0.293 N 
ATOM     19  H6  UNL     1      -6.349  -0.989  -2.640  1.00  0.00     0.187 HD
BRANCH  17  20
HETATM   20  C17 UNL     1      -4.732  -2.633  -2.040  1.00  0.00     0.292 C 
HETATM   21  O8  UNL     1      -3.959  -3.572  -1.935  1.00  0.00    -0.300 OA
ENDBRANCH  17  20
BRANCH  18  22
HETATM   22  N7  UNL     1      -6.040   0.668  -1.475  1.00  0.00    -0.268 N 
HETATM   23  C18 UNL     1      -7.107   1.010  -0.580  1.00  0.00     0.266 C 
HETATM   24  O9  UNL     1      -7.848   0.110  -0.145  1.00  0.00    -0.269 OA
ATOM     25  H7  UNL     1      -5.443   1.419  -1.823  1.00  0.00     0.190 HD
BRANCH  23  26
HETATM   26  C19 UNL     1      -7.298   2.414  -0.201  1.00  0.00     0.272 C 
HETATM   27  C20 UNL     1      -8.714   2.898  -0.451  1.00  0.00     0.050 C 
BRANCH  26  28
HETATM   28  N8  UNL     1      -6.342   3.307  -0.801  1.00  0.00    -0.067 N 
ATOM     29  H83 UNL     1      -5.389   3.005  -0.598  1.00  0.00     0.275 HD
ATOM     30  H82 UNL     1      -6.340   3.204  -1.816  1.00  0.00     0.275 HD
ATOM     31  H81 UNL     1      -6.475   4.283  -0.537  1.00  0.00     0.275 HD
ENDBRANCH  26  28
ENDBRANCH  23  26
ENDBRANCH  18  22
ENDBRANCH  14  17
BRANCH  16  32
HETATM   32  N9  UNL     1      -2.605  -2.677   0.677  1.00  0.00    -0.372 N 
HETATM   33  C22 UNL     1      -3.403  -3.649   1.419  1.00  0.00     0.150 C 
HETATM   34  C23 UNL     1      -1.294  -3.141   0.194  1.00  0.00     0.150 C 
ENDBRANCH  16  32
ENDBRANCH   8  10
ENDBRANCH   1   8
BRANCH   2  35
HETATM   35  C4  UNL     1       0.252   1.783   0.391  1.00  0.00     0.198 C 
HETATM   36  O1  UNL     1      -0.250   2.694   1.096  1.00  0.00    -0.646 OA
HETATM   37  O2  UNL     1       0.747   2.186  -0.845  1.00  0.00    -0.646 OA
ENDBRANCH   2  35
BRANCH   3  38
HETATM   38  S1  UNL     1       2.423  -1.007  -0.437  1.00  0.00    -0.085 SA
BRANCH  38  39
HETATM   39  S2  UNL     1       2.566   0.080  -2.250  1.00  0.00    -0.065 SA
BRANCH  39  40
HETATM   40  C6  UNL     1       4.210   0.886  -2.393  1.00  0.00     0.199 C 
HETATM   41  C7  UNL     1       5.296  -0.149  -2.520  1.00  0.00     0.074 C 
HETATM   42  C8  UNL     1       6.087   0.016  -1.243  1.00  0.00     0.142 C 
HETATM   43  C11 UNL     1       5.627   1.324  -0.700  1.00  0.00     0.281 C 
HETATM   44  O5  UNL     1       4.391   1.582  -1.224  1.00  0.00    -0.343 OA
BRANCH  42  45
HETATM   45  N2  UNL     1       7.509   0.061  -1.427  1.00  0.00    -0.352 N 
HETATM   46  C9  UNL     1       8.133   0.904  -2.360  1.00  0.00     0.214 C 
HETATM   47  C10 UNL     1       9.632   0.924  -2.533  1.00  0.00     0.117 C 
HETATM   48  O3  UNL     1       7.515   1.697  -3.117  1.00  0.00    -0.274 OA
ATOM     49  H2  UNL     1       8.093  -0.547  -0.854  1.00  0.00     0.163 HD
ENDBRANCH  42  45
BRANCH  43  50
HETATM   50  O4  UNL     1       5.488   1.202   0.691  1.00  0.00    -0.369 OA
ATOM     51  H4  UNL     1       5.195   2.036   1.037  1.00  0.00     0.212 HD
ENDBRANCH  43  50
ENDBRANCH  39  40
ENDBRANCH  38  39
ENDBRANCH   3  38
BRANCH   5  52
HETATM   52  O7  UNL     1       2.171  -0.544   4.605  1.00  0.00    -0.373 OA
ATOM     53  H7  UNL     1       2.070   0.015   5.366  1.00  0.00     0.212 HD
ENDBRANCH   5  52
BRANCH   4  54
HETATM   54  O6  UNL     1       3.243  -1.428   2.138  1.00  0.00    -0.390 OA
ATOM     55  H6  UNL     1       3.356  -1.950   2.924  1.00  0.00     0.210 HD
ENDBRANCH   4  54
TORSDOF 16
