REMARK  16 active torsions:
REMARK  status: ('A' for Active; 'I' for Inactive)
REMARK    1  A    between atoms: N3_7  and  C3_8 
REMARK    2  A    between atoms: C4_14  and  N6_15 
REMARK    3  A    between atoms: C5_18  and  C6_19 
REMARK    4  A    between atoms: N7_21  and  C8_22 
REMARK    5  A    between atoms: C8_22  and  C9_23 
REMARK    6  A    between atoms: C9_23  and  O2_24 
REMARK    7  A    between atoms: C9_23  and  N8_26 
REMARK    8  A    between atoms: N8_26  and  C10_28 
REMARK    9  A    between atoms: C10_28  and  C11_29 
REMARK   10  A    between atoms: C14_32  and  C15_33 
REMARK   11  A    between atoms: C15_33  and  O3_34 
REMARK   12  A    between atoms: C15_33  and  C16_36 
REMARK       I    between atoms: C16_36  and  N9_38 
REMARK   13  A    between atoms: N9_38  and  C17_40 
REMARK   14  A    between atoms: C17_40  and  C18_41 
REMARK   15  A    between atoms: N10_43  and  S1_44 
REMARK   16  A    between atoms: N11_51  and  O8_52 
ROOT
HETATM    1  N8  UNL     1       2.677  -1.142   1.797  1.00  0.00    -0.390 N 
ATOM      2  H8  UNL     1       2.130  -1.333   2.637  1.00  0.00     0.156 HD
ENDROOT
BRANCH   1   3
HETATM    3  C9  UNL     1       4.083  -0.930   1.838  1.00  0.00     0.233 C 
BRANCH   3   4
HETATM    4  C8  UNL     1       4.495   0.454   1.391  1.00  0.00     0.202 C 
BRANCH   4   5
HETATM    5  N7  UNL     1       5.939   0.555   1.491  1.00  0.00    -0.283 N 
HETATM    6  C7  UNL     1       6.863   0.254   0.514  1.00  0.00     0.145 A 
HETATM    7  C6  UNL     1       8.112   0.479   1.000  1.00  0.00     0.097 A 
HETATM    8  N15 UNL     1       7.938   0.910   2.257  1.00  0.00    -0.282 N 
HETATM    9  N14 UNL     1       6.667   0.944   2.515  1.00  0.00    -0.240 N 
ATOM     10  H15 UNL     1       8.682   1.169   2.904  1.00  0.00     0.188 HD
ATOM     11  H14 UNL     1       6.277   1.239   3.410  1.00  0.00     0.208 HD
BRANCH   7  12
HETATM   12  C5  UNL     1       9.407   0.308   0.358  1.00  0.00     0.113 A 
HETATM   13  C2  UNL     1      10.632   0.554   1.014  1.00  0.00     0.054 A 
HETATM   14  C1  UNL     1      10.771   1.009   2.432  1.00  0.00     0.072 C 
HETATM   15  N1  UNL     1      11.578   0.300   0.126  1.00  0.00    -0.288 N 
HETATM   16  N2  UNL     1      11.028  -0.075  -1.000  1.00  0.00    -0.234 N 
ATOM     17  H1  UNL     1      12.581   0.383   0.293  1.00  0.00     0.188 HD
HETATM   18  N3  UNL     1       9.681  -0.081  -0.889  1.00  0.00    -0.216 N 
ATOM     19  H2  UNL     1      11.543  -0.327  -1.843  1.00  0.00     0.209 HD
BRANCH  18  20
HETATM   20  C3  UNL     1       8.798  -0.438  -1.945  1.00  0.00     0.196 A 
HETATM   21  N4  UNL     1       8.297  -1.645  -2.274  1.00  0.00    -0.220 N 
HETATM   22  O1  UNL     1       7.546  -1.562  -3.329  1.00  0.00    -0.153 OA
ATOM     23  H4  UNL     1       8.483  -2.508  -1.763  1.00  0.00     0.198 HD
HETATM   24  N5  UNL     1       7.528  -0.329  -3.718  1.00  0.00    -0.222 N 
HETATM   25  C4  UNL     1       8.278   0.432  -2.916  1.00  0.00     0.169 A 
ATOM     26  H5  UNL     1       7.011   0.016  -4.527  1.00  0.00     0.198 HD
BRANCH  25  27
HETATM   27  N6  UNL     1       8.511   1.705  -2.976  1.00  0.00    -0.381 N 
ATOM     28  H62 UNL     1       9.084   2.286  -2.364  1.00  0.00     0.157 HD
ATOM     29  H61 UNL     1       8.133   2.337  -3.682  1.00  0.00     0.157 HD
ENDBRANCH  25  27
ENDBRANCH  18  20
ENDBRANCH   7  12
ENDBRANCH   4   5
ENDBRANCH   3   4
BRANCH   3  30
HETATM   30  O2  UNL     1       4.504  -1.087   3.158  1.00  0.00    -0.375 OA
ATOM     31  H2  UNL     1       4.245  -1.957   3.439  1.00  0.00     0.212 HD
ENDBRANCH   3  30
ENDBRANCH   1   3
BRANCH   1  32
HETATM   32  C10 UNL     1       2.077  -1.069   0.487  1.00  0.00     0.175 C 
BRANCH  32  33
HETATM   33  C11 UNL     1       0.601  -1.303   0.663  1.00  0.00     0.043 A 
HETATM   34  C12 UNL     1       0.012  -1.040   1.900  1.00  0.00     0.030 A 
HETATM   35  C13 UNL     1      -1.339  -1.261   2.050  1.00  0.00     0.032 A 
HETATM   36  C14 UNL     1      -2.107  -1.733   1.009  1.00  0.00     0.063 A 
HETATM   37  N12 UNL     1      -1.489  -1.969  -0.154  1.00  0.00    -0.302 N 
HETATM   38  N13 UNL     1      -0.187  -1.762  -0.320  1.00  0.00    -0.303 N 
ATOM     39  H12 UNL     1      -2.036  -2.320  -0.940  1.00  0.00     0.186 HD
ATOM     40  H13 UNL     1       0.229  -1.960  -1.230  1.00  0.00     0.186 HD
BRANCH  36  41
HETATM   41  C15 UNL     1      -3.561  -1.960   1.181  1.00  0.00     0.260 C 
BRANCH  41  42
HETATM   42  O3  UNL     1      -3.818  -2.559   2.420  1.00  0.00    -0.380 OA
ATOM     43  H3  UNL     1      -4.750  -2.705   2.530  1.00  0.00     0.211 HD
ENDBRANCH  41  42
BRANCH  41  44
HETATM   44  C16 UNL     1      -4.343  -0.713   1.038  1.00  0.00     0.252 C 
HETATM   45  O4  UNL     1      -5.076  -0.315   1.977  1.00  0.00    -0.270 OA
HETATM   46  N9  UNL     1      -4.288   0.058  -0.150  1.00  0.00    -0.357 N 
ATOM     47  H9  UNL     1      -3.691  -0.267  -0.911  1.00  0.00     0.162 HD
BRANCH  46  48
HETATM   48  C17 UNL     1      -5.033   1.278  -0.338  1.00  0.00     0.146 C 
BRANCH  48  49
HETATM   49  C18 UNL     1      -6.506   1.031  -0.232  1.00  0.00     0.120 C 
HETATM   50  C19 UNL     1      -6.986   0.028  -1.275  1.00  0.00     0.136 C 
HETATM   51  N10 UNL     1      -8.311   0.455  -1.594  1.00  0.00    -0.166 NA
HETATM   52  C20 UNL     1      -8.603   1.627  -0.839  1.00  0.00     0.102 C 
HETATM   53  C21 UNL     1      -9.496   2.594  -1.598  1.00  0.00     0.053 C 
HETATM   54  C22 UNL     1      -9.172   1.399   0.526  1.00  0.00     0.053 C 
HETATM   55  N11 UNL     1      -7.271   2.218  -0.645  1.00  0.00    -0.168 NA
BRANCH  51  56
HETATM   56  S1  UNL     1      -9.497  -0.763  -1.574  1.00  0.00     0.187 S 
HETATM   57  O5  UNL     1     -10.873  -0.239  -1.819  1.00  0.00    -0.582 OA
HETATM   58  O6  UNL     1      -9.533  -1.521  -0.273  1.00  0.00    -0.582 OA
HETATM   59  O7  UNL     1      -9.056  -1.904  -2.758  1.00  0.00    -0.582 OA
ENDBRANCH  51  56
BRANCH  55  60
HETATM   60  O8  UNL     1      -7.273   3.158   0.308  1.00  0.00    -0.311 OA
ATOM     61  H8  UNL     1      -7.767   3.924   0.041  1.00  0.00     0.237 HD
ENDBRANCH  55  60
ENDBRANCH  48  49
ENDBRANCH  46  48
ENDBRANCH  41  44
ENDBRANCH  36  41
ENDBRANCH  32  33
ENDBRANCH   1  32
TORSDOF 16
