REMARK  18 active torsions:
REMARK  status: ('A' for Active; 'I' for Inactive)
REMARK    1  A    between atoms: O1_2  and  C2_3 
REMARK    2  A    between atoms: C3_4  and  O2_5 
REMARK    3  A    between atoms: C6_9  and  C7_10 
REMARK    4  A    between atoms: C8_11  and  C9_12 
REMARK    5  A    between atoms: C9_12  and  C10_14 
REMARK    6  A    between atoms: C10_14  and  O4_15 
REMARK    7  A    between atoms: C10_14  and  C11_17 
REMARK    8  A    between atoms: C11_17  and  C12_19 
REMARK    9  A    between atoms: C12_19  and  O6_20 
REMARK   10  A    between atoms: C17_26  and  O7_27 
REMARK   11  A    between atoms: C19_31  and  O9_32 
REMARK   12  A    between atoms: O9_32  and  C20_33 
REMARK   13  A    between atoms: C22_37  and  O12_38 
REMARK   14  A    between atoms: O12_38  and  C23_39 
REMARK   15  A    between atoms: C23_39  and  C24_41 
REMARK   16  A    between atoms: C24_41  and  N1_43 
REMARK   17  A    between atoms: C26_47  and  C27_48 
REMARK   18  A    between atoms: C29_54  and  O18_55 
ROOT
HETATM    1  C12 UNL     1       0.408   0.283  -2.394  1.00  0.00     0.208 A 
HETATM    2  C13 UNL     1       0.875   1.581  -1.899  1.00  0.00     0.042 A 
HETATM    3  C14 UNL     1       0.106   2.517  -1.397  1.00  0.00     0.011 A 
HETATM    4  C15 UNL     1       0.420   3.785  -0.895  1.00  0.00     0.009 A 
HETATM    5  C16 UNL     1       1.783   4.373  -0.823  1.00  0.00     0.054 C 
HETATM    6  C17 UNL     1      -0.760   4.372  -0.489  1.00  0.00     0.190 A 
HETATM    7  O8  UNL     1      -1.717   3.532  -0.723  1.00  0.00    -0.284 OA
HETATM    8  C18 UNL     1      -1.252   2.418  -1.262  1.00  0.00     0.126 A 
HETATM    9  C19 UNL     1      -1.856   1.282  -1.669  1.00  0.00     0.159 A 
HETATM   10  C28 UNL     1      -1.080   0.205  -2.231  1.00  0.00     0.231 A 
HETATM   11  O17 UNL     1      -1.687  -0.853  -2.602  1.00  0.00    -0.286 OA
ENDROOT
BRANCH   1  12
HETATM   12  C11 UNL     1       1.080  -0.766  -1.580  1.00  0.00     0.209 C 
HETATM   13  O5  UNL     1       0.903  -0.682  -0.374  1.00  0.00    -0.290 OA
BRANCH  12  14
HETATM   14  C10 UNL     1       1.904  -1.841  -2.169  1.00  0.00     0.265 C 
BRANCH  14  15
HETATM   15  C9  UNL     1       3.348  -1.687  -1.699  1.00  0.00     0.185 C 
HETATM   16  O3  UNL     1       4.134  -1.435  -2.613  1.00  0.00    -0.290 OA
BRANCH  15  17
HETATM   17  C8  UNL     1       3.696  -1.831  -0.326  1.00  0.00     0.054 C 
HETATM   18  C7  UNL     1       4.687  -1.771   0.448  1.00  0.00     0.018 C 
BRANCH  18  19
HETATM   19  C6  UNL     1       6.095  -1.512   0.415  1.00  0.00     0.000 A 
HETATM   20  C5  UNL     1       6.760  -1.076  -0.688  1.00  0.00     0.017 A 
HETATM   21  C4  UNL     1       8.152  -0.864  -0.704  1.00  0.00     0.040 A 
HETATM   22  C3  UNL     1       8.870  -1.099   0.419  1.00  0.00     0.101 A 
HETATM   23  C2  UNL     1       8.235  -1.539   1.554  1.00  0.00     0.135 A 
HETATM   24  C29 UNL     1       6.884  -1.742   1.558  1.00  0.00     0.112 A 
BRANCH  22  25
HETATM   25  O2  UNL     1      10.229  -0.902   0.439  1.00  0.00    -0.358 OA
ATOM     26  H2  UNL     1      10.668  -0.598  -0.346  1.00  0.00     0.217 HD
ENDBRANCH  22  25
BRANCH  23  27
HETATM   27  O1  UNL     1       8.998  -1.770   2.688  1.00  0.00    -0.351 OA
HETATM   28  C1  UNL     1       9.171  -0.674   3.579  1.00  0.00     0.210 C 
ENDBRANCH  23  27
BRANCH  24  29
HETATM   29  O18 UNL     1       6.227  -2.191   2.709  1.00  0.00    -0.357 OA
ATOM     30  H18 UNL     1       5.288  -2.332   2.712  1.00  0.00     0.217 HD
ENDBRANCH  24  29
ENDBRANCH  18  19
ENDBRANCH  15  17
ENDBRANCH  14  15
BRANCH  14  31
HETATM   31  O4  UNL     1       1.900  -1.789  -3.555  1.00  0.00    -0.380 OA
ATOM     32  H4  UNL     1       1.001  -1.885  -3.848  1.00  0.00     0.211 HD
ENDBRANCH  14  31
ENDBRANCH  12  14
ENDBRANCH   1  12
BRANCH   1  33
HETATM   33  O6  UNL     1       0.648   0.160  -3.750  1.00  0.00    -0.371 OA
ATOM     34  H6  UNL     1       0.219   0.830  -4.270  1.00  0.00     0.212 HD
ENDBRANCH   1  33
BRANCH   9  35
HETATM   35  O9  UNL     1      -3.207   1.220  -1.520  1.00  0.00    -0.289 OA
BRANCH  35  36
HETATM   36  C20 UNL     1      -4.085   0.154  -1.595  1.00  0.00     0.428 C 
HETATM   37  O10 UNL     1      -3.741  -0.803  -0.612  1.00  0.00    -0.263 OA
HETATM   38  C21 UNL     1      -4.124  -0.567   0.696  1.00  0.00     0.295 C 
HETATM   39  O11 UNL     1      -3.438  -0.820   1.710  1.00  0.00    -0.262 OA
HETATM   40  C22 UNL     1      -5.462   0.038   0.895  1.00  0.00     0.271 C 
HETATM   41  C26 UNL     1      -5.855   0.924  -0.261  1.00  0.00     0.267 C 
HETATM   42  O16 UNL     1      -5.392   0.548  -1.479  1.00  0.00    -0.319 OA
BRANCH  40  43
HETATM   43  O12 UNL     1      -6.387  -1.057   0.978  1.00  0.00    -0.301 OA
BRANCH  43  44
HETATM   44  C23 UNL     1      -7.107  -1.202   2.131  1.00  0.00     0.290 C 
HETATM   45  O13 UNL     1      -6.947  -0.397   3.070  1.00  0.00    -0.263 OA
BRANCH  44  46
HETATM   46  C24 UNL     1      -8.088  -2.312   2.290  1.00  0.00     0.278 C 
HETATM   47  C25 UNL     1      -9.471  -1.750   2.541  1.00  0.00     0.050 C 
BRANCH  46  48
HETATM   48  N1  UNL     1      -8.164  -3.129   1.103  1.00  0.00    -0.066 N 
ATOM     49  H13 UNL     1      -8.368  -2.567   0.277  1.00  0.00     0.275 HD
ATOM     50  H12 UNL     1      -7.245  -3.480   0.833  1.00  0.00     0.275 HD
ATOM     51  H11 UNL     1      -8.836  -3.889   1.212  1.00  0.00     0.275 HD
ENDBRANCH  46  48
ENDBRANCH  44  46
ENDBRANCH  43  44
ENDBRANCH  40  43
BRANCH  41  52
HETATM   52  C27 UNL     1      -5.672   2.358   0.076  1.00  0.00     0.206 C 
HETATM   53  O14 UNL     1      -6.051   2.783   1.194  1.00  0.00    -0.646 OA
HETATM   54  O15 UNL     1      -5.095   3.257  -0.803  1.00  0.00    -0.646 OA
ENDBRANCH  41  52
ENDBRANCH  35  36
ENDBRANCH   9  35
BRANCH   6  55
HETATM   55  O7  UNL     1      -0.824   5.651   0.068  1.00  0.00    -0.340 OA
ATOM     56  H7  UNL     1      -1.637   6.055   0.348  1.00  0.00     0.220 HD
ENDBRANCH   6  55
TORSDOF 18
