REMARK  19 active torsions:
REMARK  status: ('A' for Active; 'I' for Inactive)
REMARK    1  A    between atoms: N1_2  and  O1_4 
REMARK    2  A    between atoms: O1_4  and  C3_5 
REMARK       I    between atoms: C3_5  and  N2_7 
REMARK    3  A    between atoms: N2_7  and  C4_9 
REMARK    4  A    between atoms: C4_9  and  C5_10 
REMARK    5  A    between atoms: C5_10  and  C6_11 
REMARK    6  A    between atoms: C6_11  and  C7_12 
REMARK    7  A    between atoms: C7_12  and  O3_13 
REMARK    8  A    between atoms: O3_13  and  C8_14 
REMARK       I    between atoms: C8_14  and  N3_16 
REMARK    9  A    between atoms: C10_18  and  N4_19 
REMARK   10  A    between atoms: C12_25  and  N7_26 
REMARK   11  A    between atoms: C15_35  and  N10_36 
REMARK   12  A    between atoms: N10_36  and  C16_38 
REMARK   13  A    between atoms: C16_38  and  N11_39 
REMARK   14  A    between atoms: N11_39  and  C17_41 
REMARK   15  A    between atoms: C17_41  and  O5_42 
REMARK   16  A    between atoms: N12_44  and  O6_46 
REMARK   17  A    between atoms: C22_55  and  C23_56 
REMARK   18  A    between atoms: C23_56  and  O10_57 
REMARK   19  A    between atoms: C23_56  and  N13_59 
ROOT
HETATM    1  C8  UNL     1       0.774   0.473   0.723  1.00  0.00     0.363 C 
HETATM    2  O4  UNL     1       1.525  -0.431   1.190  1.00  0.00    -0.238 OA
HETATM    3  N3  UNL     1      -0.507   0.105   0.172  1.00  0.00    -0.311 N 
HETATM    4  C9  UNL     1      -1.499   1.000  -0.392  1.00  0.00     0.158 C 
HETATM    5  C10 UNL     1      -2.836   0.334  -0.290  1.00  0.00     0.154 C 
HETATM    6  C15 UNL     1      -2.525  -1.034   0.273  1.00  0.00     0.140 C 
HETATM    7  C22 UNL     1      -1.013  -1.210   0.121  1.00  0.00     0.188 C 
ENDROOT
BRANCH   6   8
HETATM    8  N10 UNL     1      -2.853  -1.037   1.668  1.00  0.00    -0.366 N 
ATOM      9  H10 UNL     1      -2.075  -1.168   2.314  1.00  0.00     0.161 HD
BRANCH   8  10
HETATM   10  C16 UNL     1      -4.121  -0.880   2.247  1.00  0.00     0.123 C 
HETATM   11  C18 UNL     1      -4.368   0.144   3.034  1.00  0.00     0.116 A 
HETATM   12  C19 UNL     1      -5.537   0.633   3.801  1.00  0.00     0.243 A 
HETATM   13  C21 UNL     1      -3.606   1.274   3.528  1.00  0.00     0.243 A 
HETATM   14  O7  UNL     1      -6.724   0.193   3.934  1.00  0.00    -0.283 OA
HETATM   15  C20 UNL     1      -4.753   1.755   4.282  1.00  0.00     0.273 A 
HETATM   16  O8  UNL     1      -4.992   2.748   5.053  1.00  0.00    -0.280 OA
HETATM   17  O9  UNL     1      -2.446   1.750   3.424  1.00  0.00    -0.283 OA
BRANCH  10  18
HETATM   18  N11 UNL     1      -5.152  -1.829   1.998  1.00  0.00    -0.306 N 
ATOM     19  H11 UNL     1      -6.062  -1.502   1.674  1.00  0.00     0.171 HD
BRANCH  18  20
HETATM   20  C17 UNL     1      -4.943  -3.222   2.190  1.00  0.00     0.242 C 
HETATM   21  N12 UNL     1      -3.770  -3.746   2.253  1.00  0.00    -0.233 N 
ATOM     22  H12 UNL     1      -2.976  -3.114   2.157  1.00  0.00     0.198 HD
BRANCH  20  23
HETATM   23  O5  UNL     1      -6.045  -4.047   2.319  1.00  0.00    -0.331 OA
ATOM     24  H5  UNL     1      -5.905  -4.978   2.447  1.00  0.00     0.221 HD
ENDBRANCH  20  23
BRANCH  21  25
HETATM   25  O6  UNL     1      -3.491  -5.057   2.435  1.00  0.00    -0.287 OA
ATOM     26  H6  UNL     1      -2.625  -5.444   2.482  1.00  0.00     0.244 HD
ENDBRANCH  21  25
ENDBRANCH  18  20
ENDBRANCH  10  18
ENDBRANCH   8  10
ENDBRANCH   6   8
BRANCH   5  27
HETATM   27  N4  UNL     1      -3.537   0.276  -1.538  1.00  0.00    -0.251 N 
HETATM   28  N5  UNL     1      -3.113  -0.302  -2.638  1.00  0.00    -0.238 N 
HETATM   29  N6  UNL     1      -3.994  -0.178  -3.613  1.00  0.00    -0.279 N 
ATOM     30  H5  UNL     1      -2.219  -0.784  -2.727  1.00  0.00     0.208 HD
HETATM   31  C11 UNL     1      -5.044   0.508  -3.146  1.00  0.00     0.139 A 
ATOM     32  H6  UNL     1      -3.892  -0.543  -4.560  1.00  0.00     0.189 HD
HETATM   33  C12 UNL     1      -6.246   0.937  -3.700  1.00  0.00     0.132 A 
HETATM   34  C14 UNL     1      -4.743   0.795  -1.815  1.00  0.00     0.157 A 
HETATM   35  N8  UNL     1      -7.144   1.634  -2.981  1.00  0.00    -0.337 N 
HETATM   36  C13 UNL     1      -6.817   1.895  -1.687  1.00  0.00     0.183 A 
ATOM     37  H8  UNL     1      -8.025   1.951  -3.386  1.00  0.00     0.168 HD
HETATM   38  N9  UNL     1      -5.665   1.494  -1.124  1.00  0.00    -0.335 N 
ATOM     39  H9  UNL     1      -5.483   1.725  -0.147  1.00  0.00     0.168 HD
BRANCH  33  40
HETATM   40  N7  UNL     1      -6.541   0.677  -4.929  1.00  0.00    -0.383 N 
ATOM     41  H72 UNL     1      -5.860   0.148  -5.474  1.00  0.00     0.157 HD
ATOM     42  H71 UNL     1      -7.422   0.992  -5.335  1.00  0.00     0.157 HD
ENDBRANCH  33  40
ENDBRANCH   5  27
BRANCH   7  43
HETATM   43  C23 UNL     1      -0.664  -2.102  -0.958  1.00  0.00     0.138 C 
BRANCH  43  44
HETATM   44  O10 UNL     1      -1.327  -3.233  -0.912  1.00  0.00    -0.348 OA
ATOM     45  H10 UNL     1      -1.097  -3.820  -1.622  1.00  0.00     0.219 HD
ENDBRANCH  43  44
BRANCH  43  46
HETATM   46  N13 UNL     1       0.222  -2.026  -2.034  1.00  0.00    -0.372 N 
HETATM   47  C24 UNL     1       0.322  -3.189  -2.969  1.00  0.00     0.150 C 
HETATM   48  C25 UNL     1       1.110  -0.954  -2.404  1.00  0.00     0.150 C 
ENDBRANCH  43  46
ENDBRANCH   7  43
BRANCH   1  49
HETATM   49  O3  UNL     1       1.236   1.771   0.773  1.00  0.00    -0.304 OA
BRANCH  49  50
HETATM   50  C7  UNL     1       2.460   2.170   1.298  1.00  0.00     0.180 C 
BRANCH  50  51
HETATM   51  C6  UNL     1       3.666   1.536   0.580  1.00  0.00     0.028 C 
BRANCH  51  52
HETATM   52  C5  UNL     1       3.714   1.892  -0.840  1.00  0.00     0.022 C 
BRANCH  52  53
HETATM   53  C4  UNL     1       4.800   1.289  -1.639  1.00  0.00     0.125 C 
BRANCH  53  54
HETATM   54  N2  UNL     1       6.162   1.490  -1.310  1.00  0.00    -0.335 N 
HETATM   55  C3  UNL     1       6.916   1.030  -0.224  1.00  0.00     0.382 C 
HETATM   56  O2  UNL     1       6.511   0.305   0.694  1.00  0.00    -0.236 OA
ATOM     57  H2  UNL     1       6.680   2.065  -1.974  1.00  0.00     0.164 HD
BRANCH  55  58
HETATM   58  O1  UNL     1       8.272   1.373  -0.080  1.00  0.00    -0.184 OA
BRANCH  58  59
HETATM   59  N1  UNL     1       9.064   0.994   0.900  1.00  0.00    -0.292 N 
HETATM   60  C1  UNL     1       9.903   1.870   1.591  1.00  0.00     0.178 C 
HETATM   61  C2  UNL     1       9.020  -0.328   1.394  1.00  0.00     0.178 C 
ENDBRANCH  58  59
ENDBRANCH  55  58
ENDBRANCH  53  54
ENDBRANCH  52  53
ENDBRANCH  51  52
ENDBRANCH  50  51
ENDBRANCH  49  50
ENDBRANCH   1  49
TORSDOF 19
