REMARK  5 active torsions:
REMARK  status: ('A' for Active; 'I' for Inactive)
REMARK    1  A    between atoms: C4_6  and  C5_7 
REMARK    2  A    between atoms: C5_7  and  C6_8 
REMARK    3  A    between atoms: C6_8  and  N2_9 
REMARK    4  A    between atoms: C9_13  and  C10_14 
REMARK    5  A    between atoms: C10_14  and  C11_15 
ROOT
HETATM    1  N2  UNL     1       1.566  -0.222   1.150  1.00  0.00    -0.376 N 
ATOM      2  H2  UNL     1       1.306   0.280   1.999  1.00  0.00     0.161 HD
HETATM    3  C7  UNL     1       0.729  -1.027   0.568  1.00  0.00     0.103 A 
HETATM    4  C8  UNL     1      -0.530  -1.186   1.133  1.00  0.00     0.073 A 
HETATM    5  C9  UNL     1      -1.419  -2.034   0.521  1.00  0.00     0.018 A 
HETATM    6  N4  UNL     1      -0.992  -2.665  -0.614  1.00  0.00    -0.355 N 
ATOM      7  H4  UNL     1      -1.641  -3.298  -1.082  1.00  0.00     0.166 HD
HETATM    8  C19 UNL     1       0.208  -2.506  -1.142  1.00  0.00     0.182 A 
HETATM    9  N5  UNL     1       1.088  -1.680  -0.554  1.00  0.00    -0.339 N 
ATOM     10  H5  UNL     1       2.018  -1.548  -0.952  1.00  0.00     0.168 HD
ENDROOT
BRANCH   1  11
HETATM   11  C6  UNL     1       2.873  -0.058   0.562  1.00  0.00     0.126 C 
BRANCH  11  12
HETATM   12  C5  UNL     1       3.321   1.386   0.520  1.00  0.00     0.059 C 
BRANCH  12  13
HETATM   13  C4  UNL     1       4.675   1.399  -0.109  1.00  0.00    -0.041 A 
HETATM   14  C3  UNL     1       4.741   1.532  -1.477  1.00  0.00     0.094 A 
HETATM   15  N1  UNL     1       5.941   1.550  -2.090  1.00  0.00    -0.375 N 
HETATM   16  C2  UNL     1       7.080   1.440  -1.386  1.00  0.00     0.087 A 
ATOM     17  H1  UNL     1       5.985   1.649  -3.104  1.00  0.00     0.164 HD
HETATM   18  C1  UNL     1       7.031   1.308  -0.030  1.00  0.00     0.018 A 
HETATM   19  C20 UNL     1       5.827   1.286   0.624  1.00  0.00     0.010 A 
ENDBRANCH  12  13
ENDBRANCH  11  12
ENDBRANCH   1  11
BRANCH   5  20
HETATM   20  C10 UNL     1      -2.777  -2.284   1.014  1.00  0.00     0.098 C 
BRANCH  20  21
HETATM   21  C11 UNL     1      -3.760  -1.438   0.292  1.00  0.00    -0.025 A 
HETATM   22  C12 UNL     1      -4.547  -1.865  -0.780  1.00  0.00     0.096 A 
HETATM   23  N3  UNL     1      -5.286  -0.833  -1.188  1.00  0.00    -0.365 N 
HETATM   24  C13 UNL     1      -5.003   0.253  -0.412  1.00  0.00     0.042 A 
ATOM     25  H3  UNL     1      -5.956  -0.852  -1.957  1.00  0.00     0.165 HD
HETATM   26  C14 UNL     1      -5.480   1.543  -0.406  1.00  0.00     0.030 A 
HETATM   27  C18 UNL     1      -4.035  -0.108   0.537  1.00  0.00    -0.002 A 
HETATM   28  C15 UNL     1      -5.034   2.478   0.501  1.00  0.00     0.002 A 
HETATM   29  C16 UNL     1      -4.097   2.095   1.408  1.00  0.00     0.001 A 
HETATM   30  C17 UNL     1      -3.577   0.815   1.455  1.00  0.00     0.014 A 
ENDBRANCH  20  21
ENDBRANCH   5  20
TORSDOF 5
