REMARK  7 active torsions:
REMARK  status: ('A' for Active; 'I' for Inactive)
REMARK    1  A    between atoms: C2_2  and  N1_4 
REMARK    2  A    between atoms: N1_4  and  C4_6 
REMARK    3  A    between atoms: C10_18  and  N5_19 
REMARK    4  A    between atoms: N5_19  and  C11_21 
REMARK    5  A    between atoms: C11_21  and  C12_22 
REMARK    6  A    between atoms: C12_22  and  C13_23 
REMARK    7  A    between atoms: C13_23  and  C14_24 
ROOT
HETATM    1  C4  UNL     1      -2.022  -0.505   0.101  1.00  0.00     0.147 A 
HETATM    2  N2  UNL     1      -2.889   0.135  -0.697  1.00  0.00    -0.324 N 
ATOM      3  H2  UNL     1      -3.575  -0.408  -1.222  1.00  0.00     0.169 HD
HETATM    4  C5  UNL     1      -2.877   1.470  -0.823  1.00  0.00     0.134 A 
HETATM    5  N3  UNL     1      -3.739   2.132  -1.620  1.00  0.00    -0.350 N 
ATOM      6  H3  UNL     1      -4.441   1.629  -2.163  1.00  0.00     0.166 HD
HETATM    7  C6  UNL     1      -3.651   3.471  -1.682  1.00  0.00     0.090 A 
HETATM    8  C7  UNL     1      -2.721   4.191  -0.969  1.00  0.00     0.019 A 
HETATM    9  C8  UNL     1      -1.839   3.546  -0.158  1.00  0.00     0.035 A 
HETATM   10  C9  UNL     1      -1.915   2.164  -0.081  1.00  0.00     0.078 A 
HETATM   11  N4  UNL     1      -1.040   1.515   0.725  1.00  0.00    -0.337 N 
ATOM     12  H4  UNL     1      -0.350   2.049   1.253  1.00  0.00     0.168 HD
HETATM   13  C10 UNL     1      -1.071   0.187   0.835  1.00  0.00     0.146 A 
ENDROOT
BRANCH  13  14
HETATM   14  N5  UNL     1      -0.259  -0.422   1.584  1.00  0.00    -0.373 N 
ATOM     15  H5  UNL     1      -0.361  -1.437   1.602  1.00  0.00     0.161 HD
BRANCH  14  16
HETATM   16  C11 UNL     1       0.768   0.095   2.399  1.00  0.00     0.121 C 
BRANCH  16  17
HETATM   17  C12 UNL     1       2.169  -0.180   1.833  1.00  0.00     0.024 C 
BRANCH  17  18
HETATM   18  C13 UNL     1       2.307   0.455   0.460  1.00  0.00     0.040 C 
BRANCH  18  19
HETATM   19  C14 UNL     1       3.651   0.211  -0.115  1.00  0.00    -0.058 A 
HETATM   20  C15 UNL     1       4.703   1.080   0.100  1.00  0.00     0.007 A 
HETATM   21  C16 UNL     1       5.961   0.907  -0.404  1.00  0.00     0.001 A 
HETATM   22  C17 UNL     1       6.203  -0.215  -1.182  1.00  0.00     0.000 A 
HETATM   23  C18 UNL     1       5.177  -1.113  -1.423  1.00  0.00     0.001 A 
HETATM   24  C19 UNL     1       3.919  -0.909  -0.900  1.00  0.00     0.007 A 
ENDBRANCH  18  19
ENDBRANCH  17  18
ENDBRANCH  16  17
ENDBRANCH  14  16
ENDBRANCH  13  14
BRANCH   1  25
HETATM   25  N1  UNL     1      -2.054  -1.770   0.204  1.00  0.00    -0.369 N 
ATOM     26  H1  UNL     1      -1.375  -2.210   0.825  1.00  0.00     0.161 HD
BRANCH  25  27
HETATM   27  C2  UNL     1      -2.978  -2.630  -0.490  1.00  0.00     0.075 C 
HETATM   28  C1  UNL     1      -4.364  -2.585   0.073  1.00  0.00     0.031 C 
HETATM   29  C3  UNL     1      -2.494  -4.070  -0.455  1.00  0.00     0.031 C 
ENDBRANCH  25  27
ENDBRANCH   1  25
TORSDOF 7
