REMARK  7 active torsions:
REMARK  status: ('A' for Active; 'I' for Inactive)
REMARK    1  A    between atoms: C2_2  and  C3_3 
REMARK    2  A    between atoms: C7_9  and  N2_10 
REMARK    3  A    between atoms: N2_10  and  C8_12 
REMARK    4  A    between atoms: C8_12  and  C9_13 
REMARK    5  A    between atoms: C9_13  and  C10_14 
REMARK    6  A    between atoms: C10_14  and  N3_15 
REMARK    7  A    between atoms: N3_15  and  C11_17 
ROOT
HETATM    1  C9  UNL     1      -0.474  -3.414   0.573  1.00  0.00     0.040 C 
ENDROOT
BRANCH   1   2
HETATM    2  C8  UNL     1       0.875  -2.840   0.305  1.00  0.00     0.139 C 
BRANCH   2   3
HETATM    3  N2  UNL     1       0.787  -1.425   0.040  1.00  0.00    -0.226 N 
ATOM      4  H2  UNL     1      -0.106  -0.970  -0.148  1.00  0.00     0.177 HD
BRANCH   3   5
HETATM    5  C7  UNL     1       1.912  -0.752   0.053  1.00  0.00     0.678 A 
HETATM    6  N1  UNL     1       3.088  -1.336   0.299  1.00  0.00    -0.196 N 
HETATM    7  C5  UNL     1       4.264  -0.694   0.324  1.00  0.00     0.024 A 
ATOM      8  H1  UNL     1       3.091  -2.340   0.480  1.00  0.00     0.184 HD
HETATM    9  C4  UNL     1       4.245   0.660   0.077  1.00  0.00     0.050 A 
HETATM   10  C6  UNL     1       5.556  -1.365   0.599  1.00  0.00     0.068 C 
HETATM   11  C3  UNL     1       3.027   1.289  -0.181  1.00  0.00     0.028 A 
HETATM   12  N5  UNL     1       1.890   0.576  -0.189  1.00  0.00    -0.196 N 
ATOM     13  H5  UNL     1       1.002   1.041  -0.379  1.00  0.00     0.184 HD
BRANCH  11  14
HETATM   14  C2  UNL     1       3.014   2.769  -0.449  1.00  0.00     0.053 C 
HETATM   15  C1  UNL     1       3.177   2.980  -1.931  1.00  0.00     0.011 C 
ENDBRANCH  11  14
ENDBRANCH   3   5
ENDBRANCH   2   3
ENDBRANCH   1   2
BRANCH   1  16
HETATM   16  C10 UNL     1      -1.094  -2.765   1.766  1.00  0.00     0.123 C 
BRANCH  16  17
HETATM   17  N3  UNL     1      -1.258  -1.362   1.556  1.00  0.00    -0.376 N 
ATOM     18  H3  UNL     1      -0.532  -0.746   1.921  1.00  0.00     0.161 HD
BRANCH  17  19
HETATM   19  C11 UNL     1      -2.240  -0.815   0.948  1.00  0.00     0.101 A 
HETATM   20  C12 UNL     1      -3.251  -1.576   0.430  1.00  0.00     0.049 A 
HETATM   21  C13 UNL     1      -4.331  -0.997  -0.236  1.00  0.00     0.017 A 
HETATM   22  C14 UNL     1      -4.330   0.368  -0.347  1.00  0.00    -0.009 A 
HETATM   23  C15 UNL     1      -5.375   0.982  -0.996  1.00  0.00     0.013 A 
HETATM   24  C19 UNL     1      -3.288   1.115   0.189  1.00  0.00     0.043 A 
HETATM   25  C16 UNL     1      -5.381   2.354  -1.111  1.00  0.00     0.001 A 
HETATM   26  C17 UNL     1      -4.369   3.132  -0.595  1.00  0.00     0.002 A 
HETATM   27  C18 UNL     1      -3.333   2.491   0.051  1.00  0.00     0.030 A 
HETATM   28  N4  UNL     1      -2.266   0.524   0.823  1.00  0.00    -0.342 N 
ATOM     29  H4  UNL     1      -1.510   1.088   1.210  1.00  0.00     0.167 HD
ENDBRANCH  17  19
ENDBRANCH  16  17
ENDBRANCH   1  16
TORSDOF 7
