REMARK  8 active torsions:
REMARK  status: ('A' for Active; 'I' for Inactive)
REMARK    1  A    between atoms: C3_4  and  O2_5 
REMARK    2  A    between atoms: O2_5  and  C4_6 
REMARK    3  A    between atoms: C5_9  and  O5_10 
REMARK    4  A    between atoms: C6_12  and  O6_13 
REMARK    5  A    between atoms: C7_15  and  O7_16 
REMARK    6  A    between atoms: C8_18  and  O8_19 
REMARK    7  A    between atoms: C9_21  and  O9_22 
REMARK    8  A    between atoms: C10_24  and  O10_25 
ROOT
HETATM    1  C1  UNL     1       3.745  -1.777   0.959  1.00  0.00     0.042 C 
HETATM    2  C2  UNL     1       2.699  -0.678   1.137  1.00  0.00     0.152 C 
HETATM    3  O1  UNL     1       1.434  -1.149   1.201  1.00  0.00    -0.351 OA
HETATM    4  C3  UNL     1       0.589  -0.876   0.169  1.00  0.00     0.294 C 
HETATM    5  C8  UNL     1       1.208  -0.779  -1.185  1.00  0.00     0.204 C 
HETATM    6  C9  UNL     1       2.427   0.105  -1.233  1.00  0.00     0.183 C 
HETATM    7  C10 UNL     1       2.952   0.407   0.141  1.00  0.00     0.178 C 
ENDROOT
BRANCH   4   8
HETATM    8  O2  UNL     1      -0.059   0.326   0.438  1.00  0.00    -0.323 OA
BRANCH   8   9
HETATM    9  C4  UNL     1      -1.410   0.125   0.566  1.00  0.00     0.331 C 
HETATM   10  O3  UNL     1      -1.765   0.459   1.887  1.00  0.00    -0.203 OA
HETATM   11  O4  UNL     1      -2.864   1.137   1.960  1.00  0.00    -0.203 OA
HETATM   12  C5  UNL     1      -3.939   0.540   1.299  1.00  0.00     0.325 C 
HETATM   13  C6  UNL     1      -3.682   0.528  -0.201  1.00  0.00     0.209 C 
HETATM   14  C7  UNL     1      -2.235   0.965  -0.387  1.00  0.00     0.210 C 
BRANCH  12  15
HETATM   15  O5  UNL     1      -5.038   1.406   1.507  1.00  0.00    -0.366 OA
ATOM     16  H5  UNL     1      -5.770   1.000   1.057  1.00  0.00     0.212 HD
ENDBRANCH  12  15
BRANCH  13  17
HETATM   17  O6  UNL     1      -3.732  -0.813  -0.611  1.00  0.00    -0.388 OA
ATOM     18  H6  UNL     1      -3.572  -0.820  -1.547  1.00  0.00     0.210 HD
ENDBRANCH  13  17
BRANCH  14  19
HETATM   19  O7  UNL     1      -2.146   2.324  -0.090  1.00  0.00    -0.388 OA
ATOM     20  H7  UNL     1      -2.663   2.851  -0.688  1.00  0.00     0.210 HD
ENDBRANCH  14  19
ENDBRANCH   8   9
ENDBRANCH   4   8
BRANCH   5  21
HETATM   21  O8  UNL     1       1.476  -2.064  -1.685  1.00  0.00    -0.388 OA
ATOM     22  H8  UNL     1       1.870  -2.002  -2.547  1.00  0.00     0.210 HD
ENDBRANCH   5  21
BRANCH   6  23
HETATM   23  O9  UNL     1       2.158   1.315  -1.870  1.00  0.00    -0.390 OA
ATOM     24  H9  UNL     1       2.927   1.872  -1.900  1.00  0.00     0.210 HD
ENDBRANCH   6  23
BRANCH   7  25
HETATM   25  O10 UNL     1       2.518   1.615   0.643  1.00  0.00    -0.390 OA
ATOM     26  H10 UNL     1       2.679   2.305   0.010  1.00  0.00     0.210 HD
ENDBRANCH   7  25
TORSDOF 8
