REMARK  9 active torsions:
REMARK  status: ('A' for Active; 'I' for Inactive)
REMARK    1  A    between atoms: O1_2  and  C2_3 
REMARK    2  A    between atoms: C3_5  and  O3_6 
REMARK    3  A    between atoms: O3_6  and  C4_7 
REMARK    4  A    between atoms: C5_9  and  O5_10 
REMARK    5  A    between atoms: C6_12  and  O6_13 
REMARK    6  A    between atoms: C7_15  and  N1_16 
REMARK    7  A    between atoms: C8_20  and  O7_21 
REMARK    8  A    between atoms: C9_23  and  O8_24 
REMARK    9  A    between atoms: C10_26  and  O9_27 
ROOT
HETATM    1  C2  UNL     1       2.424  -0.659  -0.071  1.00  0.00     0.293 C 
HETATM    2  O2  UNL     1       1.286  -0.603  -0.867  1.00  0.00    -0.326 OA
HETATM    3  C3  UNL     1       0.511   0.460  -0.399  1.00  0.00     0.297 C 
HETATM    4  C8  UNL     1       1.170   1.745  -0.808  1.00  0.00     0.204 C 
HETATM    5  C9  UNL     1       2.640   1.766  -0.681  1.00  0.00     0.185 C 
HETATM    6  C10 UNL     1       3.325   0.465  -0.526  1.00  0.00     0.204 C 
ENDROOT
BRANCH   3   7
HETATM    7  O3  UNL     1      -0.738   0.284  -0.954  1.00  0.00    -0.326 OA
BRANCH   7   8
HETATM    8  C4  UNL     1      -1.755   0.070  -0.042  1.00  0.00     0.299 C 
HETATM    9  O4  UNL     1      -2.592   1.182  -0.164  1.00  0.00    -0.327 OA
HETATM   10  C5  UNL     1      -3.882   0.778  -0.076  1.00  0.00     0.290 C 
HETATM   11  C6  UNL     1      -3.962  -0.687   0.129  1.00  0.00     0.208 C 
HETATM   12  C7  UNL     1      -2.567  -1.146  -0.319  1.00  0.00     0.271 C 
BRANCH  10  13
HETATM   13  O5  UNL     1      -4.501   1.490   0.977  1.00  0.00    -0.368 OA
ATOM     14  H5  UNL     1      -5.406   1.207   1.039  1.00  0.00     0.212 HD
ENDBRANCH  10  13
BRANCH  11  15
HETATM   15  O6  UNL     1      -4.024  -0.929   1.510  1.00  0.00    -0.388 OA
ATOM     16  H6  UNL     1      -4.075  -1.868   1.641  1.00  0.00     0.210 HD
ENDBRANCH  11  15
BRANCH  12  17
HETATM   17  N1  UNL     1      -2.254  -2.287   0.465  1.00  0.00    -0.068 N 
ATOM     18  H13 UNL     1      -1.261  -2.505   0.381  1.00  0.00     0.275 HD
ATOM     19  H12 UNL     1      -2.305  -2.053   1.456  1.00  0.00     0.275 HD
ATOM     20  H11 UNL     1      -2.811  -3.120   0.275  1.00  0.00     0.275 HD
ENDBRANCH  12  17
ENDBRANCH   7   8
ENDBRANCH   3   7
BRANCH   4  21
HETATM   21  O7  UNL     1       0.653   2.749   0.044  1.00  0.00    -0.388 OA
ATOM     22  H7  UNL     1       1.070   3.562  -0.215  1.00  0.00     0.210 HD
ENDBRANCH   4  21
BRANCH   1  23
HETATM   23  O1  UNL     1       3.054  -1.873  -0.352  1.00  0.00    -0.363 OA
HETATM   24  C1  UNL     1       3.223  -2.624   0.830  1.00  0.00     0.204 C 
ENDBRANCH   1  23
BRANCH   5  25
HETATM   25  O8  UNL     1       3.070   2.604   0.377  1.00  0.00    -0.390 OA
ATOM     26  H8  UNL     1       4.016   2.618   0.459  1.00  0.00     0.210 HD
ENDBRANCH   5  25
BRANCH   6  27
HETATM   27  O9  UNL     1       3.892   0.039  -1.750  1.00  0.00    -0.388 OA
ATOM     28  H9  UNL     1       4.459   0.746  -2.036  1.00  0.00     0.210 HD
ENDBRANCH   6  27
TORSDOF 9
