REMARK  8 active torsions:
REMARK  status: ('A' for Active; 'I' for Inactive)
REMARK    1  A    between atoms: C2_2  and  C3_3 
REMARK    2  A    between atoms: C3_3  and  C4_4 
REMARK    3  A    between atoms: C4_4  and  C5_5 
REMARK    4  A    between atoms: C7_10  and  C8_11 
REMARK    5  A    between atoms: C8_11  and  O2_13 
REMARK    6  A    between atoms: O2_13  and  C9_14 
REMARK    7  A    between atoms: C9_14  and  C10_15 
REMARK       I    between atoms: C10_15  and  N3_17 
REMARK       I    between atoms: N3_17  and  C11_19 
REMARK       I    between atoms: C11_19  and  N4_21 
REMARK    8  A    between atoms: N4_21  and  C12_23 
ROOT
HETATM    1  C8  UNL     1      -2.016  -0.175  -1.634  1.00  0.00     0.298 C 
HETATM    2  O1  UNL     1      -1.044   0.048  -2.395  1.00  0.00    -0.259 OA
ENDROOT
BRANCH   1   3
HETATM    3  C7  UNL     1      -3.159   0.740  -1.581  1.00  0.00     0.098 A 
HETATM    4  C5  UNL     1      -4.283   0.634  -0.800  1.00  0.00     0.045 A 
HETATM    5  N1  UNL     1      -5.047   1.692  -1.129  1.00  0.00    -0.297 N 
HETATM    6  N2  UNL     1      -4.446   2.437  -2.071  1.00  0.00    -0.260 N 
ATOM      7  H1  UNL     1      -5.958   1.900  -0.719  1.00  0.00     0.187 HD
HETATM    8  C6  UNL     1      -3.276   1.867  -2.365  1.00  0.00     0.111 A 
HETATM    9  C20 UNL     1      -4.900   3.623  -2.689  1.00  0.00     0.114 A 
HETATM   10  S1  UNL     1      -2.176   2.560  -3.575  1.00  0.00    -0.105 SA
HETATM   11  C18 UNL     1      -2.955   4.048  -4.223  1.00  0.00     0.109 A 
HETATM   12  C19 UNL     1      -4.266   4.303  -3.600  1.00  0.00     0.003 A 
BRANCH   4  13
HETATM   13  C4  UNL     1      -4.640  -0.360   0.221  1.00  0.00     0.060 C 
BRANCH  13  14
HETATM   14  C3  UNL     1      -4.017  -0.141   1.563  1.00  0.00     0.006 C 
BRANCH  14  15
HETATM   15  C2  UNL     1      -4.450  -1.205   2.547  1.00  0.00    -0.004 C 
HETATM   16  C1  UNL     1      -4.052  -2.571   2.111  1.00  0.00     0.005 C 
ENDBRANCH  14  15
ENDBRANCH  13  14
ENDBRANCH   4  13
ENDBRANCH   1   3
BRANCH   1  17
HETATM   17  O2  UNL     1      -1.974  -1.296  -0.860  1.00  0.00    -0.308 OA
BRANCH  17  18
HETATM   18  C9  UNL     1      -0.975  -2.259  -0.786  1.00  0.00     0.282 C 
BRANCH  18  19
HETATM   19  C10 UNL     1       0.340  -1.756  -0.327  1.00  0.00     0.249 C 
HETATM   20  O3  UNL     1       0.422  -0.554  -0.032  1.00  0.00    -0.271 OA
HETATM   21  N3  UNL     1       1.435  -2.621  -0.236  1.00  0.00    -0.277 N 
HETATM   22  C11 UNL     1       2.745  -2.375   0.154  1.00  0.00     0.323 C 
ATOM     23  H3  UNL     1       1.240  -3.587  -0.498  1.00  0.00     0.173 HD
HETATM   24  O4  UNL     1       3.566  -3.375   0.142  1.00  0.00    -0.247 OA
HETATM   25  N4  UNL     1       3.247  -1.126   0.561  1.00  0.00    -0.338 N 
ATOM     26  H4  UNL     1       2.616  -0.325   0.579  1.00  0.00     0.164 HD
BRANCH  25  27
HETATM   27  C12 UNL     1       4.639  -0.936   0.958  1.00  0.00     0.086 C 
HETATM   28  C13 UNL     1       4.787  -0.397   2.340  1.00  0.00     0.025 C 
HETATM   29  C14 UNL     1       5.586   0.888   2.411  1.00  0.00     0.002 C 
HETATM   30  C15 UNL     1       6.939   0.732   1.744  1.00  0.00     0.000 C 
HETATM   31  C16 UNL     1       6.817   0.019   0.412  1.00  0.00     0.002 C 
HETATM   32  C17 UNL     1       5.353  -0.027  -0.036  1.00  0.00     0.025 C 
ENDBRANCH  25  27
ENDBRANCH  18  19
ENDBRANCH  17  18
ENDBRANCH   1  17
TORSDOF 8
