REMARK  10 active torsions:
REMARK  status: ('A' for Active; 'I' for Inactive)
REMARK    1  A    between atoms: C2_2  and  C4_4 
REMARK    2  A    between atoms: C5_5  and  C6_6 
REMARK    3  A    between atoms: C6_6  and  O1_7 
REMARK    4  A    between atoms: C10_13  and  C11_14 
REMARK    5  A    between atoms: C11_14  and  O3_15 
REMARK    6  A    between atoms: O3_15  and  C12_16 
REMARK    7  A    between atoms: C12_16  and  C13_18 
REMARK    8  A    between atoms: C13_18  and  C14_19 
REMARK    9  A    between atoms: C20_26  and  C21_27 
REMARK   10  A    between atoms: C23_30  and  O7_31 
ROOT
HETATM    1  C6  UNL     1       1.425   1.576   0.368  1.00  0.00     0.141 C 
HETATM    2  C7  UNL     1       0.764   2.408  -0.666  1.00  0.00     0.126 C 
HETATM    3  C8  UNL     1      -0.439   1.827  -1.275  1.00  0.00     0.133 C 
HETATM    4  O2  UNL     1      -1.215   2.574  -1.846  1.00  0.00    -0.298 OA
HETATM    5  C9  UNL     1      -0.769   0.384  -1.239  1.00  0.00     0.124 C 
HETATM    6  C10 UNL     1      -0.436  -0.119   0.141  1.00  0.00     0.149 C 
HETATM    7  O5  UNL     1      -0.741  -1.424   0.241  1.00  0.00    -0.359 OA
HETATM    8  C17 UNL     1       0.206  -2.366  -0.077  1.00  0.00     0.081 C 
HETATM    9  C18 UNL     1       0.398  -3.221   1.154  1.00  0.00     0.048 C 
HETATM   10  C19 UNL     1      -0.530  -3.275  -1.087  1.00  0.00     0.048 C 
HETATM   11  C20 UNL     1       1.433  -1.876  -0.712  1.00  0.00     0.159 C 
HETATM   12  O6  UNL     1       1.756  -0.551  -0.501  1.00  0.00    -0.341 OA
HETATM   13  C23 UNL     1       1.011   0.135   0.404  1.00  0.00     0.233 C 
ENDROOT
BRANCH   6  14
HETATM   14  C11 UNL     1      -1.262   0.646   1.146  1.00  0.00     0.223 C 
BRANCH  14  15
HETATM   15  O3  UNL     1      -2.666   0.460   0.894  1.00  0.00    -0.318 OA
BRANCH  15  16
HETATM   16  C12 UNL     1      -3.612   1.074   1.703  1.00  0.00     0.259 C 
HETATM   17  O4  UNL     1      -3.154   1.784   2.643  1.00  0.00    -0.265 OA
BRANCH  16  18
HETATM   18  C13 UNL     1      -5.064   0.962   1.550  1.00  0.00     0.115 C 
BRANCH  18  19
HETATM   19  C14 UNL     1      -5.448   0.079   0.367  1.00  0.00    -0.013 C 
HETATM   20  C15 UNL     1      -4.866   0.702  -0.878  1.00  0.00     0.010 C 
HETATM   21  C16 UNL     1      -6.949   0.048   0.191  1.00  0.00     0.010 C 
ENDBRANCH  18  19
ENDBRANCH  16  18
ENDBRANCH  15  16
ENDBRANCH  14  15
ENDBRANCH   6  14
BRANCH  13  22
HETATM   22  O7  UNL     1       1.378  -0.333   1.689  1.00  0.00    -0.360 OA
ATOM     23  H7  UNL     1       1.116  -1.246   1.712  1.00  0.00     0.213 HD
ENDBRANCH  13  22
BRANCH   1  24
HETATM   24  C5  UNL     1       2.895   1.610   0.126  1.00  0.00     0.017 C 
HETATM   25  C4  UNL     1       3.522   2.707  -0.262  1.00  0.00     0.005 C 
BRANCH  25  26
HETATM   26  C2  UNL     1       4.940   2.750  -0.498  1.00  0.00    -0.072 C 
HETATM   27  C1  UNL     1       5.548   3.860  -0.888  1.00  0.00     0.018 C 
HETATM   28  C3  UNL     1       5.762   1.527  -0.305  1.00  0.00     0.047 C 
ENDBRANCH  25  26
ENDBRANCH   1  24
BRANCH   1  29
HETATM   29  O1  UNL     1       1.251   2.108   1.659  1.00  0.00    -0.380 OA
ATOM     30  H1  UNL     1       0.314   2.086   1.813  1.00  0.00     0.211 HD
ENDBRANCH   1  29
BRANCH  11  31
HETATM   31  C21 UNL     1       2.699  -2.657  -0.403  1.00  0.00     0.030 C 
HETATM   32  C22 UNL     1       2.649  -4.087  -0.813  1.00  0.00     0.007 C 
ENDBRANCH  11  31
TORSDOF 10
