REMARK  14 active torsions:
REMARK  status: ('A' for Active; 'I' for Inactive)
REMARK    1  A    between atoms: C9_9  and  O1_10 
REMARK    2  A    between atoms: C10_12  and  C11_13 
REMARK    3  A    between atoms: C11_13  and  C12_14 
REMARK    4  A    between atoms: C12_14  and  C13_15 
REMARK    5  A    between atoms: C14_18  and  O3_19 
REMARK    6  A    between atoms: C17_26  and  O7_27 
REMARK    7  A    between atoms: O7_27  and  C18_28 
REMARK    8  A    between atoms: C18_28  and  C19_29 
REMARK    9  A    between atoms: C19_29  and  O8_30 
REMARK   10  A    between atoms: C19_29  and  C20_32 
REMARK   11  A    between atoms: C20_32  and  O9_33 
REMARK   12  A    between atoms: C22_37  and  C23_38 
REMARK   13  A    between atoms: C23_38  and  O11_39 
REMARK   14  A    between atoms: C24_41  and  O12_42 
ROOT
HETATM    1  C1  UNL     1       0.506  -3.140  -0.125  1.00  0.00     0.020 C 
HETATM    2  C2  UNL     1      -0.146  -2.214  -0.743  1.00  0.00    -0.024 C 
HETATM    3  C3  UNL     1      -1.192  -2.930  -1.623  1.00  0.00     0.040 C 
HETATM    4  C4  UNL     1      -2.481  -2.641  -0.936  1.00  0.00     0.019 C 
HETATM    5  C5  UNL     1      -2.872  -1.214  -0.832  1.00  0.00     0.019 C 
HETATM    6  C6  UNL     1      -4.303  -1.195  -1.354  1.00  0.00     0.021 C 
HETATM    7  C7  UNL     1      -2.828  -0.676   0.595  1.00  0.00     0.033 C 
HETATM    8  C8  UNL     1      -2.927  -1.655   1.658  1.00  0.00     0.014 C 
HETATM    9  C9  UNL     1      -1.796   0.383   0.625  1.00  0.00     0.108 C 
HETATM   10  C10 UNL     1      -2.137   1.103  -0.653  1.00  0.00     0.087 C 
HETATM   11  C14 UNL     1      -2.097  -0.183  -1.547  1.00  0.00     0.180 C 
HETATM   12  O4  UNL     1      -0.782  -0.302  -1.773  1.00  0.00    -0.310 OA
HETATM   13  C15 UNL     1       0.011  -0.777  -0.681  1.00  0.00     0.228 C 
HETATM   14  O5  UNL     1       1.242  -0.304  -1.112  1.00  0.00    -0.324 OA
HETATM   15  C16 UNL     1       2.225  -1.066  -1.518  1.00  0.00     0.347 C 
HETATM   16  O6  UNL     1       3.265  -1.222  -0.583  1.00  0.00    -0.314 OA
HETATM   17  C17 UNL     1       3.529  -0.111   0.173  1.00  0.00     0.414 C 
HETATM   18  O10 UNL     1       2.406   0.479   0.768  1.00  0.00    -0.338 OA
HETATM   19  C21 UNL     1       1.861  -0.255   1.772  1.00  0.00     0.183 C 
HETATM   20  C22 UNL     1       0.353  -0.387   1.770  1.00  0.00     0.076 C 
HETATM   21  C24 UNL     1      -0.347   0.002   0.539  1.00  0.00     0.158 C 
ENDROOT
BRANCH  17  22
HETATM   22  O7  UNL     1       4.299   0.838  -0.491  1.00  0.00    -0.336 OA
BRANCH  22  23
HETATM   23  C18 UNL     1       5.526   0.995   0.118  1.00  0.00     0.207 C 
BRANCH  23  24
HETATM   24  C19 UNL     1       6.393  -0.217   0.149  1.00  0.00     0.165 C 
BRANCH  24  25
HETATM   25  O8  UNL     1       7.582   0.146   0.805  1.00  0.00    -0.391 OA
ATOM     26  H8  UNL     1       8.135  -0.626   0.825  1.00  0.00     0.210 HD
ENDBRANCH  24  25
BRANCH  24  27
HETATM   27  C20 UNL     1       6.761  -0.566  -1.288  1.00  0.00     0.198 C 
BRANCH  27  28
HETATM   28  O9  UNL     1       7.338   0.597  -1.836  1.00  0.00    -0.398 OA
ATOM     29  H9  UNL     1       7.567   0.379  -2.732  1.00  0.00     0.209 HD
ENDBRANCH  27  28
ENDBRANCH  24  27
ENDBRANCH  23  24
ENDBRANCH  22  23
ENDBRANCH  17  22
BRANCH  20  30
HETATM   30  C23 UNL     1      -0.047   0.255   3.068  1.00  0.00     0.174 C 
BRANCH  30  31
HETATM   31  O11 UNL     1       0.345   1.578   3.229  1.00  0.00    -0.400 OA
ATOM     32  H11 UNL     1       0.092   1.984   4.050  1.00  0.00     0.209 HD
ENDBRANCH  30  31
ENDBRANCH  20  30
BRANCH  21  33
HETATM   33  O12 UNL     1       0.207   1.315   0.341  1.00  0.00    -0.380 OA
ATOM     34  H12 UNL     1       1.124   1.074   0.287  1.00  0.00     0.211 HD
ENDBRANCH  21  33
BRANCH   9  35
HETATM   35  O1  UNL     1      -2.050   1.316   1.610  1.00  0.00    -0.386 OA
ATOM     36  H1  UNL     1      -1.387   1.996   1.629  1.00  0.00     0.210 HD
ENDBRANCH   9  35
BRANCH  11  37
HETATM   37  O3  UNL     1      -2.676   0.242  -2.752  1.00  0.00    -0.364 OA
ATOM     38  H3  UNL     1      -2.177   0.906  -3.213  1.00  0.00     0.213 HD
ENDBRANCH  11  37
BRANCH  10  39
HETATM   39  C11 UNL     1      -3.345   1.866  -0.833  1.00  0.00     0.022 C 
BRANCH  39  40
HETATM   40  C12 UNL     1      -3.610   3.048   0.052  1.00  0.00     0.100 C 
BRANCH  40  41
HETATM   41  C13 UNL     1      -4.880   3.745  -0.373  1.00  0.00     0.231 C 
HETATM   42  N1  UNL     1      -5.384   4.885   0.271  1.00  0.00    -0.062 NA
HETATM   43  O2  UNL     1      -5.492   3.259  -1.350  1.00  0.00    -0.277 OA
ENDBRANCH  40  41
ENDBRANCH  39  40
ENDBRANCH  10  39
TORSDOF 14
