REMARK  6 active torsions:
REMARK  status: ('A' for Active; 'I' for Inactive)
REMARK    1  A    between atoms: C2_2  and  N1_5 
REMARK    2  A    between atoms: C5_12  and  C6_13 
REMARK    3  A    between atoms: C6_13  and  N5_14 
REMARK    4  A    between atoms: C6_13  and  C12_28 
REMARK    5  A    between atoms: N5_14  and  N6_16 
REMARK       I    between atoms: N6_16  and  C7_18 
REMARK    6  A    between atoms: C7_18  and  C8_20 
ROOT
HETATM    1  C6  UNL     1      -0.644   0.534  -0.822  1.00  0.00     0.219 C 
ENDROOT
BRANCH   1   2
HETATM    2  C5  UNL     1      -0.603  -0.216   0.451  1.00  0.00     0.146 A 
HETATM    3  N1  UNL     1      -1.475  -1.119   0.916  1.00  0.00    -0.252 N 
HETATM    4  N2  UNL     1      -0.962  -1.451   2.115  1.00  0.00    -0.224 N 
HETATM    5  N3  UNL     1       0.138  -0.809   2.371  1.00  0.00    -0.227 N 
ATOM      6  H2  UNL     1      -1.387  -2.128   2.749  1.00  0.00     0.210 HD
HETATM    7  N4  UNL     1       0.382  -0.036   1.354  1.00  0.00    -0.270 N 
ATOM      8  H3  UNL     1       0.706  -0.895   3.214  1.00  0.00     0.210 HD
ATOM      9  H4  UNL     1       1.178   0.595   1.257  1.00  0.00     0.190 HD
BRANCH   3  10
HETATM   10  C2  UNL     1      -2.661  -1.668   0.343  1.00  0.00     0.046 C 
HETATM   11  C1  UNL     1      -2.356  -2.637  -0.805  1.00  0.00     0.040 C 
HETATM   12  C3  UNL     1      -3.740  -0.700  -0.016  1.00  0.00     0.040 C 
HETATM   13  C4  UNL     1      -3.300  -2.610   1.386  1.00  0.00     0.040 C 
ENDBRANCH   3  10
ENDBRANCH   1   2
BRANCH   1  14
HETATM   14  N5  UNL     1       0.544   0.353  -1.607  1.00  0.00    -0.316 N 
ATOM     15  H5  UNL     1       0.475   0.165  -2.607  1.00  0.00     0.181 HD
BRANCH  14  16
HETATM   16  N6  UNL     1       1.755   0.434  -1.011  1.00  0.00    -0.268 N 
HETATM   17  C7  UNL     1       2.601  -0.709  -1.005  1.00  0.00     0.287 C 
HETATM   18  O1  UNL     1       2.204  -1.799  -1.569  1.00  0.00    -0.264 OA
ATOM     19  H6  UNL     1       2.058   1.303  -0.572  1.00  0.00     0.190 HD
BRANCH  17  20
HETATM   20  C8  UNL     1       3.923  -0.768  -0.398  1.00  0.00     0.117 A 
HETATM   21  C9  UNL     1       4.401   0.346   0.249  1.00  0.00     0.122 A 
HETATM   22  N7  UNL     1       5.641   0.267   0.809  1.00  0.00    -0.372 N 
HETATM   23  C10 UNL     1       6.361  -0.869   0.722  1.00  0.00     0.104 A 
ATOM     24  H7  UNL     1       6.027   1.074   1.298  1.00  0.00     0.164 HD
HETATM   25  C11 UNL     1       5.870  -1.976   0.071  1.00  0.00     0.105 A 
HETATM   26  N8  UNL     1       4.657  -1.917  -0.483  1.00  0.00    -0.359 N 
ATOM     27  H8  UNL     1       4.278  -2.730  -0.970  1.00  0.00     0.165 HD
ENDBRANCH  17  20
ENDBRANCH  14  16
ENDBRANCH   1  14
BRANCH   1  28
HETATM   28  C12 UNL     1      -0.832   1.999  -0.645  1.00  0.00     0.041 A 
HETATM   29  C13 UNL     1      -2.031   2.630  -0.898  1.00  0.00     0.027 A 
HETATM   30  C14 UNL     1      -2.149   3.989  -0.706  1.00  0.00     0.003 A 
HETATM   31  C15 UNL     1      -1.084   4.742  -0.262  1.00  0.00     0.017 A 
HETATM   32  C16 UNL     1       0.112   4.095  -0.012  1.00  0.00     0.088 A 
HETATM   33  N9  UNL     1       0.171   2.773  -0.215  1.00  0.00    -0.367 N 
ATOM     34  H9  UNL     1       1.062   2.314  -0.024  1.00  0.00     0.165 HD
ENDBRANCH   1  28
TORSDOF 6
