REMARK  6 active torsions:
REMARK  status: ('A' for Active; 'I' for Inactive)
REMARK    1  A    between atoms: N1_1  and  S1_4 
REMARK    2  A    between atoms: S1_4  and  C1_7 
REMARK    3  A    between atoms: C2_8  and  N2_9 
REMARK    4  A    between atoms: C4_13  and  N3_14 
REMARK    5  A    between atoms: C5_17  and  C6_18 
REMARK    6  A    between atoms: C10_26  and  O7_27 
ROOT
HETATM    1  C1  UNL     1      -1.649   0.138   0.396  1.00  0.00     0.146 A 
HETATM    2  C2  UNL     1      -1.889  -1.203   0.410  1.00  0.00     0.131 A 
HETATM    3  C3  UNL     1      -0.781  -2.044   0.167  1.00  0.00     0.074 A 
HETATM    4  C4  UNL     1       0.486  -1.564  -0.075  1.00  0.00     0.119 A 
HETATM    5  C5  UNL     1       0.728  -0.210  -0.091  1.00  0.00     0.043 A 
HETATM    6  C10 UNL     1      -0.343   0.622   0.145  1.00  0.00     0.105 A 
ENDROOT
BRANCH   5   7
HETATM    7  C6  UNL     1       2.058   0.377  -0.346  1.00  0.00    -0.002 A 
HETATM    8  C7  UNL     1       2.988   0.422   0.672  1.00  0.00     0.032 A 
HETATM    9  C8  UNL     1       4.233   0.969   0.474  1.00  0.00     0.108 A 
HETATM   10  N4  UNL     1       4.525   1.455  -0.724  1.00  0.00    -0.312 N 
HETATM   11  N5  UNL     1       3.642   1.418  -1.706  1.00  0.00    -0.311 N 
ATOM     12  H4  UNL     1       5.445   1.863  -0.890  1.00  0.00     0.186 HD
HETATM   13  C9  UNL     1       2.403   0.892  -1.567  1.00  0.00     0.119 A 
ATOM     14  H5  UNL     1       3.907   1.804  -2.612  1.00  0.00     0.186 HD
ENDBRANCH   5   7
BRANCH   4  15
HETATM   15  N3  UNL     1       1.577  -2.464  -0.305  1.00  0.00    -0.115 N 
HETATM   16  O5  UNL     1       1.558  -3.596   0.187  1.00  0.00    -0.532 OA
HETATM   17  O6  UNL     1       2.651  -2.105  -1.061  1.00  0.00    -0.532 OA
ENDBRANCH   4  15
BRANCH   6  18
HETATM   18  O7  UNL     1      -0.133   1.982   0.137  1.00  0.00    -0.358 OA
ATOM     19  H7  UNL     1       0.744   2.307  -0.031  1.00  0.00     0.217 HD
ENDBRANCH   6  18
BRANCH   1  20
HETATM   20  S1  UNL     1      -2.888   1.311   0.731  1.00  0.00     0.262 S 
HETATM   21  O1  UNL     1      -3.654   1.035   1.968  1.00  0.00    -0.201 OA
HETATM   22  O2  UNL     1      -2.211   2.700   0.923  1.00  0.00    -0.201 OA
BRANCH  20  23
HETATM   23  N1  UNL     1      -3.965   1.569  -0.582  1.00  0.00    -0.324 N 
ATOM     24  H12 UNL     1      -4.981   1.534  -0.505  1.00  0.00     0.169 HD
ATOM     25  H11 UNL     1      -3.437   1.759  -1.434  1.00  0.00     0.169 HD
ENDBRANCH  20  23
ENDBRANCH   1  20
BRANCH   2  26
HETATM   26  N2  UNL     1      -3.157  -1.793   0.587  1.00  0.00    -0.114 N 
HETATM   27  O3  UNL     1      -3.319  -2.912  -0.031  1.00  0.00    -0.532 OA
HETATM   28  O4  UNL     1      -4.237  -1.404   1.279  1.00  0.00    -0.532 OA
ENDBRANCH   2  26
TORSDOF 6
