REMARK  14 active torsions:
REMARK  status: ('A' for Active; 'I' for Inactive)
REMARK    1  A    between atoms: N1_1  and  C1_5 
REMARK    2  A    between atoms: C1_5  and  C2_6 
REMARK    3  A    between atoms: C2_6  and  C3_7 
REMARK    4  A    between atoms: C3_7  and  C4_8 
REMARK    5  A    between atoms: C4_8  and  C5_9 
REMARK    6  A    between atoms: C5_9  and  C6_10 
REMARK    7  A    between atoms: C6_10  and  C7_11 
REMARK    8  A    between atoms: C7_11  and  C8_12 
REMARK    9  A    between atoms: C8_12  and  O1_13 
REMARK   10  A    between atoms: O1_13  and  C9_14 
REMARK   11  A    between atoms: C12_17  and  N2_18 
REMARK   12  A    between atoms: N2_18  and  C13_19 
REMARK   13  A    between atoms: C18_26  and  C19_27 
REMARK   14  A    between atoms: C19_27  and  N4_28 
ROOT
HETATM    1  C9  UNL     1      -0.340  -0.671   0.704  1.00  0.00     0.069 A 
HETATM    2  C10 UNL     1       0.195   0.164  -0.250  1.00  0.00     0.040 A 
HETATM    3  C11 UNL     1       1.370   0.821  -0.021  1.00  0.00     0.047 A 
HETATM    4  C12 UNL     1       2.084   0.680   1.186  1.00  0.00     0.107 A 
HETATM    5  C23 UNL     1       1.523  -0.171   2.141  1.00  0.00     0.047 A 
HETATM    6  C24 UNL     1       0.354  -0.806   1.875  1.00  0.00     0.040 A 
ENDROOT
BRANCH   4   7
HETATM    7  N2  UNL     1       3.214   1.348   1.336  1.00  0.00    -0.405 NA
BRANCH   7   8
HETATM    8  C13 UNL     1       4.323   1.759   1.349  1.00  0.00     0.121 A 
HETATM    9  C14 UNL     1       4.600   2.997   1.975  1.00  0.00     0.062 A 
HETATM   10  C15 UNL     1       5.883   3.476   1.984  1.00  0.00     0.091 A 
HETATM   11  N3  UNL     1       6.893   2.806   1.414  1.00  0.00    -0.365 N 
HETATM   12  C16 UNL     1       6.704   1.629   0.805  1.00  0.00     0.046 A 
ATOM     13  H3  UNL     1       7.832   3.203   1.445  1.00  0.00     0.165 HD
HETATM   14  C17 UNL     1       7.747   0.939   0.219  1.00  0.00     0.039 A 
HETATM   15  C22 UNL     1       5.426   1.118   0.778  1.00  0.00     0.031 A 
HETATM   16  C18 UNL     1       7.530  -0.261  -0.397  1.00  0.00    -0.031 A 
HETATM   17  C20 UNL     1       6.245  -0.753  -0.412  1.00  0.00     0.010 A 
HETATM   18  C21 UNL     1       5.169  -0.100   0.161  1.00  0.00     0.018 A 
BRANCH  16  19
HETATM   19  C19 UNL     1       8.655  -1.013  -1.033  1.00  0.00     0.268 C 
BRANCH  19  20
HETATM   20  N4  UNL     1       8.130  -2.215  -1.642  1.00  0.00    -0.075 N 
ATOM     21  H43 UNL     1       7.603  -2.787  -0.982  1.00  0.00     0.274 HD
ATOM     22  H42 UNL     1       7.373  -2.020  -2.297  1.00  0.00     0.274 HD
ATOM     23  H41 UNL     1       8.897  -2.728  -2.076  1.00  0.00     0.274 HD
ENDBRANCH  19  20
ENDBRANCH  16  19
ENDBRANCH   7   8
ENDBRANCH   4   7
BRANCH   1  24
HETATM   24  O1  UNL     1      -1.525  -1.336   0.478  1.00  0.00    -0.351 OA
BRANCH  24  25
HETATM   25  C8  UNL     1      -2.251  -1.200  -0.743  1.00  0.00     0.175 C 
BRANCH  25  26
HETATM   26  C7  UNL     1      -3.498  -2.017  -0.731  1.00  0.00     0.027 C 
BRANCH  26  27
HETATM   27  C6  UNL     1      -4.481  -1.683   0.335  1.00  0.00     0.002 C 
BRANCH  27  28
HETATM   28  C5  UNL     1      -4.985  -0.271   0.277  1.00  0.00     0.000 C 
BRANCH  28  29
HETATM   29  C4  UNL     1      -5.678   0.052  -1.019  1.00  0.00     0.000 C 
BRANCH  29  30
HETATM   30  C3  UNL     1      -6.865  -0.770  -1.330  1.00  0.00     0.002 C 
BRANCH  30  31
HETATM   31  C2  UNL     1      -8.018  -0.739  -0.409  1.00  0.00     0.027 C 
BRANCH  31  32
HETATM   32  C1  UNL     1      -8.722   0.558  -0.221  1.00  0.00     0.229 C 
BRANCH  32  33
HETATM   33  N1  UNL     1      -8.004   1.646   0.302  1.00  0.00    -0.079 N 
ATOM     34  H13 UNL     1      -7.582   1.368   1.188  1.00  0.00     0.274 HD
ATOM     35  H12 UNL     1      -7.175   1.801  -0.272  1.00  0.00     0.274 HD
ATOM     36  H11 UNL     1      -8.487   2.535   0.431  1.00  0.00     0.274 HD
ENDBRANCH  32  33
ENDBRANCH  31  32
ENDBRANCH  30  31
ENDBRANCH  29  30
ENDBRANCH  28  29
ENDBRANCH  27  28
ENDBRANCH  26  27
ENDBRANCH  25  26
ENDBRANCH  24  25
ENDBRANCH   1  24
TORSDOF 14
