REMARK  11 active torsions:
REMARK  status: ('A' for Active; 'I' for Inactive)
REMARK    1  A    between atoms: C4_4  and  O1_5 
REMARK    2  A    between atoms: O1_5  and  C5_6 
REMARK    3  A    between atoms: C5_6  and  C6_7 
REMARK    4  A    between atoms: C6_7  and  C7_8 
REMARK    5  A    between atoms: C7_8  and  N1_9 
REMARK    6  A    between atoms: N1_9  and  C8_11 
REMARK    7  A    between atoms: C8_11  and  C9_12 
REMARK    8  A    between atoms: C9_12  and  C10_13 
REMARK    9  A    between atoms: C10_13  and  C11_14 
REMARK   10  A    between atoms: C11_14  and  N2_15 
REMARK   11  A    between atoms: N2_15  and  C12_17 
ROOT
HETATM    1  C11 UNL     1      -0.925   1.138  -0.931  1.00  0.00     0.120 C 
ENDROOT
BRANCH   1   2
HETATM    2  C10 UNL     1      -0.482   1.020   0.509  1.00  0.00     0.025 C 
BRANCH   2   3
HETATM    3  C9  UNL     1       0.465   2.075   0.926  1.00  0.00     0.046 C 
BRANCH   3   4
HETATM    4  C8  UNL     1       1.754   2.260   0.264  1.00  0.00     0.055 C 
BRANCH   4   5
HETATM    5  N1  UNL     1       2.774   1.301   0.280  1.00  0.00    -0.402 N 
ATOM      6  H1  UNL     1       3.629   1.475   0.808  1.00  0.00     0.158 HD
BRANCH   5   7
HETATM    7  C7  UNL     1       2.621   0.110  -0.424  1.00  0.00     0.120 C 
BRANCH   7   8
HETATM    8  C6  UNL     1       3.910  -0.726  -0.463  1.00  0.00     0.046 C 
BRANCH   8   9
HETATM    9  C5  UNL     1       4.982   0.070  -1.140  1.00  0.00     0.177 C 
BRANCH   9  10
HETATM   10  O1  UNL     1       6.171  -0.612  -1.204  1.00  0.00    -0.351 OA
BRANCH  10  11
HETATM   11  C4  UNL     1       6.968  -0.979  -0.163  1.00  0.00     0.068 A 
HETATM   12  C3  UNL     1       8.146  -1.718  -0.419  1.00  0.00     0.037 A 
HETATM   13  C2  UNL     1       8.955  -2.090   0.601  1.00  0.00     0.003 A 
HETATM   14  C1  UNL     1       8.694  -1.782   1.923  1.00  0.00     0.000 A 
HETATM   15  C23 UNL     1       7.552  -1.065   2.163  1.00  0.00     0.003 A 
HETATM   16  C22 UNL     1       6.689  -0.661   1.139  1.00  0.00     0.037 A 
ENDBRANCH  10  11
ENDBRANCH   9  10
ENDBRANCH   8   9
ENDBRANCH   7   8
ENDBRANCH   5   7
ENDBRANCH   4   5
ENDBRANCH   3   4
ENDBRANCH   2   3
ENDBRANCH   1   2
BRANCH   1  17
HETATM   17  N2  UNL     1      -1.899   0.116  -1.211  1.00  0.00    -0.390 N 
ATOM     18  H2  UNL     1      -1.620  -0.704  -1.750  1.00  0.00     0.159 HD
BRANCH  17  19
HETATM   19  C12 UNL     1      -3.235   0.222  -0.756  1.00  0.00     0.030 A 
HETATM   20  C13 UNL     1      -3.688   1.392  -0.217  1.00  0.00     0.030 A 
HETATM   21  C14 UNL     1      -5.009   1.473   0.219  1.00  0.00     0.019 A 
HETATM   22  C15 UNL     1      -5.850   0.376   0.104  1.00  0.00     0.026 A 
HETATM   23  C16 UNL     1      -7.176   0.165   0.438  1.00  0.00     0.103 A 
HETATM   24  C18 UNL     1      -5.402  -0.810  -0.439  1.00  0.00     0.047 A 
HETATM   25  C17 UNL     1      -7.529  -1.118   0.107  1.00  0.00     0.046 A 
HETATM   26  O2  UNL     1      -8.278   0.811   0.995  1.00  0.00    -0.348 OA
HETATM   27  N3  UNL     1      -6.427  -1.689  -0.426  1.00  0.00    -0.356 N 
HETATM   28  C20 UNL     1      -8.975  -1.364   0.463  1.00  0.00     0.086 C 
ATOM     29  H3  UNL     1      -6.376  -2.648  -0.770  1.00  0.00     0.166 HD
HETATM   30  C21 UNL     1      -9.336  -0.106   1.186  1.00  0.00     0.181 C 
HETATM   31  C19 UNL     1      -4.097  -0.884  -0.867  1.00  0.00     0.059 A 
ENDBRANCH  17  19
ENDBRANCH   1  17
TORSDOF 11
