REMARK  11 active torsions:
REMARK  status: ('A' for Active; 'I' for Inactive)
REMARK    1  A    between atoms: C2_2  and  C4_4 
REMARK    2  A    between atoms: C7_7  and  C9_9 
REMARK    3  A    between atoms: C10_10  and  C11_11 
REMARK    4  A    between atoms: C11_11  and  C12_12 
REMARK    5  A    between atoms: C18_19  and  C20_21 
REMARK    6  A    between atoms: C20_21  and  C21_22 
REMARK    7  A    between atoms: C21_22  and  C22_23 
REMARK    8  A    between atoms: C22_23  and  O3_25 
REMARK    9  A    between atoms: C30_34  and  O5_35 
REMARK   10  A    between atoms: C31_37  and  C32_38 
REMARK   11  A    between atoms: C32_38  and  O6_41 
ROOT
HETATM    1  C4  UNL     1       0.151  -1.797  -1.112  1.00  0.00    -0.005 C 
HETATM    2  C5  UNL     1       1.135  -2.682  -1.789  1.00  0.00     0.021 C 
HETATM    3  C6  UNL     1       0.703  -0.690  -0.393  1.00  0.00     0.048 C 
HETATM    4  C7  UNL     1       2.048  -0.436   0.148  1.00  0.00    -0.019 C 
HETATM    5  C8  UNL     1       3.217  -1.241  -0.110  1.00  0.00     0.020 C 
HETATM    6  C15 UNL     1       1.835  -0.488   1.675  1.00  0.00     0.017 C 
HETATM    7  C16 UNL     1       0.451   0.013   1.837  1.00  0.00     0.043 C 
HETATM    8  C17 UNL     1      -0.380  -0.336   0.636  1.00  0.00     0.101 C 
HETATM    9  O1  UNL     1      -0.981   0.769   0.173  1.00  0.00    -0.361 OA
HETATM   10  C18 UNL     1      -2.084   1.344   0.679  1.00  0.00     0.083 C 
HETATM   11  C19 UNL     1      -1.854   2.171   1.962  1.00  0.00     0.051 C 
HETATM   12  C24 UNL     1      -3.041   0.277   0.923  1.00  0.00    -0.031 C 
HETATM   13  C25 UNL     1      -4.361   0.302   1.095  1.00  0.00    -0.012 C 
HETATM   14  C26 UNL     1      -4.895  -1.105   1.304  1.00  0.00     0.107 C 
HETATM   15  C27 UNL     1      -3.795  -1.750   0.506  1.00  0.00     0.146 C 
HETATM   16  O4  UNL     1      -4.099  -2.492  -0.363  1.00  0.00    -0.296 OA
HETATM   17  C28 UNL     1      -2.605  -1.169   1.155  1.00  0.00     0.077 C 
HETATM   18  C29 UNL     1      -2.886  -1.297   2.687  1.00  0.00     0.032 C 
HETATM   19  C30 UNL     1      -1.257  -1.558   0.850  1.00  0.00     0.115 C 
HETATM   20  C31 UNL     1      -0.860  -2.537  -0.199  1.00  0.00     0.071 C 
ENDROOT
BRANCH   4  21
HETATM   21  C9  UNL     1       2.437   0.993  -0.125  1.00  0.00    -0.021 C 
HETATM   22  C10 UNL     1       3.606   1.696   0.210  1.00  0.00    -0.029 C 
BRANCH  22  23
HETATM   23  C11 UNL     1       4.921   1.315  -0.367  1.00  0.00     0.030 C 
BRANCH  23  24
HETATM   24  C12 UNL     1       6.007   2.335   0.123  1.00  0.00    -0.019 C 
HETATM   25  C13 UNL     1       5.551   3.676  -0.376  1.00  0.00     0.010 C 
HETATM   26  C14 UNL     1       6.111   2.291   1.613  1.00  0.00     0.010 C 
ENDBRANCH  23  24
ENDBRANCH  22  23
ENDBRANCH   4  21
BRANCH   1  27
HETATM   27  C2  UNL     1      -0.613  -1.355  -2.346  1.00  0.00    -0.084 C 
HETATM   28  C1  UNL     1      -0.551  -0.172  -2.839  1.00  0.00     0.015 C 
HETATM   29  C3  UNL     1      -1.483  -2.307  -3.124  1.00  0.00     0.043 C 
ENDBRANCH   1  27
BRANCH  20  30
HETATM   30  C32 UNL     1      -0.541  -3.939   0.093  1.00  0.00     0.058 C 
HETATM   31  C33 UNL     1      -1.544  -4.754   0.881  1.00  0.00     0.046 C 
HETATM   32  C34 UNL     1       0.725  -4.307   0.825  1.00  0.00     0.046 C 
BRANCH  30  33
HETATM   33  O6  UNL     1      -0.469  -4.598  -1.136  1.00  0.00    -0.390 OA
ATOM     34  H6  UNL     1      -0.262  -5.506  -0.947  1.00  0.00     0.210 HD
ENDBRANCH  30  33
ENDBRANCH  20  30
BRANCH  19  35
HETATM   35  O5  UNL     1      -0.687  -2.142   2.031  1.00  0.00    -0.385 OA
ATOM     36  H5  UNL     1      -1.235  -2.906   2.165  1.00  0.00     0.210 HD
ENDBRANCH  19  35
BRANCH  10  37
HETATM   37  C20 UNL     1      -2.398   2.386  -0.362  1.00  0.00     0.052 C 
BRANCH  37  38
HETATM   38  C21 UNL     1      -3.538   3.269  -0.220  1.00  0.00     0.114 C 
BRANCH  38  39
HETATM   39  C22 UNL     1      -3.627   4.278  -1.355  1.00  0.00     0.258 C 
HETATM   40  O2  UNL     1      -4.596   5.070  -1.284  1.00  0.00    -0.265 OA
BRANCH  39  41
HETATM   41  O3  UNL     1      -2.743   4.345  -2.385  1.00  0.00    -0.326 OA
HETATM   42  C23 UNL     1      -2.930   5.331  -3.388  1.00  0.00     0.213 C 
ENDBRANCH  39  41
ENDBRANCH  38  39
ENDBRANCH  37  38
ENDBRANCH  10  37
TORSDOF 11
