REMARK  14 active torsions:
REMARK  status: ('A' for Active; 'I' for Inactive)
REMARK    1  A    between atoms: C2_2  and  C3_3 
REMARK    2  A    between atoms: C3_3  and  C4_4 
REMARK    3  A    between atoms: C4_4  and  C6_6 
REMARK    4  A    between atoms: C6_6  and  C8_8 
REMARK    5  A    between atoms: C8_8  and  C10_10 
REMARK    6  A    between atoms: C10_10  and  C11_11 
REMARK    7  A    between atoms: C11_11  and  C13_13 
REMARK    8  A    between atoms: C16_17  and  O2_18 
REMARK    9  A    between atoms: O2_18  and  C17_19 
REMARK   10  A    between atoms: C19_22  and  O4_23 
REMARK   11  A    between atoms: O4_23  and  C20_24 
REMARK   12  A    between atoms: C20_24  and  C21_26 
REMARK   13  A    between atoms: C29_34  and  O6_35 
REMARK   14  A    between atoms: C32_39  and  O7_40 
ROOT
HETATM    1  C13 UNL     1      -1.172  -0.821  -0.361  1.00  0.00     0.034 A 
HETATM    2  C14 UNL     1      -0.347  -0.211  -1.403  1.00  0.00     0.074 A 
HETATM    3  C15 UNL     1       0.850  -0.811  -1.997  1.00  0.00     0.164 C 
HETATM    4  O1  UNL     1       0.805  -1.920  -2.487  1.00  0.00    -0.295 OA
HETATM    5  C16 UNL     1       2.183  -0.125  -2.044  1.00  0.00     0.231 C 
HETATM    6  C19 UNL     1       2.834  -0.318  -0.712  1.00  0.00     0.180 C 
HETATM    7  C24 UNL     1       2.296   0.427   0.445  1.00  0.00     0.026 C 
HETATM    8  C25 UNL     1       3.141  -0.220   1.582  1.00  0.00     0.022 C 
HETATM    9  C26 UNL     1       2.568   1.877   0.549  1.00  0.00    -0.009 C 
HETATM   10  C27 UNL     1       2.058   2.759  -0.548  1.00  0.00     0.018 C 
HETATM   11  C28 UNL     1       4.075   2.199   0.566  1.00  0.00     0.018 C 
HETATM   12  C29 UNL     1       2.105   2.446   1.870  1.00  0.00     0.127 C 
HETATM   13  C30 UNL     1       0.848   1.916   2.427  1.00  0.00     0.035 C 
HETATM   14  C31 UNL     1       0.528   0.498   2.209  1.00  0.00     0.042 C 
HETATM   15  C32 UNL     1       0.916  -0.002   0.806  1.00  0.00     0.073 C 
HETATM   16  C33 UNL     1      -0.217   0.339  -0.070  1.00  0.00     0.042 A 
ENDROOT
BRANCH   1  17
HETATM   17  C11 UNL     1      -2.630  -0.687  -0.323  1.00  0.00    -0.078 C 
HETATM   18  C12 UNL     1      -3.427  -1.924  -0.632  1.00  0.00     0.044 C 
BRANCH  17  19
HETATM   19  C10 UNL     1      -3.241   0.449  -0.031  1.00  0.00     0.010 C 
BRANCH  19  20
HETATM   20  C8  UNL     1      -4.644   0.715   0.061  1.00  0.00    -0.056 C 
HETATM   21  C9  UNL     1      -5.303   1.446  -1.044  1.00  0.00     0.049 C 
BRANCH  20  22
HETATM   22  C6  UNL     1      -5.513  -0.012   0.979  1.00  0.00    -0.058 C 
HETATM   23  C7  UNL     1      -5.081  -0.846   1.907  1.00  0.00     0.020 C 
BRANCH  22  24
HETATM   24  C4  UNL     1      -7.014   0.176   0.842  1.00  0.00     0.017 C 
HETATM   25  C5  UNL     1      -7.300   1.627   1.269  1.00  0.00     0.015 C 
BRANCH  24  26
HETATM   26  C3  UNL     1      -7.803  -0.733   1.676  1.00  0.00     0.035 C 
BRANCH  26  27
HETATM   27  C2  UNL     1      -7.731  -2.159   1.322  1.00  0.00    -0.036 C 
HETATM   28  C1  UNL     1      -7.185  -2.689   0.255  1.00  0.00     0.007 C 
ENDBRANCH  26  27
ENDBRANCH  24  26
ENDBRANCH  22  24
ENDBRANCH  20  22
ENDBRANCH  19  20
ENDBRANCH  17  19
ENDBRANCH   1  17
BRANCH  15  29
HETATM   29  O7  UNL     1       0.993  -1.403   0.951  1.00  0.00    -0.389 OA
ATOM     30  H7  UNL     1       0.113  -1.677   1.181  1.00  0.00     0.210 HD
ENDBRANCH  15  29
BRANCH   5  31
HETATM   31  O2  UNL     1       3.031  -0.792  -2.997  1.00  0.00    -0.306 OA
BRANCH  31  32
HETATM   32  C17 UNL     1       3.512  -0.155  -4.128  1.00  0.00     0.255 C 
HETATM   33  C18 UNL     1       4.385  -0.810  -5.127  1.00  0.00     0.126 C 
HETATM   34  O3  UNL     1       3.203   1.063  -4.348  1.00  0.00    -0.266 OA
ENDBRANCH  31  32
ENDBRANCH   5  31
BRANCH   6  35
HETATM   35  O4  UNL     1       4.254  -0.340  -0.821  1.00  0.00    -0.312 OA
BRANCH  35  36
HETATM   36  C20 UNL     1       5.052  -1.447  -0.719  1.00  0.00     0.262 C 
HETATM   37  O5  UNL     1       4.502  -2.559  -0.513  1.00  0.00    -0.265 OA
BRANCH  36  38
HETATM   38  C21 UNL     1       6.541  -1.394  -0.840  1.00  0.00     0.077 C 
HETATM   39  C22 UNL     1       7.128  -2.767  -0.702  1.00  0.00     0.020 C 
HETATM   40  C23 UNL     1       7.009  -0.637  -2.037  1.00  0.00     0.020 C 
ENDBRANCH  36  38
ENDBRANCH  35  36
ENDBRANCH   6  35
BRANCH  12  41
HETATM   41  O6  UNL     1       3.149   2.500   2.830  1.00  0.00    -0.395 OA
ATOM     42  H6  UNL     1       2.858   2.858   3.661  1.00  0.00     0.210 HD
ENDBRANCH  12  41
TORSDOF 14
