REMARK  5 active torsions:
REMARK  status: ('A' for Active; 'I' for Inactive)
REMARK    1  A    between atoms: C2_2  and  C5_5 
REMARK    2  A    between atoms: C5_5  and  O2_7 
REMARK    3  A    between atoms: O2_7  and  C6_8 
REMARK    4  A    between atoms: C16_18  and  O3_19 
REMARK    5  A    between atoms: C17_21  and  O4_22 
ROOT
HETATM    1  C6  UNL     1       3.155  -0.066   0.601  1.00  0.00     0.163 C 
HETATM    2  C7  UNL     1       3.500   0.955   1.758  1.00  0.00     0.050 C 
HETATM    3  C8  UNL     1       2.158   0.369   2.245  1.00  0.00    -0.019 C 
HETATM    4  C9  UNL     1       1.762   1.267   3.329  1.00  0.00     0.019 C 
HETATM    5  C10 UNL     1       2.517  -0.937   2.963  1.00  0.00     0.019 C 
HETATM    6  C11 UNL     1       1.722   0.210   0.862  1.00  0.00    -0.038 C 
HETATM    7  C12 UNL     1       0.532   0.099   0.134  1.00  0.00    -0.047 C 
HETATM    8  C13 UNL     1       0.738  -0.462  -1.255  1.00  0.00     0.006 C 
HETATM    9  C14 UNL     1       1.684  -1.697  -1.124  1.00  0.00     0.022 C 
HETATM   10  C15 UNL     1       1.408   0.439  -2.233  1.00  0.00     0.022 C 
HETATM   11  C16 UNL     1      -0.396  -1.069  -1.985  1.00  0.00     0.159 C 
HETATM   12  C17 UNL     1      -1.514  -1.750  -1.369  1.00  0.00     0.148 C 
HETATM   13  C18 UNL     1      -1.344  -1.863   0.078  1.00  0.00     0.045 C 
HETATM   14  C19 UNL     1      -1.736  -0.631   0.898  1.00  0.00    -0.016 C 
HETATM   15  C20 UNL     1      -1.578  -1.237   2.289  1.00  0.00     0.018 C 
HETATM   16  C21 UNL     1      -3.172  -0.376   0.715  1.00  0.00     0.025 C 
HETATM   17  C22 UNL     1      -3.954  -0.032   1.984  1.00  0.00     0.026 C 
HETATM   18  C23 UNL     1      -5.100   0.921   1.728  1.00  0.00     0.066 C 
HETATM   19 BR1  UNL     1      -6.313   0.812   3.226  1.00  0.00    -0.090 Br
HETATM   20  C24 UNL     1      -5.872   0.615   0.491  1.00  0.00    -0.031 C 
HETATM   21  C25 UNL     1      -6.708  -0.650   0.636  1.00  0.00     0.016 C 
HETATM   22  C26 UNL     1      -6.882   1.744   0.292  1.00  0.00     0.016 C 
HETATM   23  C27 UNL     1      -5.027   0.551  -0.740  1.00  0.00     0.044 C 
HETATM   24  C28 UNL     1      -3.586   0.594  -0.278  1.00  0.00    -0.071 C 
HETATM   25  C29 UNL     1      -2.755   1.451  -0.802  1.00  0.00     0.054 C 
HETATM   26  C30 UNL     1      -1.385   1.467  -0.421  1.00  0.00     0.163 C 
HETATM   27  O5  UNL     1      -0.651   2.317  -0.962  1.00  0.00    -0.292 OA
HETATM   28  C31 UNL     1      -0.783   0.505   0.617  1.00  0.00     0.053 C 
HETATM   29  C32 UNL     1      -0.998   1.429   1.767  1.00  0.00     0.029 C 
ENDROOT
BRANCH   1  30
HETATM   30  O2  UNL     1       3.899   0.368  -0.491  1.00  0.00    -0.311 OA
BRANCH  30  31
HETATM   31  C5  UNL     1       5.104  -0.204  -0.878  1.00  0.00     0.267 C 
HETATM   32  O1  UNL     1       5.553  -1.182  -0.228  1.00  0.00    -0.264 OA
BRANCH  31  33
HETATM   33  C2  UNL     1       5.882   0.301  -2.028  1.00  0.00     0.037 C 
HETATM   34  C1  UNL     1       7.225  -0.430  -2.045  1.00  0.00     0.025 C 
HETATM   35  C3  UNL     1       5.173   0.094  -3.326  1.00  0.00     0.025 C 
HETATM   36  C4  UNL     1       6.208   1.781  -1.846  1.00  0.00     0.025 C 
ENDBRANCH  31  33
ENDBRANCH  30  31
ENDBRANCH   1  30
BRANCH  11  37
HETATM   37  O3  UNL     1      -0.841  -0.219  -3.027  1.00  0.00    -0.392 OA
ATOM     38  H3  UNL     1      -1.569  -0.609  -3.496  1.00  0.00     0.210 HD
ENDBRANCH  11  37
BRANCH  12  39
HETATM   39  O4  UNL     1      -1.551  -3.105  -1.883  1.00  0.00    -0.393 OA
ATOM     40  H4  UNL     1      -2.285  -3.552  -1.479  1.00  0.00     0.210 HD
ENDBRANCH  12  39
TORSDOF 5
