REMARK  5 active torsions:
REMARK  status: ('A' for Active; 'I' for Inactive)
REMARK    1  A    between atoms: O1_2  and  C2_3 
REMARK    2  A    between atoms: C18_21  and  O3_22 
REMARK    3  A    between atoms: O3_22  and  C19_23 
REMARK    4  A    between atoms: C27_32  and  O5_33 
REMARK    5  A    between atoms: C28_35  and  O6_36 
ROOT
HETATM    1  C2  UNL     1       3.412   0.313   0.274  1.00  0.00     0.095 C 
HETATM    2  C3  UNL     1       3.461  -0.683   1.366  1.00  0.00     0.009 C 
HETATM    3  C4  UNL     1       2.482  -1.277   1.910  1.00  0.00    -0.010 C 
HETATM    4  C5  UNL     1       1.105  -1.027   1.493  1.00  0.00     0.041 C 
HETATM    5  C6  UNL     1       0.416  -0.794   2.831  1.00  0.00     0.028 C 
HETATM    6  C7  UNL     1       0.542  -2.299   1.029  1.00  0.00     0.154 C 
HETATM    7  O2  UNL     1       1.162  -3.302   0.909  1.00  0.00    -0.295 OA
HETATM    8  C8  UNL     1      -0.900  -2.212   0.722  1.00  0.00     0.137 C 
HETATM    9 BR1  UNL     1      -1.243  -3.791  -0.363  1.00  0.00    -0.082 Br
HETATM   10  C9  UNL     1      -1.273  -0.965   0.018  1.00  0.00     0.045 C 
HETATM   11  C10 UNL     1      -2.724  -0.720   0.195  1.00  0.00    -0.064 C 
HETATM   12  C11 UNL     1      -3.205   0.379  -0.372  1.00  0.00    -0.048 C 
HETATM   13  C12 UNL     1      -4.655   0.665  -0.214  1.00  0.00     0.037 C 
HETATM   14  C13 UNL     1      -5.527  -0.516  -0.455  1.00  0.00     0.009 C 
HETATM   15  C14 UNL     1      -4.824  -1.785  -0.153  1.00  0.00    -0.011 C 
HETATM   16  C15 UNL     1      -5.784  -2.842   0.340  1.00  0.00     0.010 C 
HETATM   17  C16 UNL     1      -3.674  -1.599   0.872  1.00  0.00     0.015 C 
HETATM   18  C17 UNL     1      -4.288  -1.126   2.142  1.00  0.00     0.015 C 
HETATM   19  C18 UNL     1      -2.360   1.272  -1.163  1.00  0.00     0.162 C 
HETATM   20  C21 UNL     1      -0.865   1.082  -1.024  1.00  0.00     0.047 C 
HETATM   21  C22 UNL     1      -0.461   0.291   0.233  1.00  0.00    -0.027 C 
HETATM   22  C23 UNL     1      -1.034   1.204   1.315  1.00  0.00     0.016 C 
HETATM   23  C24 UNL     1       0.962   0.111   0.506  1.00  0.00     0.028 C 
HETATM   24  C25 UNL     1       2.068   0.159  -0.523  1.00  0.00     0.026 C 
HETATM   25  C26 UNL     1       2.042   1.511  -1.221  1.00  0.00     0.022 C 
HETATM   26  C27 UNL     1       2.126  -0.873  -1.557  1.00  0.00     0.158 C 
HETATM   27  C28 UNL     1       3.461  -1.532  -1.827  1.00  0.00     0.148 C 
HETATM   28  C29 UNL     1       4.464  -0.453  -1.878  1.00  0.00     0.046 C 
HETATM   29  C30 UNL     1       4.615   0.209  -0.524  1.00  0.00    -0.010 C 
HETATM   30  C31 UNL     1       5.736  -0.673   0.104  1.00  0.00     0.018 C 
HETATM   31  C32 UNL     1       5.401   1.478  -0.819  1.00  0.00     0.018 C 
ENDROOT
BRANCH  19  32
HETATM   32  O3  UNL     1      -2.795   2.604  -0.982  1.00  0.00    -0.312 OA
BRANCH  32  33
HETATM   33  C19 UNL     1      -3.407   3.365  -1.935  1.00  0.00     0.255 C 
HETATM   34  C20 UNL     1      -3.815   4.761  -1.604  1.00  0.00     0.126 C 
HETATM   35  O4  UNL     1      -3.612   2.864  -3.074  1.00  0.00    -0.266 OA
ENDBRANCH  32  33
ENDBRANCH  19  32
BRANCH   1  36
HETATM   36  O1  UNL     1       3.340   1.512   0.962  1.00  0.00    -0.379 OA
HETATM   37  C1  UNL     1       4.215   1.782   1.939  1.00  0.00     0.203 C 
ENDBRANCH   1  36
BRANCH  26  38
HETATM   38  O5  UNL     1       1.901  -0.315  -2.862  1.00  0.00    -0.392 OA
ATOM     39  H5  UNL     1       1.939  -0.986  -3.534  1.00  0.00     0.210 HD
ENDBRANCH  26  38
BRANCH  27  40
HETATM   40  O6  UNL     1       3.751  -2.670  -1.148  1.00  0.00    -0.393 OA
ATOM     41  H6  UNL     1       4.589  -3.084  -1.318  1.00  0.00     0.210 HD
ENDBRANCH  27  40
TORSDOF 5
