REMARK  3 active torsions:
REMARK  status: ('A' for Active; 'I' for Inactive)
REMARK    1  A    between atoms: C2_2  and  C3_3 
REMARK    2  A    between atoms: N1_4  and  O1_6 
REMARK    3  A    between atoms: C17_24  and  C18_25 
ROOT
HETATM    1  C1  UNL     1       1.564  -1.362  -1.941  1.00  0.00     0.055 C 
HETATM    2  C2  UNL     1       1.048  -0.236  -1.050  1.00  0.00     0.129 C 
HETATM    3  O2  UNL     1       2.219   0.376  -0.537  1.00  0.00    -0.333 OA
HETATM    4  C4  UNL     1       2.892  -0.364   0.378  1.00  0.00     0.198 C 
HETATM    5  C5  UNL     1       3.253   0.561   1.550  1.00  0.00     0.071 C 
HETATM    6  C6  UNL     1       4.005   1.771   1.094  1.00  0.00     0.006 C 
HETATM    7  C7  UNL     1       5.072   1.413   0.067  1.00  0.00     0.000 C 
HETATM    8  C8  UNL     1       5.381  -0.063   0.281  1.00  0.00     0.006 C 
HETATM    9  C9  UNL     1       4.197  -0.934  -0.119  1.00  0.00     0.071 C 
HETATM   10  O3  UNL     1       2.064  -1.342   0.922  1.00  0.00    -0.200 OA
HETATM   11  O4  UNL     1       0.933  -0.725   1.190  1.00  0.00    -0.222 OA
HETATM   12  C10 UNL     1       0.130  -0.694   0.007  1.00  0.00     0.140 C 
HETATM   13  C11 UNL     1      -0.373  -2.098  -0.124  1.00  0.00     0.028 C 
HETATM   14  C12 UNL     1      -0.709  -2.569   1.297  1.00  0.00     0.012 C 
HETATM   15  C13 UNL     1      -1.734  -1.644   1.878  1.00  0.00    -0.013 C 
HETATM   16  C14 UNL     1      -2.997  -1.856   1.062  1.00  0.00     0.010 C 
HETATM   17  C15 UNL     1      -2.766  -1.357  -0.311  1.00  0.00    -0.005 C 
HETATM   18  C16 UNL     1      -1.650  -2.246  -0.915  1.00  0.00     0.013 C 
HETATM   19  C17 UNL     1      -2.240   0.025  -0.465  1.00  0.00     0.030 C 
HETATM   20  C24 UNL     1      -1.011   0.224   0.378  1.00  0.00     0.036 C 
HETATM   21  C25 UNL     1      -1.406  -0.185   1.789  1.00  0.00     0.013 C 
ENDROOT
BRANCH   2  22
HETATM   22  C3  UNL     1       0.515   0.800  -1.975  1.00  0.00     0.127 C 
HETATM   23  N1  UNL     1       0.464   0.664  -3.239  1.00  0.00    -0.281 N 
ATOM     24  H1  UNL     1       0.802  -0.197  -3.668  1.00  0.00     0.193 HD
BRANCH  23  25
HETATM   25  O1  UNL     1      -0.040   1.662  -4.029  1.00  0.00    -0.290 OA
ATOM     26  H1  UNL     1      -0.078   1.560  -4.973  1.00  0.00     0.244 HD
ENDBRANCH  23  25
ENDBRANCH   2  22
BRANCH  19  27
HETATM   27  C18 UNL     1      -3.196   1.113  -0.184  1.00  0.00    -0.053 A 
HETATM   28  C19 UNL     1      -4.520   0.904   0.134  1.00  0.00     0.010 A 
HETATM   29  C20 UNL     1      -5.366   1.960   0.397  1.00  0.00     0.043 A 
HETATM   30  C21 UNL     1      -4.900   3.252   0.346  1.00  0.00     0.116 A 
HETATM   31  F1  UNL     1      -5.735   4.306   0.607  1.00  0.00    -0.206 F 
HETATM   32  C22 UNL     1      -3.588   3.509   0.033  1.00  0.00     0.043 A 
HETATM   33  C23 UNL     1      -2.761   2.415  -0.227  1.00  0.00     0.010 A 
ENDBRANCH  19  27
TORSDOF 3
