REMARK  5 active torsions:
REMARK  status: ('A' for Active; 'I' for Inactive)
REMARK    1  A    between atoms: C2_2  and  C3_3 
REMARK    2  A    between atoms: C15_16  and  O1_17 
REMARK    3  A    between atoms: O1_17  and  C16_18 
REMARK    4  A    between atoms: C20_25  and  O5_26 
REMARK    5  A    between atoms: C20_25  and  C21_28 
ROOT
HETATM    1  C3  UNL     1      -1.413  -1.031   0.748  1.00  0.00    -0.043 C 
HETATM    2  C4  UNL     1      -0.092  -1.404   0.043  1.00  0.00    -0.061 C 
HETATM    3  C5  UNL     1      -0.054  -1.043  -1.379  1.00  0.00     0.056 C 
HETATM    4  C6  UNL     1      -0.708   0.202  -1.833  1.00  0.00     0.093 C 
HETATM    5 CL1  UNL     1      -1.287  -0.118  -3.531  1.00  0.00    -0.124 Cl
HETATM    6  C7  UNL     1      -1.773   0.750  -0.992  1.00  0.00     0.043 C 
HETATM    7  C8  UNL     1      -1.475   2.199  -0.670  1.00  0.00     0.013 C 
HETATM    8  C9  UNL     1      -0.625   2.456   0.515  1.00  0.00     0.034 C 
HETATM    9  C10 UNL     1       0.462   3.450   0.381  1.00  0.00    -0.087 C 
HETATM   10  C11 UNL     1       0.009   4.891   0.528  1.00  0.00     0.043 C 
HETATM   11  C12 UNL     1       1.731   3.213   0.154  1.00  0.00    -0.024 C 
HETATM   12  C13 UNL     1       2.422   1.928  -0.031  1.00  0.00     0.033 C 
HETATM   13  C14 UNL     1       2.429   0.955   1.105  1.00  0.00     0.076 C 
HETATM   14  C15 UNL     1       2.305  -0.502   0.618  1.00  0.00     0.215 C 
HETATM   15  O3  UNL     1       3.184  -1.170   1.561  1.00  0.00    -0.199 OA
HETATM   16  O4  UNL     1       3.028  -2.435   1.259  1.00  0.00    -0.237 OA
HETATM   17  C18 UNL     1       1.672  -2.576   1.413  1.00  0.00     0.224 C 
HETATM   18  C19 UNL     1       1.112  -1.228   0.900  1.00  0.00     0.107 C 
HETATM   19  C20 UNL     1      -2.319  -0.088   0.117  1.00  0.00     0.086 C 
ENDROOT
BRANCH  14  20
HETATM   20  O1  UNL     1       3.018  -0.658  -0.548  1.00  0.00    -0.280 OA
BRANCH  20  21
HETATM   21  C16 UNL     1       4.359  -0.500  -0.752  1.00  0.00     0.257 C 
HETATM   22  C17 UNL     1       5.009  -0.696  -2.096  1.00  0.00     0.126 C 
HETATM   23  O2  UNL     1       5.072  -0.177   0.228  1.00  0.00    -0.266 OA
ENDBRANCH  20  21
ENDBRANCH  14  20
BRANCH   1  24
HETATM   24  C2  UNL     1      -1.949  -2.131   1.605  1.00  0.00     0.033 C 
HETATM   25  C1  UNL     1      -2.265  -3.441   1.020  1.00  0.00     0.010 C 
ENDBRANCH   1  24
BRANCH  19  26
HETATM   26  O5  UNL     1      -2.703   0.869   1.107  1.00  0.00    -0.385 OA
ATOM     27  H5  UNL     1      -3.296   1.486   0.694  1.00  0.00     0.211 HD
ENDBRANCH  19  26
BRANCH  19  28
HETATM   28  C21 UNL     1      -3.715  -0.548  -0.294  1.00  0.00     0.038 C 
HETATM   29  C22 UNL     1      -3.855  -1.608  -1.297  1.00  0.00     0.008 C 
ENDBRANCH  19  28
TORSDOF 5
