REMARK  4 active torsions:
REMARK  status: ('A' for Active; 'I' for Inactive)
REMARK    1  A    between atoms: O1_2  and  C2_3 
REMARK    2  A    between atoms: C2_3  and  O3_5 
REMARK    3  A    between atoms: O3_5  and  C3_6 
REMARK    4  A    between atoms: C15_18  and  N1_19 
ROOT
HETATM    1  C3  UNL     1      -3.970  -1.562   0.297  1.00  0.00     0.134 C 
HETATM    2  C4  UNL     1      -3.234  -2.127  -0.924  1.00  0.00     0.033 C 
HETATM    3  C5  UNL     1      -2.002  -1.283  -1.073  1.00  0.00     0.012 C 
HETATM    4  C6  UNL     1      -1.067  -1.416   0.104  1.00  0.00    -0.036 C 
HETATM    5  C7  UNL     1      -0.566  -2.870   0.066  1.00  0.00     0.016 C 
HETATM    6  C8  UNL     1      -1.741  -1.230   1.428  1.00  0.00    -0.004 C 
HETATM    7  C9  UNL     1      -1.771   0.169   1.938  1.00  0.00     0.006 C 
HETATM    8  C10 UNL     1      -0.643   1.040   1.520  1.00  0.00     0.006 C 
HETATM    9  C11 UNL     1       0.530   0.118   1.160  1.00  0.00    -0.004 C 
HETATM   10  C12 UNL     1       1.749   0.962   1.058  1.00  0.00     0.007 C 
HETATM   11  C13 UNL     1       1.506   2.324   0.437  1.00  0.00     0.035 C 
HETATM   12  C14 UNL     1       2.884   2.706   0.048  1.00  0.00     0.002 C 
HETATM   13  C15 UNL     1       3.657   1.624  -0.105  1.00  0.00     0.038 C 
HETATM   14  C19 UNL     1       2.836   0.438   0.175  1.00  0.00     0.005 C 
HETATM   15  C20 UNL     1       3.590  -0.682   0.868  1.00  0.00     0.022 C 
HETATM   16  C21 UNL     1       2.283  -0.159  -1.118  1.00  0.00     0.016 C 
HETATM   17  C22 UNL     1       1.299  -1.245  -0.742  1.00  0.00     0.007 C 
HETATM   18  C23 UNL     1       0.110  -0.546  -0.122  1.00  0.00    -0.002 C 
HETATM   19  C24 UNL     1      -3.117  -1.796   1.487  1.00  0.00     0.038 C 
ENDROOT
BRANCH  13  20
HETATM   20  N1  UNL     1       5.053   1.692  -0.483  1.00  0.00    -0.269 N 
HETATM   21  C16 UNL     1       5.893   0.674  -0.691  1.00  0.00     0.160 A 
HETATM   22  C17 UNL     1       7.155   1.175  -1.033  1.00  0.00     0.150 A 
HETATM   23  F1  UNL     1       8.277   0.451  -1.320  1.00  0.00    -0.203 F 
HETATM   24  C18 UNL     1       7.017   2.541  -1.016  1.00  0.00     0.151 A 
HETATM   25  N2  UNL     1       5.751   2.802  -0.684  1.00  0.00    -0.303 N 
ATOM     26  H2  UNL     1       5.366   3.742  -0.595  1.00  0.00     0.186 HD
ENDBRANCH  13  20
BRANCH   1  27
HETATM   27  O3  UNL     1      -4.266  -0.234   0.016  1.00  0.00    -0.293 OA
BRANCH  27  28
HETATM   28  C2  UNL     1      -5.528   0.319  -0.056  1.00  0.00     0.406 C 
HETATM   29  O2  UNL     1      -6.515  -0.433   0.148  1.00  0.00    -0.230 OA
BRANCH  28  30
HETATM   30  O1  UNL     1      -5.740   1.669  -0.346  1.00  0.00    -0.303 OA
HETATM   31  C1  UNL     1      -7.023   2.247  -0.423  1.00  0.00     0.215 C 
ENDBRANCH  28  30
ENDBRANCH  27  28
ENDBRANCH   1  27
TORSDOF 4
