REMARK  4 active torsions:
REMARK  status: ('A' for Active; 'I' for Inactive)
REMARK    1  A    between atoms: C2_2  and  O1_3 
REMARK    2  A    between atoms: O1_3  and  C3_4 
REMARK    3  A    between atoms: C5_7  and  C6_8 
REMARK    4  A    between atoms: C9_12  and  O3_13 
ROOT
HETATM    1  C3  UNL     1      -1.685   0.461  -0.667  1.00  0.00     0.228 C 
HETATM    2  F1  UNL     1      -1.036   1.630  -0.885  1.00  0.00    -0.178 F 
HETATM    3  C4  UNL     1      -1.411  -0.281   0.333  1.00  0.00    -0.003 C 
HETATM    4  C5  UNL     1      -2.104  -1.572   0.596  1.00  0.00     0.058 C 
HETATM    5  C10 UNL     1      -0.987  -2.592   0.356  1.00  0.00     0.015 C 
HETATM    6  C11 UNL     1       0.318  -1.927  -0.056  1.00  0.00     0.011 C 
HETATM    7  C12 UNL     1       0.832  -0.912   0.950  1.00  0.00    -0.032 C 
HETATM    8  C13 UNL     1       1.245  -1.726   2.165  1.00  0.00     0.016 C 
HETATM    9  C14 UNL     1      -0.319  -0.038   1.346  1.00  0.00     0.029 C 
HETATM   10  C15 UNL     1      -0.056   1.339   1.749  1.00  0.00     0.011 C 
HETATM   11  C16 UNL     1       1.205   1.980   1.351  1.00  0.00     0.021 C 
HETATM   12  C17 UNL     1       2.270   1.166   0.762  1.00  0.00     0.055 C 
HETATM   13  C18 UNL     1       2.860   2.010  -0.391  1.00  0.00     0.058 C 
HETATM   14  C19 UNL     1       4.098   1.146  -0.648  1.00  0.00     0.068 C 
HETATM   15  C20 UNL     1       5.213   1.908  -1.285  1.00  0.00     0.047 C 
HETATM   16  C21 UNL     1       3.589   0.010  -1.489  1.00  0.00     0.039 C 
HETATM   17  C22 UNL     1       2.132  -0.341  -1.151  1.00  0.00     0.009 C 
HETATM   18  C23 UNL     1       2.009  -0.223   0.363  1.00  0.00     0.013 C 
HETATM   19  O4  UNL     1       4.485   0.742   0.662  1.00  0.00    -0.310 OA
HETATM   20  C24 UNL     1       3.549   1.202   1.591  1.00  0.00     0.269 C 
HETATM   21  O5  UNL     1       3.674   1.553   2.773  1.00  0.00    -0.264 OA
ENDROOT
BRANCH   4  22
HETATM   22  C6  UNL     1      -3.346  -1.855  -0.064  1.00  0.00     0.010 A 
HETATM   23  C7  UNL     1      -3.653  -2.741  -1.075  1.00  0.00     0.037 A 
HETATM   24  C8  UNL     1      -4.999  -2.652  -1.360  1.00  0.00     0.145 A 
HETATM   25  O2  UNL     1      -5.497  -1.736  -0.544  1.00  0.00    -0.300 OA
HETATM   26  C9  UNL     1      -4.568  -1.243   0.231  1.00  0.00     0.189 A 
BRANCH  26  27
HETATM   27  O3  UNL     1      -4.807  -0.261   1.188  1.00  0.00    -0.340 OA
ATOM     28  H3  UNL     1      -5.637   0.155   1.388  1.00  0.00     0.220 HD
ENDBRANCH  26  27
ENDBRANCH   4  22
BRANCH   1  29
HETATM   29  O1  UNL     1      -2.656   0.117  -1.592  1.00  0.00    -0.327 OA
BRANCH  29  30
HETATM   30  C2  UNL     1      -3.193   1.063  -2.509  1.00  0.00     0.173 C 
HETATM   31  C1  UNL     1      -3.815   2.156  -1.643  1.00  0.00     0.034 C 
ENDBRANCH  29  30
ENDBRANCH   1  29
TORSDOF 4
