REMARK  6 active torsions:
REMARK  status: ('A' for Active; 'I' for Inactive)
REMARK    1  A    between atoms: C2_2  and  N1_3 
REMARK    2  A    between atoms: C2_2  and  C4_9 
REMARK    3  A    between atoms: N1_3  and  C3_6 
REMARK    4  A    between atoms: C3_6  and  O1_7 
REMARK    5  A    between atoms: C4_9  and  N2_11 
REMARK    6  A    between atoms: N2_11  and  C6_13 
ROOT
HETATM    1  C4  UNL     1      -0.278   0.473   0.547  1.00  0.00     0.110 C 
HETATM    2  C5  UNL     1      -0.121   1.885  -0.027  1.00  0.00     0.034 C 
ENDROOT
BRANCH   1   3
HETATM    3  C2  UNL     1      -1.693   0.084   0.602  1.00  0.00     0.206 C 
HETATM    4  C1  UNL     1      -1.926  -1.286   1.227  1.00  0.00     0.042 C 
BRANCH   3   5
HETATM    5  N1  UNL     1      -2.462   0.064  -0.605  1.00  0.00    -0.049 N 
ATOM      6  H12 UNL     1      -2.126   0.747  -1.284  1.00  0.00     0.280 HD
ATOM      7  H11 UNL     1      -2.296  -0.782  -1.150  1.00  0.00     0.280 HD
BRANCH   5   8
HETATM    8  C3  UNL     1      -3.841   0.244  -0.304  1.00  0.00     0.396 C 
BRANCH   8   9
HETATM    9  O1  UNL     1      -4.659  -0.814  -0.611  1.00  0.00    -0.375 OA
ATOM     10  H1  UNL     1      -5.580  -0.694  -0.410  1.00  0.00     0.211 HD
ENDBRANCH   8   9
ENDBRANCH   5   8
ENDBRANCH   3   5
ENDBRANCH   1   3
BRANCH   1  11
HETATM   11  N2  UNL     1       0.564  -0.370  -0.295  1.00  0.00    -0.356 N 
ATOM     12  H2  UNL     1       0.166  -1.070  -0.921  1.00  0.00     0.163 HD
BRANCH  11  13
HETATM   13  C6  UNL     1       1.979  -0.163  -0.197  1.00  0.00     0.171 C 
HETATM   14  N3  UNL     1       2.694   0.866  -0.523  1.00  0.00    -0.361 N 
HETATM   15  C7  UNL     1       4.099   0.665  -0.270  1.00  0.00     0.142 C 
ATOM     16  H3  UNL     1       2.306   1.724  -0.915  1.00  0.00     0.162 HD
HETATM   17  C8  UNL     1       4.201  -0.839  -0.006  1.00  0.00     0.142 C 
HETATM   18  N4  UNL     1       2.850  -1.190   0.268  1.00  0.00    -0.361 N 
ATOM     19  H4  UNL     1       2.550  -2.049   0.729  1.00  0.00     0.162 HD
ENDBRANCH  11  13
ENDBRANCH   1  11
TORSDOF 6
