REMARK  7 active torsions:
REMARK  status: ('A' for Active; 'I' for Inactive)
REMARK    1  A    between atoms: N1_2  and  C2_5 
REMARK    2  A    between atoms: C2_5  and  C3_6 
REMARK    3  A    between atoms: C3_6  and  C4_7 
REMARK    4  A    between atoms: C4_7  and  N2_8 
REMARK    5  A    between atoms: N2_8  and  C5_10 
REMARK    6  A    between atoms: C7_14  and  C8_15 
REMARK    7  A    between atoms: C8_15  and  N4_16 
ROOT
HETATM    1  C5  UNL     1       1.002  -0.647  -0.200  1.00  0.00     0.171 C 
HETATM    2  N3  UNL     1       1.520  -0.378   0.934  1.00  0.00    -0.360 N 
ATOM      3  H3  UNL     1       1.185  -0.737   1.828  1.00  0.00     0.162 HD
HETATM    4  C6  UNL     1       2.649   0.507   0.771  1.00  0.00     0.149 C 
HETATM    5  C7  UNL     1       2.917   0.517  -0.701  1.00  0.00     0.127 C 
HETATM    6  N5  UNL     1       1.696  -0.006  -1.268  1.00  0.00    -0.355 N 
ATOM      7  H5  UNL     1       1.391   0.068  -2.239  1.00  0.00     0.163 HD
ENDROOT
BRANCH   1   8
HETATM    8  N2  UNL     1      -0.152  -1.510  -0.367  1.00  0.00    -0.362 N 
ATOM      9  H2  UNL     1      -0.141  -2.333  -0.969  1.00  0.00     0.162 HD
BRANCH   8  10
HETATM   10  C4  UNL     1      -1.324  -1.111   0.390  1.00  0.00     0.124 C 
BRANCH  10  11
HETATM   11  C3  UNL     1      -1.815   0.163  -0.266  1.00  0.00     0.047 C 
BRANCH  11  12
HETATM   12  C2  UNL     1      -3.017   0.714   0.431  1.00  0.00     0.233 C 
BRANCH  12  13
HETATM   13  N1  UNL     1      -4.077  -0.243   0.423  1.00  0.00    -0.079 N 
HETATM   14  C1  UNL     1      -5.255   0.312   1.017  1.00  0.00     0.266 C 
ATOM     15  H12 UNL     1      -3.802  -1.118   0.870  1.00  0.00     0.276 HD
ATOM     16  H11 UNL     1      -4.257  -0.602  -0.515  1.00  0.00     0.276 HD
ENDBRANCH  12  13
ENDBRANCH  11  12
ENDBRANCH  10  11
ENDBRANCH   8  10
ENDBRANCH   1   8
BRANCH   5  17
HETATM   17  C8  UNL     1       4.104  -0.351  -1.046  1.00  0.00     0.256 C 
BRANCH  17  18
HETATM   18  N4  UNL     1       5.275   0.132  -0.392  1.00  0.00    -0.077 N 
ATOM     19  H43 UNL     1       5.449   1.115  -0.600  1.00  0.00     0.274 HD
ATOM     20  H42 UNL     1       5.142   0.213   0.616  1.00  0.00     0.274 HD
ATOM     21  H41 UNL     1       6.077  -0.454  -0.625  1.00  0.00     0.274 HD
ENDBRANCH  17  18
ENDBRANCH   5  17
TORSDOF 7
