REMARK  6 active torsions:
REMARK  status: ('A' for Active; 'I' for Inactive)
REMARK    1  A    between atoms: C1_4  and  C2_5 
REMARK    2  A    between atoms: C2_5  and  N2_6 
REMARK    3  A    between atoms: N2_6  and  C3_9 
REMARK    4  A    between atoms: N3_12  and  C6_13 
REMARK    5  A    between atoms: C6_13  and  C7_14 
REMARK    6  A    between atoms: C7_14  and  N4_15 
ROOT
HETATM    1  C3  UNL     1       1.083   0.048  -0.460  1.00  0.00     0.195 C 
HETATM    2  C4  UNL     1       0.632   0.786   0.788  1.00  0.00     0.078 C 
HETATM    3  C5  UNL     1      -0.883   0.835   0.720  1.00  0.00     0.070 C 
HETATM    4  N3  UNL     1      -1.425  -0.379   0.291  1.00  0.00    -0.353 N 
HETATM    5  C8  UNL     1      -0.647  -1.542   0.198  1.00  0.00     0.070 C 
HETATM    6  C9  UNL     1       0.776  -1.389  -0.271  1.00  0.00     0.078 C 
ENDROOT
BRANCH   1   7
HETATM    7  N2  UNL     1       2.436   0.365  -0.826  1.00  0.00    -0.066 N 
ATOM      8  H22 UNL     1       2.526   1.353  -1.063  1.00  0.00     0.278 HD
ATOM      9  H21 UNL     1       2.674  -0.047  -1.728  1.00  0.00     0.278 HD
BRANCH   7  10
HETATM   10  C2  UNL     1       3.397  -0.010   0.177  1.00  0.00     0.276 C 
BRANCH  10  11
HETATM   11  C1  UNL     1       4.767   0.325  -0.229  1.00  0.00     0.080 C 
HETATM   12  N1  UNL     1       5.282   1.490  -0.214  1.00  0.00    -0.410 N 
ATOM     13  H12 UNL     1       4.676   2.244   0.111  1.00  0.00     0.155 HD
ATOM     14  H11 UNL     1       6.234   1.723  -0.496  1.00  0.00     0.155 HD
ENDBRANCH  10  11
ENDBRANCH   7  10
ENDBRANCH   1   7
BRANCH   4  15
HETATM   15  C6  UNL     1      -2.612  -0.408  -0.459  1.00  0.00     0.095 C 
BRANCH  15  16
HETATM   16  C7  UNL     1      -3.852   0.014   0.294  1.00  0.00     0.274 C 
BRANCH  16  17
HETATM   17  N4  UNL     1      -5.007  -0.059  -0.581  1.00  0.00    -0.075 N 
ATOM     18  H43 UNL     1      -4.875   0.481  -1.436  1.00  0.00     0.274 HD
ATOM     19  H42 UNL     1      -5.110  -0.982  -1.004  1.00  0.00     0.274 HD
ATOM     20  H41 UNL     1      -5.844   0.226  -0.073  1.00  0.00     0.274 HD
ENDBRANCH  16  17
ENDBRANCH  15  16
ENDBRANCH   4  15
TORSDOF 6
