REMARK  5 active torsions:
REMARK  status: ('A' for Active; 'I' for Inactive)
REMARK    1  A    between atoms: N1_2  and  C2_4 
REMARK    2  A    between atoms: N2_5  and  N3_7 
REMARK    3  A    between atoms: N3_7  and  C3_9 
REMARK    4  A    between atoms: C3_9  and  N4_11 
REMARK    5  A    between atoms: N4_11  and  C4_13 
ROOT
HETATM    1  C3  UNL     1       1.092   0.634   0.380  1.00  0.00     0.186 C 
HETATM    2  S1  UNL     1       2.254   1.706   0.759  1.00  0.00    -0.040 SA
ENDROOT
BRANCH   1   3
HETATM    3  N3  UNL     1       1.431  -0.495  -0.393  1.00  0.00    -0.276 N 
ATOM      4  H3  UNL     1       0.726  -1.187  -0.645  1.00  0.00     0.189 HD
BRANCH   3   5
HETATM    5  N2  UNL     1       2.765  -0.642  -0.807  1.00  0.00    -0.294 N 
HETATM    6  C2  UNL     1       3.662  -0.748   0.103  1.00  0.00     0.192 C 
ATOM      7  H2  UNL     1       3.011  -0.664  -1.797  1.00  0.00     0.187 HD
BRANCH   6   8
HETATM    8  N1  UNL     1       5.026  -0.899  -0.259  1.00  0.00    -0.389 N 
HETATM    9  C1  UNL     1       5.794   0.325  -0.449  1.00  0.00     0.147 C 
ATOM     10  H1  UNL     1       5.448  -1.820  -0.380  1.00  0.00     0.159 HD
ENDBRANCH   6   8
ENDBRANCH   3   5
ENDBRANCH   1   3
BRANCH   1  11
HETATM   11  N4  UNL     1      -0.247   0.801   0.800  1.00  0.00    -0.361 N 
ATOM     12  H4  UNL     1      -0.455   1.626   1.363  1.00  0.00     0.162 HD
BRANCH  11  13
HETATM   13  C4  UNL     1      -1.342  -0.082   0.508  1.00  0.00     0.083 C 
HETATM   14  C5  UNL     1      -1.644  -0.098  -0.968  1.00  0.00     0.025 C 
HETATM   15  C6  UNL     1      -2.937   0.623  -1.221  1.00  0.00     0.002 C 
HETATM   16  C7  UNL     1      -4.064  -0.254  -0.695  1.00  0.00     0.000 C 
HETATM   17  C8  UNL     1      -3.823  -0.416   0.780  1.00  0.00     0.002 C 
HETATM   18  C9  UNL     1      -2.590   0.313   1.262  1.00  0.00     0.025 C 
ENDBRANCH  11  13
ENDBRANCH   1  11
TORSDOF 5
