REMARK  3 active torsions:
REMARK  status: ('A' for Active; 'I' for Inactive)
REMARK       I    between atoms: C1_2  and  N3_10 
REMARK    1  A    between atoms: N2_3  and  C2_5 
REMARK    2  A    between atoms: N3_10  and  N4_12 
REMARK    3  A    between atoms: N4_12  and  C7_14 
ROOT
HETATM    1  N1  UNL     1       0.515  -1.648   0.199  1.00  0.00    -0.062 NA
HETATM    2  C1  UNL     1       0.389  -0.246   0.316  1.00  0.00     0.203 C 
HETATM    3  N2  UNL     1       1.441   0.461   0.095  1.00  0.00    -0.359 N 
ATOM      4  H2  UNL     1       1.358   1.474   0.178  1.00  0.00     0.162 HD
HETATM    5  N3  UNL     1      -0.821   0.402   0.660  1.00  0.00    -0.278 N 
ATOM      6  H3  UNL     1      -1.177   0.334   1.613  1.00  0.00     0.189 HD
ENDROOT
BRANCH   3   7
HETATM    7  C2  UNL     1       2.721  -0.077  -0.260  1.00  0.00     0.084 C 
HETATM    8  C3  UNL     1       3.658  -0.215   0.914  1.00  0.00     0.025 C 
HETATM    9  C4  UNL     1       4.978  -0.488   0.221  1.00  0.00     0.002 C 
HETATM   10  C5  UNL     1       4.866   0.139  -1.155  1.00  0.00     0.002 C 
HETATM   11  C6  UNL     1       3.516   0.831  -1.167  1.00  0.00     0.025 C 
ENDBRANCH   3   7
BRANCH   5  12
HETATM   12  N4  UNL     1      -1.518   1.120  -0.275  1.00  0.00    -0.329 N 
ATOM     13  H4  UNL     1      -1.068   1.801  -0.887  1.00  0.00     0.180 HD
BRANCH  12  14
HETATM   14  C7  UNL     1      -2.918   0.850  -0.334  1.00  0.00     0.099 C 
HETATM   15  C8  UNL     1      -3.269  -0.570  -0.652  1.00  0.00     0.026 C 
HETATM   16  C9  UNL     1      -4.492  -0.931   0.156  1.00  0.00     0.002 C 
HETATM   17  C10 UNL     1      -4.986   0.418   0.630  1.00  0.00     0.002 C 
HETATM   18  C11 UNL     1      -3.642   1.077   0.976  1.00  0.00     0.026 C 
ENDBRANCH  12  14
ENDBRANCH   5  12
TORSDOF 3
