REMARK  10 active torsions:
REMARK  status: ('A' for Active; 'I' for Inactive)
REMARK    1  A    between atoms: C2_2  and  O1_4 
REMARK    2  A    between atoms: C2_2  and  C4_6 
REMARK    3  A    between atoms: C4_6  and  N1_7 
REMARK    4  A    between atoms: C5_8  and  N2_9 
REMARK    5  A    between atoms: C7_11  and  O2_12 
REMARK    6  A    between atoms: N3_14  and  N4_15 
REMARK       I    between atoms: N4_15  and  C8_17 
REMARK    7  A    between atoms: C8_17  and  C9_19 
REMARK    8  A    between atoms: C9_19  and  N6_23 
REMARK    9  A    between atoms: N6_23  and  N7_25 
REMARK   10  A    between atoms: N7_25  and  C10_27 
ROOT
HETATM    1  N2  UNL     1      -2.087   1.066  -1.493  1.00  0.00    -0.099 N 
HETATM    2  C6  UNL     1      -2.043   0.236  -2.538  1.00  0.00     0.178 A 
HETATM    3  C7  UNL     1      -0.814  -0.388  -2.572  1.00  0.00     0.183 A 
HETATM    4  N3  UNL     1      -0.095   0.054  -1.549  1.00  0.00    -0.177 N 
HETATM    5  C16 UNL     1      -0.905   0.950  -0.899  1.00  0.00     0.368 A 
HETATM    6  O4  UNL     1      -0.585   1.587   0.123  1.00  0.00    -0.243 OA
ENDROOT
BRANCH   4   7
HETATM    7  N4  UNL     1       1.184  -0.224  -1.104  1.00  0.00    -0.250 N 
HETATM    8  C8  UNL     1       2.098  -1.107  -1.671  1.00  0.00     0.305 C 
HETATM    9  O3  UNL     1       1.867  -1.785  -2.693  1.00  0.00    -0.263 OA
ATOM     10  H4  UNL     1       1.492   0.273  -0.268  1.00  0.00     0.191 HD
BRANCH   8  11
HETATM   11  C9  UNL     1       3.422  -1.240  -1.010  1.00  0.00     0.184 C 
HETATM   12  N5  UNL     1       4.282  -2.034  -1.497  1.00  0.00    -0.380 N 
ATOM     13  H52 UNL     1       4.077  -2.581  -2.333  1.00  0.00     0.158 HD
ATOM     14  H51 UNL     1       5.191  -2.125  -1.043  1.00  0.00     0.158 HD
BRANCH  11  15
HETATM   15  N6  UNL     1       3.702  -0.491   0.134  1.00  0.00    -0.281 N 
ATOM     16  H6  UNL     1       3.473   0.503   0.152  1.00  0.00     0.188 HD
BRANCH  15  17
HETATM   17  N7  UNL     1       4.292  -1.083   1.256  1.00  0.00    -0.299 N 
ATOM     18  H7  UNL     1       3.783  -1.752   1.834  1.00  0.00     0.187 HD
BRANCH  17  19
HETATM   19  C10 UNL     1       5.640  -0.709   1.557  1.00  0.00     0.048 A 
HETATM   20  C11 UNL     1       6.306  -1.245   2.651  1.00  0.00     0.031 A 
HETATM   21  C12 UNL     1       7.609  -0.883   2.941  1.00  0.00     0.002 A 
HETATM   22  C13 UNL     1       8.294   0.020   2.158  1.00  0.00     0.000 A 
HETATM   23  C14 UNL     1       7.643   0.560   1.067  1.00  0.00     0.002 A 
HETATM   24  C15 UNL     1       6.348   0.192   0.791  1.00  0.00     0.031 A 
ENDBRANCH  17  19
ENDBRANCH  15  17
ENDBRANCH  11  15
ENDBRANCH   8  11
ENDBRANCH   4   7
BRANCH   3  25
HETATM   25  O2  UNL     1      -0.498  -1.299  -3.553  1.00  0.00    -0.344 OA
ATOM     26  H2  UNL     1       0.349  -1.729  -3.576  1.00  0.00     0.219 HD
ENDBRANCH   3  25
BRANCH   1  27
HETATM   27  C5  UNL     1      -3.225   1.884  -1.180  1.00  0.00     0.714 A 
HETATM   28  N1  UNL     1      -4.044   1.882  -0.126  1.00  0.00    -0.127 N 
HETATM   29  C17 UNL     1      -4.973   2.883  -0.274  1.00  0.00     0.355 A 
HETATM   30  N9  UNL     1      -4.698   3.483  -1.436  1.00  0.00    -0.236 N 
HETATM   31  O5  UNL     1      -5.908   3.204   0.500  1.00  0.00    -0.244 OA
HETATM   32  N8  UNL     1      -3.660   2.902  -1.989  1.00  0.00    -0.127 N 
ATOM     33  H9  UNL     1      -5.214   4.269  -1.831  1.00  0.00     0.192 HD
ATOM     34  H8  UNL     1      -3.242   3.166  -2.881  1.00  0.00     0.205 HD
BRANCH  28  35
HETATM   35  C4  UNL     1      -4.049   1.012   1.008  1.00  0.00     0.189 C 
BRANCH  35  36
HETATM   36  C2  UNL     1      -4.935  -0.176   0.957  1.00  0.00     0.068 C 
HETATM   37  C1  UNL     1      -4.657  -1.139  -0.162  1.00  0.00     0.047 C 
HETATM   38  C3  UNL     1      -6.415   0.152   0.906  1.00  0.00     0.047 C 
BRANCH  36  39
HETATM   39  O1  UNL     1      -4.745  -0.869   2.184  1.00  0.00    -0.389 OA
ATOM     40  H1  UNL     1      -4.921  -0.260   2.892  1.00  0.00     0.210 HD
ENDBRANCH  36  39
ENDBRANCH  35  36
ENDBRANCH  28  35
ENDBRANCH   1  27
TORSDOF 10
