REMARK  14 active torsions:
REMARK  status: ('A' for Active; 'I' for Inactive)
REMARK    1  A    between atoms: O1_2  and  C2_3 
REMARK    2  A    between atoms: C2_3  and  C3_5 
REMARK    3  A    between atoms: C3_5  and  O3_6 
REMARK    4  A    between atoms: C3_5  and  C9_25 
REMARK    5  A    between atoms: O3_6  and  C4_7 
REMARK    6  A    between atoms: C4_7  and  C5_9 
REMARK    7  A    between atoms: C6_12  and  N2_13 
REMARK    8  A    between atoms: N2_13  and  N3_15 
REMARK    9  A    between atoms: C8_22  and  O6_23 
REMARK   10  A    between atoms: C9_25  and  O7_26 
REMARK   11  A    between atoms: C9_25  and  C10_28 
REMARK   12  A    between atoms: C13_31  and  O8_32 
REMARK   13  A    between atoms: C15_35  and  O9_36 
REMARK   14  A    between atoms: C17_38  and  O10_39 
ROOT
HETATM    1  C3  UNL     1       0.213  -1.429  -0.936  1.00  0.00     0.288 C 
ENDROOT
BRANCH   1   2
HETATM    2  C2  UNL     1       0.486  -2.860  -0.427  1.00  0.00     0.294 C 
HETATM    3  O2  UNL     1       1.436  -2.988   0.366  1.00  0.00    -0.262 OA
BRANCH   2   4
HETATM    4  O1  UNL     1      -0.266  -3.931  -0.818  1.00  0.00    -0.324 OA
HETATM    5  C1  UNL     1       0.027  -5.223  -0.322  1.00  0.00     0.213 C 
ENDBRANCH   2   4
ENDBRANCH   1   2
BRANCH   1   6
HETATM    6  O3  UNL     1       1.177  -0.669  -0.338  1.00  0.00    -0.294 OA
BRANCH   6   7
HETATM    7  C4  UNL     1       2.245  -0.102  -1.029  1.00  0.00     0.314 C 
HETATM    8  O4  UNL     1       2.261  -0.305  -2.276  1.00  0.00    -0.257 OA
BRANCH   7   9
HETATM    9  C5  UNL     1       3.278   0.671  -0.393  1.00  0.00     0.163 A 
HETATM   10  N1  UNL     1       4.279   1.236  -1.149  1.00  0.00    -0.181 N 
HETATM   11  C6  UNL     1       5.239   1.985  -0.606  1.00  0.00     0.700 A 
ATOM     12  H1  UNL     1       4.287   1.077  -2.156  1.00  0.00     0.184 HD
HETATM   13  N4  UNL     1       5.316   2.254   0.707  1.00  0.00    -0.152 N 
HETATM   14  C7  UNL     1       4.375   1.735   1.503  1.00  0.00     0.295 A 
ATOM     15  H4  UNL     1       6.066   2.834   1.084  1.00  0.00     0.187 HD
HETATM   16  O5  UNL     1       4.424   1.970   2.732  1.00  0.00    -0.264 OA
HETATM   17  C8  UNL     1       3.366   0.950   0.946  1.00  0.00     0.168 A 
BRANCH  11  18
HETATM   18  N2  UNL     1       6.154   2.490  -1.367  1.00  0.00    -0.138 N 
ATOM     19  H2  UNL     1       6.113   2.297  -2.368  1.00  0.00     0.205 HD
BRANCH  18  20
HETATM   20  N3  UNL     1       7.185   3.278  -0.893  1.00  0.00    -0.331 N 
ATOM     21  H32 UNL     1       7.211   3.461   0.110  1.00  0.00     0.177 HD
ATOM     22  H31 UNL     1       7.907   3.676  -1.493  1.00  0.00     0.177 HD
ENDBRANCH  18  20
ENDBRANCH  11  18
BRANCH  17  23
HETATM   23  O6  UNL     1       2.419   0.430   1.799  1.00  0.00    -0.354 OA
ATOM     24  H6  UNL     1       2.480   0.623   2.727  1.00  0.00     0.218 HD
ENDBRANCH  17  23
ENDBRANCH   7   9
ENDBRANCH   6   7
ENDBRANCH   1   6
BRANCH   1  25
HETATM   25  C9  UNL     1      -1.170  -1.247  -0.881  1.00  0.00     0.096 C 
BRANCH  25  26
HETATM   26  O7  UNL     1      -1.707  -2.314  -1.628  1.00  0.00    -0.361 OA
ATOM     27  H7  UNL     1      -2.648  -2.190  -1.591  1.00  0.00     0.217 HD
ENDBRANCH  25  26
BRANCH  25  28
HETATM   28  C10 UNL     1      -2.270  -0.469  -0.409  1.00  0.00     0.041 A 
HETATM   29  C11 UNL     1      -2.200   0.674   0.333  1.00  0.00    -0.013 A 
HETATM   30  C12 UNL     1      -0.891   1.237   0.733  1.00  0.00     0.052 C 
HETATM   31  C13 UNL     1      -3.309   1.407   0.762  1.00  0.00     0.075 A 
HETATM   32  C14 UNL     1      -4.566   0.978   0.433  1.00  0.00     0.076 A 
HETATM   33  C15 UNL     1      -4.712  -0.168  -0.315  1.00  0.00     0.104 A 
HETATM   34  C17 UNL     1      -3.600  -0.864  -0.720  1.00  0.00     0.112 A 
BRANCH  31  35
HETATM   35  O8  UNL     1      -3.155   2.558   1.514  1.00  0.00    -0.360 OA
ATOM     36  H8  UNL     1      -3.909   3.057   1.806  1.00  0.00     0.217 HD
ENDBRANCH  31  35
BRANCH  33  37
HETATM   37  O9  UNL     1      -5.998  -0.604  -0.649  1.00  0.00    -0.353 OA
HETATM   38  C16 UNL     1      -7.104   0.150  -0.207  1.00  0.00     0.210 C 
ENDBRANCH  33  37
BRANCH  34  39
HETATM   39  O10 UNL     1      -3.784  -2.001  -1.463  1.00  0.00    -0.357 OA
ATOM     40  H10 UNL     1      -4.673  -2.265  -1.671  1.00  0.00     0.217 HD
ENDBRANCH  34  39
ENDBRANCH  25  28
ENDBRANCH   1  25
TORSDOF 14
