REMARK  5 active torsions:
REMARK  status: ('A' for Active; 'I' for Inactive)
REMARK    1  A    between atoms: O1_2  and  C2_3 
REMARK    2  A    between atoms: C4_5  and  O2_6 
REMARK    3  A    between atoms: C9_13  and  C10_14 
REMARK    4  A    between atoms: C10_14  and  N1_15 
REMARK    5  A    between atoms: N1_15  and  C12_17 
ROOT
HETATM    1  C2  UNL     1      -2.524   1.140  -0.857  1.00  0.00     0.089 A 
HETATM    2  C3  UNL     1      -3.438   0.393  -0.191  1.00  0.00     0.077 A 
HETATM    3  C4  UNL     1      -3.094  -0.656   0.634  1.00  0.00     0.105 A 
HETATM    4  C6  UNL     1      -1.748  -0.920   0.757  1.00  0.00     0.125 A 
HETATM    5  O3  UNL     1      -1.443  -1.905   1.536  1.00  0.00    -0.272 OA
HETATM    6  C7  UNL     1      -0.226  -2.267   1.750  1.00  0.00     0.288 A 
HETATM    7  O4  UNL     1       0.092  -3.230   2.510  1.00  0.00    -0.260 OA
HETATM    8  C8  UNL     1       0.808  -1.588   1.131  1.00  0.00     0.092 A 
HETATM    9  C9  UNL     1       0.601  -0.518   0.274  1.00  0.00    -0.010 A 
HETATM   10  C15 UNL     1      -0.747  -0.193   0.101  1.00  0.00     0.029 A 
HETATM   11  C16 UNL     1      -1.169   0.822  -0.690  1.00  0.00     0.058 A 
HETATM   12 BR1  UNL     1       0.102   1.873  -1.595  1.00  0.00    -0.047 Br
ENDROOT
BRANCH   9  13
HETATM   13  C10 UNL     1       1.685   0.230  -0.365  1.00  0.00     0.312 C 
BRANCH  13  14
HETATM   14  N1  UNL     1       2.957  -0.471   0.004  1.00  0.00     0.097 N 
HETATM   15  C11 UNL     1       3.119  -1.712  -0.755  1.00  0.00     0.310 C 
BRANCH  14  16
HETATM   16  C12 UNL     1       4.090   0.365  -0.350  1.00  0.00     0.270 C 
HETATM   17  C13 UNL     1       4.172   1.678   0.358  1.00  0.00     0.205 C 
HETATM   18  O5  UNL     1       5.528   1.452   0.572  1.00  0.00    -0.387 OA
HETATM   19  C14 UNL     1       5.232   0.085   0.603  1.00  0.00     0.205 C 
ENDBRANCH  14  16
ENDBRANCH  13  14
ENDBRANCH   9  13
BRANCH   3  20
HETATM   20  O2  UNL     1      -4.076  -1.353   1.264  1.00  0.00    -0.353 OA
HETATM   21  C5  UNL     1      -5.443  -1.145   1.188  1.00  0.00     0.210 C 
ENDBRANCH   3  20
BRANCH   1  22
HETATM   22  O1  UNL     1      -2.832   2.199  -1.692  1.00  0.00    -0.354 OA
HETATM   23  C1  UNL     1      -4.125   2.639  -1.962  1.00  0.00     0.210 C 
ENDBRANCH   1  22
TORSDOF 5
