REMARK  5 active torsions:
REMARK  status: ('A' for Active; 'I' for Inactive)
REMARK    1  A    between atoms: N2_7  and  C5_8 
REMARK    2  A    between atoms: C5_8  and  C6_9 
REMARK    3  A    between atoms: C6_9  and  C7_10 
REMARK    4  A    between atoms: C7_10  and  C8_11 
REMARK    5  A    between atoms: C8_11  and  N3_12 
ROOT
HETATM    1  N3  UNL     1      -2.062  -0.320   0.406  1.00  0.00    -0.276 N 
HETATM    2  N4  UNL     1      -2.426  -1.357   1.141  1.00  0.00    -0.297 N 
ATOM      3  H4  UNL     1      -1.712  -1.870   1.658  1.00  0.00     0.187 HD
HETATM    4  C9  UNL     1      -3.706  -1.758   1.229  1.00  0.00     0.073 A 
HETATM    5  C10 UNL     1      -4.152  -2.916   2.043  1.00  0.00     0.074 C 
HETATM    6  C11 UNL     1      -4.643  -1.049   0.520  1.00  0.00     0.209 A 
HETATM    7  O1  UNL     1      -5.854  -1.352   0.544  1.00  0.00    -0.285 OA
HETATM    8  C12 UNL     1      -4.301   0.054  -0.270  1.00  0.00     0.063 A 
HETATM    9  C13 UNL     1      -5.249   0.763  -0.980  1.00  0.00     0.040 A 
HETATM   10  C14 UNL     1      -4.874   1.843  -1.746  1.00  0.00     0.027 A 
HETATM   11 BR1  UNL     1      -6.175   2.824  -2.727  1.00  0.00    -0.050 Br
HETATM   12  C15 UNL     1      -3.526   2.161  -1.758  1.00  0.00     0.109 A 
HETATM   13  N5  UNL     1      -2.614   1.459  -1.059  1.00  0.00    -0.349 N 
ATOM     14  H5  UNL     1      -1.635   1.741  -1.106  1.00  0.00     0.167 HD
HETATM   15  C16 UNL     1      -2.946   0.401  -0.302  1.00  0.00     0.136 A 
ENDROOT
BRANCH   1  16
HETATM   16  C8  UNL     1      -0.657   0.109   0.319  1.00  0.00     0.151 C 
BRANCH  16  17
HETATM   17  C7  UNL     1      -0.024  -0.618  -0.825  1.00  0.00     0.023 C 
BRANCH  17  18
HETATM   18  C6  UNL     1       1.417  -0.198  -0.953  1.00  0.00     0.023 C 
BRANCH  18  19
HETATM   19  C5  UNL     1       2.238  -0.495   0.281  1.00  0.00     0.150 C 
BRANCH  19  20
HETATM   20  N2  UNL     1       3.626  -0.057   0.054  1.00  0.00    -0.279 N 
HETATM   21  C3  UNL     1       4.136   1.157   0.328  1.00  0.00     0.095 A 
HETATM   22  N1  UNL     1       5.438   1.162  -0.022  1.00  0.00    -0.334 N 
HETATM   23  C4  UNL     1       3.391   2.291   0.914  1.00  0.00     0.091 C 
HETATM   24  C2  UNL     1       5.749  -0.050  -0.517  1.00  0.00     0.093 A 
ATOM     25  H1  UNL     1       6.078   1.950   0.072  1.00  0.00     0.168 HD
HETATM   26  C1  UNL     1       7.088  -0.506  -1.034  1.00  0.00     0.090 C 
HETATM   27  N6  UNL     1       4.616  -0.770  -0.455  1.00  0.00    -0.286 N 
ATOM     28  H6  UNL     1       4.531  -1.739  -0.761  1.00  0.00     0.188 HD
ENDBRANCH  19  20
ENDBRANCH  18  19
ENDBRANCH  17  18
ENDBRANCH  16  17
ENDBRANCH   1  16
TORSDOF 5
