REMARK  6 active torsions:
REMARK  status: ('A' for Active; 'I' for Inactive)
REMARK    1  A    between atoms: O1_2  and  C2_3 
REMARK    2  A    between atoms: C3_4  and  C4_5 
REMARK    3  A    between atoms: C4_5  and  N1_6 
REMARK    4  A    between atoms: C7_10  and  C8_11 
REMARK    5  A    between atoms: C8_11  and  N2_12 
REMARK    6  A    between atoms: C15_22  and  N4_23 
ROOT
HETATM    1  N2  UNL     1      -1.521  -0.462  -0.224  1.00  0.00    -0.143 N 
HETATM    2  C9  UNL     1      -1.708   0.015   1.087  1.00  0.00     0.267 A 
HETATM    3  O3  UNL     1      -0.951  -0.161   2.118  1.00  0.00    -0.270 OA
HETATM    4  C10 UNL     1      -2.959   0.798   1.097  1.00  0.00     0.129 A 
HETATM    5  C11 UNL     1      -2.762   2.199   1.607  1.00  0.00     0.041 C 
HETATM    6  C12 UNL     1      -3.068   2.116   3.077  1.00  0.00     0.003 C 
HETATM    7  C13 UNL     1      -3.841   0.887   3.357  1.00  0.00     0.003 C 
HETATM    8  C14 UNL     1      -4.017   0.200   2.018  1.00  0.00     0.041 C 
HETATM    9  N3  UNL     1      -3.434   0.653  -0.240  1.00  0.00    -0.208 N 
ATOM     10  H3  UNL     1      -4.308   1.074  -0.556  1.00  0.00     0.179 HD
HETATM   11  C15 UNL     1      -2.689  -0.042  -1.019  1.00  0.00     0.681 A 
ENDROOT
BRANCH   1  12
HETATM   12  C8  UNL     1      -0.523  -1.362  -0.696  1.00  0.00     0.217 C 
BRANCH  12  13
HETATM   13  C7  UNL     1       0.867  -0.899  -0.831  1.00  0.00     0.097 A 
HETATM   14  O2  UNL     1       1.849  -1.313   0.065  1.00  0.00    -0.307 OA
HETATM   15  C3  UNL     1       2.993  -0.865  -0.272  1.00  0.00     0.126 A 
HETATM   16  C2  UNL     1       2.827  -0.112  -1.399  1.00  0.00     0.127 A 
HETATM   17  C18 UNL     1       1.499  -0.133  -1.741  1.00  0.00     0.101 A 
HETATM   18 CL1  UNL     1       0.875   0.851  -3.061  1.00  0.00    -0.079 Cl
BRANCH  15  19
HETATM   19  C4  UNL     1       4.384  -1.041   0.293  1.00  0.00     0.125 C 
BRANCH  19  20
HETATM   20  N1  UNL     1       4.534  -0.343   1.484  1.00  0.00    -0.396 N 
HETATM   21  C5  UNL     1       4.352   1.066   1.379  1.00  0.00     0.148 C 
HETATM   22  C6  UNL     1       5.029  -0.900   2.644  1.00  0.00     0.148 C 
ENDBRANCH  19  20
ENDBRANCH  15  19
BRANCH  16  23
HETATM   23  O1  UNL     1       3.795   0.608  -2.147  1.00  0.00    -0.351 OA
HETATM   24  C1  UNL     1       4.300  -0.111  -3.252  1.00  0.00     0.210 C 
ENDBRANCH  16  23
ENDBRANCH  12  13
ENDBRANCH   1  12
BRANCH  11  25
HETATM   25  N4  UNL     1      -3.071  -0.417  -2.332  1.00  0.00    -0.226 N 
HETATM   26  C16 UNL     1      -4.548  -0.613  -2.468  1.00  0.00     0.168 C 
HETATM   27  C17 UNL     1      -2.375  -0.725  -3.503  1.00  0.00     0.168 C 
ENDBRANCH  11  25
TORSDOF 6
