REMARK  5 active torsions:
REMARK  status: ('A' for Active; 'I' for Inactive)
REMARK    1  A    between atoms: C2_2  and  N1_3 
REMARK    2  A    between atoms: N2_11  and  C8_12 
REMARK    3  A    between atoms: C8_12  and  C9_13 
REMARK    4  A    between atoms: N3_17  and  C13_18 
REMARK    5  A    between atoms: C13_18  and  C14_19 
ROOT
HETATM    1  C14 UNL     1      -4.182   0.606   0.122  1.00  0.00     0.128 C 
HETATM    2  C15 UNL     1      -5.557   1.206  -0.177  1.00  0.00     0.031 C 
HETATM    3  C16 UNL     1      -3.842   0.900   1.463  1.00  0.00     0.069 C 
HETATM    4  N4  UNL     1      -3.546   1.152   2.552  1.00  0.00    -0.197 NA
ENDROOT
BRANCH   1   5
HETATM    5  C13 UNL     1      -3.177   0.933  -0.969  1.00  0.00     0.094 C 
BRANCH   5   6
HETATM    6  N3  UNL     1      -1.917   0.390  -0.652  1.00  0.00    -0.273 N 
HETATM    7  C5  UNL     1      -0.852   1.000  -0.107  1.00  0.00     0.094 A 
HETATM    8  C4  UNL     1       0.320   0.308   0.254  1.00  0.00     0.132 A 
HETATM    9  C6  UNL     1      -0.634   2.302   0.190  1.00  0.00     0.056 A 
HETATM   10  C3  UNL     1       0.389  -1.048   0.044  1.00  0.00     0.281 A 
HETATM   11  N2  UNL     1       1.218   1.166   0.757  1.00  0.00    -0.346 N 
HETATM   12  N1  UNL     1      -0.683  -1.648  -0.505  1.00  0.00    -0.264 N 
HETATM   13  O1  UNL     1       1.424  -1.659   0.367  1.00  0.00    -0.265 OA
HETATM   14  C17 UNL     1      -1.788  -0.963  -0.839  1.00  0.00     0.336 A 
HETATM   15  O2  UNL     1      -2.721  -1.642  -1.346  1.00  0.00    -0.246 OA
HETATM   16  C7  UNL     1       0.620   2.400   0.716  1.00  0.00     0.113 A 
HETATM   17 BR1  UNL     1      -1.789   3.759  -0.105  1.00  0.00    -0.047 Br
BRANCH  12  18
HETATM   18  C2  UNL     1      -0.595  -3.084  -0.723  1.00  0.00     0.133 C 
HETATM   19  C1  UNL     1      -1.085  -3.869   0.464  1.00  0.00     0.027 C 
ENDBRANCH  12  18
BRANCH  11  20
HETATM   20  C8  UNL     1       2.552   1.027   1.239  1.00  0.00     0.156 C 
BRANCH  20  21
HETATM   21  C9  UNL     1       3.503   1.323   0.132  1.00  0.00    -0.005 C 
HETATM   22  C10 UNL     1       4.447   0.555  -0.337  1.00  0.00    -0.090 C 
HETATM   23  C11 UNL     1       5.271   1.111  -1.479  1.00  0.00     0.042 C 
HETATM   24  C12 UNL     1       4.817  -0.773   0.140  1.00  0.00     0.042 C 
ENDBRANCH  20  21
ENDBRANCH  11  20
ENDBRANCH   5   6
ENDBRANCH   1   5
TORSDOF 5
