REMARK  9 active torsions:
REMARK  status: ('A' for Active; 'I' for Inactive)
REMARK    1  A    between atoms: C2_2  and  O1_3 
REMARK    2  A    between atoms: C2_2  and  C3_5 
REMARK    3  A    between atoms: C3_5  and  N1_6 
REMARK    4  A    between atoms: C3_5  and  C6_12 
REMARK       I    between atoms: N1_6  and  C4_8 
REMARK    5  A    between atoms: C4_8  and  C5_10 
REMARK    6  A    between atoms: C9_17  and  C10_18 
REMARK    7  A    between atoms: C11_19  and  C12_20 
REMARK    8  A    between atoms: C12_20  and  N3_21 
REMARK    9  A    between atoms: C12_20  and  O3_25 
ROOT
HETATM    1  C12 UNL     1       5.212  -0.534  -1.170  1.00  0.00     0.377 C 
HETATM    2  C13 UNL     1       6.106  -1.427  -0.397  1.00  0.00     0.142 C 
HETATM    3  N4  UNL     1       6.793  -2.120   0.201  1.00  0.00    -0.191 NA
ENDROOT
BRANCH   1   4
HETATM    4  C11 UNL     1       3.900  -0.441  -0.531  1.00  0.00    -0.016 C 
HETATM    5  C10 UNL     1       2.820  -0.360   0.019  1.00  0.00    -0.041 C 
BRANCH   5   6
HETATM    6  C9  UNL     1       1.548  -0.242   0.687  1.00  0.00     0.102 A 
HETATM    7  C8  UNL     1       1.489  -0.110   2.068  1.00  0.00     0.126 A 
HETATM    8  N2  UNL     1       0.311   0.017   2.658  1.00  0.00    -0.371 N 
HETATM    9  C7  UNL     1      -0.800   0.012   1.878  1.00  0.00     0.115 A 
ATOM     10  H2  UNL     1       0.240   0.116   3.671  1.00  0.00     0.164 HD
HETATM   11  C6  UNL     1      -0.758  -0.121   0.501  1.00  0.00     0.051 A 
HETATM   12  N5  UNL     1       0.425  -0.249  -0.099  1.00  0.00    -0.349 N 
ATOM     13  H5  UNL     1       0.493  -0.349  -1.112  1.00  0.00     0.166 HD
BRANCH  11  14
HETATM   14  C3  UNL     1      -2.067  -0.088  -0.246  1.00  0.00     0.164 C 
BRANCH  14  15
HETATM   15  C2  UNL     1      -2.807  -1.376  -0.033  1.00  0.00     0.142 C 
HETATM   16  C1  UNL     1      -2.231  -2.545  -0.778  1.00  0.00     0.042 C 
BRANCH  15  17
HETATM   17  O1  UNL     1      -2.978  -1.670   1.339  1.00  0.00    -0.394 OA
ATOM     18  H1  UNL     1      -3.343  -0.930   1.810  1.00  0.00     0.210 HD
ENDBRANCH  15  17
ENDBRANCH  14  15
BRANCH  14  19
HETATM   19  N1  UNL     1      -2.865   1.002   0.325  1.00  0.00    -0.348 N 
HETATM   20  C4  UNL     1      -3.059   2.253  -0.294  1.00  0.00     0.232 C 
HETATM   21  O2  UNL     1      -2.485   2.438  -1.419  1.00  0.00    -0.272 OA
ATOM     22  H1  UNL     1      -3.309   0.844   1.230  1.00  0.00     0.163 HD
BRANCH  20  23
HETATM   23  C5  UNL     1      -3.870   3.328   0.287  1.00  0.00     0.217 C 
HETATM   24 CL1  UNL     1      -5.572   2.836   0.150  1.00  0.00    -0.121 Cl
ENDBRANCH  20  23
ENDBRANCH  14  19
ENDBRANCH  11  14
ENDBRANCH   5   6
ENDBRANCH   1   4
BRANCH   1  25
HETATM   25  N3  UNL     1       5.889   0.718  -1.317  1.00  0.00    -0.021 N 
ATOM     26  H33 UNL     1       5.298   1.385  -1.813  1.00  0.00     0.280 HD
ATOM     27  H32 UNL     1       5.965   1.189  -0.415  1.00  0.00     0.280 HD
ATOM     28  H31 UNL     1       6.804   0.653  -1.763  1.00  0.00     0.280 HD
ENDBRANCH   1  25
BRANCH   1  29
HETATM   29  O3  UNL     1       4.989  -1.132  -2.409  1.00  0.00    -0.344 OA
ATOM     30  H3  UNL     1       5.841  -1.192  -2.824  1.00  0.00     0.214 HD
ENDBRANCH   1  29
TORSDOF 9
