REMARK  6 active torsions:
REMARK  status: ('A' for Active; 'I' for Inactive)
REMARK    1  A    between atoms: O1_2  and  N1_3 
REMARK    2  A    between atoms: N1_3  and  C2_5 
REMARK    3  A    between atoms: C5_12  and  N4_13 
REMARK    4  A    between atoms: N4_13  and  C6_15 
REMARK    5  A    between atoms: C6_15  and  C7_16 
REMARK    6  A    between atoms: C7_16  and  N5_17 
ROOT
HETATM    1  C2  UNL     1      -4.082  -0.275   0.465  1.00  0.00     0.155 A 
HETATM    2  N2  UNL     1      -3.915   0.714   1.363  1.00  0.00    -0.335 N 
ATOM      3  H2  UNL     1      -4.734   1.222   1.697  1.00  0.00     0.168 HD
HETATM    4  C3  UNL     1      -2.699   1.054   1.834  1.00  0.00     0.182 A 
HETATM    5  N3  UNL     1      -1.583   0.417   1.427  1.00  0.00    -0.347 N 
ATOM      6  H3  UNL     1      -0.672   0.690   1.796  1.00  0.00     0.167 HD
HETATM    7  C4  UNL     1      -1.680  -0.571   0.540  1.00  0.00     0.108 A 
HETATM    8  C5  UNL     1      -0.536  -1.221   0.126  1.00  0.00     0.133 A 
HETATM    9  N8  UNL     1      -0.685  -2.213  -0.772  1.00  0.00    -0.317 N 
ATOM     10  H8  UNL     1       0.147  -2.708  -1.093  1.00  0.00     0.170 HD
HETATM   11  C11 UNL     1      -1.876  -2.579  -1.262  1.00  0.00     0.181 A 
HETATM   12 CL1  UNL     1      -2.052  -3.884  -2.440  1.00  0.00    -0.045 Cl
HETATM   13  N9  UNL     1      -2.977  -1.934  -0.846  1.00  0.00    -0.328 N 
ATOM     14  H9  UNL     1      -3.881  -2.218  -1.223  1.00  0.00     0.168 HD
HETATM   15  C12 UNL     1      -2.939  -0.928   0.048  1.00  0.00     0.111 A 
ENDROOT
BRANCH   8  16
HETATM   16  N4  UNL     1       0.612  -0.868   0.599  1.00  0.00    -0.373 N 
ATOM     17  H4  UNL     1       0.667  -0.109   1.278  1.00  0.00     0.161 HD
BRANCH  16  18
HETATM   18  C6  UNL     1       1.808  -1.532   0.180  1.00  0.00     0.141 C 
BRANCH  18  19
HETATM   19  C7  UNL     1       2.404  -0.722  -0.962  1.00  0.00     0.142 C 
BRANCH  19  20
HETATM   20  N5  UNL     1       2.708   0.604  -0.529  1.00  0.00    -0.361 N 
HETATM   21  C8  UNL     1       3.876   0.957  -0.124  1.00  0.00     0.171 C 
HETATM   22  N6  UNL     1       4.993   0.086  -0.057  1.00  0.00    -0.361 N 
HETATM   23  N7  UNL     1       4.300   2.230   0.328  1.00  0.00    -0.361 N 
HETATM   24  C9  UNL     1       6.192   0.880   0.145  1.00  0.00     0.142 C 
ATOM     25  H6  UNL     1       4.960  -0.930  -0.137  1.00  0.00     0.162 HD
HETATM   26  C10 UNL     1       5.719   2.300   0.115  1.00  0.00     0.142 C 
ATOM     27  H7  UNL     1       3.710   2.959   0.729  1.00  0.00     0.162 HD
ATOM     28  H5  UNL     1       1.965   1.303  -0.542  1.00  0.00     0.162 HD
ENDBRANCH  19  20
ENDBRANCH  18  19
ENDBRANCH  16  18
ENDBRANCH   8  16
BRANCH   1  29
HETATM   29  N1  UNL     1      -5.222  -0.630  -0.009  1.00  0.00    -0.249 N 
ATOM     30  H1  UNL     1      -5.247  -1.392  -0.686  1.00  0.00     0.196 HD
BRANCH  29  31
HETATM   31  O1  UNL     1      -6.393  -0.046   0.343  1.00  0.00    -0.284 OA
HETATM   32  C1  UNL     1      -6.936   0.967  -0.470  1.00  0.00     0.237 C 
ENDBRANCH  29  31
ENDBRANCH   1  29
TORSDOF 6
