REMARK  8 active torsions:
REMARK  status: ('A' for Active; 'I' for Inactive)
REMARK    1  A    between atoms: N2_3  and  C2_5 
REMARK    2  A    between atoms: C2_5  and  N3_6 
REMARK    3  A    between atoms: C2_5  and  C7_20 
REMARK    4  A    between atoms: N3_6  and  N4_8 
REMARK    5  A    between atoms: N4_8  and  C3_10 
REMARK    6  A    between atoms: C7_20  and  N8_21 
REMARK    7  A    between atoms: C7_20  and  C8_25 
REMARK    8  A    between atoms: C8_25  and  S1_26 
ROOT
HETATM    1  N1  UNL     1       0.738  -4.305  -2.075  1.00  0.00    -0.172 NA
HETATM    2  C1  UNL     1       0.842  -3.659  -1.113  1.00  0.00     0.183 C 
HETATM    3  N2  UNL     1       0.959  -2.859   0.046  1.00  0.00    -0.280 N 
ATOM      4  H2  UNL     1       1.501  -3.220   0.831  1.00  0.00     0.179 HD
ENDROOT
BRANCH   3   5
HETATM    5  C2  UNL     1       0.367  -1.593   0.172  1.00  0.00     0.136 C 
BRANCH   5   6
HETATM    6  N3  UNL     1      -0.888  -1.476   0.337  1.00  0.00    -0.285 N 
ATOM      7  H3  UNL     1      -1.439  -2.334   0.373  1.00  0.00     0.188 HD
BRANCH   6   8
HETATM    8  N4  UNL     1      -1.569  -0.274   0.472  1.00  0.00    -0.282 N 
ATOM      9  H4  UNL     1      -1.127   0.537   0.905  1.00  0.00     0.188 HD
BRANCH   8  10
HETATM   10  C3  UNL     1      -2.781  -0.218   0.031  1.00  0.00     0.148 A 
HETATM   11  N5  UNL     1      -3.392  -1.288  -0.549  1.00  0.00    -0.336 N 
HETATM   12  C4  UNL     1      -4.654  -1.213  -1.001  1.00  0.00     0.183 A 
ATOM     13  H5  UNL     1      -2.880  -2.165  -0.642  1.00  0.00     0.168 HD
HETATM   14  N6  UNL     1      -5.332  -0.063  -0.882  1.00  0.00    -0.341 N 
HETATM   15  C5  UNL     1      -4.803   1.039  -0.322  1.00  0.00     0.132 A 
ATOM     16  H6  UNL     1      -6.290  -0.022  -1.231  1.00  0.00     0.167 HD
HETATM   17 CL1  UNL     1      -5.681   2.546  -0.162  1.00  0.00    -0.062 Cl
HETATM   18  C6  UNL     1      -3.502   0.957   0.143  1.00  0.00     0.130 A 
HETATM   19  N7  UNL     1      -2.883   2.090   0.747  1.00  0.00    -0.095 NA
ENDBRANCH   8  10
ENDBRANCH   6   8
ENDBRANCH   5   6
BRANCH   5  20
HETATM   20  C7  UNL     1       1.219  -0.382   0.111  1.00  0.00     0.263 C 
BRANCH  20  21
HETATM   21  N8  UNL     1       2.168  -0.490   1.195  1.00  0.00    -0.067 N 
ATOM     22  H83 UNL     1       1.727  -0.628   2.105  1.00  0.00     0.275 HD
ATOM     23  H82 UNL     1       2.701  -1.359   1.179  1.00  0.00     0.275 HD
ATOM     24  H81 UNL     1       2.754   0.344   1.153  1.00  0.00     0.275 HD
ENDBRANCH  20  21
BRANCH  20  25
HETATM   25  C8  UNL     1       1.832  -0.211  -1.236  1.00  0.00     0.132 C 
BRANCH  25  26
HETATM   26  S1  UNL     1       2.828   1.204  -1.364  1.00  0.00    -0.085 SA
HETATM   27  C9  UNL     1       4.204   1.320  -0.308  1.00  0.00     0.119 C 
HETATM   28  C10 UNL     1       3.760   2.791  -0.282  1.00  0.00     0.195 C 
HETATM   29  O1  UNL     1       2.405   2.447  -0.325  1.00  0.00    -0.331 OA
ENDBRANCH  25  26
ENDBRANCH  20  25
ENDBRANCH   5  20
ENDBRANCH   3   5
TORSDOF 8
