REMARK  9 active torsions:
REMARK  status: ('A' for Active; 'I' for Inactive)
REMARK    1  A    between atoms: C1_2  and  N1_3 
REMARK    2  A    between atoms: N1_3  and  C2_5 
REMARK    3  A    between atoms: C2_5  and  C3_6 
REMARK    4  A    between atoms: C3_6  and  C4_7 
REMARK    5  A    between atoms: C4_7  and  N2_8 
REMARK    6  A    between atoms: N2_8  and  C5_10 
REMARK    7  A    between atoms: C5_10  and  C6_11 
REMARK       I    between atoms: C6_11  and  N3_13 
REMARK    8  A    between atoms: N3_13  and  N4_15 
REMARK    9  A    between atoms: C7_17  and  C8_18 
ROOT
HETATM    1  C6  UNL     1      -0.036  -1.028  -0.069  1.00  0.00     0.253 C 
HETATM    2  O2  UNL     1      -0.528  -0.845  -1.199  1.00  0.00    -0.270 OA
HETATM    3  N3  UNL     1      -0.843  -0.953   1.083  1.00  0.00    -0.269 N 
ATOM      4  H3  UNL     1      -0.371  -1.108   1.974  1.00  0.00     0.190 HD
ENDROOT
BRANCH   1   5
HETATM    5  C5  UNL     1       1.410  -1.333   0.085  1.00  0.00     0.218 C 
BRANCH   5   6
HETATM    6  N2  UNL     1       2.060  -1.350  -1.169  1.00  0.00    -0.413 N 
ATOM      7  H2  UNL     1       2.390  -2.224  -1.577  1.00  0.00     0.153 HD
BRANCH   6   8
HETATM    8  C4  UNL     1       2.240  -0.114  -1.844  1.00  0.00     0.115 C 
BRANCH   8   9
HETATM    9  C3  UNL     1       3.309   0.666  -1.037  1.00  0.00     0.039 C 
BRANCH   9  10
HETATM   10  C2  UNL     1       4.568  -0.168  -1.012  1.00  0.00     0.123 C 
BRANCH  10  11
HETATM   11  N1  UNL     1       5.608   0.499  -0.302  1.00  0.00    -0.368 N 
ATOM     12  H1  UNL     1       6.467   0.726  -0.803  1.00  0.00     0.161 HD
BRANCH  11  13
HETATM   13  C1  UNL     1       5.513   0.857   1.040  1.00  0.00     0.348 C 
HETATM   14  O1  UNL     1       4.494   0.626   1.758  1.00  0.00    -0.284 OA
ENDBRANCH  11  13
ENDBRANCH  10  11
ENDBRANCH   9  10
ENDBRANCH   8   9
ENDBRANCH   6   8
ENDBRANCH   5   6
ENDBRANCH   1   5
BRANCH   3  15
HETATM   15  N4  UNL     1      -2.190  -0.696   1.147  1.00  0.00    -0.308 N 
HETATM   16  C7  UNL     1      -2.820   0.056   0.326  1.00  0.00     0.120 C 
ATOM     17  H4  UNL     1      -2.723  -1.133   1.898  1.00  0.00     0.186 HD
BRANCH  16  18
HETATM   18  C8  UNL     1      -4.281   0.257   0.499  1.00  0.00    -0.004 A 
HETATM   19  C9  UNL     1      -4.964  -0.329   1.543  1.00  0.00     0.015 A 
HETATM   20  C10 UNL     1      -6.340  -0.129   1.677  1.00  0.00     0.018 A 
HETATM   21  C11 UNL     1      -7.044   0.650   0.781  1.00  0.00     0.087 A 
HETATM   22  N5  UNL     1      -6.352   1.209  -0.228  1.00  0.00    -0.374 N 
HETATM   23  C12 UNL     1      -5.021   1.027  -0.375  1.00  0.00     0.100 A 
ATOM     24  H5  UNL     1      -6.848   1.789  -0.904  1.00  0.00     0.164 HD
ENDBRANCH  16  18
ENDBRANCH   3  15
TORSDOF 9
