REMARK  8 active torsions:
REMARK  status: ('A' for Active; 'I' for Inactive)
REMARK    1  A    between atoms: C3_6  and  C4_7 
REMARK    2  A    between atoms: C4_7  and  N2_8 
REMARK    3  A    between atoms: N2_8  and  C5_10 
REMARK    4  A    between atoms: C5_10  and  C6_11 
REMARK    5  A    between atoms: C6_11  and  N3_12 
REMARK    6  A    between atoms: N3_12  and  C7_15 
REMARK    7  A    between atoms: C7_15  and  C8_16 
REMARK    8  A    between atoms: C8_16  and  N4_17 
ROOT
HETATM    1  C6  UNL     1      -0.215   0.443  -0.222  1.00  0.00     0.251 C 
ENDROOT
BRANCH   1   2
HETATM    2  C5  UNL     1      -0.864  -0.420   0.810  1.00  0.00     0.141 C 
BRANCH   2   3
HETATM    3  N2  UNL     1      -2.258  -0.199   0.923  1.00  0.00    -0.418 N 
ATOM      4  H2  UNL     1      -2.677   0.203   1.761  1.00  0.00     0.153 HD
BRANCH   3   5
HETATM    5  C4  UNL     1      -3.043  -0.577  -0.217  1.00  0.00     0.146 C 
BRANCH   5   6
HETATM    6  C3  UNL     1      -4.533  -0.481   0.159  1.00  0.00     0.203 C 
HETATM    7  N1  UNL     1      -4.930   0.831   0.577  1.00  0.00    -0.069 N 
HETATM    8  C2  UNL     1      -6.295   1.010   0.204  1.00  0.00     0.233 C 
ATOM      9  H12 UNL     1      -4.320   1.564   0.214  1.00  0.00     0.277 HD
ATOM     10  H11 UNL     1      -4.765   0.998   1.570  1.00  0.00     0.277 HD
HETATM   11  C1  UNL     1      -6.726  -0.209  -0.535  1.00  0.00     0.029 C 
HETATM   12  C13 UNL     1      -5.401  -0.787  -1.049  1.00  0.00     0.036 C 
ENDBRANCH   5   6
ENDBRANCH   3   5
ENDBRANCH   2   3
ENDBRANCH   1   2
BRANCH   1  13
HETATM   13  N3  UNL     1       1.226   0.122  -0.182  1.00  0.00    -0.069 N 
ATOM     14  H32 UNL     1       1.387  -0.880  -0.284  1.00  0.00     0.277 HD
ATOM     15  H31 UNL     1       1.703   0.446  -1.023  1.00  0.00     0.277 HD
BRANCH  13  16
HETATM   16  C7  UNL     1       1.848   0.634   1.002  1.00  0.00     0.276 C 
BRANCH  16  17
HETATM   17  C8  UNL     1       3.172   0.015   1.319  1.00  0.00     0.085 C 
BRANCH  17  18
HETATM   18  N4  UNL     1       4.144   0.219   0.339  1.00  0.00    -0.388 N 
HETATM   19  C9  UNL     1       4.070  -0.418  -0.905  1.00  0.00     0.148 C 
HETATM   20  C10 UNL     1       5.413  -1.130  -1.161  1.00  0.00     0.187 C 
HETATM   21  O1  UNL     1       6.431  -0.231  -1.236  1.00  0.00    -0.388 OA
HETATM   22  C11 UNL     1       6.366   0.784  -0.284  1.00  0.00     0.187 C 
HETATM   23  C12 UNL     1       5.493   0.338   0.873  1.00  0.00     0.148 C 
ENDBRANCH  17  18
ENDBRANCH  16  17
ENDBRANCH  13  16
ENDBRANCH   1  13
TORSDOF 8
