REMARK  6 active torsions:
REMARK  status: ('A' for Active; 'I' for Inactive)
REMARK    1  A    between atoms: C2_2  and  C4_4 
REMARK    2  A    between atoms: C4_4  and  N1_5 
REMARK    3  A    between atoms: C4_4  and  O3_14 
REMARK    4  A    between atoms: N1_5  and  C5_7 
REMARK    5  A    between atoms: C5_7  and  C6_8 
REMARK    6  A    between atoms: O3_14  and  C10_15 
ROOT
HETATM    1  C4  UNL     1      -0.931   0.185  -0.073  1.00  0.00     0.227 C 
ENDROOT
BRANCH   1   2
HETATM    2  C2  UNL     1      -2.450   0.215  -0.187  1.00  0.00     0.026 C 
HETATM    3  C1  UNL     1      -2.843  -0.880  -1.178  1.00  0.00     0.014 C 
HETATM    4  C3  UNL     1      -3.127  -0.108   1.108  1.00  0.00     0.014 C 
ENDBRANCH   1   2
BRANCH   1   5
HETATM    5  N1  UNL     1      -0.529  -1.093   0.397  1.00  0.00    -0.394 N 
ATOM      6  H1  UNL     1      -1.167  -1.888   0.358  1.00  0.00     0.155 HD
BRANCH   5   7
HETATM    7  C5  UNL     1       0.777  -1.239   0.920  1.00  0.00     0.151 C 
BRANCH   7   8
HETATM    8  C6  UNL     1       1.841  -1.107  -0.141  1.00  0.00     0.169 A 
HETATM    9  C7  UNL     1       3.173  -1.454   0.458  1.00  0.00     0.208 A 
HETATM   10  O1  UNL     1       4.153  -0.482   0.372  1.00  0.00    -0.359 OA
HETATM   11  C8  UNL     1       4.007   0.698  -0.284  1.00  0.00     0.158 A 
HETATM   12  C9  UNL     1       2.860   1.023  -0.845  1.00  0.00     0.159 A 
HETATM   13  O2  UNL     1       1.810   0.141  -0.753  1.00  0.00    -0.352 OA
ENDBRANCH   7   8
ENDBRANCH   5   7
ENDBRANCH   1   5
BRANCH   1  14
HETATM   14  O3  UNL     1      -0.443   1.248   0.689  1.00  0.00    -0.322 OA
BRANCH  14  15
HETATM   15  C10 UNL     1      -0.631   2.579   0.384  1.00  0.00     0.222 C 
HETATM   16  N2  UNL     1      -0.890   2.884  -0.831  1.00  0.00    -0.390 N 
ATOM     17  H22 UNL     1      -0.952   2.153  -1.540  1.00  0.00     0.157 HD
ATOM     18  H21 UNL     1      -1.029   3.869  -1.057  1.00  0.00     0.157 HD
ENDBRANCH  14  15
ENDBRANCH   1  14
TORSDOF 6
