REMARK  6 active torsions:
REMARK  status: ('A' for Active; 'I' for Inactive)
REMARK    1  A    between atoms: C2_2  and  C3_3 
REMARK    2  A    between atoms: C3_3  and  N1_4 
REMARK    3  A    between atoms: N1_4  and  C4_7 
REMARK    4  A    between atoms: C4_7  and  C5_8 
REMARK    5  A    between atoms: C5_8  and  C6_9 
REMARK    6  A    between atoms: C6_9  and  N2_10 
ROOT
HETATM    1  N2  UNL     1      -2.522  -0.831  -0.123  1.00  0.00    -0.326 N 
HETATM    2  C7  UNL     1      -3.125  -1.981   0.265  1.00  0.00     0.186 A 
HETATM    3  N3  UNL     1      -4.310  -1.661   0.806  1.00  0.00    -0.335 N 
ATOM      4  H3  UNL     1      -4.980  -2.331   1.185  1.00  0.00     0.168 HD
HETATM    5  C8  UNL     1      -4.488  -0.313   0.775  1.00  0.00     0.152 A 
HETATM    6  N4  UNL     1      -5.296   0.721   1.074  1.00  0.00    -0.335 N 
ATOM      7  H4  UNL     1      -6.211   0.657   1.519  1.00  0.00     0.168 HD
HETATM    8  C9  UNL     1      -4.684   1.854   0.682  1.00  0.00     0.183 A 
HETATM    9  N5  UNL     1      -3.497   1.539   0.140  1.00  0.00    -0.335 N 
ATOM     10  H5  UNL     1      -2.821   2.201  -0.241  1.00  0.00     0.168 HD
HETATM   11  C10 UNL     1      -3.350   0.195   0.185  1.00  0.00     0.154 A 
ENDROOT
BRANCH   1  12
HETATM   12  C6  UNL     1      -1.246  -0.697  -0.747  1.00  0.00     0.133 C 
BRANCH  12  13
HETATM   13  C5  UNL     1      -0.108  -0.533   0.228  1.00  0.00     0.048 C 
BRANCH  13  14
HETATM   14  C4  UNL     1       1.159  -0.406  -0.591  1.00  0.00     0.234 C 
BRANCH  14  15
HETATM   15  N1  UNL     1       2.325  -0.243   0.253  1.00  0.00    -0.072 N 
ATOM     16  H12 UNL     1       2.396  -0.997   0.936  1.00  0.00     0.277 HD
ATOM     17  H11 UNL     1       2.212   0.544   0.892  1.00  0.00     0.277 HD
BRANCH  15  18
HETATM   18  C3  UNL     1       3.532  -0.121  -0.515  1.00  0.00     0.259 C 
BRANCH  18  19
HETATM   19  C2  UNL     1       4.705   0.045   0.381  1.00  0.00    -0.010 C 
HETATM   20  C1  UNL     1       5.494   1.100   0.351  1.00  0.00     0.008 C 
ENDBRANCH  18  19
ENDBRANCH  15  18
ENDBRANCH  14  15
ENDBRANCH  13  14
ENDBRANCH  12  13
ENDBRANCH   1  12
TORSDOF 6
