REMARK  7 active torsions:
REMARK  status: ('A' for Active; 'I' for Inactive)
REMARK    1  A    between atoms: N1_1  and  C1_5 
REMARK    2  A    between atoms: C1_5  and  C2_6 
REMARK    3  A    between atoms: C2_6  and  C3_7 
REMARK    4  A    between atoms: N3_11  and  C5_12 
REMARK    5  A    between atoms: C5_12  and  C6_13 
REMARK    6  A    between atoms: C6_13  and  C7_14 
REMARK    7  A    between atoms: C7_14  and  C8_15 
ROOT
HETATM    1  C3  UNL     1      -2.487  -0.570  -0.168  1.00  0.00     0.047 A 
HETATM    2  C4  UNL     1      -2.986  -1.440  -1.093  1.00  0.00     0.134 A 
HETATM    3  N2  UNL     1      -1.945  -2.251  -0.946  1.00  0.00    -0.308 N 
ATOM      4  H2  UNL     1      -1.652  -3.139  -1.353  1.00  0.00     0.186 HD
HETATM    5  N3  UNL     1      -1.450  -1.419  -0.050  1.00  0.00    -0.295 N 
ENDROOT
BRANCH   5   6
HETATM    6  C5  UNL     1      -0.254  -1.398   0.765  1.00  0.00     0.149 C 
BRANCH   6   7
HETATM    7  C6  UNL     1       0.895  -0.697   0.064  1.00  0.00     0.028 C 
BRANCH   7   8
HETATM    8  C7  UNL     1       2.079  -0.740   1.012  1.00  0.00     0.060 C 
BRANCH   8   9
HETATM    9  C8  UNL     1       3.274  -0.077   0.424  1.00  0.00     0.024 A 
HETATM   10  C9  UNL     1       4.169  -0.813  -0.324  1.00  0.00     0.112 A 
HETATM   11  N4  UNL     1       5.261  -0.248  -0.872  1.00  0.00    -0.372 N 
HETATM   12  C10 UNL     1       5.526   1.061  -0.712  1.00  0.00     0.104 A 
ATOM     13  H4  UNL     1       5.900  -0.824  -1.420  1.00  0.00     0.164 HD
HETATM   14  C11 UNL     1       4.643   1.805   0.031  1.00  0.00     0.105 A 
HETATM   15  N5  UNL     1       3.539   1.233   0.584  1.00  0.00    -0.367 N 
ATOM     16  H5  UNL     1       2.899   1.809   1.131  1.00  0.00     0.165 HD
ENDBRANCH   8   9
ENDBRANCH   7   8
ENDBRANCH   6   7
ENDBRANCH   5   6
BRANCH   1  17
HETATM   17  C2  UNL     1      -2.924   0.719   0.414  1.00  0.00     0.087 C 
BRANCH  17  18
HETATM   18  C1  UNL     1      -4.246   1.127  -0.194  1.00  0.00     0.235 C 
BRANCH  18  19
HETATM   19  N1  UNL     1      -4.730   2.374   0.329  1.00  0.00    -0.079 N 
ATOM     20  H13 UNL     1      -4.787   2.348   1.347  1.00  0.00     0.274 HD
ATOM     21  H12 UNL     1      -4.034   3.112   0.223  1.00  0.00     0.274 HD
ATOM     22  H11 UNL     1      -5.622   2.649  -0.081  1.00  0.00     0.274 HD
ENDBRANCH  18  19
ENDBRANCH  17  18
ENDBRANCH   1  17
TORSDOF 7
