REMARK  14 active torsions:
REMARK  status: ('A' for Active; 'I' for Inactive)
REMARK    1  A    between atoms: C1_2  and  N1_3 
REMARK    2  A    between atoms: N1_3  and  C2_5 
REMARK    3  A    between atoms: C2_5  and  C3_6 
REMARK    4  A    between atoms: C2_5  and  C10_13 
REMARK    5  A    between atoms: C3_6  and  C4_7 
REMARK       I    between atoms: C10_13  and  N2_15 
REMARK    6  A    between atoms: N2_15  and  C11_17 
REMARK    7  A    between atoms: C15_21  and  O3_22 
REMARK    8  A    between atoms: O3_22  and  C16_23 
REMARK    9  A    between atoms: C16_23  and  C17_24 
REMARK   10  A    between atoms: C17_24  and  C18_25 
REMARK   11  A    between atoms: C18_25  and  C19_26 
REMARK   12  A    between atoms: C19_26  and  C20_27 
REMARK   13  A    between atoms: C20_27  and  C21_28 
REMARK   14  A    between atoms: C21_28  and  C22_29 
ROOT
HETATM    1  C11 UNL     1      -0.706  -3.749  -0.016  1.00  0.00     0.113 C 
HETATM    2  C12 UNL     1      -1.545  -4.548   0.978  1.00  0.00     0.028 C 
HETATM    3  C13 UNL     1      -0.816  -5.867   1.011  1.00  0.00     0.005 C 
HETATM    4  C14 UNL     1       0.625  -5.409   1.049  1.00  0.00     0.034 C 
HETATM    5  C15 UNL     1       0.697  -4.086   0.373  1.00  0.00     0.144 C 
ENDROOT
BRANCH   1   6
HETATM    6  N2  UNL     1      -1.047  -2.360   0.023  1.00  0.00    -0.352 N 
HETATM    7  C10 UNL     1      -1.527  -1.727  -1.155  1.00  0.00     0.240 C 
HETATM    8  O2  UNL     1      -1.669  -2.315  -2.231  1.00  0.00    -0.271 OA
ATOM      9  H2  UNL     1      -0.946  -1.829   0.888  1.00  0.00     0.163 HD
BRANCH   7  10
HETATM   10  C2  UNL     1      -1.880  -0.266  -1.090  1.00  0.00     0.176 C 
BRANCH  10  11
HETATM   11  N1  UNL     1      -2.288   0.172  -2.421  1.00  0.00    -0.355 N 
ATOM     12  H1  UNL     1      -3.157  -0.187  -2.817  1.00  0.00     0.162 HD
BRANCH  11  13
HETATM   13  C1  UNL     1      -1.522   1.069  -3.168  1.00  0.00     0.349 C 
HETATM   14  O1  UNL     1      -0.435   1.593  -2.821  1.00  0.00    -0.284 OA
ENDBRANCH  11  13
ENDBRANCH  10  11
BRANCH  10  15
HETATM   15  C3  UNL     1      -3.019  -0.128  -0.113  1.00  0.00     0.039 C 
BRANCH  15  16
HETATM   16  C4  UNL     1      -3.427   1.322  -0.037  1.00  0.00    -0.012 C 
HETATM   17  C5  UNL     1      -2.310   2.202   0.449  1.00  0.00     0.005 C 
HETATM   18  C6  UNL     1      -2.862   3.378   1.174  1.00  0.00     0.000 C 
HETATM   19  C7  UNL     1      -4.122   3.955   0.559  1.00  0.00     0.000 C 
HETATM   20  C8  UNL     1      -5.212   2.904   0.496  1.00  0.00     0.000 C 
HETATM   21  C9  UNL     1      -4.644   1.532   0.811  1.00  0.00     0.005 C 
ENDBRANCH  15  16
ENDBRANCH  10  15
ENDBRANCH   7  10
ENDBRANCH   1   6
BRANCH   5  22
HETATM   22  O3  UNL     1       1.307  -3.088   1.024  1.00  0.00    -0.384 OA
BRANCH  22  23
HETATM   23  C16 UNL     1       2.442  -2.550   0.523  1.00  0.00     0.168 C 
BRANCH  23  24
HETATM   24  C17 UNL     1       2.317  -1.912  -0.835  1.00  0.00     0.026 C 
BRANCH  24  25
HETATM   25  C18 UNL     1       3.588  -1.359  -1.366  1.00  0.00     0.002 C 
BRANCH  25  26
HETATM   26  C19 UNL     1       4.247  -0.309  -0.549  1.00  0.00     0.000 C 
BRANCH  26  27
HETATM   27  C20 UNL     1       3.331   0.867  -0.369  1.00  0.00     0.001 C 
BRANCH  27  28
HETATM   28  C21 UNL     1       4.002   1.949   0.451  1.00  0.00     0.015 C 
BRANCH  28  29
HETATM   29  C22 UNL     1       3.103   3.139   0.666  1.00  0.00     0.048 C 
HETATM   30  C23 UNL     1       3.770   4.227   1.490  1.00  0.00     0.025 C 
HETATM   31  C24 UNL     1       4.405   4.835   0.260  1.00  0.00     0.075 C 
HETATM   32  S1  UNL     1       3.082   4.204  -0.790  1.00  0.00    -0.164 SA
ENDBRANCH  28  29
ENDBRANCH  27  28
ENDBRANCH  26  27
ENDBRANCH  25  26
ENDBRANCH  24  25
ENDBRANCH  23  24
ENDBRANCH  22  23
ENDBRANCH   5  22
TORSDOF 14
