REMARK  16 active torsions:
REMARK  status: ('A' for Active; 'I' for Inactive)
REMARK    1  A    between atoms: C2_2  and  C3_3 
REMARK    2  A    between atoms: C3_3  and  C4_4 
REMARK    3  A    between atoms: C4_4  and  N1_5 
REMARK       I    between atoms: N1_5  and  C5_7 
REMARK    4  A    between atoms: C5_7  and  C6_9 
REMARK    5  A    between atoms: C6_9  and  C7_10 
REMARK    6  A    between atoms: C6_9  and  C14_17 
REMARK    7  A    between atoms: C7_10  and  C8_11 
REMARK    8  A    between atoms: C14_17  and  C15_18 
REMARK    9  A    between atoms: C14_17  and  N2_22 
REMARK   10  A    between atoms: C15_18  and  C16_19 
REMARK   11  A    between atoms: C19_24  and  C21_26 
REMARK   12  A    between atoms: C21_26  and  C22_27 
REMARK   13  A    between atoms: C22_27  and  C23_28 
REMARK   14  A    between atoms: C23_28  and  N3_29 
REMARK   15  A    between atoms: C23_28  and  C24_33 
REMARK   16  A    between atoms: C24_33  and  O3_35 
ROOT
HETATM    1  C14 UNL     1      -0.485  -0.091  -1.345  1.00  0.00     0.094 C 
ENDROOT
BRANCH   1   2
HETATM    2  C6  UNL     1      -1.302  -0.185  -0.082  1.00  0.00     0.101 C 
BRANCH   2   3
HETATM    3  C5  UNL     1      -2.538  -1.015  -0.422  1.00  0.00     0.223 C 
HETATM    4  N1  UNL     1      -2.447  -2.329  -0.889  1.00  0.00    -0.361 N 
ATOM      5  H1  UNL     1      -1.503  -2.701  -0.991  1.00  0.00     0.162 HD
HETATM    6  O1  UNL     1      -3.649  -0.475  -0.269  1.00  0.00    -0.273 OA
BRANCH   4   7
HETATM    7  C4  UNL     1      -3.499  -3.211  -1.239  1.00  0.00     0.122 C 
BRANCH   7   8
HETATM    8  C3  UNL     1      -4.374  -3.461  -0.031  1.00  0.00     0.019 C 
BRANCH   8   9
HETATM    9  C2  UNL     1      -5.505  -4.420  -0.403  1.00  0.00    -0.003 C 
HETATM   10  C1  UNL     1      -6.336  -4.627   0.842  1.00  0.00     0.005 C 
ENDBRANCH   8   9
ENDBRANCH   7   8
ENDBRANCH   4   7
ENDBRANCH   2   3
BRANCH   2  11
HETATM   11  C7  UNL     1      -1.821   1.089   0.453  1.00  0.00     0.020 C 
BRANCH  11  12
HETATM   12  C8  UNL     1      -0.824   2.105   0.924  1.00  0.00    -0.014 C 
HETATM   13  C9  UNL     1       0.035   1.623   2.067  1.00  0.00     0.005 C 
HETATM   14  C10 UNL     1       0.427   2.858   2.870  1.00  0.00     0.000 C 
HETATM   15  C11 UNL     1      -0.734   3.331   3.698  1.00  0.00     0.000 C 
HETATM   16  C12 UNL     1      -1.987   3.016   2.874  1.00  0.00     0.000 C 
HETATM   17  C13 UNL     1      -1.651   3.299   1.448  1.00  0.00     0.005 C 
ENDBRANCH  11  12
ENDBRANCH   2  11
ENDBRANCH   1   2
BRANCH   1  18
HETATM   18  C15 UNL     1      -1.163   0.566  -2.471  1.00  0.00     0.029 C 
BRANCH  18  19
HETATM   19  C16 UNL     1      -0.404   0.690  -3.762  1.00  0.00    -0.021 C 
HETATM   20  C17 UNL     1      -1.351   1.386  -4.774  1.00  0.00     0.009 C 
HETATM   21  C18 UNL     1       0.784   1.626  -3.694  1.00  0.00     0.009 C 
ENDBRANCH  18  19
ENDBRANCH   1  18
BRANCH   1  22
HETATM   22  N2  UNL     1       0.789   0.441  -1.095  1.00  0.00    -0.391 N 
HETATM   23  C19 UNL     1       1.864  -0.224  -0.955  1.00  0.00    -0.022 C 
HETATM   24  C20 UNL     1       1.898  -1.705  -1.044  1.00  0.00     0.062 C 
ATOM     25  H2  UNL     1       0.860   1.456  -1.018  1.00  0.00     0.159 HD
BRANCH  23  26
HETATM   26  C21 UNL     1       3.130   0.503  -0.716  1.00  0.00     0.054 C 
BRANCH  26  27
HETATM   27  C22 UNL     1       3.779   0.048   0.545  1.00  0.00     0.049 C 
BRANCH  27  28
HETATM   28  C23 UNL     1       5.073   0.794   0.788  1.00  0.00     0.282 C 
BRANCH  28  29
HETATM   29  N3  UNL     1       5.958   0.546  -0.313  1.00  0.00    -0.066 N 
ATOM     30  H33 UNL     1       6.106  -0.449  -0.479  1.00  0.00     0.275 HD
ATOM     31  H32 UNL     1       5.537   0.777  -1.213  1.00  0.00     0.275 HD
ATOM     32  H31 UNL     1       6.830   1.049  -0.149  1.00  0.00     0.275 HD
ENDBRANCH  28  29
BRANCH  28  33
HETATM   33  C24 UNL     1       5.634   0.257   2.077  1.00  0.00     0.289 C 
HETATM   34  O2  UNL     1       4.954   0.406   3.122  1.00  0.00    -0.263 OA
BRANCH  33  35
HETATM   35  O3  UNL     1       6.854  -0.371   2.065  1.00  0.00    -0.325 OA
HETATM   36  C25 UNL     1       7.377  -0.878   3.298  1.00  0.00     0.213 C 
ENDBRANCH  33  35
ENDBRANCH  28  33
ENDBRANCH  27  28
ENDBRANCH  26  27
ENDBRANCH  23  26
ENDBRANCH   1  22
TORSDOF 16
