REMARK  10 active torsions:
REMARK  status: ('A' for Active; 'I' for Inactive)
REMARK    1  A    between atoms: C2_2  and  C3_3 
REMARK    2  A    between atoms: C4_6  and  C5_7 
REMARK    3  A    between atoms: C5_7  and  C6_8 
REMARK    4  A    between atoms: C6_8  and  C8_10 
REMARK    5  A    between atoms: C8_10  and  N2_11 
REMARK    6  A    between atoms: C8_10  and  N3_15 
REMARK    7  A    between atoms: N3_15  and  C9_18 
REMARK    8  A    between atoms: C9_18  and  C10_19 
REMARK    9  A    between atoms: C9_18  and  C14_27 
REMARK   10  A    between atoms: C10_19  and  C11_20 
ROOT
HETATM    1  C8  UNL     1       0.158  -0.402  -0.910  1.00  0.00     0.385 C 
ENDROOT
BRANCH   1   2
HETATM    2  C6  UNL     1       1.379  -0.457  -1.834  1.00  0.00     0.045 C 
HETATM    3  C7  UNL     1       1.038  -1.362  -3.035  1.00  0.00     0.014 C 
BRANCH   2   4
HETATM    4  C5  UNL     1       2.502  -1.113  -1.121  1.00  0.00     0.066 C 
BRANCH   4   5
HETATM    5  C4  UNL     1       2.999  -0.375   0.076  1.00  0.00     0.026 A 
HETATM    6  N1  UNL     1       3.960   0.579   0.103  1.00  0.00    -0.345 N 
HETATM    7  C3  UNL     1       4.109   0.971   1.389  1.00  0.00     0.104 A 
ATOM      8  H1  UNL     1       4.477   0.937  -0.700  1.00  0.00     0.167 HD
HETATM    9  N6  UNL     1       3.234   0.252   2.148  1.00  0.00    -0.350 N 
HETATM   10  C15 UNL     1       2.554  -0.571   1.352  1.00  0.00     0.114 A 
ATOM     11  H6  UNL     1       3.119   0.331   3.158  1.00  0.00     0.166 HD
BRANCH   7  12
HETATM   12  C2  UNL     1       5.024   1.975   1.915  1.00  0.00     0.038 C 
HETATM   13  C1  UNL     1       5.842   2.635   1.128  1.00  0.00     0.015 C 
ENDBRANCH   7  12
ENDBRANCH   4   5
ENDBRANCH   2   4
ENDBRANCH   1   2
BRANCH   1  14
HETATM   14  N2  UNL     1      -0.247  -1.725  -0.550  1.00  0.00    -0.050 N 
ATOM     15  H23 UNL     1      -0.415  -2.309  -1.369  1.00  0.00     0.276 HD
ATOM     16  H22 UNL     1       0.518  -2.260  -0.139  1.00  0.00     0.276 HD
ATOM     17  H21 UNL     1      -1.060  -1.688   0.065  1.00  0.00     0.276 HD
ENDBRANCH   1  14
BRANCH   1  18
HETATM   18  N3  UNL     1      -0.930   0.278  -1.540  1.00  0.00    -0.032 N 
ATOM     19  H32 UNL     1      -0.774   1.285  -1.580  1.00  0.00     0.280 HD
ATOM     20  H31 UNL     1      -0.965   0.088  -2.542  1.00  0.00     0.280 HD
BRANCH  18  21
HETATM   21  C9  UNL     1      -2.185  -0.045  -0.889  1.00  0.00     0.293 C 
BRANCH  21  22
HETATM   22  C10 UNL     1      -2.139   0.459   0.514  1.00  0.00     0.103 C 
BRANCH  22  23
HETATM   23  C11 UNL     1      -3.374   0.187   1.281  1.00  0.00     0.028 A 
HETATM   24  C12 UNL     1      -4.518   0.914   1.492  1.00  0.00     0.114 A 
HETATM   25  N4  UNL     1      -5.375   0.240   2.270  1.00  0.00    -0.360 N 
HETATM   26  C13 UNL     1      -4.796  -0.923   2.569  1.00  0.00     0.180 A 
ATOM     27  H4  UNL     1      -6.295   0.556   2.576  1.00  0.00     0.166 HD
HETATM   28  N5  UNL     1      -3.579  -0.971   1.975  1.00  0.00    -0.355 N 
ATOM     29  H5  UNL     1      -2.921  -1.748   2.036  1.00  0.00     0.166 HD
ENDBRANCH  22  23
ENDBRANCH  21  22
BRANCH  21  30
HETATM   30  C14 UNL     1      -3.256   0.561  -1.710  1.00  0.00     0.205 C 
HETATM   31  O1  UNL     1      -2.920   1.251  -2.725  1.00  0.00    -0.646 OA
HETATM   32  O2  UNL     1      -4.610   0.447  -1.478  1.00  0.00    -0.646 OA
ENDBRANCH  21  30
ENDBRANCH  18  21
ENDBRANCH   1  18
TORSDOF 10
