REMARK  9 active torsions:
REMARK  status: ('A' for Active; 'I' for Inactive)
REMARK    1  A    between atoms: C2_2  and  O1_3 
REMARK    2  A    between atoms: C2_2  and  C17_27 
REMARK    3  A    between atoms: O1_3  and  C3_4 
REMARK    4  A    between atoms: C3_4  and  C4_5 
REMARK    5  A    between atoms: C4_5  and  C5_6 
REMARK    6  A    between atoms: C4_5  and  S1_14 
REMARK    7  A    between atoms: C5_6  and  N1_7 
REMARK    8  A    between atoms: S1_14  and  C12_15 
REMARK    9  A    between atoms: C12_15  and  C13_16 
ROOT
HETATM    1  C4  UNL     1       0.566  -0.272  -0.846  1.00  0.00     0.099 C 
ENDROOT
BRANCH   1   2
HETATM    2  C3  UNL     1      -0.742  -1.061  -0.592  1.00  0.00     0.185 C 
BRANCH   2   3
HETATM    3  O1  UNL     1      -1.704  -0.515  -1.414  1.00  0.00    -0.385 OA
BRANCH   3   4
HETATM    4  C2  UNL     1      -2.945  -1.107  -1.311  1.00  0.00     0.122 C 
HETATM    5  C1  UNL     1      -3.278  -1.701  -2.663  1.00  0.00     0.040 C 
BRANCH   4   6
HETATM    6  C17 UNL     1      -3.957  -0.103  -0.857  1.00  0.00     0.027 A 
HETATM    7  C18 UNL     1      -3.840   0.599   0.426  1.00  0.00    -0.003 A 
HETATM    8  C19 UNL     1      -4.321   2.014   0.607  1.00  0.00     0.011 C 
HETATM    9  C20 UNL     1      -4.953  -0.404   0.180  1.00  0.00    -0.038 A 
HETATM   10  C21 UNL     1      -6.372   0.113  -0.034  1.00  0.00     0.015 C 
HETATM   11  C22 UNL     1      -4.865  -1.628   1.048  1.00  0.00     0.015 C 
ENDBRANCH   4   6
ENDBRANCH   3   4
ENDBRANCH   2   3
ENDBRANCH   1   2
BRANCH   1  12
HETATM   12  C5  UNL     1       0.380   1.155  -0.532  1.00  0.00     0.289 C 
BRANCH  12  13
HETATM   13  N1  UNL     1       1.459   2.061  -0.716  1.00  0.00     0.089 N 
HETATM   14  C6  UNL     1       0.903   3.438  -0.587  1.00  0.00     0.272 C 
HETATM   15  C7  UNL     1       1.976   4.467  -0.599  1.00  0.00     0.030 C 
HETATM   16  C8  UNL     1       2.282   4.928   0.803  1.00  0.00     0.002 C 
HETATM   17  C9  UNL     1       2.910   3.897   1.678  1.00  0.00     0.002 C 
HETATM   18  C10 UNL     1       2.216   2.535   1.581  1.00  0.00     0.030 C 
HETATM   19  C11 UNL     1       2.555   1.980   0.202  1.00  0.00     0.272 C 
ENDBRANCH  12  13
ENDBRANCH   1  12
BRANCH   1  20
HETATM   20  S1  UNL     1       1.837  -1.158   0.061  1.00  0.00    -0.154 SA
BRANCH  20  21
HETATM   21  C12 UNL     1       2.068  -2.782  -0.711  1.00  0.00     0.133 C 
BRANCH  21  22
HETATM   22  C13 UNL     1       3.191  -3.497  -0.062  1.00  0.00     0.054 A 
HETATM   23  C14 UNL     1       4.528  -3.438  -0.479  1.00  0.00     0.161 A 
HETATM   24  N2  UNL     1       5.273  -4.195   0.333  1.00  0.00    -0.095 N 
HETATM   25  N3  UNL     1       6.466  -4.664   0.653  1.00  0.00    -0.275 N 
HETATM   26  C16 UNL     1       4.439  -4.718   1.239  1.00  0.00     0.704 A 
HETATM   27  C15 UNL     1       6.420  -5.464   1.724  1.00  0.00     0.215 A 
ATOM     28  H3  UNL     1       7.321  -4.442   0.143  1.00  0.00     0.189 HD
HETATM   29  N4  UNL     1       5.124  -5.496   2.095  1.00  0.00    -0.185 N 
ATOM     30  H4  UNL     1       4.734  -6.016   2.882  1.00  0.00     0.185 HD
HETATM   31  N5  UNL     1       3.174  -4.300   1.005  1.00  0.00    -0.191 N 
ATOM     32  H5  UNL     1       2.350  -4.554   1.549  1.00  0.00     0.184 HD
ENDBRANCH  21  22
ENDBRANCH  20  21
ENDBRANCH   1  20
TORSDOF 9
