REMARK  9 active torsions:
REMARK  status: ('A' for Active; 'I' for Inactive)
REMARK    1  A    between atoms: C2_2  and  N1_3 
REMARK    2  A    between atoms: N1_3  and  C3_5 
REMARK    3  A    between atoms: C5_7  and  C6_8 
REMARK    4  A    between atoms: C7_9  and  C8_10 
REMARK    5  A    between atoms: C10_12  and  O1_13 
REMARK    6  A    between atoms: C12_15  and  O2_16 
REMARK    7  A    between atoms: C14_18  and  O3_19 
REMARK    8  A    between atoms: C19_26  and  O4_27 
REMARK    9  A    between atoms: C21_29  and  O5_30 
ROOT
HETATM    1  C3  UNL     1      -2.684   0.986  -0.113  1.00  0.00     0.042 A 
HETATM    2  C4  UNL     1      -1.304   0.884  -0.073  1.00  0.00     0.059 A 
HETATM    3  C5  UNL     1      -0.667  -0.311   0.162  1.00  0.00     0.034 A 
HETATM    4  N2  UNL     1      -1.473  -1.384   0.351  1.00  0.00    -0.355 N 
ATOM      5  H2  UNL     1      -1.030  -2.286   0.527  1.00  0.00     0.166 HD
HETATM    6  C17 UNL     1      -2.812  -1.341   0.322  1.00  0.00     0.048 A 
HETATM    7  C18 UNL     1      -3.605  -2.447   0.518  1.00  0.00     0.070 A 
HETATM    8  C19 UNL     1      -4.981  -2.394   0.488  1.00  0.00     0.103 A 
HETATM    9  C21 UNL     1      -5.590  -1.177   0.249  1.00  0.00     0.102 A 
HETATM   10  C23 UNL     1      -4.826  -0.046   0.048  1.00  0.00     0.055 A 
HETATM   11  C24 UNL     1      -3.445  -0.136   0.086  1.00  0.00     0.020 A 
ENDROOT
BRANCH   3  12
HETATM   12  C6  UNL     1       0.782  -0.470   0.216  1.00  0.00     0.030 C 
HETATM   13  C7  UNL     1       1.622   0.533   0.047  1.00  0.00     0.014 C 
BRANCH  13  14
HETATM   14  C8  UNL     1       3.053   0.385   0.098  1.00  0.00    -0.031 A 
HETATM   15  C9  UNL     1       3.850   1.498  -0.085  1.00  0.00     0.051 A 
HETATM   16  C10 UNL     1       5.227   1.392  -0.044  1.00  0.00     0.105 A 
HETATM   17  C12 UNL     1       5.824   0.172   0.179  1.00  0.00     0.135 A 
HETATM   18  C14 UNL     1       5.050  -0.961   0.365  1.00  0.00     0.105 A 
HETATM   19  C16 UNL     1       3.657  -0.812   0.318  1.00  0.00     0.051 A 
BRANCH  16  20
HETATM   20  O1  UNL     1       6.071   2.484  -0.222  1.00  0.00    -0.353 OA
HETATM   21  C11 UNL     1       5.467   3.740  -0.453  1.00  0.00     0.210 C 
ENDBRANCH  16  20
BRANCH  17  22
HETATM   22  O2  UNL     1       7.218   0.036   0.225  1.00  0.00    -0.351 OA
HETATM   23  C13 UNL     1       7.882  -0.242  -0.985  1.00  0.00     0.210 C 
ENDBRANCH  17  22
BRANCH  18  24
HETATM   24  O3  UNL     1       5.588  -2.193   0.590  1.00  0.00    -0.353 OA
HETATM   25  C15 UNL     1       4.921  -3.395   0.789  1.00  0.00     0.210 C 
ENDBRANCH  18  24
ENDBRANCH  13  14
ENDBRANCH   3  12
BRANCH   1  26
HETATM   26  N1  UNL     1      -3.272   2.115  -0.335  1.00  0.00    -0.389 N 
ATOM     27  H1  UNL     1      -4.289   2.182  -0.364  1.00  0.00     0.159 HD
BRANCH  26  28
HETATM   28  C2  UNL     1      -2.443   3.278  -0.541  1.00  0.00     0.115 C 
HETATM   29  C1  UNL     1      -3.285   4.494  -0.899  1.00  0.00     0.026 C 
ENDBRANCH  26  28
ENDBRANCH   1  26
BRANCH   8  30
HETATM   30  O4  UNL     1      -5.778  -3.506   0.685  1.00  0.00    -0.353 OA
HETATM   31  C20 UNL     1      -5.284  -4.798   0.936  1.00  0.00     0.210 C 
ENDBRANCH   8  30
BRANCH   9  32
HETATM   32  O5  UNL     1      -6.969  -1.065   0.207  1.00  0.00    -0.353 OA
HETATM   33  C22 UNL     1      -7.643   0.133  -0.028  1.00  0.00     0.210 C 
ENDBRANCH   9  32
TORSDOF 9
