REMARK  9 active torsions:
REMARK  status: ('A' for Active; 'I' for Inactive)
REMARK    1  A    between atoms: O1_2  and  C2_3 
REMARK    2  A    between atoms: C2_3  and  C3_4 
REMARK    3  A    between atoms: C3_4  and  C4_5 
REMARK    4  A    between atoms: C4_5  and  N1_6 
REMARK    5  A    between atoms: N1_6  and  C5_9 
REMARK    6  A    between atoms: C5_9  and  C7_11 
REMARK    7  A    between atoms: C8_12  and  O2_13 
REMARK    8  A    between atoms: C13_20  and  O4_21 
REMARK    9  A    between atoms: C19_28  and  O5_29 
ROOT
HETATM    1  C7  UNL     1       1.983  -0.446   0.111  1.00  0.00     0.064 C 
HETATM    2  C8  UNL     1       2.689  -1.750   0.373  1.00  0.00     0.198 C 
HETATM    3  C9  UNL     1       2.000  -2.431   1.503  1.00  0.00     0.178 C 
HETATM    4  O3  UNL     1       2.224  -3.654   1.592  1.00  0.00    -0.290 OA
HETATM    5  C10 UNL     1       1.110  -1.832   2.497  1.00  0.00     0.058 C 
HETATM    6  C11 UNL     1       0.151  -0.921   2.266  1.00  0.00    -0.045 C 
HETATM    7  C12 UNL     1      -0.534  -0.552   3.526  1.00  0.00     0.046 C 
HETATM    8  C13 UNL     1      -0.296  -0.263   1.041  1.00  0.00     0.093 C 
HETATM    9  C14 UNL     1      -1.760  -0.227   0.884  1.00  0.00     0.034 C 
HETATM   10  C15 UNL     1      -2.405  -1.552   1.066  1.00  0.00     0.009 C 
HETATM   11  C16 UNL     1      -3.898  -1.547   0.854  1.00  0.00     0.006 C 
HETATM   12  C17 UNL     1      -4.452  -0.184   0.496  1.00  0.00    -0.003 C 
HETATM   13  C18 UNL     1      -5.907  -0.355   0.269  1.00  0.00     0.037 C 
HETATM   14  C19 UNL     1      -6.610   0.766  -0.395  1.00  0.00     0.118 C 
HETATM   15  C20 UNL     1      -5.631   1.892  -0.627  1.00  0.00     0.032 C 
HETATM   16  C21 UNL     1      -4.400   1.436  -1.363  1.00  0.00     0.013 C 
HETATM   17  C22 UNL     1      -3.664   0.308  -0.700  1.00  0.00    -0.033 C 
HETATM   18  C23 UNL     1      -3.757  -0.849  -1.707  1.00  0.00     0.016 C 
HETATM   19  C24 UNL     1      -2.268   0.609  -0.256  1.00  0.00    -0.030 C 
HETATM   20  C25 UNL     1      -2.232   2.051   0.229  1.00  0.00     0.016 C 
HETATM   21  C26 UNL     1      -1.371   0.556  -1.472  1.00  0.00     0.011 C 
HETATM   22  C27 UNL     1       0.096   0.571  -1.155  1.00  0.00     0.014 C 
HETATM   23  C28 UNL     1       0.513  -0.563  -0.197  1.00  0.00    -0.000 C 
HETATM   24  C29 UNL     1       0.213  -1.814  -0.915  1.00  0.00     0.019 C 
ENDROOT
BRANCH   1  25
HETATM   25  C5  UNL     1       2.771   0.524  -0.681  1.00  0.00     0.189 C 
HETATM   26  C6  UNL     1       3.251   0.180  -2.024  1.00  0.00     0.040 C 
BRANCH  25  27
HETATM   27  N1  UNL     1       4.003   0.832   0.089  1.00  0.00    -0.071 N 
ATOM     28  H12 UNL     1       4.633   0.032   0.152  1.00  0.00     0.277 HD
ATOM     29  H11 UNL     1       3.820   0.948   1.086  1.00  0.00     0.277 HD
BRANCH  27  30
HETATM   30  C4  UNL     1       4.649   2.005  -0.499  1.00  0.00     0.235 C 
BRANCH  30  31
HETATM   31  C3  UNL     1       5.858   2.328   0.336  1.00  0.00     0.054 C 
BRANCH  31  32
HETATM   32  C2  UNL     1       6.848   1.216   0.395  1.00  0.00     0.168 C 
BRANCH  32  33
HETATM   33  O1  UNL     1       7.343   0.858  -0.854  1.00  0.00    -0.396 OA
HETATM   34  C1  UNL     1       8.272  -0.196  -0.722  1.00  0.00     0.201 C 
ENDBRANCH  32  33
ENDBRANCH  31  32
ENDBRANCH  30  31
ENDBRANCH  27  30
ENDBRANCH  25  27
ENDBRANCH   1  25
BRANCH   2  35
HETATM   35  O2  UNL     1       2.947  -2.560  -0.671  1.00  0.00    -0.387 OA
ATOM     36  H2  UNL     1       3.392  -3.383  -0.506  1.00  0.00     0.210 HD
ENDBRANCH   2  35
BRANCH   8  37
HETATM   37  O4  UNL     1       0.090   1.109   1.256  1.00  0.00    -0.384 OA
ATOM     38  H4  UNL     1      -0.201   1.537   0.459  1.00  0.00     0.211 HD
ENDBRANCH   8  37
BRANCH  14  39
HETATM   39  O5  UNL     1      -7.260   0.413  -1.584  1.00  0.00    -0.396 OA
ATOM     40  H5  UNL     1      -7.711   1.132  -2.010  1.00  0.00     0.210 HD
ENDBRANCH  14  39
TORSDOF 9
