REMARK  11 active torsions:
REMARK  status: ('A' for Active; 'I' for Inactive)
REMARK    1  A    between atoms: C2_2  and  C3_3 
REMARK    2  A    between atoms: C3_3  and  O1_4 
REMARK    3  A    between atoms: C10_14  and  N1_15 
REMARK    4  A    between atoms: C14_19  and  C15_20 
REMARK    5  A    between atoms: C17_22  and  C18_23 
REMARK    6  A    between atoms: C18_23  and  C19_24 
REMARK    7  A    between atoms: C19_24  and  O2_25 
REMARK    8  A    between atoms: N4_33  and  C23_34 
REMARK    9  A    between atoms: C23_34  and  O3_35 
REMARK   10  A    between atoms: C23_34  and  N5_37 
REMARK   11  A    between atoms: N5_37  and  O4_39 
ROOT
HETATM    1  C3  UNL     1      -2.930  -0.079   0.256  1.00  0.00     0.136 C 
HETATM    2  C4  UNL     1      -1.912  -1.142   0.631  1.00  0.00     0.067 C 
HETATM    3  C5  UNL     1      -0.509  -0.577   0.849  1.00  0.00     0.013 C 
HETATM    4  C6  UNL     1       0.080  -1.185   2.066  1.00  0.00     0.085 C 
HETATM    5  C7  UNL     1       1.080  -2.237   1.872  1.00  0.00     0.249 C 
HETATM    6  F1  UNL     1       0.628  -3.356   2.628  1.00  0.00    -0.206 F 
HETATM    7  F2  UNL     1       2.252  -1.946   2.612  1.00  0.00    -0.206 F 
HETATM    8  C8  UNL     1       1.411  -2.704   0.555  1.00  0.00     0.088 C 
HETATM    9  C9  UNL     1       2.955  -2.873   0.474  1.00  0.00     0.018 C 
HETATM   10  C10 UNL     1       0.922  -2.007  -0.676  1.00  0.00     0.247 C 
HETATM   11  C14 UNL     1       0.293  -0.680  -0.427  1.00  0.00     0.041 C 
HETATM   12  C21 UNL     1      -0.680  -0.331  -1.533  1.00  0.00     0.038 C 
HETATM   13  C22 UNL     1      -1.346   0.994  -1.407  1.00  0.00     0.131 C 
HETATM   14  N4  UNL     1      -2.460   1.033  -0.422  1.00  0.00    -0.314 N 
ENDROOT
BRANCH  11  15
HETATM   15  C15 UNL     1       1.362   0.363  -0.461  1.00  0.00     0.039 A 
HETATM   16  C16 UNL     1       1.903   1.114   0.540  1.00  0.00     0.054 A 
HETATM   17  C17 UNL     1       2.857   1.950  -0.025  1.00  0.00     0.029 A 
HETATM   18  N2  UNL     1       2.875   1.691  -1.328  1.00  0.00    -0.305 N 
HETATM   19  N3  UNL     1       1.981   0.733  -1.596  1.00  0.00    -0.304 N 
ATOM     20  H2  UNL     1       3.475   2.149  -2.014  1.00  0.00     0.186 HD
ATOM     21  H3  UNL     1       1.797   0.343  -2.520  1.00  0.00     0.186 HD
BRANCH  17  22
HETATM   22  C18 UNL     1       3.718   2.906   0.740  1.00  0.00     0.084 C 
BRANCH  22  23
HETATM   23  C19 UNL     1       5.089   2.250   0.978  1.00  0.00     0.173 C 
BRANCH  23  24
HETATM   24  O2  UNL     1       5.934   3.003   1.724  1.00  0.00    -0.396 OA
HETATM   25  C20 UNL     1       6.205   4.272   1.262  1.00  0.00     0.201 C 
ENDBRANCH  23  24
ENDBRANCH  22  23
ENDBRANCH  17  22
ENDBRANCH  11  15
BRANCH  10  26
HETATM   26  N1  UNL     1       0.005  -2.922  -1.423  1.00  0.00     0.095 N 
HETATM   27  C11 UNL     1       0.635  -4.212  -1.681  1.00  0.00     0.275 C 
HETATM   28  C12 UNL     1       0.213  -4.224  -3.129  1.00  0.00     0.060 C 
HETATM   29  C13 UNL     1       0.132  -2.733  -2.883  1.00  0.00     0.275 C 
ENDBRANCH  10  26
BRANCH   1  30
HETATM   30  C2  UNL     1      -3.906   0.142   1.376  1.00  0.00     0.056 C 
HETATM   31  C1  UNL     1      -4.386  -1.271   1.790  1.00  0.00     0.010 C 
ENDBRANCH   1  30
BRANCH   1  32
HETATM   32  O1  UNL     1      -3.774  -0.761  -0.751  1.00  0.00    -0.371 OA
ATOM     33  H1  UNL     1      -3.157  -0.901  -1.459  1.00  0.00     0.212 HD
ENDBRANCH   1  32
BRANCH  14  34
HETATM   34  C23 UNL     1      -2.891   2.351  -0.277  1.00  0.00     0.241 C 
BRANCH  34  35
HETATM   35  O3  UNL     1      -2.475   3.210  -1.200  1.00  0.00    -0.331 OA
ATOM     36  H3  UNL     1      -2.769   4.108  -1.101  1.00  0.00     0.221 HD
ENDBRANCH  34  35
BRANCH  34  37
HETATM   37  N5  UNL     1      -3.711   2.937   0.695  1.00  0.00    -0.231 N 
ATOM     38  H5  UNL     1      -4.071   2.397   1.482  1.00  0.00     0.198 HD
BRANCH  37  39
HETATM   39  O4  UNL     1      -4.019   4.308   0.541  1.00  0.00    -0.282 OA
HETATM   40  C24 UNL     1      -5.418   4.404   0.624  1.00  0.00     0.237 C 
ENDBRANCH  37  39
ENDBRANCH  34  37
ENDBRANCH  14  34
TORSDOF 11
