REMARK  9 active torsions:
REMARK  status: ('A' for Active; 'I' for Inactive)
REMARK    1  A    between atoms: N2_7  and  N3_8 
REMARK    2  A    between atoms: C4_10  and  C5_11 
REMARK    3  A    between atoms: C6_17  and  N6_18 
REMARK    4  A    between atoms: C7_21  and  N7_22 
REMARK    5  A    between atoms: N7_22  and  C8_23 
REMARK    6  A    between atoms: C8_23  and  C9_24 
REMARK    7  A    between atoms: C9_24  and  N8_25 
REMARK    8  A    between atoms: C9_24  and  N9_29 
REMARK    9  A    between atoms: C11_34  and  N10_35 
ROOT
HETATM    1  C1  UNL     1      -3.059   5.456  -0.019  1.00  0.00     0.089 C 
HETATM    2  C2  UNL     1      -2.412   4.142  -0.074  1.00  0.00     0.079 A 
HETATM    3  N1  UNL     1      -1.120   3.962  -0.444  1.00  0.00    -0.338 N 
ATOM      4  H1  UNL     1      -0.542   4.762  -0.702  1.00  0.00     0.168 HD
HETATM    5  C3  UNL     1      -0.603   2.706  -0.467  1.00  0.00     0.113 A 
HETATM    6  S1  UNL     1       0.950   2.116  -0.872  1.00  0.00     0.032 SA
HETATM    7  N2  UNL     1       0.704   0.498  -0.626  1.00  0.00    -0.193 N 
HETATM    8  C7  UNL     1      -0.606   0.387  -0.218  1.00  0.00     0.222 A 
HETATM    9  C10 UNL     1      -1.276   1.567  -0.142  1.00  0.00     0.103 A 
HETATM   10  C11 UNL     1      -2.606   1.786   0.236  1.00  0.00     0.118 A 
HETATM   11  N11 UNL     1      -3.100   3.041   0.251  1.00  0.00    -0.332 N 
ATOM     12  H11 UNL     1      -4.073   3.160   0.532  1.00  0.00     0.168 HD
ENDROOT
BRANCH   7  13
HETATM   13  N3  UNL     1       1.681  -0.467  -0.817  1.00  0.00    -0.294 N 
HETATM   14  C4  UNL     1       2.816  -0.343  -0.226  1.00  0.00     0.143 C 
ATOM     15  H3  UNL     1       1.501  -1.269  -1.421  1.00  0.00     0.187 HD
BRANCH  14  16
HETATM   16  C5  UNL     1       3.879  -1.334  -0.396  1.00  0.00     0.118 A 
HETATM   17  N4  UNL     1       3.838  -2.460  -1.150  1.00  0.00    -0.237 N 
HETATM   18  O1  UNL     1       4.972  -3.067  -1.037  1.00  0.00    -0.155 OA
ATOM     19  H4  UNL     1       3.046  -2.774  -1.711  1.00  0.00     0.197 HD
HETATM   20  N5  UNL     1       5.783  -2.421  -0.251  1.00  0.00    -0.224 N 
HETATM   21  C6  UNL     1       5.133  -1.333   0.167  1.00  0.00     0.151 A 
ATOM     22  H5  UNL     1       6.734  -2.694  -0.002  1.00  0.00     0.198 HD
BRANCH  21  23
HETATM   23  N6  UNL     1       5.583  -0.427   0.960  1.00  0.00    -0.382 N 
ATOM     24  H62 UNL     1       5.086   0.405   1.279  1.00  0.00     0.157 HD
ATOM     25  H61 UNL     1       6.514  -0.426   1.378  1.00  0.00     0.157 HD
ENDBRANCH  21  23
ENDBRANCH  14  16
ENDBRANCH   7  13
BRANCH   8  26
HETATM   26  N7  UNL     1      -0.992  -0.771   0.021  1.00  0.00    -0.397 NA
BRANCH  26  27
HETATM   27  C8  UNL     1      -1.770  -1.788   0.364  1.00  0.00     0.219 C 
BRANCH  27  28
HETATM   28  C9  UNL     1      -1.156  -3.198   0.238  1.00  0.00     0.429 C 
BRANCH  28  29
HETATM   29  N8  UNL     1       0.009  -3.342   1.060  1.00  0.00    -0.045 N 
ATOM     30  H83 UNL     1       0.698  -2.617   0.860  1.00  0.00     0.277 HD
ATOM     31  H82 UNL     1      -0.190  -3.108   2.033  1.00  0.00     0.277 HD
ATOM     32  H81 UNL     1       0.415  -4.274   0.977  1.00  0.00     0.277 HD
ENDBRANCH  28  29
BRANCH  28  33
HETATM   33  N9  UNL     1      -0.951  -3.526  -1.143  1.00  0.00    -0.045 N 
ATOM     34  H93 UNL     1      -1.808  -3.433  -1.688  1.00  0.00     0.277 HD
ATOM     35  H92 UNL     1      -0.391  -2.822  -1.623  1.00  0.00     0.277 HD
ATOM     36  H91 UNL     1      -0.545  -4.458  -1.226  1.00  0.00     0.277 HD
ENDBRANCH  28  33
ENDBRANCH  27  28
ENDBRANCH  26  27
ENDBRANCH   8  26
BRANCH  10  37
HETATM   37  N10 UNL     1      -3.427   0.872   0.582  1.00  0.00    -0.385 N 
ATOM     38 2H10 UNL     1      -3.053  -0.077   0.571  1.00  0.00     0.157 HD
ATOM     39 1H10 UNL     1      -4.396   1.032   0.857  1.00  0.00     0.157 HD
ENDBRANCH  10  37
TORSDOF 9
