REMARK  9 active torsions:
REMARK  status: ('A' for Active; 'I' for Inactive)
REMARK    1  A    between atoms: C3_3  and  C4_4 
REMARK    2  A    between atoms: C4_4  and  N1_5 
REMARK    3  A    between atoms: C7_8  and  C8_9 
REMARK       I    between atoms: C8_9  and  N2_11 
REMARK    4  A    between atoms: N2_11  and  C9_13 
REMARK    5  A    between atoms: C12_16  and  C13_17 
REMARK       I    between atoms: C13_17  and  N3_19 
REMARK    6  A    between atoms: N3_19  and  C14_21 
REMARK    7  A    between atoms: C17_24  and  N4_25 
REMARK    8  A    between atoms: N4_25  and  C18_26 
REMARK    9  A    between atoms: N4_25  and  C20_28 
ROOT
HETATM    1  C1  UNL     1      13.463  -0.614   1.168  1.00  0.00     0.097 C 
HETATM    2  C2  UNL     1      12.322  -0.265   0.899  1.00  0.00    -0.186 C 
HETATM    3  C3  UNL     1      10.949   0.154   0.603  1.00  0.00     0.099 C 
ENDROOT
BRANCH   3   4
HETATM    4  C4  UNL     1      10.117  -1.083   0.429  1.00  0.00     0.139 C 
BRANCH   4   5
HETATM    5  N1  UNL     1       8.740  -0.798   0.135  1.00  0.00    -0.366 N 
HETATM    6  C5  UNL     1       7.845  -0.661   1.131  1.00  0.00     0.091 A 
HETATM    7  C6  UNL     1       6.506  -0.384   0.824  1.00  0.00     0.034 A 
HETATM    8  C7  UNL     1       6.084  -0.248  -0.475  1.00  0.00     0.035 A 
HETATM    9  C26 UNL     1       7.066  -0.402  -1.452  1.00  0.00     0.034 A 
HETATM   10  C27 UNL     1       8.375  -0.673  -1.151  1.00  0.00     0.091 A 
BRANCH   8  11
HETATM   11  C8  UNL     1       4.700   0.032  -0.836  1.00  0.00     0.256 C 
HETATM   12  O1  UNL     1       4.513   0.439  -2.007  1.00  0.00    -0.267 OA
HETATM   13  N2  UNL     1       3.663  -0.150   0.086  1.00  0.00    -0.323 N 
ATOM     14  H2  UNL     1       3.945  -0.490   1.005  1.00  0.00     0.169 HD
BRANCH  13  15
HETATM   15  C9  UNL     1       2.284   0.073  -0.083  1.00  0.00     0.035 A 
HETATM   16  C10 UNL     1       1.707   0.736  -1.138  1.00  0.00     0.030 A 
HETATM   17  C11 UNL     1       0.319   0.907  -1.248  1.00  0.00     0.019 A 
HETATM   18  C12 UNL     1      -0.533   0.412  -0.291  1.00  0.00     0.032 A 
HETATM   19  C24 UNL     1       0.027  -0.252   0.769  1.00  0.00     0.019 A 
HETATM   20  C25 UNL     1       1.393  -0.420   0.876  1.00  0.00     0.030 A 
BRANCH  18  21
HETATM   21  C13 UNL     1      -1.997   0.610  -0.421  1.00  0.00     0.256 C 
HETATM   22  O2  UNL     1      -2.364   1.468  -1.248  1.00  0.00    -0.267 OA
HETATM   23  N3  UNL     1      -2.914  -0.120   0.336  1.00  0.00    -0.323 N 
ATOM     24  H3  UNL     1      -2.547  -0.804   0.998  1.00  0.00     0.169 HD
BRANCH  23  25
HETATM   25  C14 UNL     1      -4.303   0.024   0.248  1.00  0.00     0.035 A 
HETATM   26  C15 UNL     1      -4.973   0.555  -0.808  1.00  0.00     0.032 A 
HETATM   27  C16 UNL     1      -6.365   0.678  -0.784  1.00  0.00     0.031 A 
HETATM   28  C17 UNL     1      -7.026   0.246   0.334  1.00  0.00     0.030 A 
HETATM   29  C22 UNL     1      -6.389  -0.294   1.417  1.00  0.00     0.031 A 
HETATM   30  C23 UNL     1      -5.028  -0.405   1.371  1.00  0.00     0.032 A 
BRANCH  28  31
HETATM   31  N4  UNL     1      -8.450   0.364   0.391  1.00  0.00    -0.382 N 
BRANCH  31  32
HETATM   32  C18 UNL     1      -9.011   1.560   0.942  1.00  0.00     0.118 C 
HETATM   33  C19 UNL     1      -9.717   2.407  -0.089  1.00  0.00     0.026 C 
ENDBRANCH  31  32
BRANCH  31  34
HETATM   34  C20 UNL     1      -9.247  -0.735  -0.114  1.00  0.00     0.118 C 
HETATM   35  C21 UNL     1      -8.365  -1.849  -0.629  1.00  0.00     0.026 C 
ENDBRANCH  31  34
ENDBRANCH  28  31
ENDBRANCH  23  25
ENDBRANCH  18  21
ENDBRANCH  13  15
ENDBRANCH   8  11
ENDBRANCH   4   5
ENDBRANCH   3   4
TORSDOF 9
