REMARK  9 active torsions:
REMARK  status: ('A' for Active; 'I' for Inactive)
REMARK    1  A    between atoms: C2_2  and  N1_3 
REMARK       I    between atoms: N1_3  and  C3_5 
REMARK       I    between atoms: C3_5  and  N2_7 
REMARK    2  A    between atoms: N2_7  and  C4_9 
REMARK    3  A    between atoms: C6_11  and  C7_12 
REMARK    4  A    between atoms: C7_12  and  N3_13 
REMARK    5  A    between atoms: N3_13  and  C8_14 
REMARK    6  A    between atoms: N3_13  and  S1_18 
REMARK    7  A    between atoms: C8_14  and  C9_15 
REMARK    8  A    between atoms: S1_18  and  C12_21 
REMARK    9  A    between atoms: C19_28  and  C20_29 
ROOT
HETATM    1  C4  UNL     1       2.765   1.202   1.391  1.00  0.00     0.109 A 
HETATM    2  C5  UNL     1       1.826   0.745   0.506  1.00  0.00     0.062 A 
HETATM    3  C6  UNL     1       1.186  -0.464   0.637  1.00  0.00    -0.009 A 
HETATM    4  C19 UNL     1       1.564  -1.212   1.760  1.00  0.00    -0.031 A 
HETATM    5  C22 UNL     1       2.485  -0.732   2.630  1.00  0.00     0.097 A 
HETATM    6  N4  UNL     1       3.087   0.417   2.501  1.00  0.00    -0.352 N 
ATOM      7  H4  UNL     1       3.771   0.733   3.188  1.00  0.00     0.166 HD
ENDROOT
BRANCH   3   8
HETATM    8  C7  UNL     1       0.293  -1.099  -0.296  1.00  0.00     0.115 C 
BRANCH   8   9
HETATM    9  N3  UNL     1      -1.026  -0.835  -0.627  1.00  0.00    -0.281 N 
BRANCH   9  10
HETATM   10  C8  UNL     1      -1.625  -2.158  -0.924  1.00  0.00     0.145 C 
BRANCH  10  11
HETATM   11  C9  UNL     1      -2.829  -2.537  -0.193  1.00  0.00    -0.004 C 
HETATM   12  C10 UNL     1      -3.157  -3.989  -0.671  1.00  0.00     0.011 C 
HETATM   13  C11 UNL     1      -2.841  -2.573   1.283  1.00  0.00     0.011 C 
ENDBRANCH  10  11
ENDBRANCH   9  10
BRANCH   9  14
HETATM   14  S1  UNL     1      -1.719   0.310  -1.580  1.00  0.00     0.264 S 
HETATM   15  O2  UNL     1      -2.443  -0.327  -2.813  1.00  0.00    -0.200 OA
HETATM   16  O3  UNL     1      -0.680   1.195  -2.301  1.00  0.00    -0.200 OA
BRANCH  14  17
HETATM   17  C12 UNL     1      -2.909   1.372  -0.860  1.00  0.00     0.080 A 
HETATM   18  C13 UNL     1      -4.269   0.976  -0.903  1.00  0.00     0.026 A 
HETATM   19  C14 UNL     1      -5.286   1.711  -0.376  1.00  0.00     0.008 A 
HETATM   20  C15 UNL     1      -5.034   2.917   0.240  1.00  0.00    -0.062 A 
HETATM   21  C16 UNL     1      -6.163   3.706   0.822  1.00  0.00     0.048 C 
HETATM   22  C17 UNL     1      -3.719   3.322   0.293  1.00  0.00     0.008 A 
HETATM   23  C18 UNL     1      -2.685   2.554  -0.248  1.00  0.00     0.026 A 
ENDBRANCH  14  17
ENDBRANCH   9  14
ENDBRANCH   8   9
ENDBRANCH   3   8
BRANCH   4  24
HETATM   24  C20 UNL     1       1.114  -2.622   1.948  1.00  0.00     0.036 C 
HETATM   25  C21 UNL     1       2.039  -3.555   1.131  1.00  0.00     0.010 C 
ENDBRANCH   4  24
BRANCH   1  26
HETATM   26  N2  UNL     1       3.720   2.016   1.195  1.00  0.00    -0.295 N 
HETATM   27  C3  UNL     1       4.242   2.737   0.128  1.00  0.00     0.321 C 
HETATM   28  N1  UNL     1       5.519   2.246  -0.404  1.00  0.00    -0.343 N 
HETATM   29  O1  UNL     1       3.739   3.719  -0.399  1.00  0.00    -0.247 OA
ATOM     30  H1  UNL     1       5.932   1.437   0.060  1.00  0.00     0.164 HD
ATOM     31  H2  UNL     1       4.246   2.187   2.052  1.00  0.00     0.172 HD
BRANCH  28  32
HETATM   32  C2  UNL     1       6.230   2.786  -1.496  1.00  0.00     0.120 C 
HETATM   33  C1  UNL     1       7.487   1.951  -1.761  1.00  0.00     0.026 C 
ENDBRANCH  28  32
ENDBRANCH   1  26
TORSDOF 9
