REMARK  9 active torsions:
REMARK  status: ('A' for Active; 'I' for Inactive)
REMARK    1  A    between atoms: C2_2  and  C3_3 
REMARK    2  A    between atoms: C3_3  and  C4_4 
REMARK    3  A    between atoms: C4_4  and  N1_5 
REMARK    4  A    between atoms: N1_5  and  C5_6 
REMARK       I    between atoms: N1_5  and  C8_9 
REMARK    5  A    between atoms: C5_6  and  C6_7 
REMARK    6  A    between atoms: C8_9  and  C9_11 
REMARK    7  A    between atoms: C10_12  and  C11_13 
REMARK    8  A    between atoms: C12_14  and  C13_15 
REMARK    9  A    between atoms: C13_15  and  C14_16 
ROOT
HETATM    1  C11 UNL     1      -0.186  -1.492   0.447  1.00  0.00     0.044 A 
HETATM    2  C12 UNL     1      -1.503  -1.328   0.599  1.00  0.00     0.030 A 
HETATM    3  C25 UNL     1      -2.147  -2.628   0.695  1.00  0.00     0.255 A 
HETATM    4  O2  UNL     1      -3.400  -2.876   0.846  1.00  0.00    -0.268 OA
HETATM    5  N3  UNL     1      -1.123  -3.602   0.591  1.00  0.00    -0.289 N 
ATOM      6  H3  UNL     1      -1.244  -4.614   0.621  1.00  0.00     0.172 HD
HETATM    7  C26 UNL     1       0.098  -2.906   0.437  1.00  0.00     0.259 A 
HETATM    8  O3  UNL     1       1.237  -3.482   0.313  1.00  0.00    -0.267 OA
ENDROOT
BRANCH   2   9
HETATM    9  C13 UNL     1      -2.223  -0.003   0.660  1.00  0.00     0.086 C 
BRANCH   9  10
HETATM   10  C14 UNL     1      -3.292   0.128  -0.345  1.00  0.00    -0.019 A 
HETATM   11  C15 UNL     1      -3.115   0.278  -1.704  1.00  0.00     0.013 A 
HETATM   12  C16 UNL     1      -1.811   0.308  -2.448  1.00  0.00     0.068 C 
HETATM   13  N2  UNL     1      -4.345   0.393  -2.233  1.00  0.00    -0.359 N 
HETATM   14  C17 UNL     1      -5.283   0.323  -1.274  1.00  0.00     0.043 A 
ATOM     15  H2  UNL     1      -4.540   0.517  -3.227  1.00  0.00     0.166 HD
HETATM   16  C18 UNL     1      -6.666   0.391  -1.264  1.00  0.00     0.037 A 
HETATM   17  C24 UNL     1      -4.663   0.153  -0.041  1.00  0.00    -0.000 A 
HETATM   18  C19 UNL     1      -7.443   0.303  -0.136  1.00  0.00    -0.054 A 
HETATM   19  C20 UNL     1      -8.929   0.381  -0.171  1.00  0.00     0.049 C 
HETATM   20  C21 UNL     1      -6.769   0.134   1.077  1.00  0.00    -0.055 A 
HETATM   21  C22 UNL     1      -7.612   0.040   2.295  1.00  0.00     0.049 C 
HETATM   22  C23 UNL     1      -5.397   0.060   1.123  1.00  0.00     0.021 A 
ENDBRANCH   9  10
ENDBRANCH   2   9
BRANCH   1  23
HETATM   23  C10 UNL     1       0.785  -0.384   0.316  1.00  0.00     0.023 C 
HETATM   24  C9  UNL     1       2.071  -0.578   0.168  1.00  0.00     0.075 C 
BRANCH  24  25
HETATM   25  C8  UNL     1       2.961   0.574   0.046  1.00  0.00     0.243 C 
HETATM   26  N1  UNL     1       4.365   0.427  -0.116  1.00  0.00    -0.349 N 
HETATM   27  O1  UNL     1       2.432   1.719   0.089  1.00  0.00    -0.268 OA
BRANCH  26  28
HETATM   28  C4  UNL     1       5.171   1.617  -0.234  1.00  0.00     0.126 C 
BRANCH  28  29
HETATM   29  C3  UNL     1       5.628   2.070   1.159  1.00  0.00     0.020 C 
BRANCH  29  30
HETATM   30  C2  UNL     1       6.472   3.316   1.053  1.00  0.00    -0.003 C 
HETATM   31  C1  UNL     1       7.699   3.049   0.204  1.00  0.00     0.005 C 
ENDBRANCH  29  30
ENDBRANCH  28  29
ENDBRANCH  26  28
BRANCH  26  32
HETATM   32  C5  UNL     1       4.978  -0.861  -0.161  1.00  0.00     0.125 C 
BRANCH  32  33
HETATM   33  C6  UNL     1       5.059  -1.419  -1.572  1.00  0.00     0.015 C 
HETATM   34  C7  UNL     1       5.720  -2.767  -1.479  1.00  0.00     0.006 C 
ENDBRANCH  32  33
ENDBRANCH  26  32
ENDBRANCH  24  25
ENDBRANCH   1  23
TORSDOF 9
