REMARK  10 active torsions:
REMARK  status: ('A' for Active; 'I' for Inactive)
REMARK    1  A    between atoms: C2_2  and  O1_3 
REMARK    2  A    between atoms: O1_3  and  N1_4 
REMARK    3  A    between atoms: N1_4  and  C3_5 
REMARK    4  A    between atoms: C3_5  and  C4_6 
REMARK    5  A    between atoms: C3_5  and  C5_9 
REMARK    6  A    between atoms: C4_6  and  O2_7 
REMARK    7  A    between atoms: C5_9  and  O3_10 
REMARK    8  A    between atoms: O3_10  and  C6_11 
REMARK    9  A    between atoms: C6_11  and  C7_12 
REMARK   10  A    between atoms: C7_12  and  O4_13 
ROOT
HETATM    1  C3  UNL     1      -0.134   0.338  -0.114  1.00  0.00     0.153 C 
ENDROOT
BRANCH   1   2
HETATM    2  N1  UNL     1      -0.948   0.483   1.076  1.00  0.00    -0.092 NA
BRANCH   2   3
HETATM    3  O1  UNL     1      -2.225   0.738   0.809  1.00  0.00    -0.286 OA
BRANCH   3   4
HETATM    4  C2  UNL     1      -3.009  -0.410   0.710  1.00  0.00     0.191 C 
HETATM    5  C1  UNL     1      -4.435  -0.019   0.406  1.00  0.00     0.035 C 
ENDBRANCH   3   4
ENDBRANCH   2   3
ENDBRANCH   1   2
BRANCH   1   6
HETATM    6  C4  UNL     1      -0.191   1.631  -0.923  1.00  0.00     0.189 C 
BRANCH   6   7
HETATM    7  O2  UNL     1      -1.505   1.920  -1.304  1.00  0.00    -0.399 OA
ATOM      8  H2  UNL     1      -1.540   2.725  -1.808  1.00  0.00     0.209 HD
ENDBRANCH   6   7
ENDBRANCH   1   6
BRANCH   1   9
HETATM    9  C5  UNL     1       1.323   0.113   0.236  1.00  0.00     0.193 C 
BRANCH   9  10
HETATM   10  O3  UNL     1       2.018  -0.014  -0.951  1.00  0.00    -0.387 OA
BRANCH  10  11
HETATM   11  C6  UNL     1       3.368  -0.225  -0.802  1.00  0.00     0.193 C 
BRANCH  11  12
HETATM   12  C7  UNL     1       3.703  -1.479  -0.033  1.00  0.00     0.190 C 
BRANCH  12  13
HETATM   13  O4  UNL     1       3.203  -2.621  -0.656  1.00  0.00    -0.399 OA
ATOM     14  H4  UNL     1       3.414  -3.411  -0.172  1.00  0.00     0.209 HD
ENDBRANCH  12  13
ENDBRANCH  11  12
ENDBRANCH  10  11
ENDBRANCH   9  10
ENDBRANCH   1   9
TORSDOF 10
