REMARK  4 active torsions:
REMARK  status: ('A' for Active; 'I' for Inactive)
REMARK    1  A    between atoms: C9_11  and  S1_12 
REMARK    2  A    between atoms: S1_12  and  C10_13 
REMARK    3  A    between atoms: C10_13  and  C11_14 
REMARK    4  A    between atoms: C11_14  and  N2_15 
ROOT
HETATM    1  C1  UNL     1      -5.482   1.840  -0.919  1.00  0.00     0.145 C 
HETATM    2  N1  UNL     1      -4.412   0.933  -1.175  1.00  0.00    -0.401 N 
ATOM      3  H1  UNL     1      -4.600   0.134  -1.780  1.00  0.00     0.158 HD
HETATM    4  C2  UNL     1      -3.243   1.053  -0.701  1.00  0.00    -0.018 C 
HETATM    5  C3  UNL     1      -2.927   2.187   0.177  1.00  0.00     0.052 C 
HETATM    6  C4  UNL     1      -1.899   1.807   1.223  1.00  0.00     0.010 C 
HETATM    7  C5  UNL     1      -0.728   1.051   0.589  1.00  0.00    -0.009 C 
HETATM    8  C6  UNL     1       0.308   0.858   1.633  1.00  0.00     0.005 C 
HETATM    9  C7  UNL     1       1.260  -0.324   1.355  1.00  0.00     0.007 C 
HETATM   10  C8  UNL     1       1.029  -0.676  -0.079  1.00  0.00     0.008 C 
HETATM   11  C9  UNL     1       1.961  -1.520  -0.805  1.00  0.00     0.052 C 
HETATM   12  C12 UNL     1       1.110  -2.725  -1.241  1.00  0.00     0.016 C 
HETATM   13  C13 UNL     1      -0.283  -2.045  -1.403  1.00  0.00     0.011 C 
HETATM   14  C14 UNL     1      -0.339  -1.349  -0.097  1.00  0.00    -0.035 C 
HETATM   15  C15 UNL     1      -0.530  -2.376   0.979  1.00  0.00     0.016 C 
HETATM   16  C16 UNL     1      -1.331  -0.278   0.107  1.00  0.00     0.003 C 
HETATM   17  C17 UNL     1      -2.227   0.009  -1.070  1.00  0.00     0.057 C 
ENDROOT
BRANCH  11  18
HETATM   18  S1  UNL     1       3.587  -1.829  -0.307  1.00  0.00    -0.162 SA
BRANCH  18  19
HETATM   19  C10 UNL     1       4.898  -0.712  -0.620  1.00  0.00     0.101 C 
BRANCH  19  20
HETATM   20  C11 UNL     1       4.828   0.669  -0.056  1.00  0.00     0.239 C 
BRANCH  20  21
HETATM   21  N2  UNL     1       3.742   1.396  -0.621  1.00  0.00    -0.079 N 
ATOM     22  H23 UNL     1       3.786   1.407  -1.640  1.00  0.00     0.274 HD
ATOM     23  H22 UNL     1       2.858   0.899  -0.510  1.00  0.00     0.274 HD
ATOM     24  H21 UNL     1       3.694   2.339  -0.236  1.00  0.00     0.274 HD
ENDBRANCH  20  21
ENDBRANCH  19  20
ENDBRANCH  18  19
ENDBRANCH  11  18
TORSDOF 4
