REMARK  6 active torsions:
REMARK  status: ('A' for Active; 'I' for Inactive)
REMARK    1  A    between atoms: C2_2  and  C6_13 
REMARK    2  A    between atoms: N1_3  and  O1_5 
REMARK    3  A    between atoms: O1_5  and  C3_6 
REMARK    4  A    between atoms: C3_6  and  N3_10 
REMARK    5  A    between atoms: C11_18  and  C12_19 
REMARK    6  A    between atoms: C12_19  and  N4_20 
ROOT
HETATM    1  C6  UNL     1       0.138   1.481   0.638  1.00  0.00     0.038 C 
HETATM    2  C7  UNL     1      -0.309   2.106   1.912  1.00  0.00     0.011 C 
HETATM    3  C8  UNL     1      -1.321   3.197   1.706  1.00  0.00     0.001 C 
HETATM    4  C9  UNL     1      -1.924   3.334   0.377  1.00  0.00     0.000 C 
HETATM    5  C10 UNL     1      -1.716   2.279  -0.640  1.00  0.00     0.007 C 
HETATM    6  C11 UNL     1      -1.041   1.009  -0.114  1.00  0.00     0.023 C 
ENDROOT
BRANCH   1   7
HETATM    7  C2  UNL     1       1.239   0.548   0.784  1.00  0.00     0.011 C 
HETATM    8  C1  UNL     1       2.533   1.047   1.329  1.00  0.00     0.066 C 
HETATM    9  N1  UNL     1       1.200  -0.697   0.460  1.00  0.00    -0.266 N 
ATOM     10  H1  UNL     1       0.330  -1.074   0.084  1.00  0.00     0.194 HD
BRANCH   9  11
HETATM   11  O1  UNL     1       2.261  -1.533   0.594  1.00  0.00    -0.202 OA
BRANCH  11  12
HETATM   12  C3  UNL     1       3.246  -1.663  -0.403  1.00  0.00     0.238 C 
HETATM   13  N2  UNL     1       2.832  -1.450  -1.604  1.00  0.00    -0.364 N 
ATOM     14  H22 UNL     1       1.864  -1.206  -1.812  1.00  0.00     0.159 HD
ATOM     15  H21 UNL     1       3.546  -1.544  -2.327  1.00  0.00     0.159 HD
BRANCH  12  16
HETATM   16  N3  UNL     1       4.574  -1.998  -0.118  1.00  0.00    -0.355 N 
HETATM   17  C4  UNL     1       5.580  -1.952  -1.164  1.00  0.00     0.152 C 
HETATM   18  C5  UNL     1       5.001  -2.385   1.203  1.00  0.00     0.152 C 
ENDBRANCH  12  16
ENDBRANCH  11  12
ENDBRANCH   9  11
ENDBRANCH   1   7
BRANCH   6  19
HETATM   19  C12 UNL     1      -2.060   0.208   0.658  1.00  0.00     0.277 C 
BRANCH  19  20
HETATM   20  N4  UNL     1      -3.145  -0.163  -0.276  1.00  0.00     0.088 N 
HETATM   21  C13 UNL     1      -2.649  -1.120  -1.246  1.00  0.00     0.272 C 
HETATM   22  C14 UNL     1      -3.711  -2.152  -1.488  1.00  0.00     0.032 C 
HETATM   23  C15 UNL     1      -4.916  -1.589  -0.726  1.00  0.00     0.032 C 
HETATM   24  C16 UNL     1      -4.160  -0.910   0.426  1.00  0.00     0.272 C 
ENDBRANCH  19  20
ENDBRANCH   6  19
TORSDOF 6
