REMARK  3 active torsions:
REMARK  status: ('A' for Active; 'I' for Inactive)
REMARK    1  A    between atoms: C2_4  and  C4_6 
REMARK    2  A    between atoms: C7_10  and  N2_11 
REMARK       I    between atoms: N2_11  and  C8_13 
REMARK    3  A    between atoms: C8_13  and  C9_15 
ROOT
HETATM    1  C4  UNL     1       2.977  -0.296   0.033  1.00  0.00     0.025 A 
HETATM    2  C5  UNL     1       2.596   0.214   1.277  1.00  0.00     0.064 A 
HETATM    3  C6  UNL     1       3.549   0.544   2.404  1.00  0.00     0.077 C 
HETATM    4  O1  UNL     1       1.348   0.340   1.276  1.00  0.00    -0.297 OA
HETATM    5  C7  UNL     1       0.738  -0.030   0.132  1.00  0.00     0.157 A 
HETATM    6  C16 UNL     1       1.809  -0.442  -0.653  1.00  0.00     0.004 A 
HETATM    7  C17 UNL     1       1.661  -1.052  -1.989  1.00  0.00     0.054 C 
ENDROOT
BRANCH   5   8
HETATM    8  N2  UNL     1      -0.649   0.064  -0.006  1.00  0.00    -0.306 N 
HETATM    9  C8  UNL     1      -1.576  -0.017  -1.013  1.00  0.00     0.229 C 
HETATM   10  O2  UNL     1      -1.183  -0.216  -2.201  1.00  0.00    -0.273 OA
ATOM     11  H2  UNL     1      -1.097   0.243   0.893  1.00  0.00     0.171 HD
BRANCH   9  12
HETATM   12  C9  UNL     1      -3.049   0.101  -0.894  1.00  0.00     0.095 A 
HETATM   13  C10 UNL     1      -3.873  -0.302   0.226  1.00  0.00    -0.027 A 
HETATM   14  C11 UNL     1      -5.167  -1.094  -0.136  1.00  0.00     0.016 C 
HETATM   15  C12 UNL     1      -3.497  -0.559   1.627  1.00  0.00     0.016 C 
HETATM   16  C13 UNL     1      -3.798   1.146  -0.212  1.00  0.00    -0.027 A 
HETATM   17  C14 UNL     1      -3.268   2.228   0.645  1.00  0.00     0.016 C 
HETATM   18  C15 UNL     1      -5.153   1.598  -0.843  1.00  0.00     0.016 C 
ENDBRANCH   9  12
ENDBRANCH   5   8
BRANCH   1  19
HETATM   19  C2  UNL     1       4.354  -0.558  -0.339  1.00  0.00     0.014 C 
HETATM   20  N1  UNL     1       5.303  -0.343   0.558  1.00  0.00    -0.397 N 
HETATM   21  C1  UNL     1       6.696  -0.528   0.295  1.00  0.00     0.146 C 
ATOM     22  H1  UNL     1       5.025  -0.028   1.488  1.00  0.00     0.158 HD
HETATM   23  C3  UNL     1       4.862  -1.007  -1.645  1.00  0.00     0.068 C 
ENDBRANCH   1  19
TORSDOF 3
