REMARK  10 active torsions:
REMARK  status: ('A' for Active; 'I' for Inactive)
REMARK    1  A    between atoms: C2_2  and  C3_3 
REMARK    2  A    between atoms: C3_3  and  C6_6 
REMARK    3  A    between atoms: C6_6  and  C7_7 
REMARK    4  A    between atoms: C7_7  and  C8_8 
REMARK    5  A    between atoms: C8_8  and  O1_9 
REMARK    6  A    between atoms: C9_11  and  O2_12 
REMARK    7  A    between atoms: C10_14  and  O3_15 
REMARK    8  A    between atoms: O3_15  and  C11_16 
REMARK    9  A    between atoms: C11_16  and  C12_18 
REMARK   10  A    between atoms: C12_18  and  C14_20 
ROOT
HETATM    1  C8  UNL     1       0.720  -1.290   0.184  1.00  0.00     0.105 C 
HETATM    2  C9  UNL     1       0.019  -1.710   1.468  1.00  0.00     0.123 A 
HETATM    3  C10 UNL     1      -1.445  -1.892   1.495  1.00  0.00     0.177 A 
HETATM    4  C16 UNL     1      -0.824  -0.558   1.853  1.00  0.00     0.067 A 
HETATM    5  C17 UNL     1      -0.795   0.457   0.773  1.00  0.00     0.048 C 
HETATM    6  C18 UNL     1      -0.445   1.834   1.210  1.00  0.00     0.067 C 
HETATM    7  C19 UNL     1      -0.626   2.058   2.695  1.00  0.00     0.039 C 
HETATM    8  C20 UNL     1      -0.824   3.573   2.836  1.00  0.00     0.012 C 
HETATM    9  C21 UNL     1      -1.326   4.044   1.504  1.00  0.00    -0.045 C 
HETATM   10  C22 UNL     1      -0.285   5.006   0.946  1.00  0.00     0.015 C 
HETATM   11  C23 UNL     1      -2.672   4.710   1.569  1.00  0.00     0.015 C 
HETATM   12  C24 UNL     1      -1.442   2.810   0.635  1.00  0.00     0.047 C 
HETATM   13  O5  UNL     1       0.805   2.148   0.796  1.00  0.00    -0.373 OA
HETATM   14  C25 UNL     1       1.237   1.187  -0.113  1.00  0.00     0.142 A 
HETATM   15  C26 UNL     1       1.195   1.851  -1.495  1.00  0.00     0.066 A 
HETATM   16  C27 UNL     1       0.247   1.047  -2.281  1.00  0.00    -0.084 A 
HETATM   17  C28 UNL     1      -0.107   1.326  -3.715  1.00  0.00     0.043 C 
HETATM   18  C29 UNL     1      -0.242   0.060  -1.562  1.00  0.00    -0.009 A 
HETATM   19  C30 UNL     1       0.316   0.063  -0.174  1.00  0.00     0.045 A 
ENDROOT
BRANCH   1  20
HETATM   20  C7  UNL     1       2.159  -1.624   0.351  1.00  0.00     0.043 C 
BRANCH  20  21
HETATM   21  C6  UNL     1       3.000  -1.568  -0.879  1.00  0.00     0.016 C 
BRANCH  21  22
HETATM   22  C3  UNL     1       4.448  -1.927  -0.607  1.00  0.00    -0.031 C 
HETATM   23  C4  UNL     1       5.185  -1.825  -1.928  1.00  0.00     0.019 C 
HETATM   24  C5  UNL     1       5.067  -0.960   0.379  1.00  0.00     0.019 C 
BRANCH  22  25
HETATM   25  C2  UNL     1       4.596  -3.293  -0.064  1.00  0.00    -0.028 C 
HETATM   26  C1  UNL     1       5.478  -3.624   0.864  1.00  0.00     0.007 C 
ENDBRANCH  22  25
ENDBRANCH  21  22
ENDBRANCH  20  21
ENDBRANCH   1  20
BRANCH   1  27
HETATM   27  O1  UNL     1       0.236  -2.235  -0.768  1.00  0.00    -0.385 OA
ATOM     28  H1  UNL     1      -0.684  -2.022  -0.875  1.00  0.00     0.210 HD
ENDBRANCH   1  27
BRANCH   2  29
HETATM   29  O2  UNL     1       0.766  -2.424   2.401  1.00  0.00    -0.383 OA
ATOM     30  H2  UNL     1       0.328  -2.686   3.202  1.00  0.00     0.210 HD
ENDBRANCH   2  29
BRANCH   3  31
HETATM   31  O3  UNL     1      -2.239  -1.924   0.355  1.00  0.00    -0.312 OA
BRANCH  31  32
HETATM   32  C11 UNL     1      -3.434  -2.565   0.198  1.00  0.00     0.263 C 
HETATM   33  O4  UNL     1      -3.884  -3.208   1.197  1.00  0.00    -0.265 OA
BRANCH  32  34
HETATM   34  C12 UNL     1      -4.146  -2.493  -1.090  1.00  0.00     0.081 C 
HETATM   35  C13 UNL     1      -3.367  -3.045  -2.246  1.00  0.00     0.020 C 
BRANCH  34  36
HETATM   36  C14 UNL     1      -4.503  -1.042  -1.425  1.00  0.00     0.010 C 
HETATM   37  C15 UNL     1      -5.386  -0.527  -0.320  1.00  0.00     0.006 C 
ENDBRANCH  34  36
ENDBRANCH  32  34
ENDBRANCH  31  32
ENDBRANCH   3  31
TORSDOF 10
