REMARK  10 active torsions:
REMARK  status: ('A' for Active; 'I' for Inactive)
REMARK    1  A    between atoms: C2_2  and  C3_3 
REMARK    2  A    between atoms: C2_2  and  C28_35 
REMARK    3  A    between atoms: C3_3  and  C4_4 
REMARK    4  A    between atoms: C4_4  and  C5_5 
REMARK    5  A    between atoms: C5_5  and  C7_7 
REMARK    6  A    between atoms: C15_16  and  O2_17 
REMARK    7  A    between atoms: C19_22  and  O3_23 
REMARK    8  A    between atoms: O3_23  and  C20_24 
REMARK    9  A    between atoms: C20_24  and  C21_26 
REMARK   10  A    between atoms: C21_26  and  O5_29 
ROOT
HETATM    1  C7  UNL     1       0.917  -0.510   0.449  1.00  0.00     0.004 C 
HETATM    2  C8  UNL     1       1.662  -1.827   0.272  1.00  0.00    -0.013 C 
HETATM    3  C9  UNL     1       2.164  -2.511   1.469  1.00  0.00     0.010 C 
HETATM    4  C10 UNL     1       0.702  -2.807  -0.364  1.00  0.00     0.010 C 
HETATM    5  C11 UNL     1      -0.468  -1.936  -0.601  1.00  0.00     0.002 C 
HETATM    6  C12 UNL     1      -1.674  -2.618  -1.041  1.00  0.00     0.009 C 
HETATM    7  C13 UNL     1      -2.216  -3.768  -0.292  1.00  0.00     0.087 C 
HETATM    8  C14 UNL     1      -3.611  -3.392   0.160  1.00  0.00     0.162 C 
HETATM    9  O1  UNL     1      -4.118  -3.804   1.169  1.00  0.00    -0.295 OA
HETATM   10  C15 UNL     1      -4.112  -2.464  -0.898  1.00  0.00     0.126 C 
HETATM   11  C16 UNL     1      -5.014  -1.373  -0.308  1.00  0.00     0.047 C 
HETATM   12  C17 UNL     1      -4.099  -0.147  -0.104  1.00  0.00     0.011 C 
HETATM   13  C18 UNL     1      -2.806  -0.812  -0.008  1.00  0.00     0.028 C 
HETATM   14  C19 UNL     1      -1.549   0.047  -0.027  1.00  0.00     0.145 C 
HETATM   15  C24 UNL     1      -0.504  -0.875   0.487  1.00  0.00    -0.009 C 
HETATM   16  C25 UNL     1      -0.868  -1.317   1.854  1.00  0.00     0.018 C 
HETATM   17  C26 UNL     1      -2.850  -1.718  -1.233  1.00  0.00     0.005 C 
HETATM   18  C27 UNL     1      -2.885  -0.980  -2.517  1.00  0.00     0.020 C 
ENDROOT
BRANCH   1  19
HETATM   19  C5  UNL     1       1.609   0.245   1.465  1.00  0.00    -0.013 C 
HETATM   20  C6  UNL     1       1.128   1.564   1.936  1.00  0.00     0.010 C 
BRANCH  19  21
HETATM   21  C4  UNL     1       3.048   0.499   0.990  1.00  0.00     0.009 C 
BRANCH  21  22
HETATM   22  C3  UNL     1       3.140   1.514  -0.110  1.00  0.00     0.034 C 
BRANCH  22  23
HETATM   23  C2  UNL     1       4.620   1.638  -0.433  1.00  0.00    -0.086 C 
HETATM   24  C1  UNL     1       5.200   2.806  -0.288  1.00  0.00     0.014 C 
BRANCH  23  25
HETATM   25  C28 UNL     1       5.398   0.494  -0.902  1.00  0.00     0.005 C 
HETATM   26  C29 UNL     1       4.836  -0.181  -2.121  1.00  0.00     0.014 C 
HETATM   27  C30 UNL     1       6.825   0.889  -1.158  1.00  0.00     0.014 C 
ENDBRANCH  23  25
ENDBRANCH  22  23
ENDBRANCH  21  22
ENDBRANCH  19  21
ENDBRANCH   1  19
BRANCH  14  28
HETATM   28  O3  UNL     1      -1.945   1.147   0.701  1.00  0.00    -0.312 OA
BRANCH  28  29
HETATM   29  C20 UNL     1      -2.085   2.368   0.077  1.00  0.00     0.293 C 
HETATM   30  O4  UNL     1      -1.864   2.511  -1.136  1.00  0.00    -0.262 OA
BRANCH  29  31
HETATM   31  C21 UNL     1      -2.508   3.537   0.864  1.00  0.00     0.138 C 
HETATM   32  C22 UNL     1      -3.826   4.096   0.374  1.00  0.00     0.056 C 
HETATM   33  C23 UNL     1      -1.426   4.613   0.871  1.00  0.00     0.056 C 
BRANCH  31  34
HETATM   34  O5  UNL     1      -2.709   3.183   2.211  1.00  0.00    -0.380 OA
ATOM     35  H5  UNL     1      -2.982   3.938   2.719  1.00  0.00     0.211 HD
ENDBRANCH  31  34
ENDBRANCH  29  31
ENDBRANCH  28  29
ENDBRANCH  14  28
BRANCH  10  36
HETATM   36  O2  UNL     1      -4.691  -3.103  -1.958  1.00  0.00    -0.381 OA
ATOM     37  H2  UNL     1      -5.010  -2.513  -2.631  1.00  0.00     0.211 HD
ENDBRANCH  10  36
TORSDOF 10
