REMARK  12 active torsions:
REMARK  status: ('A' for Active; 'I' for Inactive)
REMARK    1  A    between atoms: C2_2  and  C3_3 
REMARK    2  A    between atoms: C3_3  and  C4_4 
REMARK    3  A    between atoms: C4_4  and  C5_5 
REMARK    4  A    between atoms: C5_5  and  C6_6 
REMARK    5  A    between atoms: C6_6  and  C7_7 
REMARK    6  A    between atoms: C7_7  and  N1_8 
REMARK    7  A    between atoms: N1_8  and  C8_10 
REMARK    8  A    between atoms: C11_18  and  N4_19 
REMARK    9  A    between atoms: C13_25  and  C14_26 
REMARK   10  A    between atoms: C14_26  and  C15_27 
REMARK   11  A    between atoms: C19_31  and  C20_32 
REMARK   12  A    between atoms: C20_32  and  N6_33 
ROOT
HETATM    1  C8  UNL     1       2.706   1.708  -0.430  1.00  0.00     0.681 A 
HETATM    2  N2  UNL     1       2.690   2.300  -1.616  1.00  0.00    -0.176 N 
ATOM      3  H2  UNL     1       3.578   2.424  -2.102  1.00  0.00     0.186 HD
HETATM    4  C9  UNL     1       1.551   2.756  -2.229  1.00  0.00     0.132 A 
HETATM    5  N3  UNL     1       1.651   3.290  -3.329  1.00  0.00    -0.384 N 
ATOM      6  H31 UNL     1       0.804   3.629  -3.785  1.00  0.00     0.157 HD
ATOM      7  H32 UNL     1       2.527   3.425  -3.833  1.00  0.00     0.157 HD
HETATM    8  C10 UNL     1       0.360   2.572  -1.544  1.00  0.00     0.096 A 
HETATM    9  C11 UNL     1      -0.870   2.970  -2.011  1.00  0.00     0.118 A 
HETATM   10  N5  UNL     1      -1.963   2.760  -1.296  1.00  0.00    -0.328 N 
ATOM     11  H5  UNL     1      -2.856   3.070  -1.678  1.00  0.00     0.169 HD
HETATM   12  C12 UNL     1      -1.960   2.148  -0.068  1.00  0.00     0.104 A 
HETATM   13  C13 UNL     1      -3.250   2.054   0.571  1.00  0.00     0.028 C 
HETATM   14  N8  UNL     1      -0.768   1.772   0.368  1.00  0.00    -0.328 N 
ATOM     15  H8  UNL     1      -0.712   1.313   1.277  1.00  0.00     0.169 HD
HETATM   16  C24 UNL     1       0.368   1.959  -0.315  1.00  0.00     0.140 A 
HETATM   17  N9  UNL     1       1.518   1.539   0.223  1.00  0.00    -0.176 N 
ATOM     18  H9  UNL     1       1.508   1.085   1.136  1.00  0.00     0.186 HD
ENDROOT
BRANCH  13  19
HETATM   19  C14 UNL     1      -3.537   1.064   1.608  1.00  0.00     0.088 C 
BRANCH  19  20
HETATM   20  C15 UNL     1      -3.502  -0.372   1.180  1.00  0.00     0.013 A 
HETATM   21  C16 UNL     1      -2.412  -1.202   1.295  1.00  0.00     0.025 A 
HETATM   22  C17 UNL     1      -2.468  -2.511   0.859  1.00  0.00     0.004 A 
HETATM   23  C18 UNL     1      -3.620  -3.001   0.303  1.00  0.00     0.027 A 
HETATM   24  C19 UNL     1      -4.730  -2.163   0.186  1.00  0.00     0.027 A 
HETATM   25  N7  UNL     1      -4.612  -0.919   0.622  1.00  0.00    -0.361 N 
ATOM     26  H7  UNL     1      -5.430  -0.316   0.530  1.00  0.00     0.165 HD
BRANCH  24  27
HETATM   27  C20 UNL     1      -5.996  -2.687  -0.424  1.00  0.00     0.176 C 
BRANCH  27  28
HETATM   28  N6  UNL     1      -7.105  -1.820  -0.330  1.00  0.00    -0.385 N 
HETATM   29  C21 UNL     1      -7.550  -1.447   0.967  1.00  0.00     0.145 C 
HETATM   30  C22 UNL     1      -7.956   0.016   0.731  1.00  0.00     0.189 C 
HETATM   31  O1  UNL     1      -8.222   0.051  -0.642  1.00  0.00    -0.371 OA
HETATM   32  C23 UNL     1      -7.128  -0.674  -1.170  1.00  0.00     0.288 C 
ENDBRANCH  27  28
ENDBRANCH  24  27
ENDBRANCH  19  20
ENDBRANCH  13  19
BRANCH   9  33
HETATM   33  N4  UNL     1      -0.924   3.558  -3.177  1.00  0.00    -0.385 N 
ATOM     34  H42 UNL     1      -0.081   3.720  -3.728  1.00  0.00     0.157 HD
ATOM     35  H41 UNL     1      -1.837   3.853  -3.524  1.00  0.00     0.157 HD
ENDBRANCH   9  33
BRANCH   1  36
HETATM   36  N1  UNL     1       3.790   1.289   0.131  1.00  0.00    -0.226 N 
ATOM     37  H1  UNL     1       4.665   1.428  -0.374  1.00  0.00     0.177 HD
BRANCH  36  38
HETATM   38  C7  UNL     1       3.859   0.650   1.396  1.00  0.00     0.138 C 
BRANCH  38  39
HETATM   39  C6  UNL     1       5.202   0.491   1.994  1.00  0.00     0.020 C 
BRANCH  39  40
HETATM   40  C5  UNL     1       6.158  -0.363   1.224  1.00  0.00     0.002 C 
BRANCH  40  41
HETATM   41  C4  UNL     1       6.500   0.085  -0.142  1.00  0.00     0.000 C 
BRANCH  41  42
HETATM   42  C3  UNL     1       7.567  -0.678  -0.832  1.00  0.00    -0.000 C 
BRANCH  42  43
HETATM   43  C2  UNL     1       7.362  -2.102  -1.080  1.00  0.00    -0.005 C 
HETATM   44  C1  UNL     1       7.265  -3.036   0.065  1.00  0.00     0.005 C 
ENDBRANCH  42  43
ENDBRANCH  41  42
ENDBRANCH  40  41
ENDBRANCH  39  40
ENDBRANCH  38  39
ENDBRANCH  36  38
ENDBRANCH   1  36
TORSDOF 12
