REMARK  14 active torsions:
REMARK  status: ('A' for Active; 'I' for Inactive)
REMARK    1  A    between atoms: C2_2  and  C3_3 
REMARK    2  A    between atoms: C4_4  and  C5_5 
REMARK    3  A    between atoms: C5_5  and  C6_6 
REMARK    4  A    between atoms: C7_7  and  O1_8 
REMARK    5  A    between atoms: C8_10  and  O2_11 
REMARK    6  A    between atoms: C9_13  and  O3_14 
REMARK    7  A    between atoms: C13_22  and  C14_23 
REMARK    8  A    between atoms: C15_26  and  S1_27 
REMARK    9  A    between atoms: S1_27  and  C16_28 
REMARK   10  A    between atoms: C16_28  and  C17_29 
REMARK   11  A    between atoms: C17_29  and  C18_30 
REMARK   12  A    between atoms: C18_30  and  C19_31 
REMARK   13  A    between atoms: C19_31  and  C20_32 
REMARK   14  A    between atoms: C20_32  and  C21_33 
ROOT
HETATM    1  C6  UNL     1      -1.974   0.144   0.037  1.00  0.00     0.054 C 
HETATM    2  C7  UNL     1      -3.002   1.155  -0.184  1.00  0.00     0.156 C 
HETATM    3  C8  UNL     1      -3.786   1.234  -1.390  1.00  0.00     0.176 C 
HETATM    4  C9  UNL     1      -3.358   0.673  -2.672  1.00  0.00     0.153 C 
HETATM    5  C10 UNL     1      -1.967   0.747  -3.114  1.00  0.00     0.077 C 
HETATM    6  C11 UNL     1      -0.882   0.947  -2.127  1.00  0.00     0.020 C 
HETATM    7  C12 UNL     1      -0.652   2.357  -1.850  1.00  0.00     0.251 C 
HETATM    8  O4  UNL     1      -1.360   3.151  -2.508  1.00  0.00    -0.268 OA
HETATM    9  N1  UNL     1       0.243   2.983  -0.956  1.00  0.00    -0.316 N 
ATOM     10  H1  UNL     1       0.341   3.995  -1.042  1.00  0.00     0.169 HD
HETATM   11  C13 UNL     1       1.016   2.357   0.043  1.00  0.00     0.141 C 
HETATM   12  C15 UNL     1       1.098   1.063   0.308  1.00  0.00     0.138 C 
HETATM   13  O6  UNL     1       0.430   0.052  -0.355  1.00  0.00    -0.331 OA
HETATM   14  C23 UNL     1      -0.879   0.028  -0.954  1.00  0.00     0.171 C 
ENDROOT
BRANCH  12  15
HETATM   15  S1  UNL     1       2.192   0.676   1.657  1.00  0.00    -0.103 SA
BRANCH  15  16
HETATM   16  C16 UNL     1       2.277  -1.091   1.980  1.00  0.00     0.081 C 
BRANCH  16  17
HETATM   17  C17 UNL     1       2.923  -1.858   0.844  1.00  0.00     0.010 C 
BRANCH  17  18
HETATM   18  C18 UNL     1       4.366  -1.347   0.633  1.00  0.00     0.001 C 
BRANCH  18  19
HETATM   19  C19 UNL     1       4.979  -2.119  -0.491  1.00  0.00     0.000 C 
BRANCH  19  20
HETATM   20  C20 UNL     1       6.383  -1.834  -0.830  1.00  0.00    -0.000 C 
BRANCH  20  21
HETATM   21  C21 UNL     1       6.746  -0.463  -1.252  1.00  0.00    -0.005 C 
HETATM   22  C22 UNL     1       6.555   0.632  -0.268  1.00  0.00     0.005 C 
ENDBRANCH  20  21
ENDBRANCH  19  20
ENDBRANCH  18  19
ENDBRANCH  17  18
ENDBRANCH  16  17
ENDBRANCH  15  16
ENDBRANCH  12  15
BRANCH  11  23
HETATM   23  C14 UNL     1       1.807   3.260   0.864  1.00  0.00     0.284 C 
HETATM   24  N2  UNL     1       1.772   4.650   0.641  1.00  0.00    -0.056 NA
HETATM   25  O5  UNL     1       2.515   2.789   1.767  1.00  0.00    -0.269 OA
ENDBRANCH  11  23
BRANCH   1  26
HETATM   26  C5  UNL     1      -2.439  -1.247   0.439  1.00  0.00     0.037 C 
BRANCH  26  27
HETATM   27  C4  UNL     1      -3.202  -1.329   1.684  1.00  0.00    -0.030 C 
HETATM   28  C3  UNL     1      -4.440  -1.785   1.783  1.00  0.00    -0.031 C 
BRANCH  28  29
HETATM   29  C2  UNL     1      -5.111  -1.819   3.106  1.00  0.00     0.022 C 
HETATM   30  C1  UNL     1      -6.365  -0.996   3.157  1.00  0.00     0.009 C 
ENDBRANCH  28  29
ENDBRANCH  26  27
ENDBRANCH   1  26
BRANCH   2  31
HETATM   31  O1  UNL     1      -3.882   1.120   0.937  1.00  0.00    -0.392 OA
ATOM     32  H1  UNL     1      -4.552   1.778   0.793  1.00  0.00     0.210 HD
ENDBRANCH   2  31
BRANCH   3  33
HETATM   33  O2  UNL     1      -5.055   0.630  -1.139  1.00  0.00    -0.390 OA
ATOM     34  H2  UNL     1      -5.572   0.682  -1.934  1.00  0.00     0.210 HD
ENDBRANCH   3  33
BRANCH   4  35
HETATM   35  O3  UNL     1      -3.869  -0.647  -2.865  1.00  0.00    -0.393 OA
ATOM     36  H3  UNL     1      -3.591  -1.011  -3.697  1.00  0.00     0.210 HD
ENDBRANCH   4  35
TORSDOF 14
