REMARK  13 active torsions:
REMARK  status: ('A' for Active; 'I' for Inactive)
REMARK    1  A    between atoms: C5_6  and  C6_7 
REMARK    2  A    between atoms: C6_7  and  N1_8 
REMARK    3  A    between atoms: N1_8  and  C7_11 
REMARK    4  A    between atoms: C7_11  and  C8_12 
REMARK    5  A    between atoms: C8_12  and  N2_13 
REMARK    6  A    between atoms: N2_13  and  C9_16 
REMARK    7  A    between atoms: C9_16  and  C10_17 
REMARK    8  A    between atoms: C10_17  and  C11_18 
REMARK    9  A    between atoms: C11_18  and  N3_19 
REMARK   10  A    between atoms: N3_19  and  C12_21 
REMARK   11  A    between atoms: C15_24  and  N4_25 
REMARK   12  A    between atoms: C16_30  and  C17_31 
REMARK   13  A    between atoms: C17_31  and  N6_32 
ROOT
HETATM    1  C12 UNL     1      -1.039   0.740   1.424  1.00  0.00     0.101 A 
HETATM    2  C13 UNL     1      -1.754  -0.175   0.674  1.00  0.00     0.064 A 
HETATM    3  C14 UNL     1      -3.086  -0.447   0.907  1.00  0.00     0.023 A 
HETATM    4  C15 UNL     1      -3.842  -1.342   0.197  1.00  0.00     0.110 A 
HETATM    5  N5  UNL     1      -5.163  -1.551   0.496  1.00  0.00    -0.344 N 
ATOM      6  H5  UNL     1      -5.697  -2.225  -0.053  1.00  0.00     0.167 HD
HETATM    7  C16 UNL     1      -5.768  -0.893   1.490  1.00  0.00     0.029 A 
HETATM    8  C22 UNL     1      -5.011   0.002   2.200  1.00  0.00     0.040 A 
HETATM    9  C23 UNL     1      -3.682   0.245   1.937  1.00  0.00    -0.005 A 
HETATM   10  C24 UNL     1      -2.985   1.157   2.689  1.00  0.00     0.102 A 
HETATM   11  N7  UNL     1      -1.699   1.388   2.428  1.00  0.00    -0.352 N 
ATOM     12  H7  UNL     1      -1.193   2.069   2.995  1.00  0.00     0.166 HD
ENDROOT
BRANCH   1  13
HETATM   13  N3  UNL     1       0.202   1.018   1.233  1.00  0.00    -0.376 N 
ATOM     14  H3  UNL     1       0.654   1.708   1.833  1.00  0.00     0.161 HD
BRANCH  13  15
HETATM   15  C11 UNL     1       0.973   0.381   0.194  1.00  0.00     0.123 C 
BRANCH  15  16
HETATM   16  C10 UNL     1       1.509  -0.960   0.632  1.00  0.00     0.047 C 
BRANCH  16  17
HETATM   17  C9  UNL     1       2.304  -1.600  -0.464  1.00  0.00     0.234 C 
BRANCH  17  18
HETATM   18  N2  UNL     1       3.434  -0.765  -0.844  1.00  0.00    -0.073 N 
ATOM     19  H22 UNL     1       4.030  -0.524  -0.052  1.00  0.00     0.277 HD
ATOM     20  H21 UNL     1       3.156   0.183  -1.099  1.00  0.00     0.277 HD
BRANCH  18  21
HETATM   21  C8  UNL     1       4.153  -1.437  -1.898  1.00  0.00     0.259 C 
BRANCH  21  22
HETATM   22  C7  UNL     1       5.344  -0.647  -2.369  1.00  0.00     0.260 C 
BRANCH  22  23
HETATM   23  N1  UNL     1       6.288  -0.414  -1.306  1.00  0.00    -0.069 N 
ATOM     24  H12 UNL     1       6.579  -1.282  -0.857  1.00  0.00     0.277 HD
ATOM     25  H11 UNL     1       5.852   0.032  -0.499  1.00  0.00     0.277 HD
BRANCH  23  26
HETATM   26  C6  UNL     1       7.430   0.354  -1.806  1.00  0.00     0.279 C 
BRANCH  26  27
HETATM   27  C5  UNL     1       8.334   0.529  -0.610  1.00  0.00     0.014 A 
HETATM   28  C2  UNL     1       9.535   1.179  -0.556  1.00  0.00    -0.047 A 
HETATM   29  C1  UNL     1      10.094   1.830  -1.812  1.00  0.00     0.049 C 
HETATM   30  C3  UNL     1      10.168   1.208   0.627  1.00  0.00     0.015 A 
HETATM   31  C4  UNL     1       9.556   0.582   1.683  1.00  0.00     0.051 A 
HETATM   32  S1  UNL     1       8.122  -0.022   0.987  1.00  0.00    -0.104 SA
ENDBRANCH  26  27
ENDBRANCH  23  26
ENDBRANCH  22  23
ENDBRANCH  21  22
ENDBRANCH  18  21
ENDBRANCH  17  18
ENDBRANCH  16  17
ENDBRANCH  15  16
ENDBRANCH  13  15
ENDBRANCH   1  13
BRANCH   4  33
HETATM   33  N4  UNL     1      -3.330  -2.004  -0.763  1.00  0.00    -0.385 N 
ATOM     34  H42 UNL     1      -2.347  -1.848  -0.986  1.00  0.00     0.157 HD
ATOM     35  H41 UNL     1      -3.893  -2.670  -1.292  1.00  0.00     0.157 HD
ENDBRANCH   4  33
BRANCH   7  36
HETATM   36  C17 UNL     1      -7.186  -1.084   1.858  1.00  0.00     0.179 C 
BRANCH  36  37
HETATM   37  N6  UNL     1      -8.008  -0.394   0.939  1.00  0.00    -0.384 N 
HETATM   38  C18 UNL     1      -7.872   0.996   0.799  1.00  0.00     0.084 C 
HETATM   39  C19 UNL     1      -7.242   1.319  -0.539  1.00  0.00     0.212 C 
HETATM   40  O1  UNL     1      -7.411   0.341  -1.492  1.00  0.00    -0.385 OA
HETATM   41  C20 UNL     1      -8.597  -0.353  -1.373  1.00  0.00     0.187 C 
HETATM   42  C21 UNL     1      -8.670  -1.129  -0.066  1.00  0.00     0.148 C 
ENDBRANCH  36  37
ENDBRANCH   7  36
TORSDOF 13
