REMARK  14 active torsions:
REMARK  status: ('A' for Active; 'I' for Inactive)
REMARK    1  A    between atoms: C3_3  and  C4_4 
REMARK    2  A    between atoms: C4_4  and  N1_5 
REMARK    3  A    between atoms: C8_9  and  O1_10 
REMARK    4  A    between atoms: N4_17  and  C11_18 
REMARK    5  A    between atoms: C11_18  and  C12_19 
REMARK    6  A    between atoms: C12_19  and  C13_20 
REMARK    7  A    between atoms: C13_20  and  N5_21 
REMARK    8  A    between atoms: N5_21  and  C14_22 
REMARK    9  A    between atoms: N5_21  and  C20_30 
REMARK   10  A    between atoms: C14_22  and  C15_23 
REMARK   11  A    between atoms: C15_23  and  N6_24 
REMARK   12  A    between atoms: N6_24  and  C16_26 
REMARK   13  A    between atoms: C20_30  and  C22_32 
REMARK   14  A    between atoms: C22_32  and  O2_33 
ROOT
HETATM    1  C1  UNL     1      -3.751  -0.238  -2.921  1.00  0.00     0.050 C 
HETATM    2  C2  UNL     1      -3.594   0.074  -1.465  1.00  0.00    -0.039 A 
HETATM    3  C3  UNL     1      -4.716   0.401  -0.665  1.00  0.00     0.028 A 
HETATM    4  C8  UNL     1      -4.470   0.687   0.653  1.00  0.00     0.093 A 
HETATM    5  C9  UNL     1      -3.150   0.640   1.128  1.00  0.00     0.069 A 
HETATM    6  C10 UNL     1      -2.613   0.884   2.379  1.00  0.00     0.146 A 
HETATM    7  N2  UNL     1      -3.312   1.253   3.550  1.00  0.00    -0.080 NA
HETATM    8  N3  UNL     1      -1.295   0.698   2.260  1.00  0.00    -0.284 N 
ATOM      9  H3  UNL     1      -0.636   0.811   3.031  1.00  0.00     0.188 HD
HETATM   10  N4  UNL     1      -0.939   0.354   1.042  1.00  0.00    -0.289 N 
HETATM   11  C23 UNL     1      -2.073   0.314   0.324  1.00  0.00     0.073 A 
HETATM   12  C24 UNL     1      -2.312   0.030  -0.991  1.00  0.00    -0.026 A 
HETATM   13  C25 UNL     1      -1.161  -0.303  -1.858  1.00  0.00     0.051 C 
ENDROOT
BRANCH  10  14
HETATM   14  C11 UNL     1       0.428   0.041   0.707  1.00  0.00     0.154 C 
BRANCH  14  15
HETATM   15  C12 UNL     1       0.757  -1.372   1.092  1.00  0.00     0.066 C 
BRANCH  15  16
HETATM   16  C13 UNL     1       2.072  -1.911   0.798  1.00  0.00     0.065 C 
BRANCH  16  17
HETATM   17  N5  UNL     1       3.271  -1.408   1.259  1.00  0.00    -0.362 N 
BRANCH  17  18
HETATM   18  C14 UNL     1       3.856  -0.222   0.779  1.00  0.00     0.107 C 
BRANCH  18  19
HETATM   19  C15 UNL     1       4.348  -0.406  -0.658  1.00  0.00     0.101 C 
BRANCH  19  20
HETATM   20  N6  UNL     1       4.947   0.682  -1.263  1.00  0.00    -0.390 N 
ATOM     21  H6  UNL     1       4.428   1.135  -2.015  1.00  0.00     0.159 HD
BRANCH  20  22
HETATM   22  C16 UNL     1       6.185   1.216  -0.945  1.00  0.00     0.018 C 
HETATM   23  C17 UNL     1       6.368   1.825   0.404  1.00  0.00     0.037 C 
HETATM   24  C18 UNL     1       6.488   2.345  -1.959  1.00  0.00     0.037 C 
HETATM   25  C19 UNL     1       7.353   0.247  -1.135  1.00  0.00     0.037 C 
ENDBRANCH  20  22
ENDBRANCH  19  20
ENDBRANCH  18  19
ENDBRANCH  17  18
BRANCH  17  26
HETATM   26  C20 UNL     1       3.694  -1.883   2.548  1.00  0.00     0.108 C 
HETATM   27  C21 UNL     1       3.879  -3.399   2.422  1.00  0.00     0.035 C 
BRANCH  26  28
HETATM   28  C22 UNL     1       5.002  -1.352   3.002  1.00  0.00     0.189 C 
BRANCH  28  29
HETATM   29  O2  UNL     1       6.019  -1.710   2.086  1.00  0.00    -0.399 OA
ATOM     30  H2  UNL     1       6.857  -1.370   2.377  1.00  0.00     0.209 HD
ENDBRANCH  28  29
ENDBRANCH  26  28
ENDBRANCH  17  26
ENDBRANCH  16  17
ENDBRANCH  15  16
ENDBRANCH  14  15
ENDBRANCH  10  14
BRANCH   4  31
HETATM   31  O1  UNL     1      -5.463   1.020   1.539  1.00  0.00    -0.359 OA
ATOM     32  H1  UNL     1      -5.293   1.218   2.452  1.00  0.00     0.217 HD
ENDBRANCH   4  31
BRANCH   3  33
HETATM   33  C4  UNL     1      -5.987   0.385  -1.329  1.00  0.00     0.215 C 
BRANCH  33  34
HETATM   34  N1  UNL     1      -7.236   0.672  -0.773  1.00  0.00    -0.058 N 
HETATM   35  C5  UNL     1      -7.520   1.981  -0.310  1.00  0.00     0.277 C 
HETATM   36  C6  UNL     1      -8.245   0.496  -1.927  1.00  0.00     0.277 C 
HETATM   37  C7  UNL     1      -7.681  -0.364   0.130  1.00  0.00     0.277 C 
ENDBRANCH  33  34
ENDBRANCH   3  33
TORSDOF 14
