REMARK  6 active torsions:
REMARK  status: ('A' for Active; 'I' for Inactive)
REMARK    1  A    between atoms: C5_5  and  N1_6 
REMARK       I    between atoms: N1_6  and  C6_8 
REMARK    2  A    between atoms: C6_8  and  C7_10 
REMARK    3  A    between atoms: N3_15  and  C9_16 
REMARK    4  A    between atoms: C9_16  and  C10_17 
REMARK    5  A    between atoms: C10_17  and  C11_18 
REMARK    6  A    between atoms: C14_21  and  C15_22 
ROOT
HETATM    1  C1  UNL     1       7.591   2.519   1.330  1.00  0.00     0.012 C 
HETATM    2  C2  UNL     1       6.421   2.741   1.455  1.00  0.00    -0.110 C 
HETATM    3  C3  UNL     1       4.987   3.012   1.583  1.00  0.00     0.089 A 
HETATM    4  C4  UNL     1       4.423   2.680   2.962  1.00  0.00     0.045 A 
HETATM    5  C5  UNL     1       4.070   1.803   1.837  1.00  0.00     0.101 A 
ENDROOT
BRANCH   5   6
HETATM    6  N1  UNL     1       2.786   1.922   1.169  1.00  0.00    -0.350 N 
HETATM    7  C6  UNL     1       2.232   0.894   0.379  1.00  0.00     0.271 C 
HETATM    8  O1  UNL     1       2.825  -0.178   0.214  1.00  0.00    -0.266 OA
ATOM      9  H1  UNL     1       2.261   2.790   1.276  1.00  0.00     0.163 HD
BRANCH   7  10
HETATM   10  C7  UNL     1       0.917   1.111  -0.260  1.00  0.00     0.131 A 
HETATM   11  N2  UNL     1       0.527   2.340  -0.651  1.00  0.00    -0.327 N 
HETATM   12  C8  UNL     1      -0.598   2.223  -1.299  1.00  0.00     0.179 A 
ATOM     13  H2  UNL     1       1.026   3.211  -0.471  1.00  0.00     0.168 HD
HETATM   14  S1  UNL     1      -1.426   3.465  -1.959  1.00  0.00    -0.040 SA
HETATM   15  N3  UNL     1      -0.997   0.868  -1.349  1.00  0.00    -0.321 N 
HETATM   16  C14 UNL     1      -0.040   0.203  -0.697  1.00  0.00     0.083 A 
BRANCH  15  17
HETATM   17  C9  UNL     1      -2.236   0.584  -1.967  1.00  0.00     0.132 C 
BRANCH  17  18
HETATM   18  C10 UNL     1      -3.466   0.832  -1.140  1.00  0.00     0.024 C 
BRANCH  18  19
HETATM   19  C11 UNL     1      -3.734   0.066   0.071  1.00  0.00    -0.021 C 
HETATM   20  C12 UNL     1      -3.934  -1.405  -0.204  1.00  0.00     0.009 C 
HETATM   21  C13 UNL     1      -5.072   0.575   0.645  1.00  0.00     0.009 C 
ENDBRANCH  18  19
ENDBRANCH  17  18
ENDBRANCH  15  17
BRANCH  16  22
HETATM   22  C15 UNL     1      -0.163  -1.175  -0.143  1.00  0.00     0.041 A 
HETATM   23  C16 UNL     1       0.284  -1.703   1.044  1.00  0.00     0.036 A 
HETATM   24  C17 UNL     1       0.494  -0.983   2.349  1.00  0.00     0.070 C 
HETATM   25  N4  UNL     1       0.358  -3.037   0.947  1.00  0.00    -0.302 N 
HETATM   26  N5  UNL     1      -0.023  -3.409  -0.242  1.00  0.00    -0.300 N 
ATOM     27  H4  UNL     1       0.665  -3.665   1.690  1.00  0.00     0.186 HD
HETATM   28  C18 UNL     1      -0.082  -4.779  -0.712  1.00  0.00     0.177 C 
HETATM   29  C19 UNL     1      -0.361  -2.302  -0.972  1.00  0.00     0.038 A 
HETATM   30  C20 UNL     1      -0.725  -2.464  -2.378  1.00  0.00     0.071 C 
ENDBRANCH  16  22
ENDBRANCH   7  10
ENDBRANCH   5   6
TORSDOF 6
