REMARK  6 active torsions:
REMARK  status: ('A' for Active; 'I' for Inactive)
REMARK    1  A    between atoms: C2_2  and  O1_3 
REMARK    2  A    between atoms: O1_3  and  C3_4 
REMARK    3  A    between atoms: C8_9  and  O2_10 
REMARK    4  A    between atoms: O2_10  and  C9_11 
REMARK    5  A    between atoms: C9_11  and  C10_12 
REMARK    6  A    between atoms: C10_12  and  O3_13 
ROOT
HETATM    1  C3  UNL     1       2.342  -0.961   0.653  1.00  0.00     0.103 A 
HETATM    2  C4  UNL     1       1.024  -0.966   1.010  1.00  0.00     0.054 A 
HETATM    3  C5  UNL     1       0.118  -0.320   0.208  1.00  0.00     0.001 A 
HETATM    4  C6  UNL     1       0.477   0.342  -0.942  1.00  0.00    -0.039 A 
HETATM    5  C7  UNL     1       1.801   0.343  -1.292  1.00  0.00     0.048 A 
HETATM    6  C8  UNL     1       2.782  -0.292  -0.536  1.00  0.00     0.108 A 
HETATM    7  C12 UNL     1      -0.474   1.070  -1.819  1.00  0.00     0.067 C 
HETATM    8  C13 UNL     1      -1.874   0.899  -1.503  1.00  0.00    -0.006 C 
HETATM    9  C14 UNL     1      -2.222   0.203  -0.286  1.00  0.00     0.015 A 
HETATM   10  C15 UNL     1      -1.297  -0.378   0.535  1.00  0.00     0.058 A 
HETATM   11  N1  UNL     1      -1.761  -1.011   1.633  1.00  0.00    -0.321 N 
ATOM     12  H1  UNL     1      -1.089  -1.453   2.260  1.00  0.00     0.169 HD
HETATM   13  C16 UNL     1      -3.080  -1.086   1.941  1.00  0.00     0.256 A 
HETATM   14  O4  UNL     1      -3.505  -1.674   2.968  1.00  0.00    -0.267 OA
HETATM   15  C17 UNL     1      -4.019  -0.500   1.114  1.00  0.00     0.061 A 
HETATM   16  C18 UNL     1      -3.593   0.148  -0.004  1.00  0.00     0.056 A 
HETATM   17  N2  UNL     1      -4.567   0.746  -0.837  1.00  0.00    -0.363 N 
ATOM     18  H2  UNL     1      -4.260   1.255  -1.666  1.00  0.00     0.162 HD
HETATM   19  C19 UNL     1      -5.977   0.661  -0.556  1.00  0.00     0.217 A 
HETATM   20  C20 UNL     1      -6.524   2.085  -0.377  1.00  0.00     0.063 C 
HETATM   21  O5  UNL     1      -6.326  -0.045   0.531  1.00  0.00    -0.362 OA
HETATM   22  C21 UNL     1      -5.462  -0.568   1.391  1.00  0.00     0.217 A 
ENDROOT
BRANCH   6  23
HETATM   23  O2  UNL     1       4.039  -0.295  -0.868  1.00  0.00    -0.318 OA
BRANCH  23  24
HETATM   24  C9  UNL     1       5.282  -0.298  -1.196  1.00  0.00     0.166 C 
BRANCH  24  25
HETATM   25  C10 UNL     1       6.215   0.862  -1.252  1.00  0.00     0.158 C 
BRANCH  25  26
HETATM   26  O3  UNL     1       5.992   1.913  -2.038  1.00  0.00    -0.366 OA
HETATM   27  C11 UNL     1       4.972   2.772  -1.873  1.00  0.00     0.209 C 
ENDBRANCH  25  26
ENDBRANCH  24  25
ENDBRANCH  23  24
ENDBRANCH   6  23
BRANCH   1  28
HETATM   28  O1  UNL     1       3.367  -1.569   1.355  1.00  0.00    -0.349 OA
BRANCH  28  29
HETATM   29  C2  UNL     1       3.212  -2.277   2.529  1.00  0.00     0.171 C 
HETATM   30  C1  UNL     1       2.321  -3.486   2.458  1.00  0.00     0.034 C 
ENDBRANCH  28  29
ENDBRANCH   1  28
TORSDOF 6
