REMARK  7 active torsions:
REMARK  status: ('A' for Active; 'I' for Inactive)
REMARK    1  A    between atoms: C2_2  and  C3_3 
REMARK       I    between atoms: C3_3  and  N1_5 
REMARK    2  A    between atoms: N1_5  and  C4_7 
REMARK    3  A    between atoms: C7_12  and  C8_13 
REMARK    4  A    between atoms: C11_18  and  N4_19 
REMARK    5  A    between atoms: N4_19  and  C13_21 
REMARK    6  A    between atoms: C13_21  and  C14_22 
REMARK    7  A    between atoms: C14_22  and  O2_23 
ROOT
HETATM    1  C8  UNL     1       0.955  -0.227   0.300  1.00  0.00     0.127 A 
HETATM    2  N3  UNL     1      -0.055   0.336  -0.430  1.00  0.00    -0.338 N 
ATOM      3  H3  UNL     1       0.059   1.078  -1.120  1.00  0.00     0.167 HD
HETATM    4  C9  UNL     1      -1.204  -0.233  -0.101  1.00  0.00     0.080 A 
HETATM    5  C10 UNL     1      -2.536  -0.079  -0.500  1.00  0.00     0.065 A 
HETATM    6  C11 UNL     1      -3.548  -0.833   0.033  1.00  0.00     0.054 A 
HETATM    7  C16 UNL     1      -3.238  -1.796   1.015  1.00  0.00     0.033 A 
HETATM    8  C17 UNL     1      -4.322  -2.625   1.605  1.00  0.00     0.070 C 
HETATM    9  N5  UNL     1      -1.955  -1.910   1.366  1.00  0.00    -0.342 N 
ATOM     10  H5  UNL     1      -1.716  -2.603   2.075  1.00  0.00     0.167 HD
HETATM   11  C18 UNL     1      -0.957  -1.174   0.848  1.00  0.00     0.134 A 
HETATM   12  N6  UNL     1       0.399  -1.130   1.062  1.00  0.00    -0.326 N 
ATOM     13  H6  UNL     1       0.902  -1.721   1.724  1.00  0.00     0.169 HD
ENDROOT
BRANCH   1  14
HETATM   14  C7  UNL     1       2.360   0.160   0.195  1.00  0.00     0.074 A 
HETATM   15  C5  UNL     1       3.496  -0.261   0.816  1.00  0.00     0.028 A 
HETATM   16  N2  UNL     1       4.633   0.296   0.493  1.00  0.00    -0.339 N 
HETATM   17  C6  UNL     1       3.416  -1.364   1.865  1.00  0.00     0.070 C 
HETATM   18  C4  UNL     1       4.642   1.254  -0.430  1.00  0.00     0.152 A 
ATOM     19  H2  UNL     1       5.500   0.001   0.942  1.00  0.00     0.168 HD
HETATM   20  S1  UNL     1       3.005   1.385  -0.866  1.00  0.00    -0.048 SA
BRANCH  18  21
HETATM   21  N1  UNL     1       5.652   1.937  -0.897  1.00  0.00    -0.307 N 
HETATM   22  C3  UNL     1       6.933   1.642  -0.370  1.00  0.00     0.223 C 
HETATM   23  O1  UNL     1       7.178   1.909   0.846  1.00  0.00    -0.273 OA
ATOM     24  H1  UNL     1       5.524   2.653  -1.612  1.00  0.00     0.171 HD
BRANCH  22  25
HETATM   25  C2  UNL     1       7.965   1.029  -1.235  1.00  0.00     0.099 C 
HETATM   26  C1  UNL     1       9.221   0.823  -0.431  1.00  0.00     0.014 C 
ENDBRANCH  22  25
ENDBRANCH  18  21
ENDBRANCH   1  14
BRANCH   6  27
HETATM   27  N4  UNL     1      -4.873  -0.684  -0.410  1.00  0.00    -0.382 N 
HETATM   28  C12 UNL     1      -5.368  -1.732  -1.344  1.00  0.00     0.150 C 
BRANCH  27  29
HETATM   29  C13 UNL     1      -5.843   0.296  -0.057  1.00  0.00     0.148 C 
BRANCH  29  30
HETATM   30  C14 UNL     1      -5.423   1.395   0.852  1.00  0.00     0.186 C 
BRANCH  30  31
HETATM   31  O2  UNL     1      -4.423   2.218   0.412  1.00  0.00    -0.394 OA
HETATM   32  C15 UNL     1      -4.877   2.896  -0.741  1.00  0.00     0.201 C 
ENDBRANCH  30  31
ENDBRANCH  29  30
ENDBRANCH  27  29
ENDBRANCH   6  27
TORSDOF 7
