REMARK  6 active torsions:
REMARK  status: ('A' for Active; 'I' for Inactive)
REMARK    1  A    between atoms: C2_2  and  C3_3 
REMARK    2  A    between atoms: C3_3  and  N1_4 
REMARK    3  A    between atoms: C7_11  and  C8_12 
REMARK    4  A    between atoms: N3_22  and  C16_23 
REMARK    5  A    between atoms: C16_23  and  C17_24 
REMARK    6  A    between atoms: C17_24  and  N4_25 
ROOT
HETATM    1  N1  UNL     1      -1.296   2.473  -0.357  1.00  0.00    -0.264 N 
HETATM    2  C4  UNL     1      -0.180   2.681   0.313  1.00  0.00     0.280 A 
HETATM    3  O1  UNL     1      -0.009   3.732   0.986  1.00  0.00    -0.265 OA
HETATM    4  C5  UNL     1       0.812   1.753   0.281  1.00  0.00     0.130 A 
HETATM    5  N2  UNL     1       1.999   1.712   0.899  1.00  0.00    -0.348 N 
ATOM      6  H2  UNL     1       2.359   2.440   1.516  1.00  0.00     0.166 HD
HETATM    7  C6  UNL     1       2.643   0.589   0.595  1.00  0.00     0.063 A 
HETATM    8  C7  UNL     1       3.873   0.113   0.963  1.00  0.00     0.069 A 
HETATM    9  C9  UNL     1       4.335  -1.083   0.473  1.00  0.00     0.028 A 
HETATM   10  C10 UNL     1       3.545  -1.782  -0.396  1.00  0.00    -0.054 A 
HETATM   11  C11 UNL     1       4.042  -3.096  -0.912  1.00  0.00     0.049 C 
HETATM   12  C12 UNL     1       2.298  -1.333  -0.792  1.00  0.00    -0.041 A 
HETATM   13  C13 UNL     1       1.822  -1.989  -2.003  1.00  0.00     0.050 C 
HETATM   14  C14 UNL     1       1.837  -0.167  -0.286  1.00  0.00     0.028 A 
HETATM   15  C15 UNL     1       0.681   0.556  -0.461  1.00  0.00     0.084 A 
HETATM   16  N3  UNL     1      -0.476   0.343  -1.129  1.00  0.00    -0.291 N 
HETATM   17  C20 UNL     1      -1.411   1.333  -1.045  1.00  0.00     0.332 A 
HETATM   18  O4  UNL     1      -2.500   1.193  -1.675  1.00  0.00    -0.246 OA
ENDROOT
BRANCH  16  19
HETATM   19  C16 UNL     1      -0.881  -0.917  -1.643  1.00  0.00     0.178 C 
BRANCH  19  20
HETATM   20  C17 UNL     1      -1.468  -1.895  -0.633  1.00  0.00     0.077 C 
BRANCH  20  21
HETATM   21  N4  UNL     1      -2.672  -1.607   0.021  1.00  0.00    -0.400 N 
HETATM   22  C18 UNL     1      -3.882  -1.725  -0.748  1.00  0.00     0.148 C 
HETATM   23  C19 UNL     1      -2.791  -2.184   1.343  1.00  0.00     0.148 C 
ENDBRANCH  20  21
ENDBRANCH  19  20
ENDBRANCH  16  19
BRANCH   1  24
HETATM   24  C3  UNL     1      -2.408   3.406  -0.375  1.00  0.00     0.137 C 
BRANCH  24  25
HETATM   25  C2  UNL     1      -3.477   3.153   0.619  1.00  0.00     0.016 C 
HETATM   26  C1  UNL     1      -2.989   3.194   2.043  1.00  0.00     0.006 C 
ENDBRANCH  24  25
ENDBRANCH   1  24
BRANCH   8  27
HETATM   27  C8  UNL     1       4.708   0.883   1.889  1.00  0.00     0.211 C 
HETATM   28  O2  UNL     1       4.348   1.953   2.388  1.00  0.00    -0.644 OA
HETATM   29  O3  UNL     1       5.979   0.412   2.247  1.00  0.00    -0.644 OA
ENDBRANCH   8  27
TORSDOF 6
