REMARK  5 active torsions:
REMARK  status: ('A' for Active; 'I' for Inactive)
REMARK    1  A    between atoms: N1_1  and  N2_4 
REMARK    2  A    between atoms: N2_4  and  C1_6 
REMARK    3  A    between atoms: C2_11  and  C3_12 
REMARK       I    between atoms: C3_12  and  N5_14 
REMARK    4  A    between atoms: N5_14  and  O2_16 
REMARK    5  A    between atoms: O2_16  and  N6_17 
ROOT
HETATM    1  C1  UNL     1      -1.814   1.165   0.691  1.00  0.00     0.712 A 
HETATM    2  N3  UNL     1      -1.852   2.034  -0.367  1.00  0.00    -0.129 N 
ATOM      3  H3  UNL     1      -2.521   2.791  -0.509  1.00  0.00     0.205 HD
HETATM    4  N4  UNL     1      -0.871   1.708  -1.155  1.00  0.00    -0.266 N 
ATOM      5  H4  UNL     1      -0.654   2.186  -2.029  1.00  0.00     0.189 HD
HETATM    6  C2  UNL     1      -0.179   0.662  -0.673  1.00  0.00     0.206 A 
HETATM    7  N7  UNL     1      -0.796   0.338   0.496  1.00  0.00    -0.167 N 
ATOM      8  H7  UNL     1      -0.520  -0.419   1.121  1.00  0.00     0.186 HD
ENDROOT
BRANCH   6   9
HETATM    9  C3  UNL     1       0.987  -0.007  -1.249  1.00  0.00     0.312 C 
HETATM   10  O1  UNL     1       1.501   0.427  -2.300  1.00  0.00    -0.262 OA
HETATM   11  N5  UNL     1       1.543  -1.152  -0.626  1.00  0.00    -0.203 N 
ATOM     12  H5  UNL     1       1.141  -1.516   0.238  1.00  0.00     0.200 HD
BRANCH  11  13
HETATM   13  O2  UNL     1       2.594  -1.746  -1.180  1.00  0.00    -0.161 OA
BRANCH  13  14
HETATM   14  N6  UNL     1       3.571  -0.967  -1.608  1.00  0.00    -0.286 N 
ATOM     15  H62 UNL     1       3.506   0.046  -1.510  1.00  0.00     0.186 HD
ATOM     16  H61 UNL     1       4.378  -1.423  -2.033  1.00  0.00     0.186 HD
ENDBRANCH  13  14
ENDBRANCH  11  13
ENDBRANCH   6   9
BRANCH   1  17
HETATM   17  N2  UNL     1      -2.684   1.252   1.603  1.00  0.00    -0.137 N 
ATOM     18  H2  UNL     1      -3.391   1.983   1.531  1.00  0.00     0.205 HD
BRANCH  17  19
HETATM   19  N1  UNL     1      -2.723   0.410   2.685  1.00  0.00    -0.331 N 
ATOM     20  H12 UNL     1      -2.008  -0.316   2.741  1.00  0.00     0.177 HD
ATOM     21  H11 UNL     1      -3.425   0.480   3.421  1.00  0.00     0.177 HD
ENDBRANCH  17  19
ENDBRANCH   1  17
TORSDOF 5
