REMARK  5 active torsions:
REMARK  status: ('A' for Active; 'I' for Inactive)
REMARK    1  A    between atoms: N2_3  and  C2_5 
REMARK    2  A    between atoms: C3_8  and  C4_9 
REMARK    3  A    between atoms: C4_9  and  N4_10 
REMARK    4  A    between atoms: C4_9  and  N5_14 
REMARK    5  A    between atoms: C5_20  and  N7_21 
ROOT
HETATM    1  N1  UNL     1       4.846  -1.592  -0.511  1.00  0.00    -0.171 NA
HETATM    2  C1  UNL     1       3.704  -1.750  -0.289  1.00  0.00     0.196 C 
HETATM    3  N2  UNL     1       2.349  -1.960  -0.017  1.00  0.00    -0.125 N 
ATOM      4  H2  UNL     1       2.007  -2.914   0.102  1.00  0.00     0.197 HD
ENDROOT
BRANCH   3   5
HETATM    5  C2  UNL     1       1.535  -0.994   0.085  1.00  0.00     0.707 A 
HETATM    6  N3  UNL     1       0.212  -1.194   0.351  1.00  0.00    -0.175 N 
HETATM    7  C3  UNL     1      -0.633  -0.161   0.455  1.00  0.00     0.170 A 
ATOM      8  H3  UNL     1      -0.138  -2.144   0.472  1.00  0.00     0.185 HD
HETATM    9  N6  UNL     1      -0.153   1.095   0.293  1.00  0.00    -0.176 N 
HETATM   10  C5  UNL     1       1.149   1.304   0.031  1.00  0.00     0.691 A 
ATOM     11  H6  UNL     1      -0.786   1.891   0.371  1.00  0.00     0.185 HD
HETATM   12  N8  UNL     1       1.981   0.259  -0.070  1.00  0.00    -0.022 N 
ATOM     13  H8  UNL     1       2.969   0.420  -0.268  1.00  0.00     0.203 HD
BRANCH   7  14
HETATM   14  C4  UNL     1      -2.051  -0.363   0.738  1.00  0.00     0.445 C 
BRANCH  14  15
HETATM   15  N4  UNL     1      -2.600  -1.452  -0.087  1.00  0.00    -0.043 N 
ATOM     16  H43 UNL     1      -2.433  -1.294  -1.081  1.00  0.00     0.277 HD
ATOM     17  H42 UNL     1      -2.067  -2.314   0.024  1.00  0.00     0.277 HD
ATOM     18  H41 UNL     1      -3.591  -1.593   0.111  1.00  0.00     0.277 HD
ENDBRANCH  14  15
BRANCH  14  19
HETATM   19  N5  UNL     1      -2.871   0.786   0.497  1.00  0.00    -0.043 N 
ATOM     20  H53 UNL     1      -2.516   1.591   1.013  1.00  0.00     0.277 HD
ATOM     21  H52 UNL     1      -2.743   1.121  -0.458  1.00  0.00     0.277 HD
ATOM     22  H51 UNL     1      -3.862   0.645   0.695  1.00  0.00     0.277 HD
ENDBRANCH  14  19
ENDBRANCH   7  14
BRANCH  10  23
HETATM   23  N7  UNL     1       1.587   2.498  -0.120  1.00  0.00    -0.234 N 
ATOM     24  H72 UNL     1       0.953   3.294  -0.043  1.00  0.00     0.174 HD
ATOM     25  H71 UNL     1       2.575   2.657  -0.319  1.00  0.00     0.174 HD
ENDBRANCH  10  23
ENDBRANCH   3   5
TORSDOF 5
