REMARK  1 active torsions:
REMARK  status: ('A' for Active; 'I' for Inactive)
REMARK    1  A    between atoms: N1_1  and  C1_4 
REMARK       I    between atoms: N4_13  and  C4_14 
REMARK       I    between atoms: C4_14  and  N5_15 
REMARK       I    between atoms: C4_14  and  N6_19 
ROOT
HETATM    1  C1  UNL     1       0.590  -0.918  -0.496  1.00  0.00     0.699 A 
HETATM    2  N2  UNL     1       1.917  -0.859  -0.496  1.00  0.00    -0.150 N 
ATOM      3  H2  UNL     1       2.468  -1.637  -0.859  1.00  0.00     0.188 HD
HETATM    4  C2  UNL     1       2.525   0.239  -0.011  1.00  0.00     0.329 A 
HETATM    5  O1  UNL     1       3.794   0.328   0.004  1.00  0.00    -0.261 OA
HETATM    6  C3  UNL     1       1.722   1.251   0.463  1.00  0.00     0.329 A 
HETATM    7  O2  UNL     1       2.302   2.274   0.914  1.00  0.00    -0.261 OA
HETATM    8  N3  UNL     1       0.383   1.158   0.447  1.00  0.00    -0.242 N 
ATOM      9  H3  UNL     1      -0.182   1.928   0.806  1.00  0.00     0.191 HD
HETATM   10  N4  UNL     1      -0.212   0.073  -0.032  1.00  0.00    -0.063 N 
HETATM   11  C4  UNL     1      -1.659  -0.074  -0.070  1.00  0.00     0.516 C 
HETATM   12  N5  UNL     1      -2.334   1.102  -0.521  1.00  0.00    -0.031 N 
ATOM     13  H51 UNL     1      -3.348   0.999  -0.548  1.00  0.00     0.279 HD
ATOM     14  H52 UNL     1      -1.976   1.400  -1.428  1.00  0.00     0.279 HD
ATOM     15  H53 UNL     1      -2.066   1.911   0.039  1.00  0.00     0.279 HD
HETATM   16  N6  UNL     1      -2.181  -0.528   1.217  1.00  0.00    -0.031 N 
ATOM     17  H61 UNL     1      -3.195  -0.631   1.190  1.00  0.00     0.279 HD
ATOM     18  H62 UNL     1      -1.887   0.085   1.977  1.00  0.00     0.279 HD
ATOM     19  H63 UNL     1      -1.725  -1.388   1.523  1.00  0.00     0.279 HD
ENDROOT
BRANCH   1  20
HETATM   20  N1  UNL     1      -0.007  -1.960  -0.956  1.00  0.00    -0.233 N 
ATOM     21  H12 UNL     1       0.596  -2.705  -1.305  1.00  0.00     0.174 HD
ATOM     22  H11 UNL     1      -1.026  -2.005  -0.956  1.00  0.00     0.174 HD
ENDBRANCH   1  20
TORSDOF 1
