REMARK  1 active torsions:
REMARK  status: ('A' for Active; 'I' for Inactive)
REMARK    1  A    between atoms: N3_8  and  C3_10 
ROOT
HETATM    1  O1  UNL     1      -4.225  -0.529  -1.227  1.00  0.00    -0.244 OA
HETATM    2  C1  UNL     1      -3.052  -0.249  -0.874  1.00  0.00     0.354 A 
HETATM    3  N1  UNL     1      -2.773   0.952  -0.173  1.00  0.00    -0.236 N 
ATOM      4  H1  UNL     1      -3.540   1.589   0.043  1.00  0.00     0.192 HD
HETATM    5  N2  UNL     1      -1.492   1.283   0.226  1.00  0.00    -0.126 N 
ATOM      6  H2  UNL     1      -1.330   2.155   0.729  1.00  0.00     0.206 HD
HETATM    7  C2  UNL     1      -0.379   0.405  -0.062  1.00  0.00     0.726 A 
HETATM    8  N3  UNL     1       0.751   0.785   0.338  1.00  0.00    -0.017 N 
ATOM      9  H3  UNL     1       0.733   1.682   0.823  1.00  0.00     0.203 HD
HETATM   10  N8  UNL     1      -0.651  -0.790  -0.758  1.00  0.00    -0.126 N 
ATOM     11  H8  UNL     1       0.112  -1.431  -0.976  1.00  0.00     0.206 HD
HETATM   12  N9  UNL     1      -1.962  -1.109  -1.156  1.00  0.00    -0.236 N 
ATOM     13  H9  UNL     1      -2.132  -1.980  -1.659  1.00  0.00     0.192 HD
ENDROOT
BRANCH   8  14
HETATM   14  C3  UNL     1       2.018   0.226   0.250  1.00  0.00     0.725 A 
HETATM   15  N4  UNL     1       2.403  -0.928  -0.312  1.00  0.00    -0.113 N 
HETATM   16  N5  UNL     1       3.707  -1.109  -0.187  1.00  0.00     0.009 NA
ATOM     17  H4  UNL     1       1.772  -1.582  -0.776  1.00  0.00     0.203 HD
HETATM   18  N6  UNL     1       4.197  -0.053   0.471  1.00  0.00    -0.212 N 
HETATM   19  N7  UNL     1       3.190   0.750   0.736  1.00  0.00    -0.117 N 
ATOM     20  H6  UNL     1       5.174   0.101   0.722  1.00  0.00     0.206 HD
ATOM     21  H7  UNL     1       3.269   1.637   1.233  1.00  0.00     0.207 HD
ENDBRANCH   8  14
TORSDOF 1
