REMARK  5 active torsions:
REMARK  status: ('A' for Active; 'I' for Inactive)
REMARK    1  A    between atoms: C2_2  and  C4_4 
REMARK    2  A    between atoms: C4_4  and  C7_7 
REMARK    3  A    between atoms: C7_7  and  C8_9 
REMARK    4  A    between atoms: C8_9  and  C9_10 
REMARK    5  A    between atoms: C9_10  and  C10_11 
ROOT
HETATM    1  C4  UNL     1      -1.012   0.755  -0.489  1.00  0.00     0.011 C 
HETATM    2  C5  UNL     1      -1.720   0.525  -1.621  1.00  0.00    -0.015 C 
HETATM    3  C6  UNL     1      -1.967  -0.755  -2.253  1.00  0.00     0.037 C 
ENDROOT
BRANCH   1   4
HETATM    4  C2  UNL     1      -0.909   2.151  -0.053  1.00  0.00    -0.058 C 
HETATM    5  C1  UNL     1      -0.303   2.608   0.973  1.00  0.00     0.019 C 
HETATM    6  C3  UNL     1      -1.600   3.203  -0.919  1.00  0.00     0.048 C 
ENDBRANCH   1   4
BRANCH   1   7
HETATM    7  C7  UNL     1      -0.436  -0.385   0.178  1.00  0.00     0.159 C 
HETATM    8  O1  UNL     1      -0.649  -1.547  -0.358  1.00  0.00    -0.292 OA
BRANCH   7   9
HETATM    9  C8  UNL     1       0.373  -0.456   1.393  1.00  0.00     0.084 C 
BRANCH   9  10
HETATM   10  C9  UNL     1       0.882  -1.852   1.730  1.00  0.00     0.007 C 
BRANCH  10  11
HETATM   11  C10 UNL     1       1.808  -2.417   0.707  1.00  0.00    -0.004 C 
HETATM   12  C11 UNL     1       3.043  -1.556   0.504  1.00  0.00     0.005 C 
ENDBRANCH  10  11
ENDBRANCH   9  10
ENDBRANCH   7   9
ENDBRANCH   1   7
TORSDOF 5
