REMARK  5 active torsions:
REMARK  status: ('A' for Active; 'I' for Inactive)
REMARK    1  A    between atoms: C2_2  and  C4_4 
REMARK    2  A    between atoms: C4_4  and  O1_7 
REMARK    3  A    between atoms: O1_7  and  C7_8 
REMARK    4  A    between atoms: C7_8  and  C8_9 
REMARK    5  A    between atoms: C8_9  and  C9_10 
ROOT
HETATM    1  C4  UNL     1       1.705   0.281  -0.242  1.00  0.00     0.069 C 
HETATM    2  C5  UNL     1       2.490   0.570  -1.260  1.00  0.00     0.006 C 
HETATM    3  C6  UNL     1       2.068   1.303  -2.471  1.00  0.00     0.039 C 
ENDROOT
BRANCH   1   4
HETATM    4  C2  UNL     1       2.250  -0.453   0.902  1.00  0.00    -0.038 C 
HETATM    5  C1  UNL     1       1.486  -0.748   1.926  1.00  0.00     0.021 C 
HETATM    6  C3  UNL     1       3.684  -0.883   0.926  1.00  0.00     0.050 C 
ENDBRANCH   1   4
BRANCH   1   7
HETATM    7  O1  UNL     1       0.373   0.647  -0.213  1.00  0.00    -0.351 OA
BRANCH   7   8
HETATM    8  C7  UNL     1      -0.519  -0.016  -1.085  1.00  0.00     0.176 C 
BRANCH   8   9
HETATM    9  C8  UNL     1      -1.934   0.497  -0.941  1.00  0.00     0.030 C 
BRANCH   9  10
HETATM   10  C9  UNL     1      -2.390   0.251   0.485  1.00  0.00    -0.021 C 
HETATM   11  C10 UNL     1      -3.806   0.755   0.697  1.00  0.00     0.009 C 
HETATM   12  C11 UNL     1      -2.414  -1.241   0.779  1.00  0.00     0.009 C 
ENDBRANCH   9  10
ENDBRANCH   8   9
ENDBRANCH   7   8
ENDBRANCH   1   7
TORSDOF 5
