REMARK  10 active torsions:
REMARK  status: ('A' for Active; 'I' for Inactive)
REMARK    1  A    between atoms: C2_2  and  C3_3 
REMARK    2  A    between atoms: C3_3  and  C4_4 
REMARK    3  A    between atoms: C6_6  and  C7_7 
REMARK    4  A    between atoms: C10_10  and  C11_11 
REMARK    5  A    between atoms: C11_11  and  O1_12 
REMARK    6  A    between atoms: O1_12  and  C12_13 
REMARK    7  A    between atoms: C12_13  and  C14_15 
REMARK    8  A    between atoms: C14_15  and  O2_16 
REMARK    9  A    between atoms: C14_15  and  C15_18 
REMARK   10  A    between atoms: C15_18  and  C16_19 
ROOT
HETATM    1  C4  UNL     1      -2.944   0.777  -1.092  1.00  0.00    -0.057 A 
HETATM    2  C5  UNL     1      -3.158  -0.579  -0.878  1.00  0.00     0.014 A 
HETATM    3  C6  UNL     1      -2.251  -1.390  -0.242  1.00  0.00    -0.057 A 
HETATM    4  C9  UNL     1      -1.080  -0.801   0.194  1.00  0.00     0.016 A 
HETATM    5  C10 UNL     1      -0.798   0.538   0.019  1.00  0.00    -0.034 A 
HETATM    6  C18 UNL     1      -1.757   1.311  -0.634  1.00  0.00     0.016 A 
ENDROOT
BRANCH   5   7
HETATM    7  C11 UNL     1       0.477   1.127   0.506  1.00  0.00     0.207 C 
BRANCH   7   8
HETATM    8  O1  UNL     1       1.219   0.135   1.104  1.00  0.00    -0.379 OA
BRANCH   8   9
HETATM    9  C12 UNL     1       2.430   0.555   1.600  1.00  0.00     0.146 C 
HETATM   10  C13 UNL     1       2.598   0.270   3.075  1.00  0.00     0.042 C 
BRANCH   9  11
HETATM   11  C14 UNL     1       3.518  -0.249   0.880  1.00  0.00     0.146 C 
BRANCH  11  12
HETATM   12  O2  UNL     1       3.289  -1.580   1.156  1.00  0.00    -0.393 OA
ATOM     13  H2  UNL     1       3.963  -2.078   0.710  1.00  0.00     0.210 HD
ENDBRANCH  11  12
BRANCH  11  14
HETATM   14  C15 UNL     1       3.317  -0.012  -0.605  1.00  0.00     0.034 C 
BRANCH  14  15
HETATM   15  C16 UNL     1       4.374  -0.791  -1.356  1.00  0.00    -0.002 C 
HETATM   16  C17 UNL     1       5.767  -0.360  -0.980  1.00  0.00     0.005 C 
ENDBRANCH  14  15
ENDBRANCH  11  14
ENDBRANCH   9  11
ENDBRANCH   8   9
ENDBRANCH   7   8
ENDBRANCH   5   7
BRANCH   3  17
HETATM   17  C7  UNL     1      -2.504  -2.821  -0.030  1.00  0.00     0.034 C 
HETATM   18  C8  UNL     1      -2.023  -3.696  -1.135  1.00  0.00     0.010 C 
ENDBRANCH   3  17
BRANCH   1  19
HETATM   19  C3  UNL     1      -3.972   1.580  -1.786  1.00  0.00     0.038 C 
BRANCH  19  20
HETATM   20  C2  UNL     1      -4.970   2.175  -0.804  1.00  0.00     0.000 C 
HETATM   21  C1  UNL     1      -4.264   3.081   0.195  1.00  0.00     0.005 C 
ENDBRANCH  19  20
ENDBRANCH   1  19
TORSDOF 10
