REMARK  5 active torsions:
REMARK  status: ('A' for Active; 'I' for Inactive)
REMARK    1  A    between atoms: C2_2  and  C5_9 
REMARK    2  A    between atoms: C3_3  and  C4_4 
REMARK    3  A    between atoms: C4_4  and  N1_5 
REMARK    4  A    between atoms: C5_9  and  C7_12 
REMARK    5  A    between atoms: C7_12  and  N3_13 
ROOT
HETATM    1  C1  UNL     1       0.890   0.852  -1.585  1.00  0.00     0.048 C 
HETATM    2  C2  UNL     1       0.360   0.049  -0.486  1.00  0.00    -0.055 C 
HETATM    3  C3  UNL     1       1.164  -0.824   0.099  1.00  0.00     0.007 C 
ENDROOT
BRANCH   2   4
HETATM    4  C5  UNL     1      -0.989   0.188  -0.031  1.00  0.00    -0.014 C 
HETATM    5  C6  UNL     1      -1.891   0.972  -0.467  1.00  0.00     0.109 C 
HETATM    6  N2  UNL     1      -1.868   1.923  -1.491  1.00  0.00    -0.115 NA
BRANCH   4   7
HETATM    7  C7  UNL     1      -1.349  -0.742   1.121  1.00  0.00     0.269 C 
BRANCH   7   8
HETATM    8  N3  UNL     1      -2.702  -0.582   1.550  1.00  0.00    -0.075 N 
ATOM      9  H33 UNL     1      -2.899   0.390   1.787  1.00  0.00     0.274 HD
ATOM     10  H32 UNL     1      -3.350  -0.695   0.771  1.00  0.00     0.274 HD
ATOM     11  H31 UNL     1      -2.943  -1.205   2.321  1.00  0.00     0.274 HD
ENDBRANCH   7   8
ENDBRANCH   4   7
ENDBRANCH   2   4
BRANCH   3  12
HETATM   12  C4  UNL     1       2.568  -1.123  -0.196  1.00  0.00     0.257 C 
BRANCH  12  13
HETATM   13  N1  UNL     1       3.326  -0.838   1.048  1.00  0.00    -0.076 N 
ATOM     14  H13 UNL     1       3.179   0.107   1.404  1.00  0.00     0.274 HD
ATOM     15  H12 UNL     1       2.969  -1.336   1.863  1.00  0.00     0.274 HD
ATOM     16  H11 UNL     1       4.303  -1.046   0.843  1.00  0.00     0.274 HD
ENDBRANCH  12  13
ENDBRANCH   3  12
TORSDOF 5
