REMARK  7 active torsions:
REMARK  status: ('A' for Active; 'I' for Inactive)
REMARK    1  A    between atoms: C2_2  and  C3_3 
REMARK    2  A    between atoms: C2_2  and  C7_15 
REMARK    3  A    between atoms: C4_4  and  C5_5 
REMARK    4  A    between atoms: C4_4  and  C6_10 
REMARK    5  A    between atoms: C5_5  and  N1_6 
REMARK    6  A    between atoms: C6_10  and  N2_11 
REMARK    7  A    between atoms: C7_15  and  N3_16 
ROOT
HETATM    1  C3  UNL     1       0.317   0.513   0.342  1.00  0.00    -0.015 C 
HETATM    2  C4  UNL     1      -0.994   0.488   0.192  1.00  0.00    -0.033 C 
ENDROOT
BRANCH   2   3
HETATM    3  C5  UNL     1      -1.647  -0.743  -0.267  1.00  0.00     0.265 C 
BRANCH   3   4
HETATM    4  N1  UNL     1      -2.608  -1.290   0.652  1.00  0.00    -0.076 N 
ATOM      5  H13 UNL     1      -2.181  -1.435   1.567  1.00  0.00     0.274 HD
ATOM      6  H12 UNL     1      -3.307  -0.587   0.894  1.00  0.00     0.274 HD
ATOM      7  H11 UNL     1      -3.062  -2.146   0.333  1.00  0.00     0.274 HD
ENDBRANCH   3   4
ENDBRANCH   2   3
BRANCH   2   8
HETATM    8  C6  UNL     1      -1.777   1.732   0.497  1.00  0.00     0.265 C 
BRANCH   8   9
HETATM    9  N2  UNL     1      -2.505   2.204  -0.659  1.00  0.00    -0.076 N 
ATOM     10  H23 UNL     1      -1.886   2.341  -1.458  1.00  0.00     0.274 HD
ATOM     11  H22 UNL     1      -3.103   1.474  -1.045  1.00  0.00     0.274 HD
ATOM     12  H21 UNL     1      -3.037   3.049  -0.452  1.00  0.00     0.274 HD
ENDBRANCH   8   9
ENDBRANCH   2   8
BRANCH   1  13
HETATM   13  C2  UNL     1       1.299  -0.536   0.119  1.00  0.00     0.030 C 
HETATM   14  C1  UNL     1       2.087  -0.730   1.420  1.00  0.00     0.016 C 
BRANCH  13  15
HETATM   15  C7  UNL     1       2.293  -0.067  -0.953  1.00  0.00     0.237 C 
BRANCH  15  16
HETATM   16  N3  UNL     1       3.333  -1.066  -1.138  1.00  0.00    -0.079 N 
ATOM     17  H33 UNL     1       3.799  -1.300  -0.261  1.00  0.00     0.274 HD
ATOM     18  H32 UNL     1       2.946  -1.985  -1.351  1.00  0.00     0.274 HD
ATOM     19  H31 UNL     1       3.993  -0.754  -1.850  1.00  0.00     0.274 HD
ENDBRANCH  15  16
ENDBRANCH  13  15
ENDBRANCH   1  13
TORSDOF 7
