REMARK  2 active torsions:
REMARK  status: ('A' for Active; 'I' for Inactive)
REMARK    1  A    between atoms: C3_4  and  C4_5 
REMARK    2  A    between atoms: C4_5  and  C5_6 
ROOT
HETATM    1  C4  UNL     1       0.272  -0.306   0.960  1.00  0.00    -0.021 C 
HETATM    2  C7  UNL     1       0.758  -0.836   2.154  1.00  0.00     0.111 C 
HETATM    3  N3  UNL     1       1.970  -1.522   2.222  1.00  0.00    -0.114 NA
ENDROOT
BRANCH   1   4
HETATM    4  C3  UNL     1      -0.956   0.348   1.081  1.00  0.00     0.034 C 
HETATM    5  C2  UNL     1      -1.830   0.984   0.386  1.00  0.00     0.021 C 
HETATM    6  C1  UNL     1      -3.071   1.505   1.152  1.00  0.00     0.065 C 
HETATM    7  N1  UNL     1      -1.858   1.296  -0.965  1.00  0.00    -0.107 NA
ENDBRANCH   1   4
BRANCH   1   8
HETATM    8  C5  UNL     1       1.139  -0.550  -0.136  1.00  0.00     0.027 C 
HETATM    9  C6  UNL     1       1.151  -0.284  -1.388  1.00  0.00     0.101 C 
HETATM   10  N2  UNL     1       2.285  -0.738  -2.196  1.00  0.00    -0.115 NA
ENDBRANCH   1   8
TORSDOF 2
