REMARK  5 active torsions:
REMARK  status: ('A' for Active; 'I' for Inactive)
REMARK    1  A    between atoms: C2_2  and  C3_3 
REMARK    2  A    between atoms: C3_3  and  N1_4 
REMARK    3  A    between atoms: C4_8  and  C5_9 
REMARK    4  A    between atoms: C4_8  and  C7_12 
REMARK    5  A    between atoms: C7_12  and  N3_13 
ROOT
HETATM    1  C1  UNL     1      -0.511  -1.549   1.805  1.00  0.00     0.046 C 
HETATM    2  C2  UNL     1      -0.881  -0.543   0.751  1.00  0.00    -0.051 C 
HETATM    3  C4  UNL     1       0.084   0.221   0.273  1.00  0.00    -0.028 C 
ENDROOT
BRANCH   3   4
HETATM    4  C5  UNL     1       1.432   0.081   0.755  1.00  0.00     0.023 C 
HETATM    5  C6  UNL     1       2.547   0.667   0.513  1.00  0.00     0.100 C 
HETATM    6  N2  UNL     1       2.919   1.710  -0.338  1.00  0.00    -0.115 NA
ENDBRANCH   3   4
BRANCH   3   7
HETATM    7  C7  UNL     1      -0.286   1.211  -0.751  1.00  0.00     0.268 C 
BRANCH   7   8
HETATM    8  N3  UNL     1       0.332   0.966  -2.048  1.00  0.00    -0.075 N 
ATOM      9  H33 UNL     1       1.346   0.902  -1.958  1.00  0.00     0.274 HD
ATOM     10  H32 UNL     1       0.130   0.020  -2.371  1.00  0.00     0.274 HD
ATOM     11  H31 UNL     1       0.076   1.652  -2.758  1.00  0.00     0.274 HD
ENDBRANCH   7   8
ENDBRANCH   3   7
BRANCH   2  12
HETATM   12  C3  UNL     1      -2.300  -0.541   0.384  1.00  0.00     0.264 C 
BRANCH  12  13
HETATM   13  N1  UNL     1      -2.633  -1.880  -0.153  1.00  0.00    -0.076 N 
ATOM     14  H13 UNL     1      -2.026  -2.159  -0.924  1.00  0.00     0.274 HD
ATOM     15  H12 UNL     1      -2.392  -2.635   0.490  1.00  0.00     0.274 HD
ATOM     16  H11 UNL     1      -3.621  -1.879  -0.408  1.00  0.00     0.274 HD
ENDBRANCH  12  13
ENDBRANCH   2  12
TORSDOF 5
