REMARK  6 active torsions:
REMARK  status: ('A' for Active; 'I' for Inactive)
REMARK    1  A    between atoms: C2_2  and  O1_3 
REMARK    2  A    between atoms: O1_3  and  C3_4 
REMARK    3  A    between atoms: C4_5  and  C5_6 
REMARK    4  A    between atoms: C8_13  and  S1_14 
REMARK    5  A    between atoms: S1_14  and  C9_15 
REMARK    6  A    between atoms: C9_15  and  C10_16 
ROOT
HETATM    1  S1  UNL     1      -0.778  -0.802  -0.079  1.00  0.00    -0.105 SA
ENDROOT
BRANCH   1   2
HETATM    2  C8  UNL     1       0.607  -1.891  -0.351  1.00  0.00     0.096 A 
HETATM    3  C6  UNL     1       2.006  -1.494  -0.413  1.00  0.00     0.016 A 
HETATM    4  C5  UNL     1       2.461  -0.275  -0.278  1.00  0.00     0.017 C 
HETATM    5  C7  UNL     1       2.739  -2.731  -0.650  1.00  0.00     0.121 A 
HETATM    6  N1  UNL     1       1.868  -3.686  -0.711  1.00  0.00    -0.310 N 
HETATM    7  N2  UNL     1       0.576  -3.178  -0.530  1.00  0.00    -0.294 N 
ATOM      8  H1  UNL     1       2.091  -4.669  -0.869  1.00  0.00     0.186 HD
ATOM      9  H2  UNL     1      -0.274  -3.741  -0.538  1.00  0.00     0.187 HD
BRANCH   4  10
HETATM   10  C4  UNL     1       3.880   0.007  -0.358  1.00  0.00     0.025 C 
HETATM   11  C3  UNL     1       4.304   1.243  -0.219  1.00  0.00     0.134 C 
BRANCH  11  12
HETATM   12  O1  UNL     1       5.658   1.540  -0.292  1.00  0.00    -0.363 OA
BRANCH  12  13
HETATM   13  C2  UNL     1       6.384   1.456   0.934  1.00  0.00     0.170 C 
HETATM   14  C1  UNL     1       7.815   1.812   0.632  1.00  0.00     0.034 C 
ENDBRANCH  12  13
ENDBRANCH  11  12
ENDBRANCH   4  10
ENDBRANCH   1   2
BRANCH   1  15
HETATM   15  C9  UNL     1      -2.306  -1.810  -0.093  1.00  0.00     0.119 C 
BRANCH  15  16
HETATM   16  C10 UNL     1      -3.495  -0.943   0.131  1.00  0.00    -0.046 A 
HETATM   17  C11 UNL     1      -3.973  -0.690   1.417  1.00  0.00     0.010 A 
HETATM   18  C12 UNL     1      -5.078   0.116   1.622  1.00  0.00     0.032 A 
HETATM   19  C13 UNL     1      -5.695   0.661   0.518  1.00  0.00     0.063 A 
HETATM   20  N3  UNL     1      -6.759   1.465   0.360  1.00  0.00    -0.307 N 
HETATM   21  C15 UNL     1      -5.229   0.416  -0.761  1.00  0.00     0.063 A 
HETATM   22  C14 UNL     1      -6.942   1.705  -0.962  1.00  0.00     0.325 A 
ATOM     23  H3  UNL     1      -7.337   1.836   1.114  1.00  0.00     0.170 HD
HETATM   24  O2  UNL     1      -7.850   2.418  -1.445  1.00  0.00    -0.247 OA
HETATM   25  N4  UNL     1      -5.996   1.057  -1.662  1.00  0.00    -0.306 N 
ATOM     26  H4  UNL     1      -5.882   1.052  -2.676  1.00  0.00     0.170 HD
HETATM   27  C16 UNL     1      -4.133  -0.383  -0.962  1.00  0.00     0.039 A 
ENDBRANCH  15  16
ENDBRANCH   1  15
TORSDOF 6
