REMARK  7 active torsions:
REMARK  status: ('A' for Active; 'I' for Inactive)
REMARK    1  A    between atoms: C3_3  and  C4_4 
REMARK    2  A    between atoms: C3_3  and  C5_6 
REMARK    3  A    between atoms: C6_7  and  C7_8 
REMARK    4  A    between atoms: C6_7  and  O2_16 
REMARK    5  A    between atoms: C7_8  and  C8_9 
REMARK    6  A    between atoms: O2_16  and  C15_17 
REMARK    7  A    between atoms: C15_17  and  C16_18 
ROOT
HETATM    1  C5  UNL     1      -1.788   1.335  -0.048  1.00  0.00     0.046 C 
HETATM    2  C6  UNL     1      -0.862   0.502  -0.298  1.00  0.00     0.047 C 
ENDROOT
BRANCH   2   3
HETATM    3  C7  UNL     1       0.400   0.520  -1.005  1.00  0.00     0.070 C 
BRANCH   3   4
HETATM    4  C8  UNL     1       1.588   0.370  -0.102  1.00  0.00     0.002 C 
HETATM    5  C9  UNL     1       1.619  -0.960   0.672  1.00  0.00     0.084 C 
HETATM    6  C10 UNL     1       2.985  -1.306   0.810  1.00  0.00    -0.183 C 
HETATM    7  C11 UNL     1       4.360  -1.550   0.885  1.00  0.00     0.080 C 
HETATM    8  C12 UNL     1       5.047  -0.473  -0.029  1.00  0.00     0.011 C 
HETATM    9  C13 UNL     1       4.137   0.704  -0.306  1.00  0.00     0.001 C 
HETATM   10  C14 UNL     1       2.841   0.576  -0.940  1.00  0.00     0.006 C 
ENDBRANCH   3   4
ENDBRANCH   2   3
BRANCH   2  11
HETATM   11  O2  UNL     1      -1.144  -0.820   0.280  1.00  0.00    -0.355 OA
BRANCH  11  12
HETATM   12  C15 UNL     1      -2.103  -1.602  -0.408  1.00  0.00     0.179 C 
BRANCH  12  13
HETATM   13  C16 UNL     1      -2.224  -2.899   0.361  1.00  0.00     0.002 C 
HETATM   14  C17 UNL     1      -2.672  -2.606   1.765  1.00  0.00     0.011 C 
HETATM   15  C18 UNL     1      -3.210  -3.778  -0.387  1.00  0.00     0.011 C 
ENDBRANCH  12  13
ENDBRANCH  11  12
ENDBRANCH   2  11
BRANCH   1  16
HETATM   16  C3  UNL     1      -2.082   2.716  -0.321  1.00  0.00    -0.000 C 
HETATM   17  C2  UNL     1      -3.275   3.198   0.167  1.00  0.00    -0.017 C 
HETATM   18  C1  UNL     1      -3.701   4.589  -0.015  1.00  0.00     0.037 C 
BRANCH  16  19
HETATM   19  C4  UNL     1      -1.324   3.720  -1.012  1.00  0.00     0.269 C 
HETATM   20  O1  UNL     1      -0.230   3.648  -1.557  1.00  0.00    -0.301 OA
ENDBRANCH  16  19
ENDBRANCH   1  16
TORSDOF 7
