REMARK  8 active torsions:
REMARK  status: ('A' for Active; 'I' for Inactive)
REMARK    1  A    between atoms: C2_2  and  C3_3 
REMARK    2  A    between atoms: C3_3  and  C7_9 
REMARK    3  A    between atoms: C4_4  and  C6_6 
REMARK    4  A    between atoms: C6_6  and  O1_7 
REMARK    5  A    between atoms: C7_9  and  O2_10 
REMARK    6  A    between atoms: O2_10  and  C8_11 
REMARK    7  A    between atoms: C8_11  and  C9_12 
REMARK    8  A    between atoms: C9_12  and  C10_13 
ROOT
HETATM    1  C7  UNL     1      -1.673   0.550  -0.238  1.00  0.00     0.076 C 
HETATM    2  C16 UNL     1      -1.634   1.748  -0.725  1.00  0.00    -0.054 C 
HETATM    3  C17 UNL     1      -0.245   2.415  -0.683  1.00  0.00     0.046 C 
HETATM    4  C18 UNL     1      -2.649   2.627  -1.312  1.00  0.00     0.046 C 
ENDROOT
BRANCH   1   5
HETATM    5  C3  UNL     1      -2.763  -0.405  -0.087  1.00  0.00    -0.021 C 
HETATM    6  C4  UNL     1      -2.639  -1.557   0.506  1.00  0.00    -0.051 C 
HETATM    7  C5  UNL     1      -3.757  -2.573   0.382  1.00  0.00     0.046 C 
BRANCH   5   8
HETATM    8  C2  UNL     1      -4.059  -0.214  -0.830  1.00  0.00     0.037 C 
HETATM    9  C1  UNL     1      -5.019   0.696  -0.162  1.00  0.00     0.010 C 
ENDBRANCH   5   8
BRANCH   6  10
HETATM   10  C6  UNL     1      -1.602  -1.961   1.469  1.00  0.00     0.198 C 
BRANCH  10  11
HETATM   11  O1  UNL     1      -2.394  -2.310   2.650  1.00  0.00    -0.397 OA
ATOM     12  H1  UNL     1      -1.725  -2.571   3.272  1.00  0.00     0.209 HD
ENDBRANCH  10  11
ENDBRANCH   6  10
ENDBRANCH   1   5
BRANCH   1  13
HETATM   13  O2  UNL     1      -0.399   0.048   0.227  1.00  0.00    -0.350 OA
BRANCH  13  14
HETATM   14  C8  UNL     1       0.407  -0.577  -0.793  1.00  0.00     0.176 C 
BRANCH  14  15
HETATM   15  C9  UNL     1       1.680  -1.137  -0.307  1.00  0.00     0.031 C 
BRANCH  15  16
HETATM   16  C10 UNL     1       2.694  -0.253   0.297  1.00  0.00    -0.013 C 
HETATM   17  C11 UNL     1       3.213   0.802  -0.615  1.00  0.00     0.005 C 
HETATM   18  C12 UNL     1       4.704   0.920  -0.679  1.00  0.00     0.000 C 
HETATM   19  C13 UNL     1       5.369   0.830   0.679  1.00  0.00     0.000 C 
HETATM   20  C14 UNL     1       4.921  -0.398   1.437  1.00  0.00     0.000 C 
HETATM   21  C15 UNL     1       3.879  -1.167   0.659  1.00  0.00     0.005 C 
ENDBRANCH  15  16
ENDBRANCH  14  15
ENDBRANCH  13  14
ENDBRANCH   1  13
TORSDOF 8
