REMARK  6 active torsions:
REMARK  status: ('A' for Active; 'I' for Inactive)
REMARK    1  A    between atoms: C2_2  and  N1_3 
REMARK       I    between atoms: N1_3  and  C4_5 
REMARK    2  A    between atoms: C4_5  and  C5_7 
REMARK    3  A    between atoms: C5_7  and  C6_8 
REMARK    4  A    between atoms: C16_21  and  O2_22 
REMARK    5  A    between atoms: N3_25  and  C18_26 
REMARK    6  A    between atoms: C21_29  and  N4_30 
ROOT
HETATM    1  C6  UNL     1      -0.939   1.154  -0.717  1.00  0.00     0.087 C 
HETATM    2  C7  UNL     1      -2.230   0.867  -0.052  1.00  0.00     0.018 C 
HETATM    3  C8  UNL     1      -3.327   0.416  -1.036  1.00  0.00     0.028 C 
HETATM    4  C9  UNL     1      -4.502  -0.068  -0.266  1.00  0.00    -0.022 C 
HETATM    5  C10 UNL     1      -4.881  -1.303  -0.096  1.00  0.00    -0.053 C 
HETATM    6  C11 UNL     1      -6.063  -1.855   0.673  1.00  0.00     0.036 C 
HETATM    7  C12 UNL     1      -6.490  -2.994  -0.236  1.00  0.00     0.007 C 
HETATM    8  C13 UNL     1      -5.201  -3.604  -0.662  1.00  0.00     0.038 C 
HETATM    9  C14 UNL     1      -4.200  -2.495  -0.656  1.00  0.00     0.214 C 
HETATM   10  N2  UNL     1      -3.056  -2.923   0.163  1.00  0.00    -0.065 N 
ATOM     11  H21 UNL     1      -3.283  -3.729   0.745  1.00  0.00     0.278 HD
ATOM     12  H22 UNL     1      -2.847  -2.256   0.906  1.00  0.00     0.278 HD
HETATM   13  C15 UNL     1      -1.929  -3.166  -0.665  1.00  0.00     0.266 C 
HETATM   14  C16 UNL     1      -0.594  -2.748  -0.069  1.00  0.00     0.162 C 
HETATM   15  C17 UNL     1       0.128  -1.779  -0.959  1.00  0.00     0.165 C 
HETATM   16  N3  UNL     1       0.803  -0.692  -0.326  1.00  0.00    -0.315 N 
HETATM   17  C28 UNL     1       0.163   0.517   0.075  1.00  0.00     0.229 C 
HETATM   18  O3  UNL     1       0.490   1.121   1.126  1.00  0.00    -0.273 OA
ENDROOT
BRANCH  16  19
HETATM   19  C18 UNL     1       2.221  -0.806  -0.098  1.00  0.00     0.037 A 
HETATM   20  C19 UNL     1       3.049   0.274   0.120  1.00  0.00     0.032 A 
HETATM   21  C20 UNL     1       4.415   0.139   0.327  1.00  0.00     0.032 A 
HETATM   22  C21 UNL     1       5.018  -1.118   0.320  1.00  0.00     0.038 A 
HETATM   23  C26 UNL     1       4.166  -2.173   0.101  1.00  0.00     0.032 A 
HETATM   24  C27 UNL     1       2.818  -2.060  -0.103  1.00  0.00     0.032 A 
BRANCH  22  25
HETATM   25  N4  UNL     1       6.415  -1.234   0.514  1.00  0.00    -0.333 N 
HETATM   26  C22 UNL     1       7.105  -2.289   0.910  1.00  0.00     0.096 A 
HETATM   27  C23 UNL     1       8.458  -2.003   0.967  1.00  0.00     0.019 A 
HETATM   28  C24 UNL     1       8.582  -0.687   0.580  1.00  0.00     0.019 A 
HETATM   29  C25 UNL     1       7.287  -0.236   0.305  1.00  0.00     0.096 A 
ENDBRANCH  22  25
ENDBRANCH  16  19
BRANCH  14  30
HETATM   30  O2  UNL     1      -0.674  -2.421   1.250  1.00  0.00    -0.392 OA
ATOM     31  H2  UNL     1       0.160  -2.160   1.622  1.00  0.00     0.210 HD
ENDBRANCH  14  30
BRANCH   1  32
HETATM   32  C5  UNL     1      -0.650   2.557  -1.103  1.00  0.00     0.117 C 
BRANCH  32  33
HETATM   33  C4  UNL     1      -0.638   3.580  -0.082  1.00  0.00     0.220 C 
HETATM   34  N1  UNL     1       0.439   4.472   0.147  1.00  0.00    -0.357 N 
HETATM   35  C3  UNL     1       1.645   4.412  -0.646  1.00  0.00     0.152 C 
HETATM   36  O1  UNL     1      -1.636   3.735   0.696  1.00  0.00    -0.273 OA
BRANCH  34  37
HETATM   37  C2  UNL     1       0.381   5.494   1.191  1.00  0.00     0.120 C 
HETATM   38  C1  UNL     1      -0.181   6.807   0.623  1.00  0.00     0.026 C 
ENDBRANCH  34  37
ENDBRANCH  32  33
ENDBRANCH   1  32
TORSDOF 6
