REMARK  10 active torsions:
REMARK  status: ('A' for Active; 'I' for Inactive)
REMARK    1  A    between atoms: C3_4  and  N1_5 
REMARK    2  A    between atoms: C3_4  and  C13_23 
REMARK       I    between atoms: N1_5  and  C4_7 
REMARK    3  A    between atoms: C4_7  and  C5_9 
REMARK       I    between atoms: C5_9  and  N2_11 
REMARK    4  A    between atoms: N2_11  and  C6_13 
REMARK    5  A    between atoms: C12_20  and  O5_21 
REMARK    6  A    between atoms: C13_23  and  O7_25 
REMARK    7  A    between atoms: O7_25  and  C14_26 
REMARK    8  A    between atoms: C14_26  and  C15_27 
REMARK    9  A    between atoms: C15_27  and  O8_28 
REMARK   10  A    between atoms: C15_27  and  C16_30 
ROOT
HETATM    1  O1  UNL     1       3.035  -4.008  -1.440  1.00  0.00    -0.273 OA
HETATM    2  C1  UNL     1       2.459  -3.020  -0.936  1.00  0.00     0.227 C 
HETATM    3  C2  UNL     1       1.659  -1.968  -1.585  1.00  0.00     0.155 C 
HETATM    4  C3  UNL     1       1.691  -0.802  -0.658  1.00  0.00     0.211 C 
HETATM    5  C20 UNL     1       1.983  -1.402   0.659  1.00  0.00     0.263 C 
HETATM    6  O9  UNL     1       1.842  -0.893   1.809  1.00  0.00    -0.270 OA
HETATM    7  N3  UNL     1       2.479  -2.718   0.454  1.00  0.00    -0.295 N 
ATOM      8  H3  UNL     1       2.800  -3.348   1.189  1.00  0.00     0.171 HD
ENDROOT
BRANCH   4   9
HETATM    9  N1  UNL     1       0.452  -0.078  -0.567  1.00  0.00    -0.326 N 
HETATM   10  C4  UNL     1      -0.762  -0.636  -0.116  1.00  0.00     0.310 C 
HETATM   11  O2  UNL     1      -0.784  -1.841   0.235  1.00  0.00    -0.262 OA
ATOM     12  H1  UNL     1       0.451   0.903  -0.847  1.00  0.00     0.164 HD
BRANCH  10  13
HETATM   13  C5  UNL     1      -1.984   0.131  -0.045  1.00  0.00     0.309 C 
HETATM   14  O3  UNL     1      -1.975   1.336  -0.393  1.00  0.00    -0.262 OA
HETATM   15  N2  UNL     1      -3.197  -0.446   0.411  1.00  0.00    -0.346 N 
ATOM     16  H2  UNL     1      -3.210  -1.425   0.696  1.00  0.00     0.163 HD
BRANCH  15  17
HETATM   17  C6  UNL     1      -4.418   0.330   0.480  1.00  0.00     0.118 C 
HETATM   18  C7  UNL     1      -4.880   0.394   1.893  1.00  0.00     0.059 C 
HETATM   19  C8  UNL     1      -6.345   0.336   2.095  1.00  0.00     0.124 C 
HETATM   20  C9  UNL     1      -6.709  -1.112   2.451  1.00  0.00     0.034 C 
HETATM   21  O4  UNL     1      -7.099   0.515   0.944  1.00  0.00    -0.378 OA
HETATM   22  C10 UNL     1      -6.575  -1.756   1.064  1.00  0.00     0.037 C 
HETATM   23  C11 UNL     1      -6.741  -0.574   0.165  1.00  0.00     0.152 C 
HETATM   24  C12 UNL     1      -5.415  -0.260  -0.476  1.00  0.00     0.169 C 
BRANCH  24  25
HETATM   25  O5  UNL     1      -5.674   0.605  -1.545  1.00  0.00    -0.391 OA
ATOM     26  H5  UNL     1      -6.305   0.232  -2.150  1.00  0.00     0.210 HD
ENDBRANCH  24  25
ENDBRANCH  15  17
ENDBRANCH  10  13
ENDBRANCH   4   9
BRANCH   4  27
HETATM   27  C13 UNL     1       2.834   0.136  -0.949  1.00  0.00     0.297 C 
HETATM   28  O6  UNL     1       2.629   1.369  -1.078  1.00  0.00    -0.262 OA
BRANCH  27  29
HETATM   29  O7  UNL     1       4.125  -0.333  -1.080  1.00  0.00    -0.316 OA
BRANCH  29  30
HETATM   30  C14 UNL     1       5.252   0.455  -1.345  1.00  0.00     0.215 C 
BRANCH  30  31
HETATM   31  C15 UNL     1       5.522   1.483  -0.271  1.00  0.00     0.176 C 
BRANCH  31  32
HETATM   32  O8  UNL     1       5.733   0.879   0.966  1.00  0.00    -0.389 OA
ATOM     33  H8  UNL     1       5.903   1.525   1.641  1.00  0.00     0.210 HD
ENDBRANCH  31  32
BRANCH  31  34
HETATM   34  C16 UNL     1       6.813   2.212  -0.601  1.00  0.00    -0.021 A 
HETATM   35  C17 UNL     1       6.831   3.463  -1.072  1.00  0.00     0.017 A 
HETATM   36  C18 UNL     1       8.057   4.017  -1.339  1.00  0.00     0.050 A 
HETATM   37  S1  UNL     1       9.139   2.767  -0.922  1.00  0.00    -0.113 SA
HETATM   38  C19 UNL     1       8.013   1.584  -0.423  1.00  0.00     0.059 A 
ENDBRANCH  31  34
ENDBRANCH  30  31
ENDBRANCH  29  30
ENDBRANCH  27  29
ENDBRANCH   4  27
TORSDOF 10
