REMARK  12 active torsions:
REMARK  status: ('A' for Active; 'I' for Inactive)
REMARK    1  A    between atoms: O1_2  and  C2_3 
REMARK    2  A    between atoms: C2_3  and  C3_5 
REMARK    3  A    between atoms: C3_5  and  O3_6 
REMARK    4  A    between atoms: O3_6  and  C4_7 
REMARK    5  A    between atoms: C4_7  and  C5_9 
REMARK    6  A    between atoms: C7_11  and  C8_12 
REMARK    7  A    between atoms: C12_19  and  C13_20 
REMARK    8  A    between atoms: C14_23  and  O9_24 
REMARK    9  A    between atoms: C16_29  and  C17_30 
REMARK   10  A    between atoms: C17_30  and  C18_31 
REMARK   11  A    between atoms: C18_31  and  C19_33 
REMARK   12  A    between atoms: C19_33  and  N3_35 
ROOT
HETATM    1  C5  UNL     1       0.176   0.306   0.117  1.00  0.00     0.075 C 
HETATM    2  C6  UNL     1      -0.573  -0.775   0.039  1.00  0.00     0.002 C 
HETATM    3  C7  UNL     1      -0.603  -2.040   0.700  1.00  0.00     0.013 C 
HETATM    4  S1  UNL     1      -0.907  -3.499  -0.248  1.00  0.00    -0.111 SA
HETATM    5  C12 UNL     1      -2.250  -2.993  -1.439  1.00  0.00     0.184 C 
HETATM    6  C14 UNL     1      -2.540  -1.563  -1.186  1.00  0.00     0.169 C 
HETATM    7  C15 UNL     1      -1.407  -0.602  -1.212  1.00  0.00     0.148 C 
HETATM    8  N1  UNL     1      -1.658   0.770  -1.183  1.00  0.00    -0.378 N 
ATOM      9  H1  UNL     1      -2.521   1.238  -1.459  1.00  0.00     0.160 HD
HETATM   10  C16 UNL     1      -0.446   1.402  -0.682  1.00  0.00     0.047 C 
ENDROOT
BRANCH   1  11
HETATM   11  C4  UNL     1       1.316   0.404   1.044  1.00  0.00     0.296 C 
HETATM   12  O4  UNL     1       1.802  -0.354   1.846  1.00  0.00    -0.259 OA
BRANCH  11  13
HETATM   13  O3  UNL     1       2.042   1.675   1.002  1.00  0.00    -0.307 OA
BRANCH  13  14
HETATM   14  C3  UNL     1       3.132   1.781   1.920  1.00  0.00     0.290 C 
BRANCH  14  15
HETATM   15  C2  UNL     1       4.172   0.779   1.675  1.00  0.00     0.282 C 
HETATM   16  O2  UNL     1       5.104   0.720   2.571  1.00  0.00    -0.263 OA
BRANCH  15  17
HETATM   17  O1  UNL     1       4.310  -0.101   0.645  1.00  0.00    -0.325 OA
HETATM   18  C1  UNL     1       5.357  -1.039   0.515  1.00  0.00     0.213 C 
ENDBRANCH  15  17
ENDBRANCH  14  15
ENDBRANCH  13  14
ENDBRANCH  11  13
ENDBRANCH   1  11
BRANCH  10  19
HETATM   19  C17 UNL     1      -0.069   2.638  -0.845  1.00  0.00     0.058 C 
BRANCH  19  20
HETATM   20  C18 UNL     1      -0.821   3.532  -1.681  1.00  0.00     0.070 C 
HETATM   21  N2  UNL     1      -1.844   3.011  -2.601  1.00  0.00    -0.100 NA
BRANCH  20  22
HETATM   22  C19 UNL     1      -0.615   4.809  -1.882  1.00  0.00     0.023 C 
HETATM   23  C20 UNL     1       0.556   5.458  -1.170  1.00  0.00     0.069 C 
BRANCH  22  24
HETATM   24  N3  UNL     1      -1.335   5.629  -2.717  1.00  0.00    -0.401 N 
ATOM     25  H32 UNL     1      -2.123   5.192  -3.196  1.00  0.00     0.156 HD
ATOM     26  H31 UNL     1      -1.174   6.624  -2.874  1.00  0.00     0.156 HD
ENDBRANCH  22  24
ENDBRANCH  20  22
ENDBRANCH  19  20
ENDBRANCH  10  19
BRANCH   3  27
HETATM   27  C8  UNL     1      -0.493  -2.146   2.055  1.00  0.00     0.053 C 
HETATM   28  C9  UNL     1      -0.525  -3.427   2.556  1.00  0.00     0.074 C 
HETATM   29  C10 UNL     1      -0.372  -3.308   4.093  1.00  0.00     0.235 C 
HETATM   30  O6  UNL     1      -0.601  -4.755   2.648  1.00  0.00    -0.328 OA
HETATM   31  O5  UNL     1      -0.392  -4.519   4.679  1.00  0.00    -0.360 OA
HETATM   32  C11 UNL     1      -1.200  -5.319   3.754  1.00  0.00     0.345 C 
ENDBRANCH   3  27
BRANCH   6  33
HETATM   33  O9  UNL     1      -3.097  -1.512   0.106  1.00  0.00    -0.391 OA
ATOM     34  H9  UNL     1      -3.283  -0.595   0.268  1.00  0.00     0.210 HD
ENDBRANCH   6  33
BRANCH   5  35
HETATM   35  C13 UNL     1      -1.752  -3.207  -2.792  1.00  0.00     0.190 C 
HETATM   36  O7  UNL     1      -0.665  -3.806  -3.014  1.00  0.00    -0.647 OA
HETATM   37  O8  UNL     1      -2.438  -2.768  -3.912  1.00  0.00    -0.647 OA
ENDBRANCH   5  35
TORSDOF 12
