REMARK  8 active torsions:
REMARK  status: ('A' for Active; 'I' for Inactive)
REMARK    1  A    between atoms: C2_2  and  O1_3 
REMARK    2  A    between atoms: O1_3  and  C3_4 
REMARK    3  A    between atoms: C3_4  and  C4_6 
REMARK    4  A    between atoms: C5_7  and  C6_8 
REMARK    5  A    between atoms: C13_22  and  N3_23 
REMARK       I    between atoms: N3_23  and  C14_25 
REMARK    6  A    between atoms: C14_25  and  C15_27 
REMARK    7  A    between atoms: C16_28  and  O6_29 
REMARK    8  A    between atoms: C19_35  and  O9_36 
ROOT
HETATM    1  C4  UNL     1      -2.487   2.158  -0.287  1.00  0.00     0.061 C 
HETATM    2  C5  UNL     1      -2.601   3.396   0.149  1.00  0.00     0.069 C 
HETATM    3  O3  UNL     1      -2.280   4.521  -0.676  1.00  0.00    -0.287 OA
HETATM    4  C8  UNL     1      -1.842   4.333  -1.963  1.00  0.00     0.243 C 
HETATM    5  F1  UNL     1      -1.525   5.346  -2.809  1.00  0.00    -0.177 F 
HETATM    6  C9  UNL     1      -1.706   3.080  -2.460  1.00  0.00     0.088 C 
HETATM    7  C10 UNL     1      -1.236   2.900  -3.834  1.00  0.00     0.258 C 
HETATM    8  O4  UNL     1      -1.571   3.657  -4.732  1.00  0.00    -0.267 OA
HETATM    9  N1  UNL     1      -0.350   1.742  -3.965  1.00  0.00    -0.316 N 
ATOM     10  H1  UNL     1       0.074   1.519  -4.865  1.00  0.00     0.169 HD
HETATM   11  C11 UNL     1      -0.089   0.942  -2.843  1.00  0.00     0.099 C 
HETATM   12  C12 UNL     1      -0.629   1.098  -1.665  1.00  0.00     0.055 C 
HETATM   13  N2  UNL     1      -0.171   0.221  -0.685  1.00  0.00    -0.360 N 
ATOM     14  H2  UNL     1      -0.233   0.448   0.308  1.00  0.00     0.162 HD
HETATM   15  C13 UNL     1       0.397  -1.026  -1.144  1.00  0.00     0.255 C 
HETATM   16  S1  UNL     1       1.041  -0.458  -2.745  1.00  0.00    -0.064 SA
HETATM   17  C20 UNL     1      -1.907   1.925  -1.619  1.00  0.00     0.123 C 
ENDROOT
BRANCH  15  18
HETATM   18  N3  UNL     1       1.547  -1.423  -0.357  1.00  0.00    -0.330 N 
HETATM   19  C14 UNL     1       1.715  -2.695   0.205  1.00  0.00     0.229 C 
HETATM   20  O5  UNL     1       0.833  -3.570   0.034  1.00  0.00    -0.273 OA
ATOM     21  H3  UNL     1       2.281  -0.732  -0.202  1.00  0.00     0.165 HD
BRANCH  19  22
HETATM   22  C15 UNL     1       2.905  -3.027   0.989  1.00  0.00     0.147 C 
HETATM   23  C16 UNL     1       3.093  -2.169   2.198  1.00  0.00     0.158 C 
HETATM   24  C17 UNL     1       4.350  -2.499   2.926  1.00  0.00     0.211 C 
HETATM   25  O7  UNL     1       5.164  -3.464   2.306  1.00  0.00    -0.317 OA
HETATM   26  C18 UNL     1       5.230  -3.584   0.927  1.00  0.00     0.288 C 
HETATM   27  O8  UNL     1       6.109  -4.236   0.317  1.00  0.00    -0.262 OA
HETATM   28  C19 UNL     1       4.179  -2.886   0.143  1.00  0.00     0.233 C 
BRANCH  23  29
HETATM   29  O6  UNL     1       2.011  -2.319   3.076  1.00  0.00    -0.392 OA
ATOM     30  H6  UNL     1       2.131  -1.774   3.845  1.00  0.00     0.210 HD
ENDBRANCH  23  29
BRANCH  28  31
HETATM   31  O9  UNL     1       4.560  -1.528   0.139  1.00  0.00    -0.385 OA
ATOM     32  H9  UNL     1       5.348  -1.441  -0.384  1.00  0.00     0.210 HD
ENDBRANCH  28  31
ENDBRANCH  19  22
ENDBRANCH  15  18
BRANCH   1  33
HETATM   33  C3  UNL     1      -2.838   0.999   0.505  1.00  0.00     0.292 C 
HETATM   34  O2  UNL     1      -3.177   1.100   1.701  1.00  0.00    -0.259 OA
BRANCH  33  35
HETATM   35  O1  UNL     1      -2.850  -0.315   0.027  1.00  0.00    -0.318 OA
BRANCH  35  36
HETATM   36  C2  UNL     1      -3.220  -1.405   0.849  1.00  0.00     0.174 C 
HETATM   37  C1  UNL     1      -3.153  -2.705   0.114  1.00  0.00     0.034 C 
ENDBRANCH  35  36
ENDBRANCH  33  35
ENDBRANCH   1  33
BRANCH   2  38
HETATM   38  C6  UNL     1      -3.087   3.735   1.503  1.00  0.00     0.061 C 
HETATM   39  C7  UNL     1      -1.988   4.274   2.409  1.00  0.00     0.012 C 
ENDBRANCH   2  38
TORSDOF 8
