REMARK  9 active torsions:
REMARK  status: ('A' for Active; 'I' for Inactive)
REMARK    1  A    between atoms: C2_2  and  O1_3 
REMARK    2  A    between atoms: O1_3  and  C3_4 
REMARK    3  A    between atoms: C3_4  and  C4_5 
REMARK    4  A    between atoms: C4_5  and  C5_6 
REMARK    5  A    between atoms: C5_6  and  C6_7 
REMARK    6  A    between atoms: C6_7  and  C7_8 
REMARK    7  A    between atoms: C7_8  and  C9_10 
REMARK    8  A    between atoms: C9_10  and  O2_11 
REMARK    9  A    between atoms: O2_11  and  C10_12 
ROOT
HETATM    1  C9  UNL     1      -0.503   0.373   0.538  1.00  0.00     0.180 C 
ENDROOT
BRANCH   1   2
HETATM    2  C7  UNL     1       0.663   0.625   1.433  1.00  0.00     0.006 C 
HETATM    3  C8  UNL     1       0.614  -0.334   2.592  1.00  0.00     0.012 C 
BRANCH   2   4
HETATM    4  C6  UNL     1       1.939   0.566   0.667  1.00  0.00     0.006 C 
BRANCH   4   5
HETATM    5  C5  UNL     1       2.256  -0.755   0.065  1.00  0.00     0.002 C 
BRANCH   5   6
HETATM    6  C4  UNL     1       3.566  -0.764  -0.695  1.00  0.00     0.026 C 
BRANCH   6   7
HETATM    7  C3  UNL     1       4.738  -0.421   0.159  1.00  0.00     0.167 C 
BRANCH   7   8
HETATM    8  O1  UNL     1       5.914  -0.444  -0.567  1.00  0.00    -0.391 OA
BRANCH   8   9
HETATM    9  C2  UNL     1       5.983   0.423  -1.622  1.00  0.00     0.163 C 
HETATM   10  C1  UNL     1       7.368   0.216  -2.254  1.00  0.00     0.033 C 
ENDBRANCH   8   9
ENDBRANCH   7   8
ENDBRANCH   6   7
ENDBRANCH   5   6
ENDBRANCH   4   5
ENDBRANCH   2   4
ENDBRANCH   1   2
BRANCH   1  11
HETATM   11  O2  UNL     1      -1.737   0.419   1.198  1.00  0.00    -0.350 OA
BRANCH  11  12
HETATM   12  C10 UNL     1      -2.899   0.201   0.477  1.00  0.00     0.075 A 
HETATM   13  C11 UNL     1      -2.813  -0.055  -0.865  1.00  0.00     0.044 A 
HETATM   14  C12 UNL     1      -3.958  -0.273  -1.592  1.00  0.00    -0.059 A 
HETATM   15  C13 UNL     1      -3.896  -0.554  -3.053  1.00  0.00     0.048 C 
HETATM   16  C14 UNL     1      -5.189  -0.230  -0.945  1.00  0.00     0.014 A 
HETATM   17  C15 UNL     1      -5.280   0.029   0.410  1.00  0.00    -0.053 A 
HETATM   18  C16 UNL     1      -6.597   0.078   1.113  1.00  0.00     0.049 C 
HETATM   19  C17 UNL     1      -4.133   0.242   1.108  1.00  0.00    -0.023 A 
HETATM   20  C18 UNL     1      -4.141   0.524   2.558  1.00  0.00     0.052 C 
ENDBRANCH  11  12
ENDBRANCH   1  11
TORSDOF 9
