REMARK  11 active torsions:
REMARK  status: ('A' for Active; 'I' for Inactive)
REMARK    1  A    between atoms: O1_2  and  C2_3 
REMARK    2  A    between atoms: C2_3  and  C3_5 
REMARK    3  A    between atoms: C4_6  and  N1_7 
REMARK       I    between atoms: N1_7  and  C5_9 
REMARK    4  A    between atoms: C5_9  and  C6_11 
REMARK    5  A    between atoms: C12_20  and  C13_21 
REMARK    6  A    between atoms: C13_21  and  O4_22 
REMARK    7  A    between atoms: C13_21  and  N2_24 
REMARK    8  A    between atoms: N2_24  and  C14_25 
REMARK    9  A    between atoms: N2_24  and  C18_31 
REMARK   10  A    between atoms: C14_25  and  C15_26 
REMARK       I    between atoms: C15_26  and  N3_28 
REMARK   11  A    between atoms: C21_34  and  C22_35 
ROOT
HETATM    1  C3  UNL     1       1.302  -0.893  -0.377  1.00  0.00     0.086 A 
HETATM    2  C4  UNL     1       1.954   0.286  -0.177  1.00  0.00     0.095 A 
HETATM    3  S3  UNL     1       0.702   1.430  -0.167  1.00  0.00    -0.066 SA
HETATM    4  C12 UNL     1      -0.678   0.362  -0.431  1.00  0.00     0.070 A 
HETATM    5  C21 UNL     1      -0.061  -0.845  -0.510  1.00  0.00     0.015 A 
ENDROOT
BRANCH   4   6
HETATM    6  C13 UNL     1      -2.040   0.851  -0.376  1.00  0.00     0.157 C 
BRANCH   6   7
HETATM    7  O4  UNL     1      -2.033   2.077   0.235  1.00  0.00    -0.345 OA
ATOM      8  H4  UNL     1      -2.926   2.398   0.271  1.00  0.00     0.219 HD
ENDBRANCH   6   7
BRANCH   6   9
HETATM    9  N2  UNL     1      -3.323   0.514  -0.721  1.00  0.00    -0.347 N 
BRANCH   9  10
HETATM   10  C14 UNL     1      -4.394   1.444  -0.186  1.00  0.00     0.228 C 
BRANCH  10  11
HETATM   11  C15 UNL     1      -4.774   0.992   1.162  1.00  0.00     0.236 C 
HETATM   12  O5  UNL     1      -4.209   0.009   1.682  1.00  0.00    -0.272 OA
HETATM   13  N3  UNL     1      -5.789   1.695   1.850  1.00  0.00    -0.359 N 
HETATM   14  C16 UNL     1      -6.456   2.849   1.252  1.00  0.00     0.152 C 
HETATM   15  C17 UNL     1      -6.165   1.246   3.174  1.00  0.00     0.152 C 
ENDBRANCH  10  11
ENDBRANCH   9  10
BRANCH   9  16
HETATM   16  C18 UNL     1      -3.851  -0.439  -1.632  1.00  0.00     0.087 A 
HETATM   17  C19 UNL     1      -5.068  -0.232  -2.462  1.00  0.00     0.027 A 
HETATM   18  C20 UNL     1      -5.127  -1.211  -1.347  1.00  0.00     0.027 A 
ENDBRANCH   9  16
ENDBRANCH   6   9
ENDBRANCH   4   6
BRANCH   5  19
HETATM   19  C22 UNL     1      -0.825  -2.129  -0.687  1.00  0.00    -0.023 A 
HETATM   20  C23 UNL     1      -0.864  -2.781  -1.917  1.00  0.00     0.015 A 
HETATM   21  C24 UNL     1      -1.562  -3.959  -2.080  1.00  0.00     0.043 A 
HETATM   22  C25 UNL     1      -2.244  -4.516  -0.998  1.00  0.00     0.116 A 
HETATM   23  F1  UNL     1      -2.939  -5.676  -1.130  1.00  0.00    -0.206 F 
HETATM   24  C26 UNL     1      -2.215  -3.883   0.229  1.00  0.00     0.043 A 
HETATM   25  C27 UNL     1      -1.508  -2.709   0.353  1.00  0.00     0.015 A 
ENDBRANCH   5  19
BRANCH   2  26
HETATM   26  N1  UNL     1       3.369   0.588  -0.024  1.00  0.00    -0.316 N 
HETATM   27  C5  UNL     1       3.750   1.934   0.198  1.00  0.00     0.263 C 
HETATM   28  O3  UNL     1       2.885   2.820   0.260  1.00  0.00    -0.267 OA
ATOM     29  H1  UNL     1       4.070  -0.152  -0.075  1.00  0.00     0.169 HD
BRANCH  27  30
HETATM   30  C6  UNL     1       5.158   2.312   0.357  1.00  0.00     0.073 A 
HETATM   31  C7  UNL     1       6.260   1.510   0.316  1.00  0.00     0.033 A 
HETATM   32  C8  UNL     1       7.492   2.118   0.493  1.00  0.00    -0.034 A 
HETATM   33  C9  UNL     1       7.495   3.425   0.687  1.00  0.00    -0.000 A 
HETATM   34  C11 UNL     1       8.887   1.475   0.508  1.00  0.00     0.114 C 
HETATM   35  S1  UNL     1       5.824   3.853   0.633  1.00  0.00    -0.088 SA
HETATM   36  C10 UNL     1       8.792   4.121   0.878  1.00  0.00     0.120 C 
HETATM   37  S2  UNL     1       9.931   2.900   0.112  1.00  0.00    -0.159 SA
ENDBRANCH  27  30
ENDBRANCH   2  26
BRANCH   1  38
HETATM   38  C2  UNL     1       2.090  -2.171  -0.374  1.00  0.00     0.296 C 
HETATM   39  O2  UNL     1       1.579  -3.296  -0.539  1.00  0.00    -0.259 OA
BRANCH  38  40
HETATM   40  O1  UNL     1       3.448  -2.172  -0.184  1.00  0.00    -0.322 OA
HETATM   41  C1  UNL     1       4.204  -3.365  -0.178  1.00  0.00     0.213 C 
ENDBRANCH  38  40
ENDBRANCH   1  38
TORSDOF 11
