REMARK  7 active torsions:
REMARK  status: ('A' for Active; 'I' for Inactive)
REMARK    1  A    between atoms: O1_2  and  C2_3 
REMARK    2  A    between atoms: C2_3  and  C12_18 
REMARK    3  A    between atoms: C3_4  and  C4_5 
REMARK       I    between atoms: C4_5  and  N1_7 
REMARK    4  A    between atoms: C15_21  and  C16_22 
REMARK    5  A    between atoms: C16_22  and  N2_23 
REMARK       I    between atoms: N2_23  and  C18_25 
REMARK    6  A    between atoms: C18_25  and  C19_27 
REMARK    7  A    between atoms: C21_30  and  C22_31 
ROOT
HETATM    1  C12 UNL     1      -0.916  -0.796  -1.381  1.00  0.00     0.109 A 
HETATM    2  C13 UNL     1      -0.392   0.211  -2.154  1.00  0.00     0.042 A 
HETATM    3  C14 UNL     1       0.817  -0.228  -2.667  1.00  0.00     0.037 A 
HETATM    4  C15 UNL     1       0.970  -1.505  -2.170  1.00  0.00     0.071 A 
HETATM    5  O5  UNL     1      -0.051  -1.805  -1.428  1.00  0.00    -0.311 OA
ENDROOT
BRANCH   1   6
HETATM    6  C2  UNL     1      -2.155  -0.796  -0.648  1.00  0.00     0.107 C 
HETATM    7  C3  UNL     1      -2.927   0.294  -0.691  1.00  0.00     0.114 C 
BRANCH   6   8
HETATM    8  O1  UNL     1      -2.594  -1.871   0.103  1.00  0.00    -0.353 OA
HETATM    9  C1  UNL     1      -1.968  -2.355   1.257  1.00  0.00     0.210 C 
ENDBRANCH   6   8
BRANCH   7  10
HETATM   10  C4  UNL     1      -4.184   0.355   0.025  1.00  0.00     0.250 C 
HETATM   11  O2  UNL     1      -4.521  -0.653   0.692  1.00  0.00    -0.268 OA
HETATM   12  N1  UNL     1      -4.978   1.547  -0.056  1.00  0.00    -0.312 N 
HETATM   13  C5  UNL     1      -4.484   2.591  -0.880  1.00  0.00     0.143 C 
HETATM   14  C11 UNL     1      -6.178   1.547   0.711  1.00  0.00     0.061 A 
HETATM   15  C6  UNL     1      -5.316   3.782  -1.122  1.00  0.00     0.100 C 
HETATM   16  S1  UNL     1      -7.112   3.344  -1.159  1.00  0.00    -0.123 SA
HETATM   17  C7  UNL     1      -7.315   2.363   0.306  1.00  0.00     0.070 A 
HETATM   18  C8  UNL     1      -8.274   2.198   1.147  1.00  0.00     0.185 A 
HETATM   19  F1  UNL     1      -9.488   2.789   1.121  1.00  0.00    -0.200 F 
HETATM   20  C9  UNL     1      -7.859   1.254   2.192  1.00  0.00     0.213 A 
HETATM   21  O3  UNL     1      -8.493   0.829   3.186  1.00  0.00    -0.285 OA
HETATM   22  C10 UNL     1      -6.476   0.886   1.821  1.00  0.00     0.089 A 
ENDBRANCH   7  10
ENDBRANCH   1   6
BRANCH   4  23
HETATM   23  C16 UNL     1       2.124  -2.377  -2.451  1.00  0.00     0.190 C 
BRANCH  23  24
HETATM   24  N2  UNL     1       1.956  -3.618  -1.728  1.00  0.00    -0.345 N 
HETATM   25  C17 UNL     1       1.260  -4.708  -2.451  1.00  0.00     0.153 C 
HETATM   26  C18 UNL     1       2.373  -3.902  -0.428  1.00  0.00     0.270 C 
HETATM   27  O4  UNL     1       2.150  -5.074   0.012  1.00  0.00    -0.266 OA
BRANCH  26  28
HETATM   28  C19 UNL     1       3.039  -2.910   0.419  1.00  0.00     0.108 A 
HETATM   29  C20 UNL     1       3.440  -3.262   1.710  1.00  0.00     0.086 A 
HETATM   30  S2  UNL     1       4.140  -1.811   2.264  1.00  0.00    -0.086 SA
HETATM   31  C21 UNL     1       3.898  -0.856   0.875  1.00  0.00     0.055 A 
HETATM   32  N3  UNL     1       3.296  -1.698   0.064  1.00  0.00    -0.349 N 
ATOM     33  H3  UNL     1       3.026  -1.384  -0.868  1.00  0.00     0.166 HD
BRANCH  31  34
HETATM   34  C22 UNL     1       4.273   0.589   0.625  1.00  0.00     0.043 C 
HETATM   35  C23 UNL     1       3.606   1.397   1.694  1.00  0.00     0.011 C 
HETATM   36  C24 UNL     1       4.551   2.356   2.384  1.00  0.00     0.001 C 
HETATM   37  C25 UNL     1       5.365   3.037   1.318  1.00  0.00     0.000 C 
HETATM   38  C26 UNL     1       6.293   2.067   0.618  1.00  0.00     0.001 C 
HETATM   39  C27 UNL     1       5.775   0.651   0.688  1.00  0.00     0.011 C 
ENDBRANCH  31  34
ENDBRANCH  26  28
ENDBRANCH  23  24
ENDBRANCH   4  23
TORSDOF 7
