REMARK  11 active torsions:
REMARK  status: ('A' for Active; 'I' for Inactive)
REMARK    1  A    between atoms: C3_3  and  C4_4 
REMARK    2  A    between atoms: C4_4  and  O1_5 
REMARK    3  A    between atoms: C4_4  and  N1_7 
REMARK    4  A    between atoms: N1_7  and  C5_8 
REMARK    5  A    between atoms: N1_7  and  C17_24 
REMARK    6  A    between atoms: C5_8  and  S1_9 
REMARK    7  A    between atoms: S1_9  and  C6_10 
REMARK    8  A    between atoms: C6_10  and  C7_11 
REMARK    9  A    between atoms: C7_11  and  O3_13 
REMARK   10  A    between atoms: O3_13  and  C8_14 
REMARK   11  A    between atoms: C8_14  and  C9_15 
ROOT
HETATM    1  N1  UNL     1      -1.143  -0.243   1.333  1.00  0.00    -0.315 N 
ENDROOT
BRANCH   1   2
HETATM    2  C4  UNL     1      -1.763   0.988   1.156  1.00  0.00     0.161 C 
BRANCH   2   3
HETATM    3  C3  UNL     1      -3.065   1.470   0.750  1.00  0.00     0.065 A 
HETATM    4  C2  UNL     1      -4.306   1.013   0.518  1.00  0.00    -0.022 A 
HETATM    5  C1  UNL     1      -4.684  -0.379   0.966  1.00  0.00     0.051 C 
HETATM    6  C27 UNL     1      -5.236   1.852  -0.017  1.00  0.00     0.073 A 
HETATM    7  C23 UNL     1      -4.838   3.114  -0.277  1.00  0.00     0.093 A 
HETATM    8  C26 UNL     1      -6.564   1.599  -0.361  1.00  0.00     0.263 A 
HETATM    9  S2  UNL     1      -3.217   3.150   0.202  1.00  0.00    -0.067 SA
HETATM   10  N2  UNL     1      -5.611   4.094  -0.817  1.00  0.00    -0.326 N 
HETATM   11  C24 UNL     1      -6.890   3.827  -1.138  1.00  0.00     0.181 A 
ATOM     12  H2  UNL     1      -5.224   5.024  -0.977  1.00  0.00     0.169 HD
HETATM   13  S3  UNL     1      -7.863   4.962  -1.787  1.00  0.00    -0.040 SA
HETATM   14  N3  UNL     1      -7.310   2.596  -0.898  1.00  0.00    -0.294 N 
HETATM   15  C25 UNL     1      -8.710   2.323  -1.259  1.00  0.00     0.162 C 
HETATM   16  O5  UNL     1      -7.159   0.514  -0.223  1.00  0.00    -0.267 OA
ENDBRANCH   2   3
BRANCH   2  17
HETATM   17  O1  UNL     1      -0.903   1.980   1.437  1.00  0.00    -0.345 OA
ATOM     18  H1  UNL     1      -0.048   1.663   1.704  1.00  0.00     0.219 HD
ENDBRANCH   2  17
ENDBRANCH   1   2
BRANCH   1  19
HETATM   19  C5  UNL     1       0.121  -0.172   2.139  1.00  0.00     0.205 C 
BRANCH  19  20
HETATM   20  S1  UNL     1       1.575   0.153   1.199  1.00  0.00    -0.139 SA
BRANCH  20  21
HETATM   21  C6  UNL     1       2.158  -1.133   0.126  1.00  0.00     0.186 C 
BRANCH  21  22
HETATM   22  C7  UNL     1       3.385  -0.680  -0.586  1.00  0.00     0.268 C 
HETATM   23  O2  UNL     1       3.814   0.469  -0.373  1.00  0.00    -0.264 OA
BRANCH  22  24
HETATM   24  O3  UNL     1       4.030  -1.509  -1.458  1.00  0.00    -0.316 OA
BRANCH  24  25
HETATM   25  C8  UNL     1       5.174  -1.076  -2.139  1.00  0.00     0.217 C 
BRANCH  25  26
HETATM   26  C9  UNL     1       6.226  -0.706  -1.181  1.00  0.00    -0.031 A 
HETATM   27  C10 UNL     1       6.408  -1.431  -0.037  1.00  0.00     0.010 A 
HETATM   28  C11 UNL     1       7.404  -1.061   0.846  1.00  0.00     0.015 A 
HETATM   29  C12 UNL     1       8.206   0.024   0.580  1.00  0.00    -0.001 A 
HETATM   30  C13 UNL     1       9.245   0.610   1.256  1.00  0.00     0.039 A 
HETATM   31  C15 UNL     1       8.014   0.744  -0.572  1.00  0.00     0.085 A 
HETATM   32  C14 UNL     1       9.643   1.664   0.484  1.00  0.00     0.143 A 
HETATM   33  O4  UNL     1       8.897   1.704  -0.574  1.00  0.00    -0.322 OA
HETATM   34  C16 UNL     1       7.027   0.395  -1.468  1.00  0.00     0.047 A 
ENDBRANCH  25  26
ENDBRANCH  24  25
ENDBRANCH  22  24
ENDBRANCH  21  22
ENDBRANCH  20  21
ENDBRANCH  19  20
ENDBRANCH   1  19
BRANCH   1  35
HETATM   35  C17 UNL     1      -1.472  -1.547   0.960  1.00  0.00     0.076 A 
HETATM   36  C18 UNL     1      -1.529  -1.932  -0.361  1.00  0.00     0.033 A 
HETATM   37  C19 UNL     1      -1.827  -3.215  -0.755  1.00  0.00     0.002 A 
HETATM   38  C20 UNL     1      -2.086  -4.188   0.180  1.00  0.00     0.003 A 
HETATM   39  C21 UNL     1      -2.038  -3.837   1.500  1.00  0.00     0.044 A 
HETATM   40  C22 UNL     1      -1.734  -2.528   1.893  1.00  0.00     0.143 A 
HETATM   41  F1  UNL     1      -1.742  -2.320   3.234  1.00  0.00    -0.204 F 
ENDBRANCH   1  35
TORSDOF 11
