REMARK  15 active torsions:
REMARK  status: ('A' for Active; 'I' for Inactive)
REMARK    1  A    between atoms: C2_2  and  C3_3 
REMARK    2  A    between atoms: C3_3  and  C4_4 
REMARK    3  A    between atoms: C4_4  and  O1_5 
REMARK    4  A    between atoms: O1_5  and  C5_6 
REMARK    5  A    between atoms: C10_11  and  N1_12 
REMARK    6  A    between atoms: N1_12  and  C11_14 
REMARK    7  A    between atoms: C11_14  and  O2_15 
REMARK    8  A    between atoms: C11_14  and  C12_17 
REMARK    9  A    between atoms: C13_18  and  N2_19 
REMARK       I    between atoms: N2_19  and  C14_21 
REMARK       I    between atoms: C14_21  and  N3_23 
REMARK   10  A    between atoms: C20_30  and  C21_31 
REMARK       I    between atoms: C21_31  and  N4_33 
REMARK   11  A    between atoms: N4_33  and  C22_35 
REMARK   12  A    between atoms: C22_35  and  C23_36 
REMARK   13  A    between atoms: C23_36  and  C24_37 
REMARK   14  A    between atoms: C24_37  and  C25_38 
REMARK   15  A    between atoms: C27_40  and  C28_41 
ROOT
HETATM    1  C12 UNL     1      -0.426   0.466  -0.440  1.00  0.00     0.024 C 
HETATM    2  C13 UNL     1       0.009   1.674  -0.322  1.00  0.00     0.025 C 
HETATM    3  C16 UNL     1      -0.857   2.892  -0.224  1.00  0.00     0.067 C 
HETATM    4  C17 UNL     1      -2.322   2.698  -0.052  1.00  0.00    -0.029 C 
HETATM    5  C18 UNL     1      -3.022   3.347  -1.232  1.00  0.00     0.016 C 
HETATM    6  C19 UNL     1      -2.767   3.498   1.158  1.00  0.00     0.016 C 
HETATM    7  C20 UNL     1      -2.746   1.284   0.141  1.00  0.00     0.098 C 
HETATM    8  C27 UNL     1      -1.907   0.296  -0.587  1.00  0.00     0.061 C 
ENDROOT
BRANCH   1   9
HETATM    9  C11 UNL     1       0.295  -0.771  -0.474  1.00  0.00     0.149 C 
BRANCH   9  10
HETATM   10  N1  UNL     1       1.598  -1.224  -0.403  1.00  0.00    -0.334 N 
ATOM     11  H1  UNL     1       2.321  -0.511  -0.306  1.00  0.00     0.168 HD
BRANCH  10  12
HETATM   12  C10 UNL     1       2.055  -2.603  -0.451  1.00  0.00     0.067 A 
HETATM   13  C5  UNL     1       3.425  -2.831  -0.675  1.00  0.00     0.095 A 
HETATM   14  C6  UNL     1       3.905  -4.098  -0.691  1.00  0.00     0.039 A 
HETATM   15  C7  UNL     1       3.072  -5.168  -0.488  1.00  0.00     0.003 A 
HETATM   16  C8  UNL     1       1.733  -5.000  -0.264  1.00  0.00     0.002 A 
HETATM   17  C9  UNL     1       1.255  -3.674  -0.252  1.00  0.00     0.032 A 
BRANCH  13  18
HETATM   18  O1  UNL     1       4.239  -1.782  -0.874  1.00  0.00    -0.349 OA
BRANCH  18  19
HETATM   19  C4  UNL     1       5.557  -1.569  -1.100  1.00  0.00     0.179 C 
BRANCH  19  20
HETATM   20  C3  UNL     1       6.548  -1.984  -0.070  1.00  0.00     0.053 C 
BRANCH  20  21
HETATM   21  C2  UNL     1       7.923  -1.630  -0.583  1.00  0.00    -0.035 C 
HETATM   22  C1  UNL     1       8.735  -0.809   0.040  1.00  0.00     0.007 C 
ENDBRANCH  20  21
ENDBRANCH  19  20
ENDBRANCH  18  19
ENDBRANCH  13  18
ENDBRANCH  10  12
ENDBRANCH   9  10
BRANCH   9  23
HETATM   23  O2  UNL     1      -0.521  -1.826  -0.622  1.00  0.00    -0.346 OA
ATOM     24  H2  UNL     1      -1.417  -1.514  -0.671  1.00  0.00     0.219 HD
ENDBRANCH   9  23
ENDBRANCH   1   9
BRANCH   2  25
HETATM   25  N2  UNL     1       1.385   1.932  -0.210  1.00  0.00    -0.312 N 
HETATM   26  C14 UNL     1       1.935   3.240  -0.095  1.00  0.00     0.320 C 
HETATM   27  O3  UNL     1       1.341   4.330  -0.091  1.00  0.00    -0.247 OA
HETATM   28  N3  UNL     1       3.378   3.378   0.037  1.00  0.00    -0.347 N 
HETATM   29  C15 UNL     1       3.956   4.669   0.156  1.00  0.00     0.151 C 
ATOM     30  H3  UNL     1       3.972   2.549   0.044  1.00  0.00     0.163 HD
ATOM     31  H2  UNL     1       2.026   1.138  -0.211  1.00  0.00     0.170 HD
ENDBRANCH   2  25
BRANCH   8  32
HETATM   32  C28 UNL     1      -2.348   0.089  -1.961  1.00  0.00    -0.014 C 
HETATM   33  C29 UNL     1      -1.859   0.259  -3.134  1.00  0.00    -0.091 C 
HETATM   34  C30 UNL     1      -2.780  -0.140  -4.303  1.00  0.00     0.042 C 
HETATM   35  C31 UNL     1      -0.571   0.797  -3.594  1.00  0.00     0.042 C 
ENDBRANCH   8  32
BRANCH   7  36
HETATM   36  C21 UNL     1      -2.794   0.915   1.574  1.00  0.00     0.223 C 
HETATM   37  O4  UNL     1      -1.711   0.623   2.132  1.00  0.00    -0.273 OA
HETATM   38  N4  UNL     1      -3.981   0.872   2.359  1.00  0.00    -0.357 N 
ATOM     39  H4  UNL     1      -4.865   1.104   1.906  1.00  0.00     0.162 HD
BRANCH  38  40
HETATM   40  C22 UNL     1      -4.008   0.524   3.740  1.00  0.00     0.149 C 
BRANCH  40  41
HETATM   41  C23 UNL     1      -3.502  -0.784   4.141  1.00  0.00    -0.011 C 
BRANCH  41  42
HETATM   42  C24 UNL     1      -4.135  -2.044   3.786  1.00  0.00    -0.029 C 
BRANCH  42  43
HETATM   43  C25 UNL     1      -4.396  -2.546   2.444  1.00  0.00     0.022 C 
HETATM   44  C26 UNL     1      -5.409  -1.863   1.621  1.00  0.00     0.009 C 
ENDBRANCH  42  43
ENDBRANCH  41  42
ENDBRANCH  40  41
ENDBRANCH  38  40
ENDBRANCH   7  36
TORSDOF 15
