REMARK  10 active torsions:
REMARK  status: ('A' for Active; 'I' for Inactive)
REMARK    1  A    between atoms: C5_5  and  N1_6 
REMARK    2  A    between atoms: N1_6  and  C6_7 
REMARK       I    between atoms: N1_6  and  C9_12 
REMARK    3  A    between atoms: C6_7  and  C7_8 
REMARK    4  A    between atoms: C7_8  and  C8_9 
REMARK    5  A    between atoms: C9_12  and  C10_14 
REMARK    6  A    between atoms: C10_14  and  C11_15 
REMARK    7  A    between atoms: C11_15  and  O3_16 
REMARK    8  A    between atoms: O3_16  and  C12_17 
REMARK    9  A    between atoms: C17_22  and  N3_23 
REMARK       I    between atoms: N3_23  and  C18_25 
REMARK       I    between atoms: C18_25  and  N4_27 
REMARK   10  A    between atoms: N4_27  and  C19_29 
ROOT
HETATM    1  C12 UNL     1       1.556  -1.308  -4.185  1.00  0.00     0.070 A 
HETATM    2  C13 UNL     1       1.746  -2.539  -4.858  1.00  0.00     0.037 A 
HETATM    3  C14 UNL     1       0.959  -3.616  -4.570  1.00  0.00     0.012 A 
HETATM    4  C15 UNL     1      -0.050  -3.590  -3.636  1.00  0.00    -0.035 A 
HETATM    5  C16 UNL     1      -0.882  -4.799  -3.378  1.00  0.00     0.050 C 
HETATM    6  C17 UNL     1      -0.269  -2.386  -2.955  1.00  0.00     0.044 A 
HETATM    7  C29 UNL     1       0.533  -1.305  -3.251  1.00  0.00     0.066 A 
ENDROOT
BRANCH   1   8
HETATM    8  O3  UNL     1       2.361  -0.252  -4.498  1.00  0.00    -0.351 OA
BRANCH   8   9
HETATM    9  C11 UNL     1       2.430   1.015  -3.938  1.00  0.00     0.185 C 
BRANCH   9  10
HETATM   10  C10 UNL     1       2.938   0.902  -2.520  1.00  0.00     0.130 C 
BRANCH  10  11
HETATM   11  C9  UNL     1       3.082   2.213  -1.853  1.00  0.00     0.226 C 
HETATM   12  N1  UNL     1       3.564   2.247  -0.502  1.00  0.00    -0.318 N 
HETATM   13  O2  UNL     1       2.814   3.306  -2.396  1.00  0.00    -0.273 OA
BRANCH  12  14
HETATM   14  C5  UNL     1       3.774   1.025   0.221  1.00  0.00     0.037 A 
HETATM   15  C4  UNL     1       4.946   0.326   0.070  1.00  0.00     0.030 A 
HETATM   16  C3  UNL     1       5.105  -0.869   0.790  1.00  0.00     0.009 A 
HETATM   17  C2  UNL     1       4.130  -1.336   1.620  1.00  0.00    -0.062 A 
HETATM   18  C1  UNL     1       4.343  -2.604   2.358  1.00  0.00     0.048 C 
HETATM   19  C31 UNL     1       2.965  -0.599   1.741  1.00  0.00     0.009 A 
HETATM   20  C30 UNL     1       2.784   0.571   1.049  1.00  0.00     0.030 A 
ENDBRANCH  12  14
BRANCH  12  21
HETATM   21  C6  UNL     1       3.899   3.468   0.162  1.00  0.00     0.141 C 
BRANCH  21  22
HETATM   22  C7  UNL     1       2.767   4.086   0.905  1.00  0.00     0.119 C 
BRANCH  22  23
HETATM   23  C8  UNL     1       3.284   5.346   1.545  1.00  0.00     0.232 C 
HETATM   24  N2  UNL     1       2.387   6.083   2.349  1.00  0.00    -0.062 NA
HETATM   25  O1  UNL     1       4.456   5.694   1.349  1.00  0.00    -0.277 OA
ENDBRANCH  22  23
ENDBRANCH  21  22
ENDBRANCH  12  21
ENDBRANCH  10  11
ENDBRANCH   9  10
ENDBRANCH   8   9
ENDBRANCH   1   8
BRANCH   6  26
HETATM   26  N3  UNL     1      -1.278  -2.375  -1.967  1.00  0.00    -0.308 N 
HETATM   27  C18 UNL     1      -1.916  -1.277  -1.381  1.00  0.00     0.321 C 
HETATM   28  O4  UNL     1      -1.667  -0.111  -1.739  1.00  0.00    -0.247 OA
HETATM   29  N4  UNL     1      -2.895  -1.424  -0.341  1.00  0.00    -0.337 N 
ATOM     30  H4  UNL     1      -3.115  -2.360   0.001  1.00  0.00     0.164 HD
ATOM     31  H3  UNL     1      -1.582  -3.291  -1.636  1.00  0.00     0.170 HD
BRANCH  29  32
HETATM   32  C19 UNL     1      -3.586  -0.277   0.244  1.00  0.00     0.094 C 
HETATM   33  C20 UNL     1      -5.036  -0.518   0.428  1.00  0.00     0.030 C 
HETATM   34  C21 UNL     1      -5.557  -0.654   1.804  1.00  0.00    -0.016 C 
HETATM   35  C22 UNL     1      -6.362  -1.908   2.059  1.00  0.00     0.010 C 
HETATM   36  C23 UNL     1      -4.508  -0.521   2.896  1.00  0.00     0.009 C 
HETATM   37  C24 UNL     1      -3.756   0.745   2.542  1.00  0.00    -0.009 C 
HETATM   38  C25 UNL     1      -2.964   1.316   3.660  1.00  0.00     0.011 C 
HETATM   39  C26 UNL     1      -2.856   0.359   1.382  1.00  0.00    -0.024 C 
HETATM   40  C27 UNL     1      -1.782  -0.560   1.884  1.00  0.00     0.017 C 
HETATM   41  C28 UNL     1      -2.173   1.677   0.971  1.00  0.00     0.017 C 
ENDBRANCH  29  32
ENDBRANCH   6  26
TORSDOF 10
