REMARK  11 active torsions:
REMARK  status: ('A' for Active; 'I' for Inactive)
REMARK    1  A    between atoms: C2_2  and  C3_4 
REMARK    2  A    between atoms: C8_10  and  C9_11 
REMARK    3  A    between atoms: C9_11  and  O3_12 
REMARK    4  A    between atoms: C9_11  and  N1_14 
REMARK    5  A    between atoms: N1_14  and  C10_15 
REMARK    6  A    between atoms: N1_14  and  C19_26 
REMARK    7  A    between atoms: C10_15  and  S1_16 
REMARK    8  A    between atoms: S1_16  and  C11_17 
REMARK    9  A    between atoms: C20_31  and  C21_32 
REMARK   10  A    between atoms: C21_32  and  C22_33 
REMARK   11  A    between atoms: C22_33  and  C23_34 
ROOT
HETATM    1  N1  UNL     1      -0.401   0.639  -0.284  1.00  0.00    -0.296 N 
ENDROOT
BRANCH   1   2
HETATM    2  C9  UNL     1      -0.752   1.934   0.092  1.00  0.00     0.159 C 
BRANCH   2   3
HETATM    3  C8  UNL     1      -1.683   2.887  -0.432  1.00  0.00     0.061 A 
HETATM    4  C3  UNL     1      -2.000   4.084   0.237  1.00  0.00     0.056 A 
HETATM    5  C4  UNL     1      -2.825   4.779  -0.603  1.00  0.00     0.064 A 
HETATM    6  C5  UNL     1      -3.439   6.127  -0.340  1.00  0.00     0.077 C 
HETATM    7  O2  UNL     1      -3.000   4.088  -1.682  1.00  0.00    -0.318 OA
HETATM    8  C6  UNL     1      -2.334   2.935  -1.639  1.00  0.00     0.065 A 
HETATM    9  C7  UNL     1      -2.355   1.944  -2.774  1.00  0.00     0.077 C 
BRANCH   4  10
HETATM   10  C2  UNL     1      -1.581   4.550   1.548  1.00  0.00     0.159 C 
HETATM   11  C1  UNL     1      -0.336   5.369   1.672  1.00  0.00     0.097 C 
HETATM   12  O1  UNL     1      -2.220   4.294   2.576  1.00  0.00    -0.293 OA
ENDBRANCH   4  10
ENDBRANCH   2   3
BRANCH   2  13
HETATM   13  O3  UNL     1      -0.077   2.339   1.139  1.00  0.00    -0.345 OA
ATOM     14  H3  UNL     1       0.541   1.707   1.487  1.00  0.00     0.219 HD
ENDBRANCH   2  13
ENDBRANCH   1   2
BRANCH   1  15
HETATM   15  C10 UNL     1      -1.358  -0.412  -0.544  1.00  0.00     0.212 C 
BRANCH  15  16
HETATM   16  S1  UNL     1      -1.636  -1.381   1.004  1.00  0.00    -0.110 SA
BRANCH  16  17
HETATM   17  C11 UNL     1      -2.818  -2.669   0.660  1.00  0.00     0.002 A 
HETATM   18  C12 UNL     1      -2.430  -3.915   0.225  1.00  0.00     0.021 A 
HETATM   19  C13 UNL     1      -3.329  -4.924  -0.047  1.00  0.00     0.038 A 
HETATM   20  C14 UNL     1      -4.675  -4.699   0.116  1.00  0.00     0.075 A 
HETATM   21  C15 UNL     1      -5.094  -3.465   0.550  1.00  0.00    -0.021 A 
HETATM   22  O4  UNL     1      -5.805  -5.505  -0.074  1.00  0.00    -0.350 OA
HETATM   23  C16 UNL     1      -4.167  -2.455   0.820  1.00  0.00     0.028 A 
HETATM   24  C17 UNL     1      -6.572  -3.494   0.638  1.00  0.00     0.068 C 
HETATM   25  C18 UNL     1      -6.873  -4.968   0.688  1.00  0.00     0.180 C 
ENDBRANCH  16  17
ENDBRANCH  15  16
ENDBRANCH   1  15
BRANCH   1  26
HETATM   26  C19 UNL     1       1.010   0.291  -0.207  1.00  0.00     0.170 A 
HETATM   27  N2  UNL     1       1.751   0.319   0.887  1.00  0.00    -0.279 N 
HETATM   28  N3  UNL     1       2.973  -0.007   0.825  1.00  0.00    -0.296 N 
ATOM     29  H2  UNL     1       1.341   0.602   1.777  1.00  0.00     0.189 HD
HETATM   30  C20 UNL     1       3.500  -0.376  -0.337  1.00  0.00     0.070 A 
ATOM     31  H3  UNL     1       3.551   0.014   1.665  1.00  0.00     0.187 HD
HETATM   32  S3  UNL     1       2.133  -0.231  -1.369  1.00  0.00    -0.038 SA
BRANCH  30  33
HETATM   33  C21 UNL     1       4.903  -0.800  -0.652  1.00  0.00     0.071 C 
BRANCH  33  34
HETATM   34  C22 UNL     1       5.691  -0.750   0.610  1.00  0.00     0.045 C 
BRANCH  34  35
HETATM   35  C23 UNL     1       7.106  -1.176   0.301  1.00  0.00    -0.050 A 
HETATM   36  C24 UNL     1       7.372  -2.520   0.410  1.00  0.00     0.057 A 
HETATM   37  C25 UNL     1       8.589  -3.112   0.175  1.00  0.00     0.161 A 
HETATM   38  F1  UNL     1       8.792  -4.453   0.299  1.00  0.00    -0.198 F 
HETATM   39  S2  UNL     1       9.846  -2.045  -0.290  1.00  0.00    -0.018 SA
HETATM   40  C26 UNL     1       9.327  -0.416  -0.371  1.00  0.00     0.216 A 
HETATM   41  O5  UNL     1      10.123   0.506  -0.698  1.00  0.00    -0.280 OA
HETATM   42  C27 UNL     1       8.017  -0.214  -0.060  1.00  0.00     0.070 A 
ENDBRANCH  34  35
ENDBRANCH  33  34
ENDBRANCH  30  33
ENDBRANCH   1  26
TORSDOF 11
