REMARK  7 active torsions:
REMARK  status: ('A' for Active; 'I' for Inactive)
REMARK    1  A    between atoms: C2_2  and  C3_3 
REMARK    2  A    between atoms: C3_3  and  C4_4 
REMARK    3  A    between atoms: C4_4  and  O1_6 
REMARK    4  A    between atoms: O1_6  and  C6_7 
REMARK    5  A    between atoms: C6_7  and  C7_8 
REMARK    6  A    between atoms: C11_12  and  O2_13 
REMARK    7  A    between atoms: C12_15  and  C13_16 
ROOT
HETATM    1  C7  UNL     1      -0.560  -0.315   1.127  1.00  0.00    -0.033 A 
HETATM    2  C8  UNL     1      -0.668  -1.601   0.643  1.00  0.00     0.019 A 
HETATM    3  C9  UNL     1      -1.618  -1.967  -0.289  1.00  0.00    -0.028 A 
HETATM    4  C10 UNL     1      -1.760  -3.343  -0.826  1.00  0.00     0.051 C 
HETATM    5  C11 UNL     1      -2.486  -0.988  -0.740  1.00  0.00     0.078 A 
HETATM    6  C12 UNL     1      -2.433   0.308  -0.299  1.00  0.00    -0.021 A 
HETATM    7  C16 UNL     1      -1.466   0.633   0.633  1.00  0.00     0.019 A 
ENDROOT
BRANCH   1   8
HETATM    8  C6  UNL     1       0.456   0.024   2.128  1.00  0.00     0.206 C 
BRANCH   8   9
HETATM    9  O1  UNL     1       1.547   0.718   1.712  1.00  0.00    -0.382 OA
BRANCH   9  10
HETATM   10  C4  UNL     1       2.337   0.092   0.735  1.00  0.00     0.117 C 
HETATM   11  C5  UNL     1       2.320   0.981  -0.461  1.00  0.00     0.039 C 
BRANCH  10  12
HETATM   12  C3  UNL     1       3.686  -0.110   1.322  1.00  0.00     0.031 C 
BRANCH  12  13
HETATM   13  C2  UNL     1       4.753  -0.744   0.531  1.00  0.00    -0.002 C 
HETATM   14  C1  UNL     1       5.167  -0.001  -0.672  1.00  0.00     0.005 C 
ENDBRANCH  12  13
ENDBRANCH  10  12
ENDBRANCH   9  10
ENDBRANCH   8   9
ENDBRANCH   1   8
BRANCH   6  15
HETATM   15  C13 UNL     1      -3.346   1.347  -0.746  1.00  0.00     0.013 C 
HETATM   16  C14 UNL     1      -2.891   2.739  -0.296  1.00  0.00     0.015 C 
HETATM   17  C15 UNL     1      -4.768   1.176  -0.295  1.00  0.00     0.015 C 
ENDBRANCH   6  15
BRANCH   5  18
HETATM   18  O2  UNL     1      -3.433  -1.325  -1.663  1.00  0.00    -0.360 OA
ATOM     19  H2  UNL     1      -4.029  -0.653  -1.973  1.00  0.00     0.217 HD
ENDBRANCH   5  18
TORSDOF 7
