REMARK  6 active torsions:
REMARK  status: ('A' for Active; 'I' for Inactive)
REMARK    1  A    between atoms: C2_2  and  C3_3 
REMARK    2  A    between atoms: C4_4  and  C5_5 
REMARK    3  A    between atoms: C6_6  and  C7_7 
REMARK    4  A    between atoms: C6_6  and  C8_9 
REMARK    5  A    between atoms: C8_9  and  C9_11 
REMARK    6  A    between atoms: C12_14  and  C13_15 
ROOT
HETATM    1  C8  UNL     1       0.014   0.601  -0.303  1.00  0.00     0.195 C 
HETATM    2  O2  UNL     1      -0.346   1.154  -1.411  1.00  0.00    -0.287 OA
ENDROOT
BRANCH   1   3
HETATM    3  C6  UNL     1      -1.152   0.196   0.564  1.00  0.00     0.053 C 
HETATM    4  C5  UNL     1      -2.327   0.289  -0.012  1.00  0.00     0.026 C 
BRANCH   4   5
HETATM    5  C4  UNL     1      -3.681   0.119   0.380  1.00  0.00    -0.054 A 
HETATM    6  C3  UNL     1      -4.719   0.283  -0.489  1.00  0.00    -0.066 A 
HETATM    7  C23 UNL     1      -6.006   0.095   0.187  1.00  0.00    -0.023 A 
HETATM    8  C22 UNL     1      -5.750  -0.169   1.623  1.00  0.00     0.018 A 
HETATM    9  C24 UNL     1      -6.831   1.393   0.114  1.00  0.00     0.019 C 
HETATM   10  C25 UNL     1      -6.833  -1.060  -0.345  1.00  0.00     0.019 C 
HETATM   11  C21 UNL     1      -4.236  -0.232   1.687  1.00  0.00     0.040 A 
BRANCH   6  12
HETATM   12  C2  UNL     1      -4.611   0.643  -1.908  1.00  0.00     0.031 C 
HETATM   13  C1  UNL     1      -5.120  -0.487  -2.782  1.00  0.00     0.010 C 
ENDBRANCH   6  12
ENDBRANCH   4   5
BRANCH   3  14
HETATM   14  C7  UNL     1      -0.904  -0.152   1.921  1.00  0.00     0.274 C 
HETATM   15  O1  UNL     1      -1.571  -0.513   2.880  1.00  0.00    -0.301 OA
ENDBRANCH   3  14
ENDBRANCH   1   3
BRANCH   1  16
HETATM   16  C9  UNL     1       1.402   0.455  -0.063  1.00  0.00     0.015 A 
HETATM   17  C10 UNL     1       2.296   1.340  -0.714  1.00  0.00     0.016 A 
HETATM   18  C11 UNL     1       3.634   1.172  -0.611  1.00  0.00     0.009 A 
HETATM   19  C12 UNL     1       4.190   0.151   0.117  1.00  0.00    -0.050 A 
HETATM   20  C19 UNL     1       3.329  -0.706   0.746  1.00  0.00     0.009 A 
HETATM   21  C20 UNL     1       1.966  -0.567   0.663  1.00  0.00     0.016 A 
BRANCH  19  22
HETATM   22  C13 UNL     1       5.651   0.027   0.186  1.00  0.00    -0.017 C 
HETATM   23  C14 UNL     1       6.272   1.207   0.877  1.00  0.00     0.020 C 
HETATM   24  C15 UNL     1       6.313  -0.243  -1.146  1.00  0.00     0.014 C 
HETATM   25  C16 UNL     1       7.731  -0.595  -0.686  1.00  0.00     0.001 C 
HETATM   26  C17 UNL     1       7.537  -1.315   0.632  1.00  0.00     0.001 C 
HETATM   27  C18 UNL     1       6.067  -1.210   0.969  1.00  0.00     0.014 C 
ENDBRANCH  19  22
ENDBRANCH   1  16
TORSDOF 6
