REMARK  4 active torsions:
REMARK  status: ('A' for Active; 'I' for Inactive)
REMARK    1  A    between atoms: C3_3  and  O1_4 
REMARK    2  A    between atoms: C3_3  and  C4_6 
REMARK    3  A    between atoms: C5_11  and  C6_12 
REMARK    4  A    between atoms: C6_12  and  N3_13 
ROOT
HETATM    1  C4  UNL     1       2.354   0.714  -0.015  1.00  0.00     0.157 A 
HETATM    2  N1  UNL     1       1.634   1.844   0.142  1.00  0.00    -0.282 N 
ATOM      3  H1  UNL     1       1.999   2.780   0.315  1.00  0.00     0.188 HD
HETATM    4  N2  UNL     1       0.375   1.504   0.029  1.00  0.00    -0.285 N 
ATOM      5  H2  UNL     1      -0.405   2.157   0.104  1.00  0.00     0.188 HD
HETATM    6  C5  UNL     1       0.241   0.187  -0.198  1.00  0.00     0.132 A 
HETATM    7  N4  UNL     1       1.502  -0.288  -0.221  1.00  0.00    -0.326 N 
ATOM      8  H4  UNL     1       1.763  -1.262  -0.372  1.00  0.00     0.169 HD
ENDROOT
BRANCH   6   9
HETATM    9  C6  UNL     1      -0.931  -0.670  -0.394  1.00  0.00     0.389 C 
BRANCH   9  10
HETATM   10  N3  UNL     1      -2.191  -0.005  -0.339  1.00  0.00     0.020 N 
HETATM   11  O2  UNL     1      -2.275   1.100  -1.101  1.00  0.00    -0.064 OA
HETATM   12  C7  UNL     1      -3.183  -0.943  -0.893  1.00  0.00     0.312 C 
HETATM   13  C8  UNL     1      -4.427  -0.781  -0.089  1.00  0.00     0.039 C 
HETATM   14  C9  UNL     1      -4.143   0.415   0.795  1.00  0.00     0.039 C 
HETATM   15  C10 UNL     1      -2.636   0.255   1.016  1.00  0.00     0.312 C 
ENDBRANCH   9  10
ENDBRANCH   6   9
BRANCH   1  16
HETATM   16  C3  UNL     1       3.807   0.570   0.025  1.00  0.00     0.133 C 
HETATM   17  C2  UNL     1       4.382  -0.606  -0.146  1.00  0.00     0.011 C 
HETATM   18  C1  UNL     1       5.858  -0.768  -0.108  1.00  0.00     0.039 C 
BRANCH  16  19
HETATM   19  O1  UNL     1       4.622   1.666   0.245  1.00  0.00    -0.238 OA
HETATM   20 CL1  UNL     1       4.550   3.126  -0.624  1.00  0.00     0.068 Cl
ENDBRANCH  16  19
ENDBRANCH   1  16
TORSDOF 4
