REMARK  7 active torsions:
REMARK  status: ('A' for Active; 'I' for Inactive)
REMARK    1  A    between atoms: C2_2  and  C3_3 
REMARK    2  A    between atoms: C5_5  and  C6_6 
REMARK    3  A    between atoms: C11_11  and  O1_12 
REMARK    4  A    between atoms: O1_12  and  C12_13 
REMARK    5  A    between atoms: C12_13  and  C15_16 
REMARK    6  A    between atoms: C18_19  and  C19_20 
REMARK    7  A    between atoms: C19_20  and  O2_22 
ROOT
HETATM    1  C3  UNL     1      -4.002  -1.413   0.703  1.00  0.00    -0.052 A 
HETATM    2  C4  UNL     1      -3.558  -0.585  -0.306  1.00  0.00     0.022 A 
HETATM    3  C5  UNL     1      -2.274  -0.023  -0.303  1.00  0.00     0.008 A 
HETATM    4  C11 UNL     1      -1.432  -0.317   0.736  1.00  0.00     0.082 A 
HETATM    5  C23 UNL     1      -1.859  -1.153   1.778  1.00  0.00     0.045 A 
HETATM    6  C24 UNL     1      -3.130  -1.674   1.726  1.00  0.00    -0.053 A 
HETATM    7  C25 UNL     1      -3.541  -2.568   2.842  1.00  0.00     0.049 C 
ENDROOT
BRANCH   4   8
HETATM    8  O1  UNL     1      -0.155   0.174   0.772  1.00  0.00    -0.335 OA
BRANCH   8   9
HETATM    9  C12 UNL     1       0.978  -0.600   0.436  1.00  0.00     0.087 C 
HETATM   10  C13 UNL     1       1.170  -1.725   1.493  1.00  0.00     0.051 C 
HETATM   11  C14 UNL     1       0.673  -1.450  -0.818  1.00  0.00     0.051 C 
BRANCH   9  12
HETATM   12  C15 UNL     1       2.222   0.165   0.259  1.00  0.00    -0.024 A 
HETATM   13  C16 UNL     1       2.905   0.183  -0.945  1.00  0.00     0.011 A 
HETATM   14  C17 UNL     1       4.091   0.917  -1.120  1.00  0.00     0.010 A 
HETATM   15  C18 UNL     1       4.630   1.652  -0.100  1.00  0.00    -0.030 A 
HETATM   16  C21 UNL     1       3.948   1.640   1.123  1.00  0.00     0.010 A 
HETATM   17  C22 UNL     1       2.787   0.915   1.270  1.00  0.00     0.011 A 
BRANCH  15  18
HETATM   18  C19 UNL     1       5.900   2.428  -0.240  1.00  0.00     0.147 C 
HETATM   19  C20 UNL     1       6.805   1.766  -1.283  1.00  0.00     0.044 C 
BRANCH  18  20
HETATM   20  O2  UNL     1       6.627   2.383   0.952  1.00  0.00    -0.391 OA
ATOM     21  H2  UNL     1       7.434   2.876   0.863  1.00  0.00     0.210 HD
ENDBRANCH  18  20
ENDBRANCH  15  18
ENDBRANCH   9  12
ENDBRANCH   8   9
ENDBRANCH   4   8
BRANCH   3  22
HETATM   22  C6  UNL     1      -1.924   0.910  -1.367  1.00  0.00    -0.027 A 
HETATM   23  C7  UNL     1      -0.967   1.767  -1.539  1.00  0.00    -0.011 A 
HETATM   24  C8  UNL     1      -1.060   2.496  -2.840  1.00  0.00     0.055 A 
HETATM   25  C9  UNL     1      -2.245   1.902  -3.431  1.00  0.00    -0.022 A 
HETATM   26  C10 UNL     1      -2.736   1.016  -2.608  1.00  0.00     0.008 A 
ENDBRANCH   3  22
BRANCH   1  27
HETATM   27  C2  UNL     1      -5.394  -1.971   0.627  1.00  0.00     0.034 C 
HETATM   28  C1  UNL     1      -6.357  -1.250   1.527  1.00  0.00     0.010 C 
ENDBRANCH   1  27
TORSDOF 7
