REMARK  9 active torsions:
REMARK  status: ('A' for Active; 'I' for Inactive)
REMARK    1  A    between atoms: C4_4  and  C5_5 
REMARK    2  A    between atoms: C5_5  and  C6_6 
REMARK    3  A    between atoms: C6_6  and  C7_7 
REMARK    4  A    between atoms: C7_7  and  C8_8 
REMARK    5  A    between atoms: C17_17  and  C18_18 
REMARK    6  A    between atoms: C18_18  and  O1_19 
REMARK    7  A    between atoms: C18_18  and  C19_21 
REMARK    8  A    between atoms: C23_25  and  C24_26 
REMARK    9  A    between atoms: C24_26  and  O2_27 
ROOT
HETATM    1  C1  UNL     1      -2.428  -1.665  -1.153  1.00  0.00     0.049 C 
HETATM    2  C2  UNL     1      -1.464  -0.499  -1.211  1.00  0.00    -0.049 C 
HETATM    3  C3  UNL     1      -0.159  -0.834  -1.206  1.00  0.00     0.015 C 
HETATM    4  C4  UNL     1       0.833   0.202  -1.245  1.00  0.00    -0.054 C 
HETATM    5  C15 UNL     1       0.509   1.451  -1.937  1.00  0.00     0.066 C 
HETATM    6  C16 UNL     1      -0.916   1.750  -1.875  1.00  0.00    -0.008 C 
HETATM    7  C17 UNL     1      -1.874   0.850  -1.539  1.00  0.00     0.000 C 
ENDROOT
BRANCH   7   8
HETATM    8  C18 UNL     1      -3.220   1.327  -1.659  1.00  0.00     0.086 C 
BRANCH   8   9
HETATM    9  O1  UNL     1      -3.361   2.465  -2.326  1.00  0.00    -0.359 OA
ATOM     10  H1  UNL     1      -4.253   2.781  -2.406  1.00  0.00     0.217 HD
ENDBRANCH   8   9
BRANCH   8  11
HETATM   11  C19 UNL     1      -4.488   0.831  -1.193  1.00  0.00    -0.002 A 
HETATM   12  C20 UNL     1      -5.666   1.120  -1.915  1.00  0.00     0.014 A 
HETATM   13  C21 UNL     1      -6.918   0.831  -1.452  1.00  0.00     0.002 A 
HETATM   14  C22 UNL     1      -7.101   0.229  -0.229  1.00  0.00     0.009 A 
HETATM   15  C23 UNL     1      -5.975  -0.062   0.494  1.00  0.00    -0.034 A 
HETATM   16  C25 UNL     1      -4.707   0.232   0.025  1.00  0.00     0.023 A 
BRANCH  15  17
HETATM   17  C24 UNL     1      -6.127  -0.712   1.819  1.00  0.00     0.202 C 
BRANCH  17  18
HETATM   18  O2  UNL     1      -6.241   0.220   2.836  1.00  0.00    -0.396 OA
ATOM     19  H2  UNL     1      -6.338  -0.196   3.684  1.00  0.00     0.209 HD
ENDBRANCH  17  18
ENDBRANCH  15  17
ENDBRANCH   8  11
ENDBRANCH   7   8
BRANCH   4  20
HETATM   20  C5  UNL     1       2.031   0.033  -0.633  1.00  0.00     0.007 C 
BRANCH  20  21
HETATM   21  C6  UNL     1       2.325  -1.176   0.063  1.00  0.00     0.001 C 
BRANCH  21  22
HETATM   22  C7  UNL     1       3.358  -1.558   0.681  1.00  0.00     0.011 C 
BRANCH  22  23
HETATM   23  C8  UNL     1       4.643  -0.983   0.945  1.00  0.00    -0.036 A 
HETATM   24  C9  UNL     1       5.153   0.141   0.349  1.00  0.00     0.012 A 
HETATM   25  C10 UNL     1       6.380   0.675   0.693  1.00  0.00     0.007 A 
HETATM   26  C11 UNL     1       7.167   0.106   1.657  1.00  0.00    -0.062 A 
HETATM   27  C12 UNL     1       8.487   0.686   2.024  1.00  0.00     0.048 C 
HETATM   28  C13 UNL     1       6.673  -1.015   2.259  1.00  0.00     0.007 A 
HETATM   29  C14 UNL     1       5.469  -1.550   1.931  1.00  0.00     0.012 A 
ENDBRANCH  22  23
ENDBRANCH  21  22
ENDBRANCH  20  21
ENDBRANCH   4  20
TORSDOF 9
