REMARK  8 active torsions:
REMARK  status: ('A' for Active; 'I' for Inactive)
REMARK    1  A    between atoms: O1_1  and  C1_3 
REMARK    2  A    between atoms: C1_3  and  C2_4 
REMARK    3  A    between atoms: C1_3  and  N1_10 
REMARK    4  A    between atoms: C2_4  and  C3_5 
REMARK    5  A    between atoms: C3_5  and  C4_6 
REMARK    6  A    between atoms: C4_6  and  C5_7 
REMARK    7  A    between atoms: C5_7  and  C6_8 
REMARK    8  A    between atoms: N4_18  and  O2_19 
ROOT
HETATM    1  N1  UNL     1      -1.221   0.123   0.335  1.00  0.00    -0.213 N 
HETATM    2  N2  UNL     1      -0.848  -1.050  -0.067  1.00  0.00    -0.299 N 
ATOM      3  H2  UNL     1       0.130  -1.312  -0.195  1.00  0.00     0.186 HD
HETATM    4  C7  UNL     1      -1.853  -1.875  -0.296  1.00  0.00     0.141 A 
HETATM    5  C8  UNL     1      -2.997  -1.158  -0.012  1.00  0.00     0.099 A 
HETATM    6  N3  UNL     1      -4.347  -1.191   0.033  1.00  0.00    -0.346 N 
ATOM      7  H3  UNL     1      -4.923  -1.997  -0.209  1.00  0.00     0.167 HD
HETATM    8  C9  UNL     1      -4.811  -0.010   0.441  1.00  0.00     0.216 A 
HETATM    9  N4  UNL     1      -3.724   0.771   0.653  1.00  0.00    -0.199 N 
HETATM   10  C10 UNL     1      -2.589   0.094   0.383  1.00  0.00     0.185 A 
ENDROOT
BRANCH   1  11
HETATM   11  C1  UNL     1      -0.439   1.262   0.677  1.00  0.00     0.163 C 
BRANCH  11  12
HETATM   12  O1  UNL     1      -1.186   2.298   1.049  1.00  0.00    -0.345 OA
ATOM     13  H1  UNL     1      -2.119   2.119   1.029  1.00  0.00     0.219 HD
ENDBRANCH  11  12
BRANCH  11  14
HETATM   14  C2  UNL     1       0.935   1.526   0.707  1.00  0.00     0.058 C 
BRANCH  14  15
HETATM   15  C3  UNL     1       2.045   0.964   0.475  1.00  0.00     0.004 C 
BRANCH  15  16
HETATM   16  C4  UNL     1       2.527  -0.305   0.038  1.00  0.00     0.001 C 
BRANCH  16  17
HETATM   17  C5  UNL     1       3.762  -0.675  -0.136  1.00  0.00     0.012 C 
BRANCH  17  18
HETATM   18  C6  UNL     1       5.073  -0.106  -0.003  1.00  0.00     0.084 C 
HETATM   19 CL1  UNL     1       5.289   1.540   0.529  1.00  0.00    -0.097 Cl
ENDBRANCH  17  18
ENDBRANCH  16  17
ENDBRANCH  15  16
ENDBRANCH  14  15
ENDBRANCH  11  14
ENDBRANCH   1  11
BRANCH   9  20
HETATM   20  O2  UNL     1      -3.836   2.057   1.080  1.00  0.00    -0.280 OA
ATOM     21  H2  UNL     1      -3.074   2.604   1.229  1.00  0.00     0.245 HD
ENDBRANCH   9  20
TORSDOF 8
