REMARK  5 active torsions:
REMARK  status: ('A' for Active; 'I' for Inactive)
REMARK    1  A    between atoms: C2_2  and  O1_4 
REMARK    2  A    between atoms: O1_4  and  C4_5 
REMARK    3  A    between atoms: C4_5  and  C5_6 
REMARK    4  A    between atoms: C4_5  and  S1_14 
REMARK    5  A    between atoms: C5_6  and  C6_7 
ROOT
HETATM    1  C5  UNL     1       0.441  -0.681  -0.797  1.00  0.00     0.050 C 
ENDROOT
BRANCH   1   2
HETATM    2  C4  UNL     1       1.702  -0.815  -0.004  1.00  0.00     0.217 C 
BRANCH   2   3
HETATM    3  O1  UNL     1       2.717  -0.359  -0.866  1.00  0.00    -0.369 OA
BRANCH   3   4
HETATM    4  C2  UNL     1       3.442   0.680  -0.300  1.00  0.00     0.115 C 
HETATM    5  C1  UNL     1       4.871   0.188  -0.204  1.00  0.00     0.039 C 
HETATM    6  C3  UNL     1       3.456   1.916  -1.155  1.00  0.00     0.039 C 
ENDBRANCH   3   4
ENDBRANCH   2   3
BRANCH   2   7
HETATM    7  S1  UNL     1       1.964  -2.554   0.422  1.00  0.00     0.073 SA
HETATM    8  F1  UNL     1       0.802  -3.010   1.583  1.00  0.00    -0.162 F 
ENDBRANCH   2   7
ENDBRANCH   1   2
BRANCH   1   9
HETATM    9  C6  UNL     1      -0.827  -1.108  -0.107  1.00  0.00    -0.011 C 
HETATM   10  C7  UNL     1      -1.103  -0.347   1.144  1.00  0.00     0.005 C 
HETATM   11  C8  UNL     1      -1.964   0.864   0.966  1.00  0.00     0.004 C 
HETATM   12  C9  UNL     1      -3.252   0.589   0.243  1.00  0.00    -0.019 C 
HETATM   13  C10 UNL     1      -4.383   0.624   1.245  1.00  0.00     0.010 C 
HETATM   14  C11 UNL     1      -3.221  -0.778  -0.440  1.00  0.00     0.004 C 
HETATM   15  C12 UNL     1      -1.917  -0.848  -1.169  1.00  0.00     0.005 C 
ENDBRANCH   1   9
TORSDOF 5
