REMARK  6 active torsions:
REMARK  status: ('A' for Active; 'I' for Inactive)
REMARK    1  A    between atoms: C2_2  and  C3_3 
REMARK    2  A    between atoms: C3_3  and  C4_4 
REMARK    3  A    between atoms: C10_10  and  O1_11 
REMARK    4  A    between atoms: C10_10  and  C11_13 
REMARK    5  A    between atoms: C11_13  and  C12_14 
REMARK    6  A    between atoms: C12_14  and  C13_15 
ROOT
HETATM    1  C3  UNL     1      -1.973   0.334   0.328  1.00  0.00    -0.041 C 
HETATM    2  C6  UNL     1      -2.590  -0.929  -0.231  1.00  0.00     0.009 C 
HETATM    3  C7  UNL     1      -1.731  -2.126  -0.361  1.00  0.00     0.001 C 
HETATM    4  C8  UNL     1      -0.504  -1.998  -1.196  1.00  0.00     0.003 C 
HETATM    5  C9  UNL     1       0.760  -1.917  -0.391  1.00  0.00     0.038 C 
HETATM    6  C10 UNL     1       1.350  -0.500  -0.431  1.00  0.00     0.058 C 
HETATM    7  C15 UNL     1       0.582   0.466   0.392  1.00  0.00     0.038 C 
HETATM    8  C16 UNL     1      -0.662   0.063   1.039  1.00  0.00     0.012 C 
ENDROOT
BRANCH   6   9
HETATM    9  O1  UNL     1       1.397  -0.170  -1.788  1.00  0.00    -0.390 OA
ATOM     10  H1  UNL     1       1.762   0.707  -1.813  1.00  0.00     0.210 HD
ENDBRANCH   6   9
BRANCH   6  11
HETATM   11  C11 UNL     1       2.787  -0.683   0.005  1.00  0.00     0.045 C 
BRANCH  11  12
HETATM   12  C12 UNL     1       3.625   0.540   0.050  1.00  0.00     0.081 C 
BRANCH  12  13
HETATM   13  C13 UNL     1       4.993   0.126   0.510  1.00  0.00     0.123 C 
HETATM   14  C14 UNL     1       6.211   0.394  -0.286  1.00  0.00     0.091 C 
HETATM   15  O2  UNL     1       5.055  -0.457   1.597  1.00  0.00    -0.298 OA
ENDBRANCH  12  13
ENDBRANCH  11  12
ENDBRANCH   6  11
BRANCH   1  16
HETATM   16  C2  UNL     1      -1.889   1.429  -0.660  1.00  0.00     0.005 C 
HETATM   17  C1  UNL     1      -3.088   1.868  -1.409  1.00  0.00     0.006 C 
ENDBRANCH   1  16
BRANCH   1  18
HETATM   18  C4  UNL     1      -2.926   0.746   1.425  1.00  0.00     0.005 C 
HETATM   19  C5  UNL     1      -4.328   1.013   1.087  1.00  0.00     0.006 C 
ENDBRANCH   1  18
TORSDOF 6
