REMARK  9 active torsions:
REMARK  status: ('A' for Active; 'I' for Inactive)
REMARK    1  A    between atoms: C2_2  and  C3_3 
REMARK    2  A    between atoms: C3_3  and  C4_4 
REMARK    3  A    between atoms: C4_4  and  C5_5 
REMARK    4  A    between atoms: C5_5  and  C6_6 
REMARK    5  A    between atoms: C6_6  and  C7_7 
REMARK    6  A    between atoms: C7_7  and  C8_8 
REMARK    7  A    between atoms: C10_10  and  C11_11 
REMARK    8  A    between atoms: C11_11  and  O1_12 
REMARK    9  A    between atoms: C15_17  and  O2_18 
ROOT
HETATM    1  C8  UNL     1      -0.815  -0.764   0.074  1.00  0.00    -0.024 A 
HETATM    2  C9  UNL     1      -1.968  -1.287   0.689  1.00  0.00     0.019 A 
HETATM    3  C10 UNL     1      -3.234  -0.832   0.425  1.00  0.00    -0.028 A 
HETATM    4  C12 UNL     1      -3.436   0.177  -0.474  1.00  0.00    -0.051 A 
HETATM    5  C13 UNL     1      -4.788   0.695  -0.786  1.00  0.00     0.049 C 
HETATM    6  C14 UNL     1      -2.341   0.709  -1.092  1.00  0.00     0.044 A 
HETATM    7  C15 UNL     1      -1.041   0.240  -0.820  1.00  0.00     0.075 A 
ENDROOT
BRANCH   1   8
HETATM    8  C7  UNL     1       0.503  -1.306   0.467  1.00  0.00     0.041 C 
BRANCH   8   9
HETATM    9  C6  UNL     1       1.257  -0.618   1.502  1.00  0.00     0.005 C 
BRANCH   9  10
HETATM   10  C5  UNL     1       1.819   0.716   1.402  1.00  0.00     0.001 C 
BRANCH  10  11
HETATM   11  C4  UNL     1       2.902   1.014   0.445  1.00  0.00     0.004 C 
BRANCH  11  12
HETATM   12  C3  UNL     1       4.156   0.162   0.719  1.00  0.00     0.026 C 
BRANCH  12  13
HETATM   13  C2  UNL     1       5.147   0.571  -0.312  1.00  0.00    -0.037 C 
HETATM   14  C1  UNL     1       5.624  -0.318  -1.165  1.00  0.00     0.007 C 
ENDBRANCH  12  13
ENDBRANCH  11  12
ENDBRANCH  10  11
ENDBRANCH   9  10
ENDBRANCH   8   9
ENDBRANCH   1   8
BRANCH   7  15
HETATM   15  O2  UNL     1       0.019   0.823  -1.488  1.00  0.00    -0.355 OA
HETATM   16  C16 UNL     1      -0.212   1.860  -2.411  1.00  0.00     0.210 C 
ENDBRANCH   7  15
BRANCH   3  17
HETATM   17  C11 UNL     1      -4.370  -1.467   1.140  1.00  0.00     0.203 C 
BRANCH  17  18
HETATM   18  O1  UNL     1      -3.954  -2.465   2.004  1.00  0.00    -0.396 OA
ATOM     19  H1  UNL     1      -4.681  -2.871   2.461  1.00  0.00     0.209 HD
ENDBRANCH  17  18
ENDBRANCH   3  17
TORSDOF 9
