REMARK  7 active torsions:
REMARK  status: ('A' for Active; 'I' for Inactive)
REMARK    1  A    between atoms: C2_2  and  C3_3 
REMARK    2  A    between atoms: C3_3  and  C4_4 
REMARK    3  A    between atoms: C4_4  and  O1_5 
REMARK    4  A    between atoms: O1_5  and  C5_6 
REMARK    5  A    between atoms: C8_9  and  C9_10 
REMARK    6  A    between atoms: C9_10  and  C11_12 
REMARK    7  A    between atoms: C11_12  and  O2_14 
ROOT
HETATM    1  C5  UNL     1       1.026   0.503   0.063  1.00  0.00     0.121 C 
HETATM    2  C6  UNL     1      -0.021   0.869  -0.967  1.00  0.00     0.032 C 
HETATM    3  C7  UNL     1      -1.105   1.604  -0.169  1.00  0.00     0.007 C 
HETATM    4  C8  UNL     1      -1.705   0.643   0.827  1.00  0.00    -0.008 C 
HETATM    5  C13 UNL     1      -0.990  -0.645   0.953  1.00  0.00     0.007 C 
HETATM    6  C14 UNL     1       0.491  -0.622   0.873  1.00  0.00     0.032 C 
ENDROOT
BRANCH   4   7
HETATM    7  C9  UNL     1      -3.137   0.431   0.395  1.00  0.00     0.014 C 
HETATM    8  C10 UNL     1      -3.239  -0.145  -0.999  1.00  0.00     0.013 C 
BRANCH   7   9
HETATM    9  C11 UNL     1      -3.979  -0.313   1.375  1.00  0.00     0.118 C 
HETATM   10  C12 UNL     1      -5.383  -0.420   0.760  1.00  0.00     0.040 C 
BRANCH   9  11
HETATM   11  O2  UNL     1      -3.570  -1.648   1.525  1.00  0.00    -0.396 OA
ATOM     12  H2  UNL     1      -4.107  -2.122   2.149  1.00  0.00     0.210 HD
ENDBRANCH   9  11
ENDBRANCH   7   9
ENDBRANCH   4   7
BRANCH   1  13
HETATM   13  O1  UNL     1       2.261   0.253  -0.506  1.00  0.00    -0.386 OA
BRANCH  13  14
HETATM   14  C4  UNL     1       3.257   1.112  -0.064  1.00  0.00     0.168 C 
BRANCH  14  15
HETATM   15  C3  UNL     1       4.539   0.689  -0.793  1.00  0.00     0.026 C 
BRANCH  15  16
HETATM   16  C2  UNL     1       4.768  -0.771  -0.372  1.00  0.00    -0.002 C 
HETATM   17  C1  UNL     1       6.003  -1.271  -1.038  1.00  0.00     0.005 C 
ENDBRANCH  15  16
ENDBRANCH  14  15
ENDBRANCH  13  14
ENDBRANCH   1  13
TORSDOF 7
