REMARK  5 active torsions:
REMARK  status: ('A' for Active; 'I' for Inactive)
REMARK    1  A    between atoms: C2_2  and  C3_3 
REMARK    2  A    between atoms: C3_3  and  C6_6 
REMARK    3  A    between atoms: C6_6  and  C7_7 
REMARK    4  A    between atoms: C7_7  and  C8_8 
REMARK    5  A    between atoms: C8_8  and  O2_10 
ROOT
HETATM    1  C7  UNL     1       0.491   0.178   0.106  1.00  0.00     0.052 C 
HETATM    2  C10 UNL     1       0.803  -0.748  -1.019  1.00  0.00     0.020 C 
HETATM    3  C11 UNL     1       1.808  -1.819  -0.702  1.00  0.00     0.001 C 
HETATM    4  C12 UNL     1       2.919  -1.235   0.168  1.00  0.00     0.000 C 
HETATM    5  C13 UNL     1       2.343  -0.773   1.455  1.00  0.00     0.001 C 
HETATM    6  C14 UNL     1       0.909  -0.331   1.433  1.00  0.00     0.020 C 
ENDROOT
BRANCH   1   7
HETATM    7  C6  UNL     1      -0.918   0.693   0.064  1.00  0.00     0.058 C 
BRANCH   7   8
HETATM    8  C3  UNL     1      -2.023  -0.207   0.231  1.00  0.00    -0.062 C 
HETATM    9  C4  UNL     1      -2.009  -1.487   0.394  1.00  0.00    -0.024 C 
HETATM   10  C5  UNL     1      -3.281  -2.236   0.573  1.00  0.00     0.036 C 
BRANCH   8  11
HETATM   11  C2  UNL     1      -3.375   0.437   0.236  1.00  0.00    -0.004 C 
HETATM   12  C1  UNL     1      -3.537   1.728   0.082  1.00  0.00     0.012 C 
ENDBRANCH   8  11
ENDBRANCH   7   8
ENDBRANCH   1   7
BRANCH   1  13
HETATM   13  C8  UNL     1       1.327   1.423  -0.148  1.00  0.00     0.267 C 
HETATM   14  O1  UNL     1       2.084   1.864   0.709  1.00  0.00    -0.264 OA
BRANCH  13  15
HETATM   15  O2  UNL     1       1.192   2.024  -1.379  1.00  0.00    -0.326 OA
HETATM   16  C9  UNL     1       1.905   3.187  -1.757  1.00  0.00     0.213 C 
ENDBRANCH  13  15
ENDBRANCH   1  13
TORSDOF 5
