REMARK  10 active torsions:
REMARK  status: ('A' for Active; 'I' for Inactive)
REMARK    1  A    between atoms: C2_2  and  C3_3 
REMARK    2  A    between atoms: C3_3  and  C4_4 
REMARK    3  A    between atoms: C4_4  and  C5_5 
REMARK    4  A    between atoms: C5_5  and  O1_6 
REMARK    5  A    between atoms: O1_6  and  C6_7 
REMARK    6  A    between atoms: C9_10  and  C10_11 
REMARK    7  A    between atoms: C10_11  and  O2_13 
REMARK    8  A    between atoms: C13_16  and  C14_17 
REMARK    9  A    between atoms: C14_17  and  C16_19 
REMARK   10  A    between atoms: C16_19  and  C17_20 
ROOT
HETATM    1  C6  UNL     1      -0.155  -0.755  -0.038  1.00  0.00     0.075 A 
HETATM    2  C7  UNL     1      -0.213  -2.070   0.380  1.00  0.00     0.038 A 
HETATM    3  C8  UNL     1      -1.467  -2.656   0.468  1.00  0.00     0.012 A 
HETATM    4  C9  UNL     1      -2.607  -1.942   0.148  1.00  0.00    -0.029 A 
HETATM    5  C12 UNL     1      -2.469  -0.629  -0.261  1.00  0.00     0.020 A 
HETATM    6  C13 UNL     1      -1.242   0.005  -0.365  1.00  0.00    -0.020 A 
ENDROOT
BRANCH   1   7
HETATM    7  O1  UNL     1       1.115  -0.175  -0.158  1.00  0.00    -0.351 OA
BRANCH   7   8
HETATM    8  C5  UNL     1       2.273  -0.962   0.124  1.00  0.00     0.175 C 
BRANCH   8   9
HETATM    9  C4  UNL     1       3.499  -0.117  -0.223  1.00  0.00     0.027 C 
BRANCH   9  10
HETATM   10  C3  UNL     1       4.723  -1.004  -0.076  1.00  0.00     0.002 C 
BRANCH  10  11
HETATM   11  C2  UNL     1       6.012  -0.329  -0.467  1.00  0.00    -0.004 C 
HETATM   12  C1  UNL     1       6.351   0.884   0.331  1.00  0.00     0.005 C 
ENDBRANCH  10  11
ENDBRANCH   9  10
ENDBRANCH   8   9
ENDBRANCH   7   8
ENDBRANCH   1   7
BRANCH   6  13
HETATM   13  C14 UNL     1      -1.093   1.450  -0.603  1.00  0.00     0.017 C 
HETATM   14  C15 UNL     1      -1.670   1.710  -2.039  1.00  0.00     0.015 C 
BRANCH  13  15
HETATM   15  C16 UNL     1      -2.080   2.223   0.300  1.00  0.00     0.009 C 
BRANCH  15  16
HETATM   16  C17 UNL     1      -1.975   3.702   0.136  1.00  0.00    -0.004 C 
HETATM   17  C18 UNL     1      -3.064   4.378   0.933  1.00  0.00     0.005 C 
ENDBRANCH  15  16
ENDBRANCH  13  15
ENDBRANCH   6  13
BRANCH   4  18
HETATM   18  C10 UNL     1      -3.870  -2.660   0.290  1.00  0.00     0.147 C 
HETATM   19  C11 UNL     1      -3.934  -3.768  -0.780  1.00  0.00     0.044 C 
BRANCH  18  20
HETATM   20  O2  UNL     1      -3.977  -3.310   1.521  1.00  0.00    -0.391 OA
ATOM     21  H2  UNL     1      -4.799  -3.777   1.613  1.00  0.00     0.210 HD
ENDBRANCH  18  20
ENDBRANCH   4  18
TORSDOF 10
