REMARK  16 active torsions:
REMARK  status: ('A' for Active; 'I' for Inactive)
REMARK    1  A    between atoms: C2_2  and  C3_3 
REMARK    2  A    between atoms: C3_3  and  C4_4 
REMARK    3  A    between atoms: C4_4  and  N1_5 
REMARK    4  A    between atoms: N1_5  and  C5_7 
REMARK    5  A    between atoms: C5_7  and  N2_8 
REMARK    6  A    between atoms: N2_8  and  C6_10 
REMARK    7  A    between atoms: C6_10  and  C7_11 
REMARK    8  A    between atoms: C7_11  and  O1_12 
REMARK    9  A    between atoms: C8_14  and  C10_16 
REMARK   10  A    between atoms: C12_23  and  N6_24 
REMARK   11  A    between atoms: N6_24  and  C13_26 
REMARK   12  A    between atoms: C13_26  and  C16_34 
REMARK   13  A    between atoms: C14_27  and  C15_28 
REMARK   14  A    between atoms: C15_28  and  P1_29 
REMARK   15  A    between atoms: P1_29  and  O2_30 
REMARK   16  A    between atoms: P1_29  and  O3_32 
ROOT
HETATM    1  C10 UNL     1      -0.803   0.438   0.325  1.00  0.00     0.060 A 
HETATM    2  N3  UNL     1       0.266   0.065  -0.366  1.00  0.00    -0.278 N 
ATOM      3  H3  UNL     1       0.038  -0.476  -1.200  1.00  0.00     0.188 HD
HETATM    4  N4  UNL     1       1.616   0.254  -0.194  1.00  0.00    -0.080 N 
HETATM    5  C11 UNL     1       2.422  -0.337  -1.201  1.00  0.00     0.242 A 
HETATM    6  N5  UNL     1       3.705  -0.241  -1.169  1.00  0.00    -0.185 N 
ATOM      7  H5  UNL     1       4.245  -0.682  -1.914  1.00  0.00     0.185 HD
HETATM    8  C12 UNL     1       4.402   0.449  -0.147  1.00  0.00     0.698 A 
HETATM    9  N7  UNL     1       3.718   1.006   0.794  1.00  0.00    -0.020 N 
ATOM     10  H7  UNL     1       4.213   1.504   1.534  1.00  0.00     0.203 HD
HETATM   11  C17 UNL     1       2.295   0.949   0.836  1.00  0.00     0.718 A 
HETATM   12  N8  UNL     1       1.770   1.559   1.846  1.00  0.00    -0.199 N 
ATOM     13  H8  UNL     1       2.431   2.003   2.484  1.00  0.00     0.183 HD
HETATM   14  C18 UNL     1       0.401   1.697   2.190  1.00  0.00     0.108 A 
HETATM   15  C19 UNL     1      -0.681   1.215   1.533  1.00  0.00     0.049 A 
ENDROOT
BRANCH   1  16
HETATM   16  C8  UNL     1      -2.063   0.032  -0.198  1.00  0.00     0.010 C 
HETATM   17  C5  UNL     1      -3.267   0.202   0.190  1.00  0.00     0.105 C 
HETATM   18  C9  UNL     1      -1.949  -0.787  -1.501  1.00  0.00     0.054 C 
BRANCH  17  19
HETATM   19  N1  UNL     1      -4.312  -0.398  -0.653  1.00  0.00    -0.376 N 
ATOM     20  H1  UNL     1      -4.736   0.133  -1.414  1.00  0.00     0.161 HD
BRANCH  19  21
HETATM   21  C4  UNL     1      -4.719  -1.731  -0.387  1.00  0.00     0.121 C 
BRANCH  21  22
HETATM   22  C3  UNL     1      -5.801  -2.187  -1.333  1.00  0.00     0.019 C 
BRANCH  22  23
HETATM   23  C2  UNL     1      -6.991  -1.276  -1.162  1.00  0.00    -0.003 C 
HETATM   24  C1  UNL     1      -7.484  -1.348   0.263  1.00  0.00     0.005 C 
ENDBRANCH  22  23
ENDBRANCH  21  22
ENDBRANCH  19  21
ENDBRANCH  17  19
BRANCH  17  25
HETATM   25  N2  UNL     1      -3.741   0.890   1.322  1.00  0.00    -0.374 N 
ATOM     26  H2  UNL     1      -3.607   0.489   2.250  1.00  0.00     0.161 HD
BRANCH  25  27
HETATM   27  C6  UNL     1      -4.423   2.174   1.180  1.00  0.00     0.147 C 
BRANCH  27  28
HETATM   28  C7  UNL     1      -4.842   2.726   2.512  1.00  0.00     0.183 C 
BRANCH  28  29
HETATM   29  O1  UNL     1      -5.717   1.877   3.191  1.00  0.00    -0.399 OA
ATOM     30  H1  UNL     1      -5.982   2.226   4.034  1.00  0.00     0.209 HD
ENDBRANCH  28  29
ENDBRANCH  27  28
ENDBRANCH  25  27
ENDBRANCH  17  25
ENDBRANCH   1  16
BRANCH   8  31
HETATM   31  N6  UNL     1       5.841   0.529  -0.156  1.00  0.00    -0.185 N 
ATOM     32  H6  UNL     1       6.319   0.968   0.631  1.00  0.00     0.184 HD
BRANCH  31  33
HETATM   33  C13 UNL     1       6.607   0.014  -1.229  1.00  0.00     0.122 C 
HETATM   34  C14 UNL     1       7.461  -0.956  -0.983  1.00  0.00     0.019 C 
BRANCH  34  35
HETATM   35  C15 UNL     1       7.619  -1.498   0.379  1.00  0.00     0.122 C 
BRANCH  35  36
HETATM   36  P1  UNL     1       9.353  -1.298   1.012  1.00  0.00     0.166 P 
BRANCH  36  37
HETATM   37  O2  UNL     1      10.412  -2.476   0.304  1.00  0.00    -0.349 OA
ATOM     38  H2  UNL     1      11.299  -2.374   0.628  1.00  0.00     0.217 HD
ENDBRANCH  36  37
BRANCH  36  39
HETATM   39  O3  UNL     1       9.931   0.317   0.749  1.00  0.00    -0.349 OA
ATOM     40  H3  UNL     1      10.818   0.419   1.073  1.00  0.00     0.217 HD
ENDBRANCH  36  39
ENDBRANCH  35  36
ENDBRANCH  34  35
BRANCH  33  41
HETATM   41  C16 UNL     1       6.441   0.561  -2.582  1.00  0.00     0.227 C 
HETATM   42  O4  UNL     1       7.122   0.097  -3.511  1.00  0.00    -0.643 OA
HETATM   43  O5  UNL     1       5.529   1.580  -2.781  1.00  0.00    -0.643 OA
ENDBRANCH  33  41
ENDBRANCH  31  33
ENDBRANCH   8  31
TORSDOF 16
