REMARK  13 active torsions:
REMARK  status: ('A' for Active; 'I' for Inactive)
REMARK       I    between atoms: C1_4  and  N2_5 
REMARK       I    between atoms: C1_4  and  N6_28 
REMARK    1  A    between atoms: N2_5  and  C2_7 
REMARK    2  A    between atoms: C2_7  and  C3_8 
REMARK    3  A    between atoms: C2_7  and  N3_15 
REMARK    4  A    between atoms: C3_8  and  C4_9 
REMARK    5  A    between atoms: C4_9  and  P1_10 
REMARK    6  A    between atoms: P1_10  and  O1_11 
REMARK    7  A    between atoms: P1_10  and  O2_13 
REMARK       I    between atoms: N3_15  and  C5_17 
REMARK    8  A    between atoms: C5_17  and  C6_19 
REMARK    9  A    between atoms: C13_36  and  C14_37 
REMARK   10  A    between atoms: C14_37  and  C15_38 
REMARK   11  A    between atoms: C15_38  and  C16_39 
REMARK   12  A    between atoms: C17_40  and  C18_41 
REMARK   13  A    between atoms: C19_42  and  O5_43 
ROOT
HETATM    1  N1  UNL     1       0.735  -1.050  -0.406  1.00  0.00    -0.234 N 
ATOM      2  H11 UNL     1       1.636  -1.492  -0.586  1.00  0.00     0.174 HD
ATOM      3  H12 UNL     1       0.311  -1.278   0.493  1.00  0.00     0.174 HD
HETATM    4  C1  UNL     1       0.217  -0.336  -1.206  1.00  0.00     0.681 C 
HETATM    5  N2  UNL     1      -1.027   0.274  -0.957  1.00  0.00    -0.205 N 
ATOM      6  H2  UNL     1      -1.336   0.931  -1.673  1.00  0.00     0.179 HD
HETATM    7  N6  UNL     1       0.834  -0.004  -2.514  1.00  0.00    -0.142 N 
HETATM    8  C10 UNL     1       0.047  -0.324  -3.652  1.00  0.00     0.223 A 
HETATM    9  N7  UNL     1       0.467   0.135  -4.819  1.00  0.00    -0.295 N 
ATOM     10  H7  UNL     1      -0.064  -0.064  -5.667  1.00  0.00     0.187 HD
HETATM   11  N8  UNL     1       1.618   0.880  -4.889  1.00  0.00    -0.309 N 
ATOM     12  H8  UNL     1       1.873   1.201  -5.823  1.00  0.00     0.186 HD
HETATM   13  C11 UNL     1       2.418   1.231  -3.955  1.00  0.00     0.137 A 
HETATM   14  C12 UNL     1       2.010   0.742  -2.585  1.00  0.00     0.075 A 
HETATM   15  C13 UNL     1       2.833   0.872  -1.611  1.00  0.00     0.040 C 
ENDROOT
BRANCH   5  16
HETATM   16  C2  UNL     1      -1.915   0.117   0.132  1.00  0.00     0.202 C 
BRANCH  16  17
HETATM   17  C3  UNL     1      -1.389   0.447   1.505  1.00  0.00     0.056 C 
BRANCH  17  18
HETATM   18  C4  UNL     1      -0.906   1.865   1.633  1.00  0.00     0.097 C 
BRANCH  18  19
HETATM   19  P1  UNL     1      -2.179   3.125   1.259  1.00  0.00     0.163 P 
BRANCH  19  20
HETATM   20  O1  UNL     1      -3.759   2.718   1.757  1.00  0.00    -0.350 OA
ATOM     21  H1  UNL     1      -4.420   3.372   1.563  1.00  0.00     0.217 HD
ENDBRANCH  19  20
BRANCH  19  22
HETATM   22  O2  UNL     1      -1.733   4.654   1.967  1.00  0.00    -0.350 OA
ATOM     23  H2  UNL     1      -2.394   5.308   1.773  1.00  0.00     0.217 HD
ENDBRANCH  19  22
ENDBRANCH  18  19
ENDBRANCH  17  18
ENDBRANCH  16  17
BRANCH  16  24
HETATM   24  N3  UNL     1      -2.550  -1.218   0.188  1.00  0.00    -0.335 N 
HETATM   25  C5  UNL     1      -3.901  -1.362  -0.242  1.00  0.00     0.256 C 
HETATM   26  O3  UNL     1      -4.568  -0.376  -0.667  1.00  0.00    -0.268 OA
ATOM     27  H3  UNL     1      -2.028  -2.025   0.530  1.00  0.00     0.164 HD
BRANCH  25  28
HETATM   28  C6  UNL     1      -4.543  -2.661  -0.201  1.00  0.00     0.063 A 
HETATM   29  C7  UNL     1      -5.380  -3.026   0.823  1.00  0.00     0.111 A 
HETATM   30  N4  UNL     1      -5.982  -4.232   0.763  1.00  0.00    -0.318 N 
HETATM   31  C8  UNL     1      -5.797  -5.083  -0.264  1.00  0.00     0.324 A 
ATOM     32  H4  UNL     1      -6.601  -4.510   1.525  1.00  0.00     0.170 HD
HETATM   33  O4  UNL     1      -6.366  -6.185  -0.313  1.00  0.00    -0.247 OA
HETATM   34  N5  UNL     1      -4.980  -4.733  -1.266  1.00  0.00    -0.318 N 
HETATM   35  C9  UNL     1      -4.341  -3.543  -1.268  1.00  0.00     0.111 A 
ATOM     36  H5  UNL     1      -4.838  -5.378  -2.043  1.00  0.00     0.170 HD
ENDBRANCH  25  28
ENDBRANCH  16  24
ENDBRANCH   5  16
BRANCH  15  37
HETATM   37  C14 UNL     1       4.070   1.697  -1.735  1.00  0.00     0.058 C 
BRANCH  37  38
HETATM   38  C15 UNL     1       4.844   1.799  -0.803  1.00  0.00    -0.128 C 
BRANCH  38  39
HETATM   39  C16 UNL     1       5.745   1.920   0.273  1.00  0.00     0.055 C 
HETATM   40  C17 UNL     1       5.683   1.333   1.437  1.00  0.00     0.010 C 
BRANCH  40  41
HETATM   41  C18 UNL     1       4.693   0.411   1.938  1.00  0.00     0.024 C 
HETATM   42  C19 UNL     1       4.923  -0.045   3.225  1.00  0.00     0.131 C 
BRANCH  42  43
HETATM   43  O5  UNL     1       6.045   0.433   3.835  1.00  0.00    -0.373 OA
ATOM     44  H5  UNL     1       6.203   0.120   4.718  1.00  0.00     0.216 HD
ENDBRANCH  42  43
ENDBRANCH  40  41
ENDBRANCH  38  39
ENDBRANCH  37  38
ENDBRANCH  15  37
TORSDOF 13
