REMARK  18 active torsions:
REMARK  status: ('A' for Active; 'I' for Inactive)
REMARK    1  A    between atoms: C2_2  and  N1_3 
REMARK    2  A    between atoms: C3_6  and  N3_7 
REMARK    3  A    between atoms: C5_11  and  C6_12 
REMARK    4  A    between atoms: N6_18  and  C10_19 
REMARK    5  A    between atoms: C10_19  and  C11_20 
REMARK    6  A    between atoms: C11_20  and  O1_21 
REMARK    7  A    between atoms: C11_20  and  C12_23 
REMARK    8  A    between atoms: C12_23  and  O2_24 
REMARK    9  A    between atoms: O2_24  and  C13_25 
REMARK   10  A    between atoms: C13_25  and  C14_26 
REMARK   11  A    between atoms: C14_26  and  C15_27 
REMARK   12  A    between atoms: C17_29  and  N7_30 
REMARK   13  A    between atoms: N7_30  and  C18_32 
REMARK   14  A    between atoms: C18_32  and  C19_33 
REMARK   15  A    between atoms: C19_33  and  O3_34 
REMARK   16  A    between atoms: O3_34  and  P1_35 
REMARK   17  A    between atoms: P1_35  and  O4_36 
REMARK   18  A    between atoms: P1_35  and  O5_38 
ROOT
HETATM    1  N1  UNL     1      -4.254   1.529  -0.571  1.00  0.00    -0.206 N 
HETATM    2  N2  UNL     1      -4.193   0.842  -1.764  1.00  0.00    -0.264 N 
ATOM      3  H2  UNL     1      -5.049   0.749  -2.311  1.00  0.00     0.190 HD
HETATM    4  C3  UNL     1      -3.136   0.321  -2.217  1.00  0.00     0.140 A 
HETATM    5  C5  UNL     1      -1.815   0.401  -1.491  1.00  0.00     0.099 A 
HETATM    6  C17 UNL     1      -1.921   1.102  -0.272  1.00  0.00     0.135 A 
HETATM    7  N8  UNL     1      -3.098   1.629   0.130  1.00  0.00    -0.264 N 
ATOM      8  H8  UNL     1      -3.118   2.134   1.016  1.00  0.00     0.190 HD
ENDROOT
BRANCH   5   9
HETATM    9  C6  UNL     1      -0.869  -0.310  -2.010  1.00  0.00     0.125 A 
HETATM   10  N5  UNL     1      -1.326  -1.114  -3.167  1.00  0.00    -0.351 N 
HETATM   11  C7  UNL     1      -0.617  -1.789  -3.944  1.00  0.00     0.091 A 
ATOM     12  H5  UNL     1      -2.330  -1.117  -3.350  1.00  0.00     0.166 HD
HETATM   13  C8  UNL     1       0.818  -1.853  -3.781  1.00  0.00     0.034 A 
HETATM   14  C9  UNL     1       1.309  -1.161  -2.782  1.00  0.00     0.094 A 
HETATM   15  N6  UNL     1       0.522  -0.371  -1.871  1.00  0.00    -0.340 N 
BRANCH  15  16
HETATM   16  C10 UNL     1       1.219   0.526  -1.019  1.00  0.00     0.164 C 
BRANCH  16  17
HETATM   17  C11 UNL     1       2.722   0.573  -1.176  1.00  0.00     0.160 C 
BRANCH  17  18
HETATM   18  O1  UNL     1       3.224   0.887  -2.393  1.00  0.00    -0.392 OA
ATOM     19  H1  UNL     1       4.168   0.917  -2.492  1.00  0.00     0.210 HD
ENDBRANCH  17  18
BRANCH  17  20
HETATM   20  C12 UNL     1       3.421  -0.433  -0.323  1.00  0.00     0.200 C 
BRANCH  20  21
HETATM   21  O2  UNL     1       4.682   0.056  -0.088  1.00  0.00    -0.389 OA
BRANCH  21  22
HETATM   22  C13 UNL     1       5.499  -0.668   0.724  1.00  0.00     0.167 C 
BRANCH  22  23
HETATM   23  C14 UNL     1       5.000  -0.816   2.143  1.00  0.00     0.026 C 
BRANCH  23  24
HETATM   24  C15 UNL     1       5.971  -1.616   2.998  1.00  0.00    -0.002 C 
HETATM   25  C16 UNL     1       7.291  -0.831   2.977  1.00  0.00     0.005 C 
ENDBRANCH  23  24
ENDBRANCH  22  23
ENDBRANCH  21  22
ENDBRANCH  20  21
ENDBRANCH  17  20
ENDBRANCH  16  17
ENDBRANCH  15  16
ENDBRANCH   5   9
BRANCH   4  26
HETATM   26  N3  UNL     1      -3.240  -0.354  -3.467  1.00  0.00    -0.339 N 
HETATM   27  C4  UNL     1      -4.074  -0.069  -4.379  1.00  0.00     0.191 C 
HETATM   28  N4  UNL     1      -4.989   0.991  -4.187  1.00  0.00    -0.097 NA
ATOM     29  H3  UNL     1      -2.595  -1.125  -3.642  1.00  0.00     0.167 HD
ENDBRANCH   4  26
BRANCH   6  30
HETATM   30  N7  UNL     1      -1.031   1.168   0.805  1.00  0.00    -0.372 N 
ATOM     31  H7  UNL     1      -0.370   1.945   0.826  1.00  0.00     0.161 HD
BRANCH  30  32
HETATM   32  C18 UNL     1      -0.981   0.217   1.887  1.00  0.00     0.148 C 
BRANCH  32  33
HETATM   33  C19 UNL     1      -2.081   0.158   2.857  1.00  0.00     0.197 C 
BRANCH  33  34
HETATM   34  O3  UNL     1      -3.312  -0.158   2.332  1.00  0.00    -0.316 OA
BRANCH  34  35
HETATM   35  P1  UNL     1      -4.534  -0.203   3.564  1.00  0.00     0.329 P 
BRANCH  35  36
HETATM   36  O4  UNL     1      -3.745  -0.530   5.092  1.00  0.00    -0.328 OA
ATOM     37  H4  UNL     1      -4.414  -0.555   5.766  1.00  0.00     0.219 HD
ENDBRANCH  35  36
BRANCH  35  38
HETATM   38  O5  UNL     1      -5.697  -1.459   3.223  1.00  0.00    -0.328 OA
ATOM     39  H5  UNL     1      -6.366  -1.484   3.897  1.00  0.00     0.219 HD
ENDBRANCH  35  38
ENDBRANCH  34  35
ENDBRANCH  33  34
ENDBRANCH  32  33
ENDBRANCH  30  32
ENDBRANCH   6  30
BRANCH   1  40
HETATM   40  C2  UNL     1      -5.489   2.101  -0.103  1.00  0.00     0.126 C 
HETATM   41  C1  UNL     1      -5.863   3.320  -0.388  1.00  0.00     0.033 C 
ENDBRANCH   1  40
TORSDOF 18
