REMARK  7 active torsions:
REMARK  status: ('A' for Active; 'I' for Inactive)
REMARK    1  A    between atoms: C2_2  and  C3_3 
REMARK    2  A    between atoms: C3_3  and  C4_4 
REMARK    3  A    between atoms: C4_4  and  C6_6 
REMARK    4  A    between atoms: C6_6  and  C7_7 
REMARK    5  A    between atoms: C7_7  and  O1_9 
REMARK    6  A    between atoms: O1_9  and  C8_10 
REMARK    7  A    between atoms: C8_10  and  C10_13 
ROOT
HETATM    1  C7  UNL     1      -0.031  -0.527   1.171  1.00  0.00     0.117 C 
HETATM    2  S1  UNL     1      -0.462  -1.653   2.238  1.00  0.00    -0.058 SA
ENDROOT
BRANCH   1   3
HETATM    3  C6  UNL     1      -0.999  -0.067   0.162  1.00  0.00     0.081 C 
BRANCH   3   4
HETATM    4  C4  UNL     1      -2.322  -0.790   0.226  1.00  0.00    -0.012 C 
HETATM    5  C5  UNL     1      -2.071  -2.252  -0.079  1.00  0.00     0.010 C 
BRANCH   4   6
HETATM    6  C3  UNL     1      -3.223  -0.241  -0.845  1.00  0.00     0.004 C 
BRANCH   6   7
HETATM    7  C2  UNL     1      -3.539   1.212  -0.626  1.00  0.00    -0.004 C 
HETATM    8  C1  UNL     1      -4.219   1.338   0.730  1.00  0.00     0.005 C 
ENDBRANCH   6   7
ENDBRANCH   4   6
ENDBRANCH   3   4
ENDBRANCH   1   3
BRANCH   1   9
HETATM    9  O1  UNL     1       1.214   0.002   1.195  1.00  0.00    -0.299 OA
BRANCH   9  10
HETATM   10  C8  UNL     1       2.387  -0.531   0.675  1.00  0.00     0.242 C 
HETATM   11  C9  UNL     1       2.296  -0.759  -0.825  1.00  0.00     0.088 C 
HETATM   12  F1  UNL     1       2.775  -1.710   1.278  1.00  0.00    -0.208 F 
BRANCH  10  13
HETATM   13  C10 UNL     1       3.478   0.520   0.915  1.00  0.00     0.157 C 
HETATM   14  C11 UNL     1       4.808   0.088   0.407  1.00  0.00     0.057 C 
HETATM   15  C12 UNL     1       2.997   1.812   0.300  1.00  0.00     0.057 C 
HETATM   16  F2  UNL     1       3.572   0.718   2.285  1.00  0.00    -0.238 F 
ENDBRANCH  10  13
ENDBRANCH   9  10
ENDBRANCH   1   9
TORSDOF 7
