REMARK  8 active torsions:
REMARK  status: ('A' for Active; 'I' for Inactive)
REMARK    1  A    between atoms: C2_2  and  C3_3 
REMARK    2  A    between atoms: C3_3  and  C4_4 
REMARK    3  A    between atoms: C4_4  and  O1_5 
REMARK    4  A    between atoms: O1_5  and  C5_6 
REMARK    5  A    between atoms: C5_6  and  C6_8 
REMARK    6  A    between atoms: C14_16  and  C15_17 
REMARK    7  A    between atoms: C15_17  and  C16_18 
REMARK    8  A    between atoms: C16_18  and  C19_21 
ROOT
HETATM    1  C6  UNL     1       0.306   1.280  -0.077  1.00  0.00     0.056 A 
HETATM    2  C7  UNL     1       0.633   2.530  -0.655  1.00  0.00    -0.044 A 
HETATM    3  C8  UNL     1       2.013   2.848  -1.105  1.00  0.00     0.049 C 
HETATM    4  C9  UNL     1      -0.402   3.426  -0.774  1.00  0.00     0.015 A 
HETATM    5  C10 UNL     1      -1.673   3.116  -0.352  1.00  0.00    -0.055 A 
HETATM    6  C11 UNL     1      -2.721   4.154  -0.524  1.00  0.00     0.049 C 
HETATM    7  C12 UNL     1      -1.988   1.899   0.209  1.00  0.00    -0.045 A 
HETATM    8  C13 UNL     1      -3.369   1.704   0.644  1.00  0.00     0.049 C 
HETATM    9  C14 UNL     1      -0.947   0.955   0.344  1.00  0.00    -0.016 A 
ENDROOT
BRANCH   1  10
HETATM   10  C5  UNL     1       1.511   0.466   0.121  1.00  0.00     0.294 C 
HETATM   11  O2  UNL     1       2.041   0.577   1.291  1.00  0.00    -0.259 OA
BRANCH  10  12
HETATM   12  O1  UNL     1       2.123  -0.355  -0.746  1.00  0.00    -0.317 OA
BRANCH  12  13
HETATM   13  C4  UNL     1       3.273  -1.105  -0.544  1.00  0.00     0.183 C 
BRANCH  13  14
HETATM   14  C3  UNL     1       4.472  -0.236  -0.262  1.00  0.00     0.053 C 
BRANCH  14  15
HETATM   15  C2  UNL     1       5.704  -1.036  -0.056  1.00  0.00    -0.035 C 
HETATM   16  C1  UNL     1       5.667  -2.353  -0.142  1.00  0.00     0.007 C 
ENDBRANCH  14  15
ENDBRANCH  13  14
ENDBRANCH  12  13
ENDBRANCH  10  12
ENDBRANCH   1  10
BRANCH   9  17
HETATM   17  C15 UNL     1      -1.301  -0.327   0.919  1.00  0.00    -0.005 C 
BRANCH  17  18
HETATM   18  C16 UNL     1      -1.702  -1.482   0.101  1.00  0.00    -0.029 C 
HETATM   19  C17 UNL     1      -2.912  -1.266  -0.784  1.00  0.00     0.019 C 
HETATM   20  C18 UNL     1      -0.686  -2.165  -0.741  1.00  0.00     0.019 C 
BRANCH  18  21
HETATM   21  C19 UNL     1      -2.122  -2.554   1.166  1.00  0.00     0.008 C 
HETATM   22  C20 UNL     1      -2.559  -3.828   0.569  1.00  0.00     0.006 C 
ENDBRANCH  18  21
ENDBRANCH  17  18
ENDBRANCH   9  17
TORSDOF 8
