REMARK  10 active torsions:
REMARK  status: ('A' for Active; 'I' for Inactive)
REMARK    1  A    between atoms: C2_2  and  C3_3 
REMARK    2  A    between atoms: C4_4  and  C5_5 
REMARK    3  A    between atoms: C5_5  and  C6_6 
REMARK    4  A    between atoms: C6_6  and  C7_7 
REMARK    5  A    between atoms: C7_7  and  C9_9 
REMARK    6  A    between atoms: C12_12  and  C13_13 
REMARK    7  A    between atoms: C13_13  and  O2_15 
REMARK    8  A    between atoms: O2_15  and  C14_16 
REMARK    9  A    between atoms: C16_18  and  C17_19 
REMARK   10  A    between atoms: C17_19  and  C18_20 
ROOT
HETATM    1  C9  UNL     1       0.245  -0.142  -1.074  1.00  0.00    -0.054 A 
HETATM    2  C10 UNL     1      -0.019   1.137  -1.543  1.00  0.00     0.008 A 
HETATM    3  C11 UNL     1      -1.242   1.737  -1.388  1.00  0.00     0.018 A 
HETATM    4  C12 UNL     1      -2.283   1.062  -0.738  1.00  0.00     0.045 A 
HETATM    5  C16 UNL     1      -2.066  -0.206  -0.261  1.00  0.00    -0.041 A 
HETATM    6  C20 UNL     1      -0.805  -0.773  -0.441  1.00  0.00     0.015 A 
ENDROOT
BRANCH   1   7
HETATM    7  C7  UNL     1       1.560  -0.748  -1.276  1.00  0.00     0.015 C 
HETATM    8  C8  UNL     1       1.590  -2.098  -1.879  1.00  0.00     0.015 C 
BRANCH   7   9
HETATM    9  C6  UNL     1       2.456  -0.686  -0.025  1.00  0.00     0.012 C 
BRANCH   9  10
HETATM   10  C5  UNL     1       3.853  -1.035  -0.574  1.00  0.00     0.027 C 
BRANCH  10  11
HETATM   11  C4  UNL     1       4.840  -1.020   0.495  1.00  0.00    -0.031 C 
HETATM   12  C3  UNL     1       5.883  -0.236   0.523  1.00  0.00    -0.031 C 
BRANCH  12  13
HETATM   13  C2  UNL     1       6.252   0.765  -0.501  1.00  0.00     0.022 C 
HETATM   14  C1  UNL     1       6.301   2.129   0.187  1.00  0.00     0.009 C 
ENDBRANCH  12  13
ENDBRANCH  10  11
ENDBRANCH   9  10
ENDBRANCH   7   9
ENDBRANCH   1   7
BRANCH   5  15
HETATM   15  C17 UNL     1      -3.128  -1.046   0.359  1.00  0.00     0.039 C 
BRANCH  15  16
HETATM   16  C18 UNL     1      -2.972  -2.528   0.030  1.00  0.00     0.000 C 
HETATM   17  C19 UNL     1      -4.153  -3.210   0.729  1.00  0.00     0.005 C 
ENDBRANCH  15  16
ENDBRANCH   5  15
BRANCH   4  18
HETATM   18  C13 UNL     1      -3.555   1.774  -0.508  1.00  0.00     0.293 C 
HETATM   19  O1  UNL     1      -3.717   2.880  -1.100  1.00  0.00    -0.259 OA
BRANCH  18  20
HETATM   20  O2  UNL     1      -4.566   1.330   0.293  1.00  0.00    -0.318 OA
BRANCH  20  21
HETATM   21  C14 UNL     1      -5.752   2.054   0.478  1.00  0.00     0.174 C 
HETATM   22  C15 UNL     1      -5.447   3.399   1.081  1.00  0.00     0.034 C 
ENDBRANCH  20  21
ENDBRANCH  18  20
ENDBRANCH   4  18
TORSDOF 10
