REMARK  9 active torsions:
REMARK  status: ('A' for Active; 'I' for Inactive)
REMARK    1  A    between atoms: C2_2  and  C3_3 
REMARK    2  A    between atoms: C3_3  and  O1_4 
REMARK    3  A    between atoms: O1_4  and  C4_5 
REMARK    4  A    between atoms: C4_5  and  C5_6 
REMARK    5  A    between atoms: C9_10  and  C10_11 
REMARK    6  A    between atoms: C15_16  and  C16_17 
REMARK    7  A    between atoms: C15_16  and  C17_20 
REMARK    8  A    between atoms: C16_17  and  O2_18 
REMARK    9  A    between atoms: C17_20  and  C18_21 
ROOT
HETATM    1  O1  UNL     1      -0.563  -0.200   0.247  1.00  0.00    -0.351 OA
ENDROOT
BRANCH   1   2
HETATM    2  C3  UNL     1      -1.875  -0.381   0.753  1.00  0.00     0.051 C 
HETATM    3  C15 UNL     1      -2.857   0.357   0.207  1.00  0.00    -0.027 C 
BRANCH   2   4
HETATM    4  C2  UNL     1      -2.132  -1.336   1.830  1.00  0.00     0.060 C 
HETATM    5  C1  UNL     1      -1.634  -2.743   1.419  1.00  0.00     0.012 C 
ENDBRANCH   2   4
BRANCH   3   6
HETATM    6  C16 UNL     1      -2.440   1.264  -0.870  1.00  0.00     0.201 C 
BRANCH   6   7
HETATM    7  O2  UNL     1      -2.976   1.109  -2.101  1.00  0.00    -0.397 OA
ATOM      8  H2  UNL     1      -2.706   1.696  -2.798  1.00  0.00     0.209 HD
ENDBRANCH   6   7
ENDBRANCH   3   6
BRANCH   3   9
HETATM    9  C17 UNL     1      -4.188   0.301   0.784  1.00  0.00     0.043 C 
BRANCH   9  10
HETATM   10  C18 UNL     1      -5.260  -0.473   0.131  1.00  0.00    -0.019 C 
HETATM   11  C19 UNL     1      -6.498  -0.333   1.071  1.00  0.00     0.010 C 
HETATM   12  C20 UNL     1      -5.721   0.005  -1.218  1.00  0.00     0.010 C 
ENDBRANCH   9  10
ENDBRANCH   3   9
ENDBRANCH   1   2
BRANCH   1  13
HETATM   13  C4  UNL     1       0.428   0.003   1.255  1.00  0.00     0.214 C 
BRANCH  13  14
HETATM   14  C5  UNL     1       1.777   0.204   0.703  1.00  0.00    -0.033 A 
HETATM   15  C6  UNL     1       2.329   1.462   0.566  1.00  0.00     0.017 A 
HETATM   16  C7  UNL     1       3.568   1.620   0.060  1.00  0.00    -0.051 A 
HETATM   17  C8  UNL     1       4.095   3.021  -0.055  1.00  0.00     0.049 C 
HETATM   18  C9  UNL     1       4.375   0.545  -0.359  1.00  0.00    -0.028 A 
HETATM   19  C12 UNL     1       3.844  -0.699  -0.230  1.00  0.00    -0.051 A 
HETATM   20  C13 UNL     1       4.626  -1.846  -0.658  1.00  0.00     0.049 C 
HETATM   21  C14 UNL     1       2.546  -0.851   0.302  1.00  0.00     0.017 A 
BRANCH  18  22
HETATM   22  C10 UNL     1       5.652   0.882  -0.865  1.00  0.00    -0.019 C 
HETATM   23  C11 UNL     1       6.747  -0.005  -1.159  1.00  0.00     0.037 C 
ENDBRANCH  18  22
ENDBRANCH  13  14
ENDBRANCH   1  13
TORSDOF 9
