REMARK  12 active torsions:
REMARK  status: ('A' for Active; 'I' for Inactive)
REMARK    1  A    between atoms: C3_3  and  C5_5 
REMARK    2  A    between atoms: C5_5  and  C6_6 
REMARK    3  A    between atoms: C6_6  and  C7_7 
REMARK    4  A    between atoms: C10_10  and  C11_11 
REMARK    5  A    between atoms: C11_11  and  C12_12 
REMARK    6  A    between atoms: C12_12  and  C13_13 
REMARK    7  A    between atoms: C13_13  and  O1_14 
REMARK    8  A    between atoms: O1_14  and  C14_15 
REMARK    9  A    between atoms: C14_15  and  C15_16 
REMARK   10  A    between atoms: C15_16  and  O2_17 
REMARK   11  A    between atoms: C15_16  and  C16_19 
REMARK   12  A    between atoms: C16_19  and  C17_20 
ROOT
HETATM    1  C7  UNL     1      -3.108   0.858  -1.006  1.00  0.00    -0.058 A 
HETATM    2  C8  UNL     1      -2.380   1.079   0.144  1.00  0.00     0.007 A 
HETATM    3  C9  UNL     1      -1.180   0.460   0.424  1.00  0.00     0.007 A 
HETATM    4  C10 UNL     1      -0.647  -0.442  -0.480  1.00  0.00    -0.058 A 
HETATM    5  C19 UNL     1      -1.355  -0.674  -1.628  1.00  0.00     0.007 A 
HETATM    6  C20 UNL     1      -2.552  -0.055  -1.904  1.00  0.00     0.007 A 
ENDROOT
BRANCH   4   7
HETATM    7  C11 UNL     1       0.630  -1.127  -0.224  1.00  0.00     0.041 C 
BRANCH   7   8
HETATM    8  C12 UNL     1       1.787  -0.316  -0.776  1.00  0.00     0.031 C 
BRANCH   8   9
HETATM    9  C13 UNL     1       3.053  -1.125  -0.451  1.00  0.00     0.168 C 
BRANCH   9  10
HETATM   10  O1  UNL     1       3.089  -1.242   0.913  1.00  0.00    -0.389 OA
BRANCH  10  11
HETATM   11  C14 UNL     1       4.143  -1.942   1.438  1.00  0.00     0.199 C 
BRANCH  11  12
HETATM   12  C15 UNL     1       5.432  -1.289   1.062  1.00  0.00     0.142 C 
BRANCH  12  13
HETATM   13  O2  UNL     1       6.542  -1.958   1.578  1.00  0.00    -0.393 OA
ATOM     14  H2  UNL     1       7.362  -1.543   1.339  1.00  0.00     0.210 HD
ENDBRANCH  12  13
BRANCH  12  15
HETATM   15  C16 UNL     1       5.446   0.142   1.551  1.00  0.00     0.033 C 
BRANCH  15  16
HETATM   16  C17 UNL     1       6.732   0.839   1.191  1.00  0.00    -0.002 C 
HETATM   17  C18 UNL     1       6.868   0.832  -0.313  1.00  0.00     0.005 C 
ENDBRANCH  15  16
ENDBRANCH  12  15
ENDBRANCH  11  12
ENDBRANCH  10  11
ENDBRANCH   9  10
ENDBRANCH   8   9
ENDBRANCH   7   8
ENDBRANCH   4   7
BRANCH   1  18
HETATM   18  C6  UNL     1      -4.375   1.521  -1.294  1.00  0.00     0.043 C 
BRANCH  18  19
HETATM   19  C5  UNL     1      -5.608   0.747  -0.993  1.00  0.00     0.038 C 
BRANCH  19  20
HETATM   20  C3  UNL     1      -5.864   0.307   0.371  1.00  0.00    -0.088 C 
HETATM   21  C2  UNL     1      -6.948   0.783   1.011  1.00  0.00    -0.029 C 
HETATM   22  C1  UNL     1      -7.838   1.793   0.368  1.00  0.00     0.036 C 
HETATM   23  C4  UNL     1      -5.030  -0.694   1.075  1.00  0.00     0.043 C 
ENDBRANCH  19  20
ENDBRANCH  18  19
ENDBRANCH   1  18
TORSDOF 12
