REMARK  10 active torsions:
REMARK  status: ('A' for Active; 'I' for Inactive)
REMARK    1  A    between atoms: C2_2  and  C3_3 
REMARK    2  A    between atoms: C3_3  and  C4_4 
REMARK    3  A    between atoms: C4_4  and  C5_5 
REMARK    4  A    between atoms: C4_4  and  C9_9 
REMARK    5  A    between atoms: C5_5  and  C6_6 
REMARK    6  A    between atoms: C12_12  and  C13_13 
REMARK    7  A    between atoms: C17_17  and  O1_18 
REMARK    8  A    between atoms: O1_18  and  C18_19 
REMARK    9  A    between atoms: C18_19  and  C19_20 
REMARK   10  A    between atoms: C19_20  and  O2_21 
ROOT
HETATM    1  C9  UNL     1       0.107  -0.497   0.387  1.00  0.00    -0.021 A 
HETATM    2  C10 UNL     1      -0.160  -1.684   0.998  1.00  0.00     0.011 A 
HETATM    3  C11 UNL     1      -1.391  -2.310   0.815  1.00  0.00     0.008 A 
HETATM    4  C12 UNL     1      -2.340  -1.735   0.021  1.00  0.00    -0.052 A 
HETATM    5  C16 UNL     1      -2.044  -0.522  -0.591  1.00  0.00     0.044 A 
HETATM    6  C17 UNL     1      -0.837   0.128  -0.432  1.00  0.00     0.076 A 
ENDROOT
BRANCH   1   7
HETATM    7  C4  UNL     1       1.471   0.120   0.550  1.00  0.00     0.022 C 
BRANCH   7   8
HETATM    8  C3  UNL     1       2.086  -0.384   1.800  1.00  0.00     0.009 C 
BRANCH   8   9
HETATM    9  C2  UNL     1       3.382   0.228   2.244  1.00  0.00    -0.004 C 
HETATM   10  C1  UNL     1       3.763  -0.430   3.607  1.00  0.00     0.005 C 
ENDBRANCH   8   9
ENDBRANCH   7   8
BRANCH   7  11
HETATM   11  C5  UNL     1       2.168  -0.052  -0.734  1.00  0.00     0.013 C 
BRANCH  11  12
HETATM   12  C6  UNL     1       3.483   0.537  -1.009  1.00  0.00    -0.022 C 
HETATM   13  C7  UNL     1       3.799   0.131  -2.497  1.00  0.00     0.009 C 
HETATM   14  C8  UNL     1       3.559   2.030  -1.001  1.00  0.00     0.009 C 
ENDBRANCH  11  12
ENDBRANCH   7  11
ENDBRANCH   1   7
BRANCH   6  15
HETATM   15  O1  UNL     1      -0.512   1.312  -1.007  1.00  0.00    -0.348 OA
BRANCH  15  16
HETATM   16  C18 UNL     1      -1.216   2.160  -1.836  1.00  0.00     0.201 C 
BRANCH  16  17
HETATM   17  C19 UNL     1      -2.461   2.774  -1.302  1.00  0.00     0.193 C 
BRANCH  17  18
HETATM   18  O2  UNL     1      -2.241   3.558  -0.161  1.00  0.00    -0.394 OA
HETATM   19  C20 UNL     1      -3.473   4.050   0.239  1.00  0.00     0.201 C 
ENDBRANCH  17  18
ENDBRANCH  16  17
ENDBRANCH  15  16
ENDBRANCH   6  15
BRANCH   4  20
HETATM   20  C13 UNL     1      -3.636  -2.417  -0.179  1.00  0.00     0.010 C 
HETATM   21  C14 UNL     1      -3.976  -3.195   1.071  1.00  0.00     0.015 C 
HETATM   22  C15 UNL     1      -3.480  -3.446  -1.307  1.00  0.00     0.015 C 
ENDBRANCH   4  20
TORSDOF 10
