REMARK  6 active torsions:
REMARK  status: ('A' for Active; 'I' for Inactive)
REMARK    1  A    between atoms: O1_2  and  C2_3 
REMARK    2  A    between atoms: C2_3  and  C3_4 
REMARK    3  A    between atoms: C3_4  and  N1_5 
REMARK       I    between atoms: N1_5  and  C4_7 
REMARK    4  A    between atoms: C4_7  and  C5_9 
REMARK    5  A    between atoms: C6_10  and  C7_11 
REMARK    6  A    between atoms: N2_15  and  C10_16 
ROOT
HETATM    1  C5  UNL     1      -0.857   1.371  -0.065  1.00  0.00     0.068 A 
HETATM    2  C6  UNL     1       0.473   1.667   0.052  1.00  0.00     0.067 A 
HETATM    3  N3  UNL     1       0.515   3.034  -0.005  1.00  0.00    -0.350 N 
ATOM      4  H3  UNL     1       1.372   3.584   0.057  1.00  0.00     0.166 HD
HETATM    5  C17 UNL     1      -0.707   3.561  -0.152  1.00  0.00     0.108 A 
HETATM    6  C18 UNL     1      -1.626   2.545  -0.196  1.00  0.00    -0.006 A 
HETATM    7  C19 UNL     1      -3.097   2.772  -0.321  1.00  0.00     0.062 C 
HETATM    8  C20 UNL     1      -3.432   4.100  -0.912  1.00  0.00     0.128 C 
HETATM    9  N4  UNL     1      -2.565   5.155  -0.435  1.00  0.00    -0.355 N 
ATOM     10  H4  UNL     1      -2.966   6.065  -0.209  1.00  0.00     0.162 HD
HETATM   11  C21 UNL     1      -1.167   4.952  -0.274  1.00  0.00     0.268 C 
HETATM   12  O5  UNL     1      -0.337   5.887  -0.233  1.00  0.00    -0.266 OA
ENDROOT
BRANCH   2  13
HETATM   13  C7  UNL     1       1.642   0.854   0.233  1.00  0.00     0.093 A 
HETATM   14  C8  UNL     1       2.851   1.273   0.774  1.00  0.00     0.091 A 
HETATM   15  C9  UNL     1       3.245   2.565   1.368  1.00  0.00     0.080 C 
HETATM   16  O3  UNL     1       3.736   0.269   0.702  1.00  0.00    -0.231 OA
HETATM   17  N2  UNL     1       3.203  -0.772   0.156  1.00  0.00    -0.179 N 
HETATM   18  C16 UNL     1       1.921  -0.433  -0.139  1.00  0.00     0.287 A 
HETATM   19  O4  UNL     1       1.178  -1.240  -0.674  1.00  0.00    -0.265 OA
BRANCH  17  20
HETATM   20  C10 UNL     1       3.860  -2.027  -0.079  1.00  0.00     0.067 A 
HETATM   21  C11 UNL     1       3.899  -3.017   0.882  1.00  0.00     0.035 A 
HETATM   22  C12 UNL     1       4.518  -4.231   0.696  1.00  0.00     0.044 A 
HETATM   23  C13 UNL     1       5.139  -4.491  -0.512  1.00  0.00     0.116 A 
HETATM   24  F1  UNL     1       5.751  -5.687  -0.702  1.00  0.00    -0.206 F 
HETATM   25  C14 UNL     1       5.112  -3.514  -1.488  1.00  0.00     0.044 A 
HETATM   26  C15 UNL     1       4.480  -2.286  -1.284  1.00  0.00     0.035 A 
ENDBRANCH  17  20
ENDBRANCH   2  13
BRANCH   1  27
HETATM   27  C4  UNL     1      -1.506   0.098   0.058  1.00  0.00     0.254 C 
HETATM   28  N1  UNL     1      -2.319  -0.376  -0.998  1.00  0.00    -0.355 N 
ATOM     29  H1  UNL     1      -2.404   0.216  -1.824  1.00  0.00     0.162 HD
HETATM   30  O2  UNL     1      -1.391  -0.653   1.082  1.00  0.00    -0.268 OA
BRANCH  28  31
HETATM   31  C3  UNL     1      -3.040  -1.631  -1.004  1.00  0.00     0.149 C 
BRANCH  31  32
HETATM   32  C2  UNL     1      -4.056  -1.707   0.091  1.00  0.00     0.186 C 
BRANCH  32  33
HETATM   33  O1  UNL     1      -4.758  -2.898   0.103  1.00  0.00    -0.394 OA
HETATM   34  C1  UNL     1      -3.988  -4.026   0.273  1.00  0.00     0.201 C 
ENDBRANCH  32  33
ENDBRANCH  31  32
ENDBRANCH  28  31
ENDBRANCH   1  27
TORSDOF 6
