REMARK  3 active torsions:
REMARK  status: ('A' for Active; 'I' for Inactive)
REMARK    1  A    between atoms: N1_4  and  C4_5 
REMARK    2  A    between atoms: C9_16  and  C10_17 
REMARK    3  A    between atoms: C10_17  and  O2_19 
ROOT
HETATM    1  C1  UNL     1      -2.955  -0.663   2.093  1.00  0.00     0.041 C 
HETATM    2  C2  UNL     1      -2.188  -0.616   0.815  1.00  0.00     0.136 C 
HETATM    3  C3  UNL     1      -0.705  -0.498   1.070  1.00  0.00     0.156 C 
HETATM    4  N1  UNL     1      -0.021   0.008  -0.097  1.00  0.00    -0.360 N 
HETATM    5  C8  UNL     1      -0.712   0.041  -1.364  1.00  0.00     0.167 C 
HETATM    6  C9  UNL     1      -2.186   0.048  -1.301  1.00  0.00     0.242 C 
HETATM    7  O3  UNL     1      -2.625   0.417  -0.015  1.00  0.00    -0.368 OA
ENDROOT
BRANCH   4   8
HETATM    8  C4  UNL     1       1.316   0.484  -0.075  1.00  0.00     0.132 A 
HETATM    9  N2  UNL     1       1.641   1.763  -0.423  1.00  0.00    -0.337 N 
HETATM   10  C5  UNL     1       2.915   2.194  -0.396  1.00  0.00     0.183 A 
ATOM     11  H2  UNL     1       0.902   2.406  -0.710  1.00  0.00     0.168 HD
HETATM   12  N3  UNL     1       3.943   1.419  -0.032  1.00  0.00    -0.339 N 
HETATM   13  C6  UNL     1       3.703   0.153   0.322  1.00  0.00     0.145 A 
ATOM     14  H3  UNL     1       4.894   1.788  -0.025  1.00  0.00     0.167 HD
HETATM   15  N4  UNL     1       4.727  -0.743   0.722  1.00  0.00    -0.081 NA
HETATM   16  C7  UNL     1       2.396  -0.298   0.297  1.00  0.00     0.131 A 
HETATM   17  N5  UNL     1       2.157  -1.632   0.672  1.00  0.00    -0.095 NA
ENDBRANCH   4   8
BRANCH   6  18
HETATM   18  C10 UNL     1      -2.725   1.009  -2.282  1.00  0.00     0.324 C 
HETATM   19  O1  UNL     1      -2.462   0.875  -3.496  1.00  0.00    -0.259 OA
BRANCH  18  20
HETATM   20  O2  UNL     1      -3.519   2.055  -1.865  1.00  0.00    -0.114 OA
HETATM   21  F1  UNL     1      -4.036   2.959  -2.718  1.00  0.00    -0.039 F 
ENDBRANCH  18  20
ENDBRANCH   6  18
TORSDOF 3
