REMARK  5 active torsions:
REMARK  status: ('A' for Active; 'I' for Inactive)
REMARK    1  A    between atoms: C5_10  and  O2_11 
REMARK    2  A    between atoms: C5_10  and  C6_13 
REMARK       I    between atoms: C6_13  and  N3_15 
REMARK    3  A    between atoms: N3_15  and  C7_17 
REMARK    4  A    between atoms: C7_17  and  C8_18 
REMARK    5  A    between atoms: C8_18  and  C9_19 
ROOT
HETATM    1  O1  UNL     1       4.706   1.746  -2.847  1.00  0.00    -0.245 OA
HETATM    2  C1  UNL     1       4.237   1.169  -2.029  1.00  0.00     0.340 A 
HETATM    3  N1  UNL     1       5.019   0.629  -0.978  1.00  0.00    -0.251 N 
ATOM      4  H1  UNL     1       6.026   0.790  -1.001  1.00  0.00     0.191 HD
HETATM    5  N2  UNL     1       4.494  -0.117   0.099  1.00  0.00    -0.293 N 
ATOM      6  H2  UNL     1       5.110  -0.480   0.827  1.00  0.00     0.187 HD
HETATM    7  C2  UNL     1       3.106  -0.353   0.153  1.00  0.00     0.088 A 
HETATM    8  C3  UNL     1       2.574  -1.040   1.137  1.00  0.00     0.013 A 
HETATM    9  C4  UNL     1       1.154  -1.308   1.238  1.00  0.00     0.101 A 
HETATM   10  C5  UNL     1       0.304  -0.785   0.159  1.00  0.00     0.219 A 
HETATM   11  N4  UNL     1       0.997  -0.050  -0.843  1.00  0.00    -0.335 N 
ATOM     12  H4  UNL     1       0.430   0.337  -1.597  1.00  0.00     0.164 HD
HETATM   13  C10 UNL     1       2.233   0.174  -0.900  1.00  0.00     0.136 A 
HETATM   14  N5  UNL     1       2.818   0.920  -1.961  1.00  0.00    -0.292 N 
ATOM     15  H5  UNL     1       2.215   1.290  -2.696  1.00  0.00     0.172 HD
ENDROOT
BRANCH  10  16
HETATM   16  O2  UNL     1      -0.338  -1.848  -0.545  1.00  0.00    -0.363 OA
ATOM     17  H2  UNL     1      -0.887  -1.510  -1.242  1.00  0.00     0.213 HD
ENDBRANCH  10  16
BRANCH  10  18
HETATM   18  C6  UNL     1      -0.777   0.076   0.768  1.00  0.00     0.273 C 
HETATM   19  O3  UNL     1      -0.427   1.066   1.430  1.00  0.00    -0.268 OA
HETATM   20  N3  UNL     1      -2.131  -0.297   0.549  1.00  0.00    -0.357 N 
ATOM     21  H3  UNL     1      -2.353  -1.124  -0.005  1.00  0.00     0.162 HD
BRANCH  20  22
HETATM   22  C7  UNL     1      -3.178   0.494   1.109  1.00  0.00     0.125 C 
BRANCH  22  23
HETATM   23  C8  UNL     1      -4.529  -0.009   0.751  1.00  0.00     0.051 C 
BRANCH  23  24
HETATM   24  C9  UNL     1      -4.834   0.053  -0.697  1.00  0.00     0.224 C 
HETATM   25  F1  UNL     1      -4.016  -0.670  -1.480  1.00  0.00    -0.255 F 
ENDBRANCH  23  24
ENDBRANCH  22  23
ENDBRANCH  20  22
ENDBRANCH  10  18
TORSDOF 5
