REMARK  4 active torsions:
REMARK  status: ('A' for Active; 'I' for Inactive)
REMARK    1  A    between atoms: C2_2  and  C3_3 
REMARK    2  A    between atoms: C8_9  and  C9_10 
REMARK    3  A    between atoms: N1_16  and  C15_17 
REMARK    4  A    between atoms: C15_17  and  C16_18 
ROOT
HETATM    1  C9  UNL     1      -0.847   0.742   0.267  1.00  0.00     0.122 C 
HETATM    2  C10 UNL     1      -1.311   2.003  -0.279  1.00  0.00     0.030 C 
HETATM    3  C11 UNL     1      -0.739   2.767  -1.365  1.00  0.00     0.003 C 
HETATM    4  C12 UNL     1       0.268   3.762  -0.744  1.00  0.00     0.005 C 
HETATM    5  C13 UNL     1       1.060   2.971   0.255  1.00  0.00     0.044 C 
HETATM    6  C14 UNL     1       1.312   1.616  -0.373  1.00  0.00     0.064 C 
HETATM    7  N1  UNL     1       0.590   0.538   0.156  1.00  0.00    -0.360 N 
ENDROOT
BRANCH   1   8
HETATM    8  C8  UNL     1      -1.531  -0.373  -0.437  1.00  0.00    -0.027 A 
HETATM    9  C3  UNL     1      -2.272  -1.263   0.363  1.00  0.00    -0.050 A 
HETATM   10  C4  UNL     1      -2.743  -2.412  -0.187  1.00  0.00     0.009 A 
HETATM   11  C5  UNL     1      -2.530  -2.769  -1.529  1.00  0.00     0.024 A 
HETATM   12  C6  UNL     1      -1.808  -1.881  -2.275  1.00  0.00     0.034 A 
HETATM   13 CL1  UNL     1      -1.514  -2.315  -3.973  1.00  0.00    -0.084 Cl
HETATM   14  C7  UNL     1      -1.310  -0.696  -1.762  1.00  0.00     0.033 A 
BRANCH   9  15
HETATM   15  C2  UNL     1      -2.614  -0.846   1.736  1.00  0.00     0.035 C 
HETATM   16  C1  UNL     1      -3.671  -1.777   2.311  1.00  0.00     0.010 C 
ENDBRANCH   9  15
ENDBRANCH   1   8
BRANCH   7  17
HETATM   17  C15 UNL     1       1.116  -0.729   0.166  1.00  0.00     0.103 C 
BRANCH  17  18
HETATM   18  C16 UNL     1       2.580  -0.945   0.225  1.00  0.00    -0.008 A 
HETATM   19  C17 UNL     1       3.173  -1.576   1.237  1.00  0.00     0.006 A 
HETATM   20  C18 UNL     1       4.611  -1.642   1.016  1.00  0.00     0.147 A 
HETATM   21  N2  UNL     1       4.798  -0.990  -0.254  1.00  0.00    -0.395 N 
HETATM   22  C19 UNL     1       3.657  -0.606  -0.670  1.00  0.00     0.095 A 
ATOM     23  H2  UNL     1       5.687  -0.859  -0.736  1.00  0.00     0.159 HD
ENDBRANCH  17  18
ENDBRANCH   7  17
TORSDOF 4
