REMARK  7 active torsions:
REMARK  status: ('A' for Active; 'I' for Inactive)
REMARK    1  A    between atoms: C2_2  and  N1_3 
REMARK       I    between atoms: N1_3  and  C4_5 
REMARK    2  A    between atoms: C4_5  and  C5_7 
REMARK    3  A    between atoms: N2_10  and  C8_11 
REMARK    4  A    between atoms: C10_18  and  C11_19 
REMARK    5  A    between atoms: C11_19  and  C12_20 
REMARK    6  A    between atoms: C14_23  and  S2_24 
REMARK    7  A    between atoms: S2_24  and  C15_27 
ROOT
HETATM    1  C5  UNL     1      -1.040  -0.318  -0.425  1.00  0.00     0.099 C 
HETATM    2  C6  UNL     1      -0.463  -1.613  -0.931  1.00  0.00     0.035 C 
HETATM    3  C7  UNL     1       0.945  -1.887  -0.373  1.00  0.00     0.125 C 
HETATM    4  N2  UNL     1       1.807  -0.793  -0.636  1.00  0.00    -0.365 N 
HETATM    5  C13 UNL     1       1.258   0.539  -0.655  1.00  0.00     0.145 C 
HETATM    6  C14 UNL     1      -0.036   0.636   0.141  1.00  0.00     0.140 C 
ENDROOT
BRANCH   4   7
HETATM    7  C8  UNL     1       3.230  -0.911  -0.892  1.00  0.00     0.120 C 
HETATM    8  N3  UNL     1       3.747  -1.164  -2.028  1.00  0.00    -0.269 N 
HETATM    9  S1  UNL     1       5.452  -1.220  -1.926  1.00  0.00     0.236 S 
ATOM     10  H3  UNL     1       3.214  -1.313  -2.885  1.00  0.00     0.180 HD
HETATM   11  O2  UNL     1       6.101  -0.380  -2.957  1.00  0.00    -0.205 OA
HETATM   12  O3  UNL     1       5.987  -2.618  -1.877  1.00  0.00    -0.205 OA
HETATM   13  C9  UNL     1       5.569  -0.464  -0.280  1.00  0.00     0.206 C 
HETATM   14  C10 UNL     1       4.203  -0.741   0.202  1.00  0.00     0.003 C 
BRANCH  14  15
HETATM   15  C11 UNL     1       3.882  -0.852   1.498  1.00  0.00     0.024 C 
BRANCH  15  16
HETATM   16  C12 UNL     1       4.679  -0.716   2.685  1.00  0.00     0.085 C 
HETATM   17 CL1  UNL     1       6.353  -0.295   2.601  1.00  0.00    -0.097 Cl
ENDBRANCH  15  16
ENDBRANCH  14  15
ENDBRANCH   4   7
BRANCH   6  18
HETATM   18  S2  UNL     1      -0.625   2.300  -0.202  1.00  0.00     0.154 S 
HETATM   19  O4  UNL     1       0.441   3.301   0.171  1.00  0.00    -0.227 OA
HETATM   20  O5  UNL     1      -0.860   2.450  -1.677  1.00  0.00    -0.227 OA
BRANCH  18  21
HETATM   21  C15 UNL     1      -2.101   2.702   0.642  1.00  0.00     0.101 C 
HETATM   22  C16 UNL     1      -1.940   2.929   2.122  1.00  0.00     0.026 C 
HETATM   23  C17 UNL     1      -2.558   4.067   0.084  1.00  0.00     0.026 C 
ENDBRANCH  18  21
ENDBRANCH   6  18
BRANCH   1  24
HETATM   24  C4  UNL     1      -2.152  -0.648   0.500  1.00  0.00     0.225 C 
HETATM   25  N1  UNL     1      -3.431  -0.948   0.028  1.00  0.00    -0.356 N 
HETATM   26  C3  UNL     1      -4.462  -1.293   1.027  1.00  0.00     0.152 C 
HETATM   27  O1  UNL     1      -1.943  -0.662   1.751  1.00  0.00    -0.273 OA
BRANCH  25  28
HETATM   28  C2  UNL     1      -3.869  -0.964  -1.336  1.00  0.00     0.120 C 
HETATM   29  C1  UNL     1      -3.737  -2.291  -2.030  1.00  0.00     0.026 C 
ENDBRANCH  25  28
ENDBRANCH   1  24
TORSDOF 7
