REMARK  5 active torsions:
REMARK  status: ('A' for Active; 'I' for Inactive)
REMARK    1  A    between atoms: C2_2  and  O1_3 
REMARK    2  A    between atoms: C2_2  and  C3_5 
REMARK    3  A    between atoms: C2_2  and  C4_8 
REMARK    4  A    between atoms: C3_5  and  O2_6 
REMARK    5  A    between atoms: C4_8  and  O3_9 
ROOT
HETATM    1  C4  UNL     1       0.364   0.015   0.245  1.00  0.00     0.217 C 
HETATM    2  C5  UNL     1       0.840  -0.654  -1.017  1.00  0.00     0.239 C 
HETATM    3  O4  UNL     1       2.150  -0.449  -1.314  1.00  0.00    -0.384 OA
HETATM    4  C6  UNL     1       2.907   0.164  -0.346  1.00  0.00     0.194 C 
HETATM    5  C7  UNL     1       2.225   1.257   0.394  1.00  0.00     0.197 C 
HETATM    6  O5  UNL     1       0.865   1.317   0.235  1.00  0.00    -0.349 OA
ENDROOT
BRANCH   1   7
HETATM    7  C2  UNL     1      -1.124   0.098   0.321  1.00  0.00     0.133 C 
HETATM    8  C1  UNL     1      -1.664   0.809  -0.915  1.00  0.00     0.054 C 
BRANCH   7   9
HETATM    9  O1  UNL     1      -1.517   0.827   1.417  1.00  0.00    -0.382 OA
ATOM     10  H1  UNL     1      -1.181   0.384   2.187  1.00  0.00     0.210 HD
ENDBRANCH   7   9
BRANCH   7  11
HETATM   11  C3  UNL     1      -1.791  -1.256   0.386  1.00  0.00     0.207 C 
BRANCH  11  12
HETATM   12  O2  UNL     1      -3.169  -1.167   0.382  1.00  0.00    -0.398 OA
ATOM     13  H2  UNL     1      -3.588  -2.018   0.423  1.00  0.00     0.209 HD
ENDBRANCH  11  12
ENDBRANCH   7  11
ENDBRANCH   1   7
BRANCH   1  14
HETATM   14  O3  UNL     1       0.862  -0.601   1.388  1.00  0.00    -0.361 OA
ATOM     15  H3  UNL     1       1.809  -0.654   1.340  1.00  0.00     0.213 HD
ENDBRANCH   1  14
TORSDOF 5
