REMARK  6 active torsions:
REMARK  status: ('A' for Active; 'I' for Inactive)
REMARK    1  A    between atoms: C2_2  and  O1_3 
REMARK    2  A    between atoms: C2_2  and  C3_5 
REMARK    3  A    between atoms: C3_5  and  O2_6 
REMARK    4  A    between atoms: C3_5  and  O3_8 
REMARK    5  A    between atoms: O3_8  and  C4_9 
REMARK    6  A    between atoms: C7_13  and  O5_14 
ROOT
HETATM    1  O3  UNL     1      -0.262   0.401   0.125  1.00  0.00    -0.327 OA
ENDROOT
BRANCH   1   2
HETATM    2  C3  UNL     1      -1.151  -0.480   0.698  1.00  0.00     0.288 C 
BRANCH   2   3
HETATM    3  C2  UNL     1      -2.421  -0.649  -0.091  1.00  0.00     0.169 C 
HETATM    4  C1  UNL     1      -3.096   0.634  -0.416  1.00  0.00     0.044 C 
BRANCH   3   5
HETATM    5  O1  UNL     1      -3.270  -1.504   0.603  1.00  0.00    -0.391 OA
ATOM      6  H1  UNL     1      -2.838  -2.324   0.811  1.00  0.00     0.210 HD
ENDBRANCH   3   5
ENDBRANCH   2   3
BRANCH   2   7
HETATM    7  O2  UNL     1      -1.489   0.069   1.958  1.00  0.00    -0.369 OA
ATOM      8  H2  UNL     1      -0.687   0.176   2.456  1.00  0.00     0.212 HD
ENDBRANCH   2   7
ENDBRANCH   1   2
BRANCH   1   9
HETATM    9  C4  UNL     1       0.949  -0.243  -0.062  1.00  0.00     0.291 C 
HETATM   10  O4  UNL     1       1.202  -0.281  -1.421  1.00  0.00    -0.358 OA
HETATM   11  C5  UNL     1       2.545  -0.155  -1.625  1.00  0.00     0.173 C 
HETATM   12  C6  UNL     1       3.212   0.301  -0.376  1.00  0.00     0.063 C 
HETATM   13  C7  UNL     1       2.099   0.447   0.603  1.00  0.00     0.175 C 
BRANCH  13  14
HETATM   14  O5  UNL     1       1.838   1.778   0.899  1.00  0.00    -0.391 OA
ATOM     15  H5  UNL     1       2.568   2.216   1.321  1.00  0.00     0.210 HD
ENDBRANCH  13  14
ENDBRANCH   1   9
TORSDOF 6
