REMARK  6 active torsions:
REMARK  status: ('A' for Active; 'I' for Inactive)
REMARK    1  A    between atoms: C2_2  and  O1_3 
REMARK    2  A    between atoms: C2_2  and  C3_5 
REMARK    3  A    between atoms: C3_5  and  C4_6 
REMARK    4  A    between atoms: C4_6  and  O2_7 
REMARK    5  A    between atoms: C6_11  and  C7_12 
REMARK    6  A    between atoms: C7_12  and  O4_13 
ROOT
HETATM    1  C3  UNL     1      -0.524  -0.350  -0.197  1.00  0.00     0.132 C 
HETATM    2  C5  UNL     1       0.199  -0.679  -1.488  1.00  0.00     0.214 C 
HETATM    3  O3  UNL     1       1.473  -0.145  -1.220  1.00  0.00    -0.356 OA
HETATM    4  C6  UNL     1       1.657  -0.634   0.093  1.00  0.00     0.284 C 
HETATM    5  O5  UNL     1       0.515  -0.201   0.720  1.00  0.00    -0.341 OA
ENDROOT
BRANCH   1   6
HETATM    6  C2  UNL     1      -1.285   0.916  -0.418  1.00  0.00     0.153 C 
HETATM    7  C1  UNL     1      -1.964   1.459   0.784  1.00  0.00     0.042 C 
BRANCH   6   8
HETATM    8  O1  UNL     1      -0.364   1.866  -0.909  1.00  0.00    -0.393 OA
ATOM      9  H1  UNL     1       0.071   1.518  -1.679  1.00  0.00     0.210 HD
ENDBRANCH   6   8
ENDBRANCH   1   6
BRANCH   1  10
HETATM   10  C4  UNL     1      -1.415  -1.520   0.160  1.00  0.00     0.207 C 
BRANCH  10  11
HETATM   11  O2  UNL     1      -1.980  -1.331   1.426  1.00  0.00    -0.398 OA
ATOM     12  H2  UNL     1      -2.539  -2.065   1.650  1.00  0.00     0.209 HD
ENDBRANCH  10  11
ENDBRANCH   1  10
BRANCH   4  13
HETATM   13  C7  UNL     1       2.924  -0.047   0.642  1.00  0.00     0.224 C 
BRANCH  13  14
HETATM   14  O4  UNL     1       2.887   1.332   0.686  1.00  0.00    -0.396 OA
ATOM     15  H4  UNL     1       3.689   1.704   1.034  1.00  0.00     0.209 HD
ENDBRANCH  13  14
ENDBRANCH   4  13
TORSDOF 6
