REMARK  6 active torsions:
REMARK  status: ('A' for Active; 'I' for Inactive)
REMARK    1  A    between atoms: C2_2  and  C3_3 
REMARK    2  A    between atoms: C3_3  and  O1_4 
REMARK    3  A    between atoms: C5_8  and  C6_9 
REMARK    4  A    between atoms: C6_9  and  O3_10 
REMARK    5  A    between atoms: C6_9  and  C7_12 
REMARK    6  A    between atoms: C7_12  and  O4_13 
ROOT
HETATM    1  C1  UNL     1      -1.606  -1.925  -0.140  1.00  0.00     0.051 C 
HETATM    2  C2  UNL     1      -1.271  -0.455   0.066  1.00  0.00     0.103 C 
HETATM    3  C4  UNL     1      -0.944  -0.262   1.508  1.00  0.00     0.211 C 
HETATM    4  O2  UNL     1       0.451  -0.026   1.452  1.00  0.00    -0.355 OA
HETATM    5  C5  UNL     1       0.535   0.724   0.298  1.00  0.00     0.291 C 
HETATM    6  O5  UNL     1      -0.134  -0.076  -0.623  1.00  0.00    -0.344 OA
ENDROOT
BRANCH   5   7
HETATM    7  C6  UNL     1       1.940   1.050  -0.112  1.00  0.00     0.196 C 
BRANCH   7   8
HETATM    8  O3  UNL     1       2.551   1.767   0.885  1.00  0.00    -0.389 OA
ATOM      9  H3  UNL     1       3.441   1.974   0.625  1.00  0.00     0.210 HD
ENDBRANCH   7   8
BRANCH   7  10
HETATM   10  C7  UNL     1       2.752  -0.164  -0.463  1.00  0.00     0.200 C 
BRANCH  10  11
HETATM   11  O4  UNL     1       2.197  -0.931  -1.457  1.00  0.00    -0.398 OA
ATOM     12  H4  UNL     1       2.711  -1.699  -1.679  1.00  0.00     0.209 HD
ENDBRANCH  10  11
ENDBRANCH   7  10
ENDBRANCH   5   7
BRANCH   2  13
HETATM   13  C3  UNL     1      -2.464   0.332  -0.400  1.00  0.00     0.204 C 
BRANCH  13  14
HETATM   14  O1  UNL     1      -2.345   1.688  -0.230  1.00  0.00    -0.398 OA
ATOM     15  H1  UNL     1      -3.099   2.185  -0.524  1.00  0.00     0.209 HD
ENDBRANCH  13  14
ENDBRANCH   2  13
TORSDOF 6
