REMARK  15 active torsions:
REMARK  status: ('A' for Active; 'I' for Inactive)
REMARK    1  A    between atoms: C2_2  and  C3_3 
REMARK    2  A    between atoms: C2_2  and  N8_31 
REMARK    3  A    between atoms: C3_3  and  C4_4 
REMARK    4  A    between atoms: C4_4  and  N1_5 
REMARK       I    between atoms: N1_5  and  C5_7 
REMARK    5  A    between atoms: C5_7  and  C6_9 
REMARK    6  A    between atoms: C6_9  and  O2_10 
REMARK    7  A    between atoms: C6_9  and  C7_12 
REMARK    8  A    between atoms: C7_12  and  N2_13 
REMARK    9  A    between atoms: C10_18  and  N4_19 
REMARK   10  A    between atoms: N8_31  and  C16_33 
REMARK   11  A    between atoms: C16_33  and  C17_34 
REMARK   12  A    between atoms: C17_34  and  C18_35 
REMARK   13  A    between atoms: C18_35  and  P1_36 
REMARK   14  A    between atoms: P1_36  and  O4_37 
REMARK   15  A    between atoms: P1_36  and  O5_39 
ROOT
HETATM    1  C6  UNL     1      -1.974   0.937   0.115  1.00  0.00     0.228 C 
ENDROOT
BRANCH   1   2
HETATM    2  C5  UNL     1      -1.134   0.334   1.165  1.00  0.00     0.248 C 
HETATM    3  N1  UNL     1       0.236   0.653   1.250  1.00  0.00    -0.359 N 
ATOM      4  H1  UNL     1       0.653   1.306   0.587  1.00  0.00     0.162 HD
HETATM    5  O1  UNL     1      -1.645  -0.462   1.979  1.00  0.00    -0.271 OA
BRANCH   3   6
HETATM    6  C4  UNL     1       1.046   0.048   2.284  1.00  0.00     0.124 C 
BRANCH   6   7
HETATM    7  C3  UNL     1       2.476   0.508   2.211  1.00  0.00     0.044 C 
BRANCH   7   8
HETATM    8  C2  UNL     1       3.147   0.175   0.879  1.00  0.00     0.078 C 
HETATM    9  C1  UNL     1       3.182  -1.280   0.592  1.00  0.00     0.032 C 
BRANCH   8  10
HETATM   10  N8  UNL     1       4.412   0.797   0.848  1.00  0.00    -0.398 N 
ATOM     11  H8  UNL     1       4.782   1.202   1.708  1.00  0.00     0.159 HD
BRANCH  10  12
HETATM   12  C16 UNL     1       5.174   0.878  -0.315  1.00  0.00     0.056 C 
BRANCH  12  13
HETATM   13  C17 UNL     1       5.847  -0.312  -0.879  1.00  0.00     0.053 C 
BRANCH  13  14
HETATM   14  C18 UNL     1       6.892  -0.939   0.041  1.00  0.00     0.098 C 
BRANCH  14  15
HETATM   15  P1  UNL     1       7.568  -2.410  -0.910  1.00  0.00     0.163 P 
BRANCH  15  16
HETATM   16  O4  UNL     1       6.335  -2.959  -2.012  1.00  0.00    -0.350 OA
ATOM     17  H4  UNL     1       6.677  -3.703  -2.493  1.00  0.00     0.217 HD
ENDBRANCH  15  16
BRANCH  15  18
HETATM   18  O5  UNL     1       8.941  -1.956  -1.844  1.00  0.00    -0.350 OA
ATOM     19  H5  UNL     1       9.283  -2.700  -2.325  1.00  0.00     0.217 HD
ENDBRANCH  15  18
ENDBRANCH  14  15
ENDBRANCH  13  14
ENDBRANCH  12  13
ENDBRANCH  10  12
ENDBRANCH   8  10
ENDBRANCH   7   8
ENDBRANCH   6   7
ENDBRANCH   3   6
ENDBRANCH   1   2
BRANCH   1  20
HETATM   20  O2  UNL     1      -1.144   1.761  -0.678  1.00  0.00    -0.384 OA
ATOM     21  H2  UNL     1      -1.686   2.150  -1.355  1.00  0.00     0.210 HD
ENDBRANCH   1  20
BRANCH   1  22
HETATM   22  C7  UNL     1      -3.004   1.876   0.710  1.00  0.00     0.172 C 
BRANCH  22  23
HETATM   23  N2  UNL     1      -3.794   2.422  -0.382  1.00  0.00    -0.325 N 
HETATM   24  C8  UNL     1      -3.557   3.528  -1.104  1.00  0.00     0.184 A 
HETATM   25  N3  UNL     1      -4.516   3.702  -2.035  1.00  0.00    -0.358 N 
HETATM   26  C9  UNL     1      -5.385   2.707  -1.923  1.00  0.00     0.138 A 
ATOM     27  H3  UNL     1      -4.565   4.466  -2.709  1.00  0.00     0.166 HD
HETATM   28  C10 UNL     1      -4.939   1.906  -0.894  1.00  0.00     0.135 A 
BRANCH  28  29
HETATM   29  N4  UNL     1      -5.574   0.716  -0.423  1.00  0.00    -0.242 N 
HETATM   30  C11 UNL     1      -6.121   0.745   0.825  1.00  0.00     0.212 A 
HETATM   31  N5  UNL     1      -6.732  -0.359   1.307  1.00  0.00    -0.186 N 
HETATM   32  C12 UNL     1      -6.818  -1.492   0.589  1.00  0.00     0.693 A 
ATOM     33  H5  UNL     1      -7.139  -0.332   2.242  1.00  0.00     0.185 HD
HETATM   34  N6  UNL     1      -7.355  -2.711   0.813  1.00  0.00    -0.200 N 
HETATM   35  N7  UNL     1      -6.275  -1.534  -0.660  1.00  0.00    -0.105 N 
HETATM   36  C13 UNL     1      -7.169  -3.517  -0.252  1.00  0.00     0.124 A 
ATOM     37  H6  UNL     1      -7.835  -2.984   1.670  1.00  0.00     0.183 HD
HETATM   38  C14 UNL     1      -6.487  -2.757  -1.168  1.00  0.00     0.137 A 
HETATM   39  C15 UNL     1      -5.667  -0.415  -1.123  1.00  0.00     0.354 A 
HETATM   40  O3  UNL     1      -5.156  -0.440  -2.290  1.00  0.00    -0.245 OA
ENDBRANCH  28  29
ENDBRANCH  22  23
ENDBRANCH   1  22
TORSDOF 15
