REMARK  3 active torsions:
REMARK  status: ('A' for Active; 'I' for Inactive)
REMARK    1  A    between atoms: C3_4  and  C4_5 
REMARK    2  A    between atoms: C4_5  and  N2_6 
REMARK       I    between atoms: N2_6  and  C5_8 
REMARK       I    between atoms: C5_8  and  N3_10 
REMARK    3  A    between atoms: N3_10  and  C6_12 
ROOT
HETATM    1  N2  UNL     1       0.886  -2.395  -0.291  1.00  0.00    -0.339 N 
ATOM      2  H2  UNL     1       0.779  -3.155  -0.962  1.00  0.00     0.164 HD
HETATM    3  C5  UNL     1      -0.283  -1.617   0.057  1.00  0.00     0.320 C 
HETATM    4  O1  UNL     1      -0.094  -0.703   0.889  1.00  0.00    -0.247 OA
HETATM    5  N3  UNL     1      -1.493  -1.924  -0.534  1.00  0.00    -0.309 N 
ATOM      6  H3  UNL     1      -1.501  -2.702  -1.193  1.00  0.00     0.170 HD
ENDROOT
BRANCH   1   7
HETATM    7  C4  UNL     1       2.178  -2.154   0.255  1.00  0.00     0.165 C 
BRANCH   7   8
HETATM    8  C3  UNL     1       2.763  -0.843  -0.104  1.00  0.00    -0.012 A 
HETATM    9  C2  UNL     1       2.265   0.145  -0.914  1.00  0.00     0.100 A 
HETATM   10  N1  UNL     1       3.177   1.133  -0.940  1.00  0.00    -0.360 N 
HETATM   11  C1  UNL     1       3.016   2.362  -1.692  1.00  0.00     0.155 C 
HETATM   12  C21 UNL     1       4.244   0.853  -0.198  1.00  0.00     0.044 A 
HETATM   13  C16 UNL     1       4.010  -0.391   0.343  1.00  0.00    -0.000 A 
HETATM   14  C20 UNL     1       5.435   1.503   0.111  1.00  0.00     0.030 A 
HETATM   15  C17 UNL     1       4.970  -0.950   1.175  1.00  0.00     0.014 A 
HETATM   16  C18 UNL     1       6.145  -0.294   1.473  1.00  0.00     0.001 A 
HETATM   17  C19 UNL     1       6.386   0.949   0.936  1.00  0.00     0.002 A 
ENDBRANCH   7   8
ENDBRANCH   1   7
BRANCH   5  18
HETATM   18  C6  UNL     1      -2.715  -1.265  -0.313  1.00  0.00     0.037 A 
HETATM   19  C7  UNL     1      -3.895  -1.839  -0.833  1.00  0.00     0.030 A 
HETATM   20  C8  UNL     1      -5.120  -1.253  -0.671  1.00  0.00     0.014 A 
HETATM   21  C9  UNL     1      -5.285  -0.071   0.006  1.00  0.00    -0.026 A 
HETATM   22  C10 UNL     1      -6.497   0.540   0.186  1.00  0.00     0.012 A 
HETATM   23  C14 UNL     1      -4.153   0.509   0.523  1.00  0.00    -0.024 A 
HETATM   24  C11 UNL     1      -6.604   1.732   0.878  1.00  0.00     0.001 A 
HETATM   25  C12 UNL     1      -5.487   2.337   1.407  1.00  0.00     0.001 A 
HETATM   26  C13 UNL     1      -4.279   1.708   1.216  1.00  0.00     0.012 A 
HETATM   27  C15 UNL     1      -2.894  -0.083   0.362  1.00  0.00     0.042 A 
ENDBRANCH   5  18
TORSDOF 3
