REMARK  4 active torsions:
REMARK  status: ('A' for Active; 'I' for Inactive)
REMARK    1  A    between atoms: C9_12  and  N3_13 
REMARK    2  A    between atoms: N3_13  and  C10_15 
REMARK    3  A    between atoms: C15_20  and  O1_21 
REMARK    4  A    between atoms: O1_21  and  C16_22 
ROOT
HETATM    1  N3  UNL     1      -0.824   0.578  -0.250  1.00  0.00    -0.361 N 
ATOM      2  H3  UNL     1      -0.357   1.409   0.112  1.00  0.00     0.162 HD
ENDROOT
BRANCH   1   3
HETATM    3  C9  UNL     1      -2.202   0.742  -0.485  1.00  0.00     0.241 A 
HETATM    4  C3  UNL     1      -2.696   0.525  -1.850  1.00  0.00     0.050 A 
HETATM    5  C2  UNL     1      -2.184   0.908  -2.992  1.00  0.00    -0.002 C 
HETATM    6  N1  UNL     1      -3.915  -0.222  -1.715  1.00  0.00    -0.343 N 
HETATM    7  C1  UNL     1      -0.928   1.672  -3.029  1.00  0.00     0.038 C 
HETATM    8  C4  UNL     1      -4.106  -0.500  -0.331  1.00  0.00     0.110 A 
ATOM      9  H1  UNL     1      -4.534  -0.504  -2.475  1.00  0.00     0.167 HD
HETATM   10  C5  UNL     1      -4.964  -1.154   0.521  1.00  0.00     0.051 A 
HETATM   11  N2  UNL     1      -3.104   0.020   0.390  1.00  0.00    -0.310 N 
HETATM   12  C6  UNL     1      -4.447  -1.016   1.792  1.00  0.00     0.028 A 
HETATM   13  C7  UNL     1      -3.304  -0.289   1.675  1.00  0.00     0.012 A 
HETATM   14  C8  UNL     1      -2.449   0.070   2.864  1.00  0.00     0.068 C 
ENDBRANCH   1   3
BRANCH   1  15
HETATM   15  C10 UNL     1       0.018  -0.529  -0.427  1.00  0.00     0.064 A 
HETATM   16  C11 UNL     1      -0.453  -1.720  -0.926  1.00  0.00     0.032 A 
HETATM   17  C12 UNL     1       0.448  -2.763  -1.072  1.00  0.00     0.002 A 
HETATM   18  C13 UNL     1       1.781  -2.688  -0.753  1.00  0.00     0.003 A 
HETATM   19  C14 UNL     1       2.224  -1.483  -0.256  1.00  0.00     0.039 A 
HETATM   20  C15 UNL     1       1.368  -0.423  -0.094  1.00  0.00     0.102 A 
BRANCH  20  21
HETATM   21  O1  UNL     1       1.898   0.755   0.413  1.00  0.00    -0.309 OA
BRANCH  21  22
HETATM   22  C16 UNL     1       3.231   0.895   0.754  1.00  0.00     0.076 A 
HETATM   23  C17 UNL     1       3.639   0.592   2.042  1.00  0.00     0.037 A 
HETATM   24  C18 UNL     1       4.966   0.717   2.432  1.00  0.00     0.003 A 
HETATM   25  C19 UNL     1       5.916   1.151   1.528  1.00  0.00     0.000 A 
HETATM   26  C20 UNL     1       5.541   1.455   0.255  1.00  0.00     0.003 A 
HETATM   27  C21 UNL     1       4.205   1.326  -0.123  1.00  0.00     0.037 A 
ENDBRANCH  21  22
ENDBRANCH  20  21
ENDBRANCH   1  15
TORSDOF 4
