REMARK  2 active torsions:
REMARK  status: ('A' for Active; 'I' for Inactive)
REMARK    1  A    between atoms: C1_2  and  C2_4 
REMARK    2  A    between atoms: C3_10  and  C4_11 
ROOT
HETATM    1  C2  UNL     1       1.636   0.813   0.389  1.00  0.00     0.133 A 
HETATM    2  N2  UNL     1       2.370   1.911   0.464  1.00  0.00    -0.288 N 
ATOM      3  H2  UNL     1       3.347   1.851   0.750  1.00  0.00     0.188 HD
HETATM    4  N3  UNL     1       1.857   3.051   0.179  1.00  0.00    -0.269 N 
ATOM      5  H3  UNL     1       2.310   3.965   0.197  1.00  0.00     0.195 HD
HETATM    6  S1  UNL     1       0.274   2.696  -0.230  1.00  0.00     0.005 SA
HETATM    7  C3  UNL     1       0.354   0.969  -0.003  1.00  0.00     0.072 A 
ENDROOT
BRANCH   7   8
HETATM    8  C4  UNL     1      -0.797   0.036  -0.165  1.00  0.00     0.064 A 
HETATM    9  C5  UNL     1      -2.000   0.419   0.415  1.00  0.00     0.050 A 
HETATM   10 CL1  UNL     1      -1.959   1.905   1.383  1.00  0.00    -0.083 Cl
HETATM   11  C6  UNL     1      -3.202  -0.193   0.341  1.00  0.00     0.032 A 
HETATM   12  C7  UNL     1      -3.471  -1.359  -0.352  1.00  0.00     0.055 A 
HETATM   13  S2  UNL     1      -2.118  -2.010  -1.151  1.00  0.00    -0.059 SA
HETATM   14  C8  UNL     1      -0.687  -1.090  -0.939  1.00  0.00     0.226 A 
HETATM   15  O2  UNL     1       0.403  -1.438  -1.483  1.00  0.00    -0.279 OA
ENDBRANCH   7   8
BRANCH   1  16
HETATM   16  C1  UNL     1       2.254  -0.481   0.821  1.00  0.00     0.284 C 
HETATM   17  N1  UNL     1       3.663  -0.677   0.741  1.00  0.00    -0.056 NA
HETATM   18  O1  UNL     1       1.606  -1.444   1.265  1.00  0.00    -0.269 OA
ENDBRANCH   1  16
TORSDOF 2
