REMARK  7 active torsions:
REMARK  status: ('A' for Active; 'I' for Inactive)
REMARK    1  A    between atoms: C12_12  and  O1_13 
REMARK    2  A    between atoms: O1_13  and  C13_14 
REMARK    3  A    between atoms: C13_14  and  C14_15 
REMARK    4  A    between atoms: C14_15  and  O2_16 
REMARK    5  A    between atoms: N1_18  and  C15_20 
REMARK    6  A    between atoms: C16_23  and  C17_24 
REMARK    7  A    between atoms: C17_24  and  N3_25 
ROOT
HETATM    1  C13 UNL     1       0.598  -2.097  -0.215  1.00  0.00     0.259 C 
ENDROOT
BRANCH   1   2
HETATM    2  O1  UNL     1      -0.765  -2.218   0.176  1.00  0.00    -0.342 OA
BRANCH   2   3
HETATM    3  C12 UNL     1      -1.815  -1.491  -0.295  1.00  0.00     0.091 A 
HETATM    4  C11 UNL     1      -1.719  -0.484  -1.229  1.00  0.00     0.039 A 
HETATM    5  C10 UNL     1      -2.870   0.179  -1.619  1.00  0.00     0.011 A 
HETATM    6  C9  UNL     1      -4.104  -0.121  -1.117  1.00  0.00    -0.045 A 
HETATM    7  C8  UNL     1      -5.355   0.614  -1.538  1.00  0.00     0.078 C 
HETATM    8  C24 UNL     1      -4.178  -1.134  -0.182  1.00  0.00    -0.023 A 
HETATM    9  C6  UNL     1      -6.218   0.743  -0.326  1.00  0.00    -0.047 A 
HETATM   10  C5  UNL     1      -6.288  -0.269   0.605  1.00  0.00    -0.047 A 
HETATM   11  C7  UNL     1      -6.937   1.895  -0.149  1.00  0.00     0.014 A 
HETATM   12  C4  UNL     1      -7.081  -0.141   1.733  1.00  0.00     0.008 A 
HETATM   13  C25 UNL     1      -5.514  -1.495   0.378  1.00  0.00     0.080 C 
HETATM   14  C3  UNL     1      -7.798   1.036   1.887  1.00  0.00     0.007 A 
HETATM   15  C2  UNL     1      -7.743   2.052   0.976  1.00  0.00    -0.061 A 
HETATM   16  C1  UNL     1      -8.520   3.297   1.168  1.00  0.00     0.048 C 
HETATM   17  C23 UNL     1      -3.071  -1.808   0.226  1.00  0.00     0.074 A 
HETATM   18 CL1  UNL     1      -3.250  -3.079   1.416  1.00  0.00    -0.081 Cl
ENDBRANCH   2   3
ENDBRANCH   1   2
BRANCH   1  19
HETATM   19  C14 UNL     1       0.833  -2.448  -1.609  1.00  0.00     0.142 C 
HETATM   20  N1  UNL     1       1.990  -2.360  -2.329  1.00  0.00    -0.319 N 
ATOM     21  H1  UNL     1       1.934  -2.641  -3.308  1.00  0.00     0.169 HD
BRANCH  19  22
HETATM   22  O2  UNL     1      -0.206  -2.905  -2.245  1.00  0.00    -0.348 OA
ATOM     23  H2  UNL     1      -0.053  -3.134  -3.154  1.00  0.00     0.219 HD
ENDBRANCH  19  22
BRANCH  20  24
HETATM   24  C15 UNL     1       3.265  -1.922  -1.872  1.00  0.00     0.150 A 
HETATM   25  N2  UNL     1       3.743  -1.515  -0.717  1.00  0.00    -0.338 N 
HETATM   26  C16 UNL     1       5.003  -1.157  -0.612  1.00  0.00     0.046 A 
ATOM     27  H2  UNL     1       3.134  -1.477   0.100  1.00  0.00     0.168 HD
HETATM   28  C22 UNL     1       5.780  -1.224  -1.731  1.00  0.00     0.080 A 
HETATM   29  S1  UNL     1       4.690  -1.795  -2.895  1.00  0.00    -0.064 SA
BRANCH  26  30
HETATM   30  C17 UNL     1       5.586  -0.682   0.718  1.00  0.00     0.330 C 
BRANCH  30  31
HETATM   31  N3  UNL     1       6.828  -0.021   0.487  1.00  0.00     0.098 N 
HETATM   32  C18 UNL     1       7.325   0.393   1.801  1.00  0.00     0.299 C 
HETATM   33  C19 UNL     1       8.508   1.290   1.607  1.00  0.00     0.198 C 
HETATM   34  O3  UNL     1       8.058   2.519   1.133  1.00  0.00    -0.388 OA
HETATM   35  C20 UNL     1       6.799   2.443   0.573  1.00  0.00     0.198 C 
HETATM   36  C21 UNL     1       6.594   1.199  -0.266  1.00  0.00     0.299 C 
ENDBRANCH  30  31
ENDBRANCH  26  30
ENDBRANCH  20  24
ENDBRANCH   1  19
TORSDOF 7
