REMARK  10 active torsions:
REMARK  status: ('A' for Active; 'I' for Inactive)
REMARK    1  A    between atoms: C2_2  and  C3_3 
REMARK    2  A    between atoms: C3_3  and  N1_6 
REMARK    3  A    between atoms: N1_6  and  N2_8 
REMARK       I    between atoms: N2_8  and  C6_10 
REMARK    4  A    between atoms: C6_10  and  C7_12 
REMARK    5  A    between atoms: C7_12  and  C8_13 
REMARK    6  A    between atoms: C8_13  and  N3_14 
REMARK       I    between atoms: N3_14  and  C9_16 
REMARK       I    between atoms: C9_16  and  N4_18 
REMARK    7  A    between atoms: N4_18  and  C10_20 
REMARK    8  A    between atoms: C15_31  and  C16_32 
REMARK    9  A    between atoms: C16_32  and  C17_33 
REMARK   10  A    between atoms: C17_33  and  C18_34 
ROOT
HETATM    1  C10 UNL     1      -2.532  -0.234  -0.616  1.00  0.00     0.111 A 
HETATM    2  C11 UNL     1      -2.971   0.928  -0.234  1.00  0.00     0.061 A 
HETATM    3  N5  UNL     1      -1.993   1.988  -0.038  1.00  0.00    -0.309 N 
ATOM      4  H5  UNL     1      -1.061   1.773   0.317  1.00  0.00     0.170 HD
HETATM    5  C12 UNL     1      -2.354   3.320  -0.347  1.00  0.00     0.327 C 
HETATM    6  O3  UNL     1      -1.490   4.239  -0.184  1.00  0.00    -0.247 OA
HETATM    7  N6  UNL     1      -3.664   3.583  -0.828  1.00  0.00    -0.278 N 
ATOM      8  H6  UNL     1      -3.941   4.537  -1.061  1.00  0.00     0.173 HD
HETATM    9  C13 UNL     1      -4.603   2.497  -0.986  1.00  0.00     0.239 C 
HETATM   10  O4  UNL     1      -5.494   2.491  -1.811  1.00  0.00    -0.272 OA
HETATM   11  C14 UNL     1      -4.379   1.355  -0.028  1.00  0.00     0.159 A 
HETATM   12  C15 UNL     1      -5.344   0.271  -0.188  1.00  0.00    -0.057 A 
HETATM   13  C19 UNL     1      -4.973  -0.921  -0.544  1.00  0.00     0.061 A 
HETATM   14  C20 UNL     1      -3.614  -1.278  -0.790  1.00  0.00     0.200 A 
HETATM   15  O6  UNL     1      -3.307  -2.431  -1.145  1.00  0.00    -0.286 OA
ENDROOT
BRANCH   1  16
HETATM   16  N4  UNL     1      -1.239  -0.652  -0.898  1.00  0.00    -0.304 N 
HETATM   17  C9  UNL     1       0.067  -0.201  -0.973  1.00  0.00     0.320 C 
HETATM   18  N3  UNL     1       1.090  -1.212  -1.283  1.00  0.00    -0.342 N 
HETATM   19  O2  UNL     1       0.581   0.914  -0.829  1.00  0.00    -0.247 OA
ATOM     20  H3  UNL     1       0.797  -2.176  -1.442  1.00  0.00     0.164 HD
ATOM     21  H4  UNL     1      -1.258  -1.644  -1.134  1.00  0.00     0.171 HD
BRANCH  18  22
HETATM   22  C8  UNL     1       2.462  -0.896  -1.368  1.00  0.00     0.134 C 
BRANCH  22  23
HETATM   23  C7  UNL     1       3.112  -0.372  -0.123  1.00  0.00     0.124 C 
BRANCH  23  24
HETATM   24  C6  UNL     1       4.556  -0.099  -0.317  1.00  0.00     0.237 C 
HETATM   25  N2  UNL     1       5.316   0.406   0.750  1.00  0.00    -0.270 N 
ATOM     26  H2  UNL     1       4.842   0.577   1.637  1.00  0.00     0.190 HD
HETATM   27  O1  UNL     1       5.088  -0.321  -1.424  1.00  0.00    -0.272 OA
BRANCH  25  28
HETATM   28  N1  UNL     1       6.678   0.688   0.670  1.00  0.00    -0.299 N 
ATOM     29  H1  UNL     1       7.011   1.629   0.882  1.00  0.00     0.187 HD
BRANCH  28  30
HETATM   30  C3  UNL     1       7.606  -0.317   0.298  1.00  0.00     0.043 C 
HETATM   31  C4  UNL     1       8.413  -0.084  -0.710  1.00  0.00    -0.000 C 
HETATM   32  C5  UNL     1       8.366   1.192  -1.431  1.00  0.00     0.038 C 
BRANCH  30  33
HETATM   33  C2  UNL     1       7.677  -1.579   0.988  1.00  0.00     0.020 C 
HETATM   34  C1  UNL     1       6.922  -1.898   2.005  1.00  0.00     0.013 C 
ENDBRANCH  30  33
ENDBRANCH  28  30
ENDBRANCH  25  28
ENDBRANCH  23  24
ENDBRANCH  22  23
ENDBRANCH  18  22
ENDBRANCH   1  16
BRANCH  12  35
HETATM   35  C16 UNL     1      -6.755   0.585   0.167  1.00  0.00     0.044 C 
BRANCH  35  36
HETATM   36  C17 UNL     1      -7.704  -0.549   0.177  1.00  0.00     0.104 C 
BRANCH  36  37
HETATM   37  C18 UNL     1      -7.381  -1.542   1.221  1.00  0.00     0.231 C 
HETATM   38  N7  UNL     1      -7.992  -2.797   1.340  1.00  0.00    -0.062 NA
HETATM   39  O5  UNL     1      -6.485  -1.228   2.067  1.00  0.00    -0.277 OA
ENDBRANCH  36  37
ENDBRANCH  35  36
ENDBRANCH  12  35
TORSDOF 10
