REMARK  3 active torsions:
REMARK  status: ('A' for Active; 'I' for Inactive)
REMARK    1  A    between atoms: O1_2  and  C2_3 
REMARK    2  A    between atoms: C7_8  and  O2_9 
REMARK    3  A    between atoms: C11_15  and  C12_16 
ROOT
HETATM    1  C2  UNL     1       2.481  -0.160   0.166  1.00  0.00     0.104 A 
HETATM    2  C3  UNL     1       1.361  -0.992   0.214  1.00  0.00     0.052 A 
HETATM    3  C4  UNL     1       0.078  -0.462   0.223  1.00  0.00    -0.014 A 
HETATM    4  C5  UNL     1       0.005   0.904   0.184  1.00  0.00    -0.006 A 
HETATM    5  C6  UNL     1       1.051   1.773   0.135  1.00  0.00     0.112 A 
HETATM    6  C7  UNL     1       2.307   1.211   0.128  1.00  0.00     0.133 A 
HETATM    7  O3  UNL     1       0.752   3.117   0.098  1.00  0.00    -0.348 OA
HETATM    8  C8  UNL     1      -0.459   3.564  -0.427  1.00  0.00     0.176 C 
HETATM    9  C9  UNL     1      -1.574   2.598  -0.543  1.00  0.00     0.037 C 
HETATM   10  C10 UNL     1      -1.410   1.312   0.209  1.00  0.00     0.039 C 
HETATM   11  C11 UNL     1      -2.105   0.117  -0.353  1.00  0.00     0.092 C 
HETATM   12  C13 UNL     1      -1.289  -1.006   0.249  1.00  0.00     0.003 C 
HETATM   13  C14 UNL     1      -1.619  -2.166   0.695  1.00  0.00     0.136 C 
HETATM   14  N1  UNL     1      -2.999  -2.552   0.652  1.00  0.00    -0.086 NA
HETATM   15  N2  UNL     1      -0.708  -3.093   1.231  1.00  0.00    -0.086 NA
ENDROOT
BRANCH  11  16
HETATM   16  C12 UNL     1      -1.925   0.013  -1.819  1.00  0.00     0.241 C 
HETATM   17  O4  UNL     1      -0.901  -0.418  -2.300  1.00  0.00    -0.306 OA
ENDBRANCH  11  16
BRANCH   1  18
HETATM   18  O1  UNL     1       3.768  -0.724   0.158  1.00  0.00    -0.353 OA
HETATM   19  C1  UNL     1       3.898  -2.120   0.199  1.00  0.00     0.210 C 
ENDBRANCH   1  18
BRANCH   6  20
HETATM   20  O2  UNL     1       3.395   2.059   0.080  1.00  0.00    -0.356 OA
ATOM     21  H2  UNL     1       3.275   3.001   0.054  1.00  0.00     0.218 HD
ENDBRANCH   6  20
TORSDOF 3
