REMARK  5 active torsions:
REMARK  status: ('A' for Active; 'I' for Inactive)
REMARK    1  A    between atoms: N1_1  and  C1_5 
REMARK       I    between atoms: N2_7  and  C3_8 
REMARK    2  A    between atoms: C3_8  and  C4_10 
REMARK    3  A    between atoms: C12_19  and  C13_20 
REMARK    4  A    between atoms: C13_20  and  C14_21 
REMARK    5  A    between atoms: C14_21  and  O3_22 
ROOT
HETATM    1  C1  UNL     1      -1.875  -1.331  -1.064  1.00  0.00     0.205 C 
HETATM    2  C2  UNL     1      -0.525  -1.983  -1.160  1.00  0.00     0.159 C 
HETATM    3  N2  UNL     1       0.361  -1.132  -0.329  1.00  0.00    -0.344 N 
HETATM    4  C3  UNL     1       1.334  -0.385  -0.999  1.00  0.00     0.277 C 
HETATM    5  O1  UNL     1       1.342  -0.535  -2.281  1.00  0.00    -0.265 OA
HETATM    6  C10 UNL     1       0.058  -1.226   1.056  1.00  0.00     0.127 C 
HETATM    7  C11 UNL     1      -1.368  -0.852   1.384  1.00  0.00     0.027 C 
HETATM    8  C12 UNL     1      -2.355  -1.129   0.344  1.00  0.00     0.021 C 
ENDROOT
BRANCH   4   9
HETATM    9  C4  UNL     1       2.313   0.516  -0.446  1.00  0.00     0.142 C 
HETATM   10  C5  UNL     1       3.125   1.099  -1.331  1.00  0.00     0.043 C 
HETATM   11  C6  UNL     1       4.198   2.038  -1.131  1.00  0.00     0.003 C 
HETATM   12  C7  UNL     1       4.787   2.373   0.001  1.00  0.00     0.002 C 
HETATM   13  C8  UNL     1       4.509   1.888   1.332  1.00  0.00     0.025 C 
HETATM   14  C9  UNL     1       3.433   1.168   1.688  1.00  0.00     0.142 C 
HETATM   15  O2  UNL     1       2.374   0.735   0.898  1.00  0.00    -0.317 OA
ENDBRANCH   4   9
BRANCH   1  16
HETATM   16  N1  UNL     1      -2.796  -2.156  -1.750  1.00  0.00    -0.073 N 
ATOM     17  H13 UNL     1      -2.516  -2.351  -2.711  1.00  0.00     0.274 HD
ATOM     18  H12 UNL     1      -2.795  -3.119  -1.413  1.00  0.00     0.274 HD
ATOM     19  H11 UNL     1      -3.713  -1.713  -1.685  1.00  0.00     0.274 HD
ENDBRANCH   1  16
BRANCH   8  20
HETATM   20  C13 UNL     1      -3.484  -0.138   0.368  1.00  0.00     0.033 C 
BRANCH  20  21
HETATM   21  C14 UNL     1      -3.203   1.212  -0.172  1.00  0.00     0.164 C 
BRANCH  21  22
HETATM   22  O3  UNL     1      -2.207   1.936   0.451  1.00  0.00    -0.401 OA
ATOM     23  H3  UNL     1      -2.027   2.802   0.105  1.00  0.00     0.209 HD
ENDBRANCH  21  22
ENDBRANCH  20  21
ENDBRANCH   8  20
TORSDOF 5
