REMARK  10 active torsions:
REMARK  status: ('A' for Active; 'I' for Inactive)
REMARK    1  A    between atoms: C1_2  and  C2_4 
REMARK    2  A    between atoms: C2_4  and  O2_5 
REMARK    3  A    between atoms: O2_5  and  C3_6 
REMARK    4  A    between atoms: C3_6  and  C4_7 
REMARK    5  A    between atoms: C4_7  and  O3_8 
REMARK    6  A    between atoms: O3_8  and  C5_9 
REMARK    7  A    between atoms: C5_9  and  C6_10 
REMARK    8  A    between atoms: C5_9  and  C7_13 
REMARK    9  A    between atoms: C8_15  and  C9_16 
REMARK   10  A    between atoms: C9_16  and  N4_17 
ROOT
HETATM    1  C5  UNL     1       0.691   0.348  -0.412  1.00  0.00     0.257 C 
ENDROOT
BRANCH   1   2
HETATM    2  O3  UNL     1      -0.301  -0.097   0.427  1.00  0.00    -0.369 OA
BRANCH   2   3
HETATM    3  C4  UNL     1      -1.185   0.841   0.881  1.00  0.00     0.195 C 
BRANCH   3   4
HETATM    4  C3  UNL     1      -1.977   1.546  -0.200  1.00  0.00     0.194 C 
BRANCH   4   5
HETATM    5  O2  UNL     1      -2.733   0.693  -0.955  1.00  0.00    -0.380 OA
BRANCH   5   6
HETATM    6  C2  UNL     1      -3.678  -0.053  -0.320  1.00  0.00     0.267 C 
BRANCH   6   7
HETATM    7  C1  UNL     1      -4.761   0.688   0.324  1.00  0.00     0.254 C 
HETATM    8  N1  UNL     1      -5.768  -0.006   1.089  1.00  0.00    -0.060 NA
HETATM    9  O1  UNL     1      -4.890   1.919   0.263  1.00  0.00    -0.275 OA
ENDBRANCH   6   7
ENDBRANCH   5   6
ENDBRANCH   4   5
ENDBRANCH   3   4
ENDBRANCH   2   3
ENDBRANCH   1   2
BRANCH   1  10
HETATM   10  C6  UNL     1       0.723  -0.448  -1.658  1.00  0.00     0.265 C 
HETATM   11  N2  UNL     1      -0.154  -1.559  -1.825  1.00  0.00    -0.059 NA
HETATM   12  O4  UNL     1       1.476  -0.220  -2.598  1.00  0.00    -0.274 OA
ENDBRANCH   1  10
BRANCH   1  13
HETATM   13  C7  UNL     1       1.989   0.113   0.323  1.00  0.00     0.059 C 
HETATM   14  N3  UNL     1       2.214   0.862   1.506  1.00  0.00    -0.104 NA
HETATM   15  C8  UNL     1       2.900  -0.748  -0.065  1.00  0.00     0.025 C 
BRANCH  15  16
HETATM   16  C9  UNL     1       4.144  -0.901   0.732  1.00  0.00     0.258 C 
BRANCH  16  17
HETATM   17  N4  UNL     1       5.312  -0.589  -0.071  1.00  0.00    -0.076 N 
ATOM     18  H43 UNL     1       5.341  -1.144  -0.926  1.00  0.00     0.274 HD
ATOM     19  H42 UNL     1       5.245   0.338  -0.491  1.00  0.00     0.274 HD
ATOM     20  H41 UNL     1       6.166  -0.694   0.476  1.00  0.00     0.274 HD
ENDBRANCH  16  17
ENDBRANCH  15  16
ENDBRANCH   1  13
TORSDOF 10
