REMARK  10 active torsions:
REMARK  status: ('A' for Active; 'I' for Inactive)
REMARK    1  A    between atoms: C2_2  and  C3_3 
REMARK    2  A    between atoms: C2_2  and  O1_8 
REMARK    3  A    between atoms: C2_2  and  C9_19 
REMARK    4  A    between atoms: C3_3  and  N1_4 
REMARK    5  A    between atoms: O1_8  and  C4_9 
REMARK    6  A    between atoms: C4_9  and  C5_10 
REMARK    7  A    between atoms: C5_10  and  O2_11 
REMARK    8  A    between atoms: O2_11  and  C6_12 
REMARK    9  A    between atoms: C6_12  and  C7_13 
REMARK   10  A    between atoms: C7_13  and  N2_14 
REMARK       I    between atoms: N2_14  and  C8_16 
ROOT
HETATM    1  O1  UNL     1      -1.076   0.012   1.096  1.00  0.00    -0.367 OA
ENDROOT
BRANCH   1   2
HETATM    2  C2  UNL     1      -2.191   0.106   0.391  1.00  0.00     0.158 C 
HETATM    3  C1  UNL     1      -2.092   0.712  -0.999  1.00  0.00     0.058 C 
BRANCH   2   4
HETATM    4  C3  UNL     1      -3.121   1.073   1.162  1.00  0.00     0.276 C 
BRANCH   4   5
HETATM    5  N1  UNL     1      -3.410   0.581   2.474  1.00  0.00    -0.076 N 
ATOM      6  H13 UNL     1      -3.794  -0.363   2.443  1.00  0.00     0.274 HD
ATOM      7  H12 UNL     1      -2.556   0.386   2.997  1.00  0.00     0.274 HD
ATOM      8  H11 UNL     1      -4.023   1.218   2.982  1.00  0.00     0.274 HD
ENDBRANCH   4   5
ENDBRANCH   2   4
BRANCH   2   9
HETATM    9  C9  UNL     1      -3.007  -1.129   0.242  1.00  0.00     0.267 C 
HETATM   10  N4  UNL     1      -4.205  -1.025  -0.518  1.00  0.00    -0.059 NA
HETATM   11  O4  UNL     1      -2.734  -2.214   0.713  1.00  0.00    -0.273 OA
ENDBRANCH   2   9
ENDBRANCH   1   2
BRANCH   1  12
HETATM   12  C4  UNL     1       0.014  -0.672   0.784  1.00  0.00     0.195 C 
BRANCH  12  13
HETATM   13  C5  UNL     1       0.753  -0.344  -0.480  1.00  0.00     0.193 C 
BRANCH  13  14
HETATM   14  O2  UNL     1       1.868  -1.247  -0.519  1.00  0.00    -0.387 OA
BRANCH  14  15
HETATM   15  C6  UNL     1       2.621  -1.036  -1.629  1.00  0.00     0.187 C 
BRANCH  15  16
HETATM   16  C7  UNL     1       3.434   0.189  -1.767  1.00  0.00     0.150 C 
BRANCH  16  17
HETATM   17  N2  UNL     1       4.486   0.413  -0.852  1.00  0.00    -0.343 N 
HETATM   18  C8  UNL     1       4.472   0.566   0.520  1.00  0.00     0.328 C 
HETATM   19  N3  UNL     1       5.768   0.785   1.169  1.00  0.00    -0.040 NA
HETATM   20  O3  UNL     1       3.488   0.540   1.266  1.00  0.00    -0.251 OA
ATOM     21  H2  UNL     1       5.412   0.472  -1.276  1.00  0.00     0.163 HD
ENDBRANCH  16  17
ENDBRANCH  15  16
ENDBRANCH  14  15
ENDBRANCH  13  14
ENDBRANCH  12  13
ENDBRANCH   1  12
TORSDOF 10
