REMARK  16 active torsions:
REMARK  status: ('A' for Active; 'I' for Inactive)
REMARK    1  A    between atoms: C2_2  and  O1_3 
REMARK    2  A    between atoms: O1_3  and  P1_4 
REMARK    3  A    between atoms: P1_4  and  O2_5 
REMARK    4  A    between atoms: P1_4  and  O3_8 
REMARK    5  A    between atoms: O2_5  and  C3_6 
REMARK    6  A    between atoms: O3_8  and  C5_9 
REMARK    7  A    between atoms: C5_9  and  C6_10 
REMARK    8  A    between atoms: C6_10  and  N1_11 
REMARK    9  A    between atoms: N1_11  and  C7_13 
REMARK   10  A    between atoms: C9_17  and  C10_18 
REMARK   11  A    between atoms: N3_19  and  N4_21 
REMARK   12  A    between atoms: C11_24  and  C13_26 
REMARK       I    between atoms: C13_26  and  N5_28 
REMARK   13  A    between atoms: N5_28  and  C14_30 
REMARK   14  A    between atoms: C14_30  and  C15_31 
REMARK   15  A    between atoms: C15_31  and  O5_32 
REMARK   16  A    between atoms: C17_35  and  C18_36 
ROOT
HETATM    1  C7  UNL     1      -0.677  -1.251  -0.972  1.00  0.00     0.119 C 
HETATM    2  N2  UNL     1      -1.529  -0.916  -1.941  1.00  0.00    -0.344 N 
ATOM      3  H2  UNL     1      -1.280  -0.658  -2.896  1.00  0.00     0.167 HD
HETATM    4  C8  UNL     1      -2.933  -0.986  -1.373  1.00  0.00     0.033 C 
HETATM    5  C9  UNL     1      -3.741  -1.987  -1.608  1.00  0.00     0.045 C 
HETATM    6  C11 UNL     1      -3.132   0.102  -0.434  1.00  0.00     0.098 C 
HETATM    7  C12 UNL     1      -2.454   1.393  -0.983  1.00  0.00     0.037 C 
HETATM    8  C16 UNL     1      -2.207  -0.367   0.709  1.00  0.00     0.017 C 
HETATM    9  C17 UNL     1      -1.071  -0.985   0.430  1.00  0.00     0.051 C 
ENDROOT
BRANCH   1  10
HETATM   10  N1  UNL     1       0.740  -1.341  -1.161  1.00  0.00    -0.353 N 
ATOM     11  H1  UNL     1       1.059  -2.159  -1.680  1.00  0.00     0.166 HD
BRANCH  10  12
HETATM   12  C6  UNL     1       1.741  -0.480  -0.742  1.00  0.00     0.089 C 
BRANCH  12  13
HETATM   13  C5  UNL     1       2.160   0.780  -1.394  1.00  0.00     0.222 C 
BRANCH  13  14
HETATM   14  O3  UNL     1       3.211   1.223  -0.491  1.00  0.00    -0.312 OA
BRANCH  14  15
HETATM   15  P1  UNL     1       4.696   0.434  -1.029  1.00  0.00     0.334 P 
BRANCH  15  16
HETATM   16  O1  UNL     1       5.049  -0.627   0.516  1.00  0.00    -0.318 OA
BRANCH  16  17
HETATM   17  C2  UNL     1       5.631  -1.748  -0.063  1.00  0.00     0.173 C 
HETATM   18  C1  UNL     1       7.124  -1.607  -0.068  1.00  0.00     0.034 C 
ENDBRANCH  16  17
ENDBRANCH  15  16
BRANCH  15  19
HETATM   19  O2  UNL     1       6.109   1.467  -0.700  1.00  0.00    -0.318 OA
BRANCH  19  20
HETATM   20  C3  UNL     1       5.700   2.718  -0.341  1.00  0.00     0.173 C 
HETATM   21  C4  UNL     1       6.398   3.082   0.969  1.00  0.00     0.034 C 
ENDBRANCH  19  20
ENDBRANCH  15  19
ENDBRANCH  14  15
ENDBRANCH  13  14
ENDBRANCH  12  13
ENDBRANCH  10  12
ENDBRANCH   1  10
BRANCH   9  22
HETATM   22  C18 UNL     1      -0.290  -1.599   1.551  1.00  0.00     0.134 A 
HETATM   23  N6  UNL     1       0.605  -2.623   1.418  1.00  0.00    -0.336 N 
HETATM   24  C19 UNL     1       1.087  -2.951   2.649  1.00  0.00     0.199 A 
ATOM     25  H6  UNL     1       0.869  -3.069   0.540  1.00  0.00     0.168 HD
HETATM   26  N7  UNL     1       0.489  -2.115   3.512  1.00  0.00    -0.295 N 
HETATM   27  N8  UNL     1      -0.351  -1.303   2.819  1.00  0.00    -0.284 N 
ATOM     28  H7  UNL     1       0.640  -2.093   4.521  1.00  0.00     0.187 HD
ATOM     29  H8  UNL     1      -0.938  -0.575   3.227  1.00  0.00     0.188 HD
ENDBRANCH   9  22
BRANCH   5  30
HETATM   30  C10 UNL     1      -3.411  -3.164  -2.423  1.00  0.00     0.108 C 
HETATM   31  N3  UNL     1      -4.217  -4.173  -2.453  1.00  0.00    -0.318 N 
ATOM     32  H3  UNL     1      -3.980  -4.982  -3.027  1.00  0.00     0.185 HD
BRANCH  31  33
HETATM   33  N4  UNL     1      -5.421  -4.182  -1.708  1.00  0.00    -0.345 N 
ATOM     34  H42 UNL     1      -5.642  -3.365  -1.139  1.00  0.00     0.176 HD
ATOM     35  H41 UNL     1      -6.057  -4.979  -1.732  1.00  0.00     0.176 HD
ENDBRANCH  31  33
ENDBRANCH   5  30
BRANCH   6  36
HETATM   36  C13 UNL     1      -4.439   0.501   0.007  1.00  0.00     0.235 C 
HETATM   37  O4  UNL     1      -5.509  -0.193   0.012  1.00  0.00    -0.272 OA
HETATM   38  N5  UNL     1      -4.592   1.835   0.512  1.00  0.00    -0.358 N 
ATOM     39  H5  UNL     1      -3.791   2.465   0.543  1.00  0.00     0.162 HD
BRANCH  38  40
HETATM   40  C14 UNL     1      -5.908   2.291   0.985  1.00  0.00     0.148 C 
BRANCH  40  41
HETATM   41  C15 UNL     1      -5.823   3.743   1.427  1.00  0.00     0.183 C 
BRANCH  41  42
HETATM   42  O5  UNL     1      -5.307   4.443   0.282  1.00  0.00    -0.399 OA
ATOM     43  H5  UNL     1      -5.254   5.350   0.558  1.00  0.00     0.209 HD
ENDBRANCH  41  42
ENDBRANCH  40  41
ENDBRANCH  38  40
ENDBRANCH   6  36
TORSDOF 16
