REMARK  0 active torsions:
REMARK  status: ('A' for Active; 'I' for Inactive)
ROOT
HETATM    1 CL1  UNL     1       2.977  -1.427   0.062  1.00  0.00    -0.094 Cl
HETATM    2  C1  UNL     1       1.270  -1.733   0.214  1.00  0.00     0.118 C 
HETATM    3  C2  UNL     1       0.374  -0.766   0.135  1.00  0.00     0.082 C 
HETATM    4  O1  UNL     1      -0.982  -0.987   0.252  1.00  0.00    -0.334 OA
HETATM    5  C3  UNL     1      -1.906   0.045   0.109  1.00  0.00     0.297 C 
HETATM    6  N1  UNL     1      -1.416   1.192  -0.569  1.00  0.00    -0.379 N 
ATOM      7  H1  UNL     1      -2.092   1.826  -0.995  1.00  0.00     0.160 HD
HETATM    8  C4  UNL     1      -0.190   1.469  -0.673  1.00  0.00     0.084 C 
HETATM    9  C5  UNL     1       0.873   0.619  -0.093  1.00  0.00     0.177 C 
HETATM   10 CL2  UNL     1       1.345   1.332   1.471  1.00  0.00    -0.112 Cl
ENDROOT
TORSDOF 0
