REMARK  0 active torsions:
REMARK  status: ('A' for Active; 'I' for Inactive)
ROOT
HETATM    1 CL1  UNL     1       1.785   2.894   0.047  1.00  0.00    -0.057 Cl
HETATM    2  C1  UNL     1       0.905   1.382  -0.018  1.00  0.00     0.142 C 
HETATM    3  C2  UNL     1       1.612   0.260   0.141  1.00  0.00     0.091 C 
HETATM    4  C3  UNL     1       1.102  -1.113   0.125  1.00  0.00     0.104 C 
HETATM    5 CL2  UNL     1       2.352  -2.333  -0.109  1.00  0.00    -0.065 Cl
HETATM    6  N1  UNL     1      -0.112  -1.532   0.257  1.00  0.00    -0.361 N 
ATOM      7  H1  UNL     1      -0.263  -2.540   0.217  1.00  0.00     0.162 HD
HETATM    8  C4  UNL     1      -1.279  -0.697   0.457  1.00  0.00     0.204 C 
HETATM    9 CL3  UNL     1      -2.744  -1.673   0.551  1.00  0.00    -0.100 Cl
HETATM   10  C5  UNL     1      -1.330   0.357  -0.602  1.00  0.00     0.217 C 
HETATM   11  O1  UNL     1      -0.484   1.457  -0.234  1.00  0.00    -0.337 OA
ENDROOT
TORSDOF 0
