REMARK  0 active torsions:
REMARK  status: ('A' for Active; 'I' for Inactive)
ROOT
HETATM    1 CL1  UNL     1       3.212   0.715   0.227  1.00  0.00    -0.084 Cl
HETATM    2  C1  UNL     1       1.492   0.468   0.046  1.00  0.00     0.070 C 
HETATM    3  C2  UNL     1       0.701   1.521  -0.040  1.00  0.00     0.112 C 
HETATM    4  N1  UNL     1      -0.721   1.593  -0.190  1.00  0.00    -0.357 N 
ATOM      5  H1  UNL     1      -1.108   2.533  -0.277  1.00  0.00     0.166 HD
HETATM    6  C3  UNL     1      -1.570   0.641  -0.230  1.00  0.00     0.104 C 
HETATM    7 CL2  UNL     1      -3.237   1.125  -0.425  1.00  0.00    -0.067 Cl
HETATM    8  C4  UNL     1      -1.272  -0.813  -0.126  1.00  0.00     0.240 C 
HETATM    9  O1  UNL     1      -0.096  -1.076  -0.769  1.00  0.00    -0.359 OA
HETATM   10  C5  UNL     1       1.037  -0.954   0.001  1.00  0.00     0.264 C 
HETATM   11 CL3  UNL     1       0.797  -1.592   1.661  1.00  0.00    -0.089 Cl
ENDROOT
TORSDOF 0
