REMARK  0 active torsions:
REMARK  status: ('A' for Active; 'I' for Inactive)
ROOT
HETATM    1  C1  UNL     1      -0.799  -1.578  -0.648  1.00  0.00     0.152 C 
HETATM    2  N1  UNL     1      -0.318  -0.367  -0.052  1.00  0.00    -0.360 N 
HETATM    3  C2  UNL     1      -1.071   0.617   0.734  1.00  0.00     0.173 C 
HETATM    4  C3  UNL     1      -0.362   1.893   0.309  1.00  0.00     0.244 C 
HETATM    5 CL1  UNL     1      -0.464   3.117   1.582  1.00  0.00    -0.093 Cl
HETATM    6  O1  UNL     1       0.971   1.508   0.040  1.00  0.00    -0.311 OA
HETATM    7  C4  UNL     1       1.015   0.128  -0.110  1.00  0.00     0.175 C 
HETATM    8  C5  UNL     1       2.095  -0.613  -0.278  1.00  0.00     0.154 C 
HETATM    9 CL2  UNL     1       3.659   0.165  -0.325  1.00  0.00    -0.066 Cl
HETATM   10 CL3  UNL     1       2.024  -2.334  -0.454  1.00  0.00    -0.066 Cl
ENDROOT
TORSDOF 0
