REMARK  6 active torsions:
REMARK  status: ('A' for Active; 'I' for Inactive)
REMARK    1  A    between atoms: C2_2  and  C3_3 
REMARK    2  A    between atoms: C3_3  and  O1_5 
REMARK    3  A    between atoms: C3_3  and  C5_7 
REMARK    4  A    between atoms: C5_7  and  C6_8 
REMARK    5  A    between atoms: C6_8  and  N1_9 
REMARK    6  A    between atoms: C8_15  and  O3_17 
ROOT
HETATM    1  C5  UNL     1      -0.187  -0.421  -0.200  1.00  0.00     0.222 C 
HETATM    2  O2  UNL     1       0.426  -0.184  -1.406  1.00  0.00    -0.346 OA
HETATM    3  C7  UNL     1       1.697   0.326  -1.125  1.00  0.00     0.239 C 
HETATM    4  C8  UNL     1       1.777   0.501   0.352  1.00  0.00     0.185 C 
HETATM    5  C9  UNL     1       2.213   1.913   0.682  1.00  0.00     0.081 C 
HETATM    6  O4  UNL     1       0.482   0.323   0.773  1.00  0.00    -0.312 OA
ENDROOT
BRANCH   1   7
HETATM    7  C3  UNL     1      -1.599   0.095  -0.245  1.00  0.00     0.112 C 
HETATM    8  C4  UNL     1      -1.517   1.567  -0.622  1.00  0.00     0.051 C 
BRANCH   7   9
HETATM    9  C2  UNL     1      -2.301   0.013   1.078  1.00  0.00     0.039 C 
HETATM   10  C1  UNL     1      -3.688   0.626   0.882  1.00  0.00     0.008 C 
ENDBRANCH   7   9
BRANCH   7  11
HETATM   11  O1  UNL     1      -2.363  -0.517  -1.242  1.00  0.00    -0.385 OA
ATOM     12  H1  UNL     1      -1.918  -0.465  -2.080  1.00  0.00     0.210 HD
ENDBRANCH   7  11
ENDBRANCH   1   7
BRANCH   1  13
HETATM   13  C6  UNL     1      -0.081  -1.864   0.182  1.00  0.00     0.301 C 
BRANCH  13  14
HETATM   14  N1  UNL     1      -0.683  -2.769  -0.754  1.00  0.00    -0.074 N 
ATOM     15  H13 UNL     1      -1.657  -2.515  -0.919  1.00  0.00     0.274 HD
ATOM     16  H12 UNL     1      -0.303  -2.619  -1.689  1.00  0.00     0.274 HD
ATOM     17  H11 UNL     1      -0.611  -3.753  -0.494  1.00  0.00     0.274 HD
ENDBRANCH  13  14
ENDBRANCH   1  13
BRANCH   4  18
HETATM   18  O3  UNL     1       2.588  -0.391   1.004  1.00  0.00    -0.358 OA
HETATM   19  C10 UNL     1       3.917  -0.307   0.663  1.00  0.00     0.205 C 
ENDBRANCH   4  18
TORSDOF 6
