REMARK  7 active torsions:
REMARK  status: ('A' for Active; 'I' for Inactive)
REMARK    1  A    between atoms: O1_2  and  C2_3 
REMARK    2  A    between atoms: C2_3  and  C3_5 
REMARK    3  A    between atoms: C7_10  and  C8_11 
REMARK    4  A    between atoms: C8_11  and  C9_12 
REMARK    5  A    between atoms: C9_12  and  N1_13 
REMARK    6  A    between atoms: C9_12  and  C10_17 
REMARK    7  A    between atoms: C10_17  and  O4_18 
ROOT
HETATM    1  C3  UNL     1      -1.788  -0.530  -0.126  1.00  0.00     0.113 C 
HETATM    2  C4  UNL     1      -1.562  -1.676   0.792  1.00  0.00     0.182 C 
HETATM    3  O3  UNL     1      -1.038  -2.741   0.138  1.00  0.00    -0.390 OA
HETATM    4  C5  UNL     1       0.000  -2.558  -0.724  1.00  0.00     0.168 C 
HETATM    5  C6  UNL     1      -0.063  -1.292  -1.523  1.00  0.00     0.032 C 
HETATM    6  C7  UNL     1      -0.398  -0.093  -0.661  1.00  0.00     0.005 C 
ENDROOT
BRANCH   6   7
HETATM    7  C8  UNL     1       0.541   0.114   0.440  1.00  0.00     0.040 C 
BRANCH   7   8
HETATM    8  C9  UNL     1       1.887   0.654   0.135  1.00  0.00     0.207 C 
BRANCH   8   9
HETATM    9  N1  UNL     1       2.637   0.743   1.443  1.00  0.00    -0.073 N 
ATOM     10  H13 UNL     1       2.141   1.282   2.153  1.00  0.00     0.274 HD
ATOM     11  H12 UNL     1       2.666  -0.143   1.948  1.00  0.00     0.274 HD
ATOM     12  H11 UNL     1       3.563   1.115   1.233  1.00  0.00     0.274 HD
ENDBRANCH   8   9
BRANCH   8  13
HETATM   13  C10 UNL     1       2.765  -0.028  -0.844  1.00  0.00     0.196 C 
BRANCH  13  14
HETATM   14  O4  UNL     1       4.025   0.665  -0.929  1.00  0.00    -0.399 OA
ATOM     15  H4  UNL     1       4.588   0.228  -1.557  1.00  0.00     0.209 HD
ENDBRANCH  13  14
ENDBRANCH   8  13
ENDBRANCH   7   8
ENDBRANCH   6   7
BRANCH   1  16
HETATM   16  C2  UNL     1      -2.484   0.612   0.494  1.00  0.00     0.265 C 
HETATM   17  O2  UNL     1      -2.873   0.667   1.687  1.00  0.00    -0.265 OA
BRANCH  16  18
HETATM   18  O1  UNL     1      -2.739   1.729  -0.288  1.00  0.00    -0.326 OA
HETATM   19  C1  UNL     1      -3.387   2.879   0.164  1.00  0.00     0.213 C 
ENDBRANCH  16  18
ENDBRANCH   1  16
TORSDOF 7
