REMARK  5 active torsions:
REMARK  status: ('A' for Active; 'I' for Inactive)
REMARK    1  A    between atoms: C2_2  and  O1_3 
REMARK    2  A    between atoms: C2_2  and  C3_5 
REMARK    3  A    between atoms: C4_6  and  C5_7 
REMARK    4  A    between atoms: C5_7  and  C6_8 
REMARK    5  A    between atoms: C10_13  and  O3_14 
ROOT
HETATM    1  C3  UNL     1      -0.862  -0.661  -0.346  1.00  0.00     0.033 A 
HETATM    2  C4  UNL     1      -0.931   0.382   0.549  1.00  0.00    -0.036 A 
HETATM    3  C7  UNL     1       0.209   0.949   1.138  1.00  0.00     0.016 A 
HETATM    4  C8  UNL     1       1.436   0.472   0.831  1.00  0.00    -0.049 A 
HETATM    5  C9  UNL     1       1.557  -0.558  -0.052  1.00  0.00    -0.018 A 
HETATM    6  C10 UNL     1       0.446  -1.138  -0.649  1.00  0.00     0.085 A 
HETATM    7  C11 UNL     1       3.018  -0.887  -0.217  1.00  0.00     0.042 C 
HETATM    8  C12 UNL     1       3.642   0.482   0.094  1.00  0.00     0.009 C 
HETATM    9  C13 UNL     1       2.816   0.869   1.296  1.00  0.00     0.039 C 
ENDROOT
BRANCH   1  10
HETATM   10  C2  UNL     1      -1.986  -1.308  -0.955  1.00  0.00     0.053 C 
HETATM   11  C1  UNL     1      -3.428  -1.105  -0.860  1.00  0.00     0.077 C 
BRANCH  10  12
HETATM   12  O1  UNL     1      -1.654  -2.282  -1.757  1.00  0.00    -0.364 OA
ATOM     13  H1  UNL     1      -0.715  -2.414  -1.819  1.00  0.00     0.217 HD
ENDBRANCH  10  12
ENDBRANCH   1  10
BRANCH   2  14
HETATM   14  C5  UNL     1      -2.188   1.084   0.918  1.00  0.00     0.109 C 
BRANCH  14  15
HETATM   15  C6  UNL     1      -2.446   2.155  -0.120  1.00  0.00     0.235 C 
HETATM   16  O2  UNL     1      -1.700   2.337  -1.056  1.00  0.00    -0.307 OA
ENDBRANCH  14  15
ENDBRANCH   2  14
BRANCH   6  17
HETATM   17  O3  UNL     1       0.582  -2.145  -1.510  1.00  0.00    -0.359 OA
ATOM     18  H3  UNL     1       1.454  -2.463  -1.712  1.00  0.00     0.217 HD
ENDBRANCH   6  17
TORSDOF 5
