REMARK  7 active torsions:
REMARK  status: ('A' for Active; 'I' for Inactive)
REMARK    1  A    between atoms: C6_8  and  C7_9 
REMARK    2  A    between atoms: C6_8  and  C16_21 
REMARK    3  A    between atoms: C7_9  and  C8_10 
REMARK    4  A    between atoms: C8_10  and  O4_12 
REMARK    5  A    between atoms: O4_12  and  C9_13 
REMARK    6  A    between atoms: C9_13  and  C10_14 
REMARK    7  A    between atoms: C18_25  and  O6_26 
ROOT
HETATM    1  C1  UNL     1      -5.708   0.734  -0.143  1.00  0.00     0.040 C 
HETATM    2  C2  UNL     1      -4.530  -0.216  -0.120  1.00  0.00     0.126 C 
HETATM    3  O1  UNL     1      -4.865  -1.335   0.595  1.00  0.00    -0.386 OA
HETATM    4  C3  UNL     1      -4.843  -1.147   1.951  1.00  0.00     0.170 C 
HETATM    5  C4  UNL     1      -3.436  -0.996   2.387  1.00  0.00     0.058 C 
HETATM    6  C5  UNL     1      -2.571  -0.154   1.454  1.00  0.00     0.134 C 
HETATM    7  O2  UNL     1      -1.525  -0.897   1.103  1.00  0.00    -0.364 OA
HETATM    8  C6  UNL     1      -0.569  -0.405   0.236  1.00  0.00     0.150 C 
HETATM    9  C17 UNL     1      -1.038   1.004  -0.228  1.00  0.00     0.080 C 
HETATM   10  C18 UNL     1      -2.387   0.701  -0.816  1.00  0.00     0.130 C 
HETATM   11  C19 UNL     1      -3.328   0.528   0.378  1.00  0.00     0.072 C 
ENDROOT
BRANCH   8  12
HETATM   12  C7  UNL     1       0.730  -0.243   1.010  1.00  0.00     0.159 C 
BRANCH  12  13
HETATM   13  C8  UNL     1       1.887   0.085   0.090  1.00  0.00     0.262 C 
HETATM   14  O3  UNL     1       2.055   1.221  -0.337  1.00  0.00    -0.265 OA
BRANCH  13  15
HETATM   15  O4  UNL     1       2.728  -0.889  -0.229  1.00  0.00    -0.317 OA
BRANCH  15  16
HETATM   16  C9  UNL     1       3.743  -1.480  -0.800  1.00  0.00     0.219 C 
BRANCH  16  17
HETATM   17  C10 UNL     1       4.987  -0.670  -0.580  1.00  0.00    -0.012 A 
HETATM   18  C11 UNL     1       5.301   0.368  -1.413  1.00  0.00     0.011 A 
HETATM   19  C12 UNL     1       6.519   1.007  -1.228  1.00  0.00     0.001 A 
HETATM   20  C13 UNL     1       7.362   0.568  -0.195  1.00  0.00     0.002 A 
HETATM   21  C14 UNL     1       7.024  -0.475   0.628  1.00  0.00     0.024 A 
HETATM   22  C15 UNL     1       5.833  -1.104   0.439  1.00  0.00     0.042 A 
HETATM   23 CL1  UNL     1       5.367  -2.436   1.476  1.00  0.00    -0.084 Cl
ENDBRANCH  16  17
ENDBRANCH  15  16
ENDBRANCH  13  15
ENDBRANCH  12  13
ENDBRANCH   8  12
BRANCH   8  24
HETATM   24  C16 UNL     1      -0.393  -1.207  -0.957  1.00  0.00     0.266 C 
HETATM   25  N1  UNL     1       0.130  -0.715  -2.216  1.00  0.00    -0.059 NA
HETATM   26  O5  UNL     1      -0.729  -2.459  -0.969  1.00  0.00    -0.273 OA
ENDBRANCH   8  24
BRANCH  10  27
HETATM   27  O6  UNL     1      -2.819   1.637  -1.712  1.00  0.00    -0.395 OA
ATOM     28  H6  UNL     1      -3.672   1.445  -2.084  1.00  0.00     0.210 HD
ENDBRANCH  10  27
TORSDOF 7
