REMARK  2 active torsions:
REMARK  status: ('A' for Active; 'I' for Inactive)
REMARK    1  A    between atoms: O1_2  and  C2_3 
REMARK    2  A    between atoms: C11_14  and  N2_15 
ROOT
HETATM    1  C2  UNL     1       2.356  -0.310  -0.596  1.00  0.00     0.083 A 
HETATM    2  C3  UNL     1       2.001   0.816  -1.186  1.00  0.00     0.120 A 
HETATM    3  N1  UNL     1       0.796   1.488  -0.914  1.00  0.00    -0.386 N 
ATOM      4  H1  UNL     1       0.575   2.329  -1.447  1.00  0.00     0.159 HD
HETATM    5  C4  UNL     1      -0.125   1.045   0.071  1.00  0.00     0.145 A 
HETATM    6  C5  UNL     1       0.291  -0.221   0.687  1.00  0.00    -0.031 A 
HETATM    7  C6  UNL     1       1.402  -0.815   0.387  1.00  0.00     0.047 A 
HETATM    8  C7  UNL     1      -0.676  -0.800   1.657  1.00  0.00     0.012 C 
HETATM    9  C8  UNL     1      -1.979  -0.735   1.336  1.00  0.00    -0.081 C 
HETATM   10  C9  UNL     1      -3.009  -1.279   2.242  1.00  0.00     0.043 C 
HETATM   11  C10 UNL     1      -2.375  -0.159   0.041  1.00  0.00     0.069 C 
HETATM   12  C11 UNL     1      -1.554   0.999  -0.353  1.00  0.00     0.214 C 
ENDROOT
BRANCH  12  13
HETATM   13  N2  UNL     1      -1.645   1.251  -1.799  1.00  0.00    -0.072 N 
ATOM     14  H23 UNL     1      -1.191   2.124  -2.067  1.00  0.00     0.274 HD
ATOM     15  H22 UNL     1      -1.062   0.612  -2.339  1.00  0.00     0.274 HD
ATOM     16  H21 UNL     1      -2.622   1.220  -2.089  1.00  0.00     0.274 HD
ENDBRANCH  12  13
BRANCH   1  17
HETATM   17  O1  UNL     1       3.530  -0.956  -0.876  1.00  0.00    -0.355 OA
HETATM   18  C1  UNL     1       4.614  -0.927   0.036  1.00  0.00     0.210 C 
ENDBRANCH   1  17
TORSDOF 2
