REMARK  8 active torsions:
REMARK  status: ('A' for Active; 'I' for Inactive)
REMARK    1  A    between atoms: C5_5  and  C6_6 
REMARK    2  A    between atoms: C6_6  and  N1_7 
REMARK    3  A    between atoms: C8_10  and  O2_11 
REMARK    4  A    between atoms: C8_10  and  O3_13 
REMARK    5  A    between atoms: C9_15  and  C11_17 
REMARK    6  A    between atoms: C11_17  and  O4_19 
REMARK    7  A    between atoms: C11_17  and  C13_21 
REMARK    8  A    between atoms: C13_21  and  C14_22 
ROOT
HETATM    1  N1  UNL     1       1.232  -0.035   0.444  1.00  0.00    -0.277 N 
HETATM    2  C7  UNL     1       0.679  -1.225  -0.162  1.00  0.00     0.290 C 
HETATM    3  O1  UNL     1       0.604  -2.377   0.347  1.00  0.00    -0.267 OA
HETATM    4  C8  UNL     1       0.232  -0.765  -1.502  1.00  0.00     0.263 C 
HETATM    5  C9  UNL     1      -0.315   0.573  -1.184  1.00  0.00     0.134 C 
HETATM    6  C10 UNL     1      -0.393   1.417  -2.414  1.00  0.00     0.035 C 
HETATM    7  C19 UNL     1       0.831   1.103  -0.352  1.00  0.00     0.244 C 
HETATM    8  O5  UNL     1       1.356   2.216  -0.305  1.00  0.00    -0.272 OA
ENDROOT
BRANCH   5   9
HETATM    9  C11 UNL     1      -1.540   0.626  -0.310  1.00  0.00     0.080 C 
HETATM   10  C12 UNL     1      -1.901   2.061  -0.150  1.00  0.00     0.047 C 
BRANCH   9  11
HETATM   11  O4  UNL     1      -1.129   0.234   1.021  1.00  0.00    -0.388 OA
ATOM     12  H4  UNL     1      -1.902   0.267   1.572  1.00  0.00     0.210 HD
ENDBRANCH   9  11
BRANCH   9  13
HETATM   13  C13 UNL     1      -2.610  -0.283  -0.672  1.00  0.00     0.079 C 
BRANCH  13  14
HETATM   14  C14 UNL     1      -3.828  -0.249   0.149  1.00  0.00    -0.037 A 
HETATM   15  C15 UNL     1      -4.200  -1.257   0.990  1.00  0.00    -0.014 A 
HETATM   16  C16 UNL     1      -5.463  -0.950   1.672  1.00  0.00     0.056 A 
HETATM   17  C17 UNL     1      -5.852   0.331   1.112  1.00  0.00     0.001 A 
HETATM   18  C18 UNL     1      -4.901   0.711   0.250  1.00  0.00     0.036 A 
HETATM   19 CL1  UNL     1      -5.165   2.211  -0.665  1.00  0.00    -0.084 Cl
ENDBRANCH  13  14
ENDBRANCH   9  13
ENDBRANCH   5   9
BRANCH   4  20
HETATM   20  O2  UNL     1      -0.493  -1.623  -2.239  1.00  0.00    -0.357 OA
ATOM     21  H2  UNL     1      -0.779  -1.329  -3.096  1.00  0.00     0.213 HD
ENDBRANCH   4  20
BRANCH   4  22
HETATM   22  O3  UNL     1       1.438  -0.534  -2.220  1.00  0.00    -0.357 OA
ATOM     23  H3  UNL     1       1.152  -0.240  -3.077  1.00  0.00     0.213 HD
ENDBRANCH   4  22
BRANCH   1  24
HETATM   24  C6  UNL     1       2.034  -0.076   1.639  1.00  0.00     0.200 C 
BRANCH  24  25
HETATM   25  C5  UNL     1       3.469  -0.227   1.366  1.00  0.00     0.071 A 
HETATM   26  C4  UNL     1       4.447  -0.293   2.333  1.00  0.00     0.037 A 
HETATM   27  C3  UNL     1       5.659  -0.434   1.694  1.00  0.00     0.035 A 
HETATM   28  C2  UNL     1       5.356  -0.447   0.340  1.00  0.00     0.049 A 
HETATM   29  C1  UNL     1       6.398  -0.585  -0.710  1.00  0.00     0.076 C 
HETATM   30  O6  UNL     1       4.060  -0.323   0.207  1.00  0.00    -0.318 OA
ENDBRANCH  24  25
ENDBRANCH   1  24
TORSDOF 8
