REMARK  0 active torsions:
REMARK  status: ('A' for Active; 'I' for Inactive)
ROOT
HETATM    1  C1  UNL     1       3.620  -0.064   0.445  1.00  0.00     0.049 C 
HETATM    2  C2  UNL     1       2.205  -0.140  -0.008  1.00  0.00     0.256 C 
HETATM    3  N1  UNL     1       1.389  -1.045   0.741  1.00  0.00    -0.063 N 
ATOM      4  H11 UNL     1       1.053  -0.630   1.610  1.00  0.00     0.278 HD
ATOM      5  H12 UNL     1       1.932  -1.809   1.143  1.00  0.00     0.278 HD
HETATM    6  C3  UNL     1       0.300  -1.527  -0.093  1.00  0.00     0.246 C 
HETATM    7  C4  UNL     1      -1.009  -0.895   0.235  1.00  0.00     0.006 C 
HETATM    8  C5  UNL     1      -2.099  -1.720  -0.455  1.00  0.00     0.021 C 
HETATM    9  C6  UNL     1      -1.333  -0.880   1.701  1.00  0.00     0.021 C 
HETATM   10  C7  UNL     1      -1.033   0.511  -0.267  1.00  0.00    -0.018 A 
HETATM   11  C8  UNL     1      -2.137   1.131  -0.677  1.00  0.00     0.096 A 
HETATM   12  N2  UNL     1      -1.764   2.424  -1.070  1.00  0.00    -0.374 N 
ATOM     13  H2  UNL     1      -2.383   3.149  -1.433  1.00  0.00     0.164 HD
HETATM   14  C9  UNL     1      -0.363   2.536  -0.868  1.00  0.00     0.103 A 
HETATM   15  C10 UNL     1       0.125   1.390  -0.377  1.00  0.00     0.036 A 
HETATM   16  C11 UNL     1       1.533   1.173  -0.057  1.00  0.00     0.191 C 
HETATM   17  O1  UNL     1       2.189   2.212   0.191  1.00  0.00    -0.290 OA
ENDROOT
TORSDOF 0
