REMARK  3 active torsions:
REMARK  status: ('A' for Active; 'I' for Inactive)
REMARK    1  A    between atoms: C7_8  and  N1_9 
REMARK       I    between atoms: N1_9  and  C8_11 
REMARK    2  A    between atoms: C8_11  and  C9_13 
REMARK    3  A    between atoms: C18_24  and  O2_25 
ROOT
HETATM    1  C9  UNL     1       0.101   0.586   0.144  1.00  0.00     0.108 A 
HETATM    2  N2  UNL     1       0.642  -0.616  -0.105  1.00  0.00    -0.352 N 
ATOM      3  H2  UNL     1       0.113  -1.463  -0.313  1.00  0.00     0.166 HD
HETATM    4  C10 UNL     1       1.983  -0.541  -0.040  1.00  0.00     0.045 A 
HETATM    5  C11 UNL     1       2.320   0.773   0.266  1.00  0.00    -0.025 A 
HETATM    6  C12 UNL     1       1.123   1.450   0.374  1.00  0.00    -0.021 A 
HETATM    7  C13 UNL     1       1.021   2.903   0.695  1.00  0.00     0.051 C 
HETATM    8  C14 UNL     1       3.678   1.359   0.446  1.00  0.00     0.041 C 
HETATM    9  C15 UNL     1       4.510   0.318   1.176  1.00  0.00     0.005 C 
HETATM   10  C16 UNL     1       5.166  -0.647   0.233  1.00  0.00     0.003 C 
HETATM   11  C17 UNL     1       4.226  -1.144  -0.829  1.00  0.00     0.038 C 
HETATM   12  C18 UNL     1       2.929  -1.678  -0.260  1.00  0.00     0.168 C 
ENDROOT
BRANCH   1  13
HETATM   13  C8  UNL     1      -1.335   0.963   0.177  1.00  0.00     0.273 C 
HETATM   14  N1  UNL     1      -2.284  -0.015  -0.076  1.00  0.00    -0.321 N 
ATOM     15  H1  UNL     1      -1.930  -0.951  -0.273  1.00  0.00     0.169 HD
HETATM   16  O1  UNL     1      -1.650   2.148   0.430  1.00  0.00    -0.266 OA
BRANCH  14  17
HETATM   17  C7  UNL     1      -3.677   0.142  -0.091  1.00  0.00     0.041 A 
HETATM   18  C2  UNL     1      -4.455  -0.990  -0.374  1.00  0.00    -0.032 A 
HETATM   19  C1  UNL     1      -3.788  -2.307  -0.647  1.00  0.00     0.050 C 
HETATM   20  C3  UNL     1      -5.811  -0.919  -0.406  1.00  0.00     0.051 A 
HETATM   21  C4  UNL     1      -6.479   0.260  -0.164  1.00  0.00     0.117 A 
HETATM   22  F1  UNL     1      -7.825   0.309  -0.201  1.00  0.00    -0.206 F 
HETATM   23  C5  UNL     1      -5.766   1.379   0.113  1.00  0.00     0.044 A 
HETATM   24  C6  UNL     1      -4.375   1.302   0.146  1.00  0.00     0.033 A 
ENDBRANCH  14  17
ENDBRANCH   1  13
BRANCH  12  25
HETATM   25  O2  UNL     1       3.110  -2.438   0.869  1.00  0.00    -0.389 OA
ATOM     26  H2  UNL     1       3.711  -3.160   0.729  1.00  0.00     0.210 HD
ENDBRANCH  12  25
TORSDOF 3
