REMARK  6 active torsions:
REMARK  status: ('A' for Active; 'I' for Inactive)
REMARK    1  A    between atoms: C1_2  and  C2_3 
REMARK       I    between atoms: C1_2  and  N1_6 
REMARK    2  A    between atoms: C2_3  and  O2_4 
REMARK    3  A    between atoms: N1_6  and  C3_8 
REMARK    4  A    between atoms: C8_14  and  C9_15 
REMARK    5  A    between atoms: C9_15  and  N2_16 
REMARK    6  A    between atoms: N2_16  and  C10_18 
ROOT
HETATM    1  C3  UNL     1      -0.925   1.201   0.131  1.00  0.00     0.046 A 
HETATM    2  C4  UNL     1      -2.041   0.537   0.572  1.00  0.00     0.038 A 
HETATM    3  C5  UNL     1      -2.243  -0.838   0.381  1.00  0.00    -0.047 A 
HETATM    4  C6  UNL     1      -1.289  -1.551  -0.272  1.00  0.00    -0.013 A 
HETATM    5  C7  UNL     1      -0.139  -0.904  -0.735  1.00  0.00     0.133 A 
HETATM    6  F1  UNL     1       0.756  -1.688  -1.417  1.00  0.00    -0.205 F 
HETATM    7  C8  UNL     1       0.045   0.423  -0.544  1.00  0.00     0.025 A 
HETATM    8  C15 UNL     1      -1.441  -3.024  -0.510  1.00  0.00     0.042 C 
HETATM    9  C16 UNL     1      -2.920  -3.333  -0.429  1.00  0.00     0.005 C 
HETATM   10  C17 UNL     1      -3.411  -2.902   0.941  1.00  0.00     0.005 C 
HETATM   11  C18 UNL     1      -3.519  -1.411   0.925  1.00  0.00     0.039 C 
ENDROOT
BRANCH   7  12
HETATM   12  C9  UNL     1       1.207   1.153  -1.033  1.00  0.00     0.164 C 
BRANCH  12  13
HETATM   13  N2  UNL     1       2.267   0.445  -1.659  1.00  0.00    -0.386 N 
ATOM     14  H2  UNL     1       2.284   0.415  -2.678  1.00  0.00     0.160 HD
BRANCH  13  15
HETATM   15  C10 UNL     1       3.324  -0.236  -0.944  1.00  0.00     0.024 A 
HETATM   16  C11 UNL     1       4.313  -0.966  -1.406  1.00  0.00     0.006 A 
HETATM   17  C12 UNL     1       5.156  -1.465  -0.302  1.00  0.00     0.056 A 
HETATM   18  C13 UNL     1       4.503  -0.904   0.896  1.00  0.00    -0.021 A 
HETATM   19  C14 UNL     1       3.451  -0.199   0.523  1.00  0.00     0.025 A 
ENDBRANCH  13  15
ENDBRANCH  12  13
ENDBRANCH   7  12
BRANCH   1  20
HETATM   20  N1  UNL     1      -0.706   2.588   0.314  1.00  0.00    -0.325 N 
HETATM   21  C1  UNL     1      -1.573   3.472   0.959  1.00  0.00     0.245 C 
HETATM   22  O1  UNL     1      -2.662   3.199   1.474  1.00  0.00    -0.271 OA
ATOM     23  H1  UNL     1       0.161   2.975  -0.058  1.00  0.00     0.169 HD
BRANCH  21  24
HETATM   24  C2  UNL     1      -1.141   4.928   1.045  1.00  0.00     0.267 C 
BRANCH  24  25
HETATM   25  O2  UNL     1       0.089   5.121   0.439  1.00  0.00    -0.392 OA
ATOM     26  H2  UNL     1       0.359   6.030   0.493  1.00  0.00     0.210 HD
ENDBRANCH  24  25
ENDBRANCH  21  24
ENDBRANCH   1  20
TORSDOF 6
