REMARK  3 active torsions:
REMARK  status: ('A' for Active; 'I' for Inactive)
REMARK    1  A    between atoms: C4_5  and  C5_6 
REMARK    2  A    between atoms: C6_7  and  C7_8 
REMARK       I    between atoms: C7_8  and  N2_10 
REMARK    3  A    between atoms: N2_10  and  C8_12 
ROOT
HETATM    1  C7  UNL     1       0.126   0.333  -0.702  1.00  0.00     0.245 C 
HETATM    2  O1  UNL     1       0.258   0.694  -1.884  1.00  0.00    -0.268 OA
HETATM    3  N2  UNL     1      -1.133   0.177  -0.106  1.00  0.00    -0.323 N 
ATOM      4  H2  UNL     1      -1.120  -0.124   0.869  1.00  0.00     0.169 HD
ENDROOT
BRANCH   1   5
HETATM    5  C6  UNL     1       1.371   0.073   0.059  1.00  0.00     0.075 C 
HETATM    6  C5  UNL     1       2.525   0.220  -0.497  1.00  0.00     0.020 C 
BRANCH   6   7
HETATM    7  C4  UNL     1       3.843   0.020   0.061  1.00  0.00     0.003 A 
HETATM    8  C3  UNL     1       4.929   0.256  -0.781  1.00  0.00     0.016 A 
HETATM    9  C2  UNL     1       6.237   0.108  -0.388  1.00  0.00     0.027 A 
HETATM   10  C1  UNL     1       6.521  -0.292   0.892  1.00  0.00     0.049 A 
HETATM   11  N1  UNL     1       7.873  -0.452   1.320  1.00  0.00    -0.102 NA
HETATM   12  C18 UNL     1       5.478  -0.531   1.742  1.00  0.00     0.069 A 
HETATM   13  C17 UNL     1       4.143  -0.376   1.331  1.00  0.00     0.128 A 
HETATM   14  F1  UNL     1       3.170  -0.626   2.211  1.00  0.00    -0.205 F 
ENDBRANCH   6   7
ENDBRANCH   1   5
BRANCH   3  15
HETATM   15  C8  UNL     1      -2.409   0.375  -0.657  1.00  0.00     0.042 A 
HETATM   16  C9  UNL     1      -2.598   0.852  -1.921  1.00  0.00     0.030 A 
HETATM   17  C10 UNL     1      -3.894   1.061  -2.437  1.00  0.00     0.003 A 
HETATM   18  C11 UNL     1      -4.989   0.780  -1.650  1.00  0.00     0.010 A 
HETATM   19  C12 UNL     1      -4.823   0.295  -0.366  1.00  0.00    -0.026 A 
HETATM   20  C13 UNL     1      -3.557   0.107   0.091  1.00  0.00    -0.021 A 
HETATM   21  C16 UNL     1      -6.051   0.035   0.402  1.00  0.00     0.206 C 
HETATM   22  C14 UNL     1      -3.371  -0.426   1.464  1.00  0.00     0.068 C 
HETATM   23  C15 UNL     1      -4.677  -1.047   1.897  1.00  0.00     0.172 C 
HETATM   24  O2  UNL     1      -5.782  -0.261   1.736  1.00  0.00    -0.386 OA
ENDBRANCH   3  15
TORSDOF 3
