REMARK  4 active torsions:
REMARK  status: ('A' for Active; 'I' for Inactive)
REMARK    1  A    between atoms: C5_5  and  C6_6 
REMARK    2  A    between atoms: C6_6  and  N1_7 
REMARK       I    between atoms: N1_7  and  C7_9 
REMARK       I    between atoms: C7_9  and  N2_11 
REMARK    3  A    between atoms: N2_11  and  C8_13 
REMARK    4  A    between atoms: C15_20  and  O2_21 
ROOT
HETATM    1  C1  UNL     1       5.416   2.731   0.633  1.00  0.00     0.051 C 
HETATM    2  C2  UNL     1       4.836   1.397   0.337  1.00  0.00    -0.022 A 
HETATM    3  C3  UNL     1       3.506   1.143   0.582  1.00  0.00     0.022 A 
HETATM    4  C4  UNL     1       2.940  -0.101   0.313  1.00  0.00    -0.015 A 
HETATM    5  C5  UNL     1       1.592  -0.335   0.569  1.00  0.00    -0.029 A 
HETATM    6  C13 UNL     1       1.016  -1.547   0.313  1.00  0.00     0.012 A 
HETATM    7  C14 UNL     1       1.762  -2.602  -0.219  1.00  0.00     0.038 A 
HETATM    8  C15 UNL     1       3.116  -2.366  -0.476  1.00  0.00     0.076 A 
HETATM    9  C16 UNL     1       3.677  -1.136  -0.209  1.00  0.00     0.011 A 
HETATM   10  C17 UNL     1       5.017  -0.881  -0.456  1.00  0.00     0.058 A 
HETATM   11  C18 UNL     1       5.586   0.369  -0.186  1.00  0.00     0.123 A 
HETATM   12  F1  UNL     1       6.905   0.598  -0.436  1.00  0.00    -0.206 F 
ENDROOT
BRANCH   5  13
HETATM   13  C6  UNL     1       0.844   0.795   1.154  1.00  0.00     0.163 C 
BRANCH  13  14
HETATM   14  N1  UNL     1      -0.543   0.587   1.372  1.00  0.00    -0.339 N 
HETATM   15  C7  UNL     1      -1.525   0.409   0.368  1.00  0.00     0.316 C 
HETATM   16  O1  UNL     1      -1.138   0.453  -0.847  1.00  0.00    -0.247 OA
HETATM   17  N2  UNL     1      -2.883   0.190   0.681  1.00  0.00    -0.339 N 
ATOM     18  H2  UNL     1      -3.185   0.156   1.655  1.00  0.00     0.164 HD
ATOM     19  H1  UNL     1      -0.861   0.564   2.341  1.00  0.00     0.164 HD
BRANCH  17  20
HETATM   20  C8  UNL     1      -3.834   0.016  -0.372  1.00  0.00     0.086 C 
HETATM   21  C9  UNL     1      -4.698  -1.187  -0.227  1.00  0.00     0.025 C 
HETATM   22  C10 UNL     1      -6.134  -0.759  -0.450  1.00  0.00     0.002 C 
HETATM   23  C11 UNL     1      -5.990   0.631  -1.070  1.00  0.00     0.002 C 
HETATM   24  C12 UNL     1      -4.828   1.179  -0.269  1.00  0.00     0.025 C 
ENDBRANCH  17  20
ENDBRANCH  13  14
ENDBRANCH   5  13
BRANCH   8  25
HETATM   25  O2  UNL     1       3.843  -3.414  -1.000  1.00  0.00    -0.360 OA
ATOM     26  H2  UNL     1       4.763  -3.254  -1.175  1.00  0.00     0.217 HD
ENDBRANCH   8  25
TORSDOF 4
