MODEL 1
REMARK VINA RESULT: -6.831768390      0.000      0.000
REMARK  10 active torsions:
REMARK  status: ('A' for Active; 'I' for Inactive)
REMARK    1  A    between atoms: C2_2  and  C3_3 
REMARK    2  A    between atoms: C3_3  and  C4_4 
REMARK    3  A    between atoms: C6_6  and  C7_7 
REMARK    4  A    between atoms: C7_7  and  C8_8 
REMARK    5  A    between atoms: C8_8  and  O1_9 
REMARK    6  A    between atoms: O1_9  and  C9_10 
REMARK    7  A    between atoms: C12_13  and  C13_14 
REMARK    8  A    between atoms: C13_14  and  C14_15 
REMARK    9  A    between atoms: C14_15  and  C15_16 
REMARK   10  A    between atoms: C18_19  and  O2_20 
ROOT
HETATM    1  C4  UNL     1     -44.838  70.608  -9.481  1.00  0.00    -0.024 A 
HETATM    2  C5  UNL     1     -45.285  71.065  -8.259  1.00  0.00     0.017 A 
HETATM    3  C6  UNL     1     -46.217  70.391  -7.514  1.00  0.00    -0.055 A 
HETATM    4  C11 UNL     1     -46.720  69.215  -8.011  1.00  0.00     0.017 A 
HETATM    5  C12 UNL     1     -46.310  68.710  -9.225  1.00  0.00    -0.024 A 
HETATM    6  C18 UNL     1     -45.369  69.414  -9.951  1.00  0.00     0.078 A 
ENDROOT
BRANCH   3   7
HETATM    7  C7  UNL     1     -46.710  70.894  -6.170  1.00  0.00     0.065 C 
BRANCH   7   8
HETATM    8  C8  UNL     1     -46.543  72.367  -6.066  1.00  0.00     0.172 C 
BRANCH   8   9
HETATM    9  O1  UNL     1     -47.678  73.067  -6.180  1.00  0.00    -0.391 OA
BRANCH   9  10
HETATM   10  C9  UNL     1     -48.914  72.553  -6.090  1.00  0.00     0.163 C 
HETATM   11  C10 UNL     1     -49.773  72.478  -7.306  1.00  0.00     0.033 C 
ENDBRANCH   9  10
ENDBRANCH   8   9
ENDBRANCH   7   8
ENDBRANCH   3   7
BRANCH   1  12
HETATM   12  C3  UNL     1     -43.830  71.341 -10.273  1.00  0.00     0.041 C 
BRANCH  12  13
HETATM   13  C2  UNL     1     -42.501  71.444  -9.567  1.00  0.00     0.000 C 
HETATM   14  C1  UNL     1     -41.749  70.146  -9.890  1.00  0.00     0.005 C 
ENDBRANCH  12  13
ENDBRANCH   1  12
BRANCH   5  15
HETATM   15  C13 UNL     1     -46.876  67.436  -9.698  1.00  0.00     0.042 C 
BRANCH  15  16
HETATM   16  C14 UNL     1     -48.345  67.571  -9.987  1.00  0.00     0.008 C 
BRANCH  16  17
HETATM   17  C15 UNL     1     -48.639  67.555 -11.447  1.00  0.00    -0.023 C 
HETATM   18  C16 UNL     1     -47.616  66.852 -12.282  1.00  0.00     0.009 C 
HETATM   19  C17 UNL     1     -49.992  66.954 -11.730  1.00  0.00     0.009 C 
ENDBRANCH  16  17
ENDBRANCH  15  16
ENDBRANCH   5  15
BRANCH   6  20
HETATM   20  O2  UNL     1     -44.970  68.899 -11.163  1.00  0.00    -0.360 OA
ATOM     21  H2  UNL     1     -44.049  68.755 -11.348  1.00  0.00     0.217 HD
ENDBRANCH   6  20
TORSDOF 10
ENDMDL
MODEL 2
REMARK VINA RESULT: -6.767737070      2.199      3.674
REMARK  10 active torsions:
REMARK  status: ('A' for Active; 'I' for Inactive)
REMARK    1  A    between atoms: C2_2  and  C3_3 
REMARK    2  A    between atoms: C3_3  and  C4_4 
REMARK    3  A    between atoms: C6_6  and  C7_7 
REMARK    4  A    between atoms: C7_7  and  C8_8 
REMARK    5  A    between atoms: C8_8  and  O1_9 
REMARK    6  A    between atoms: O1_9  and  C9_10 
REMARK    7  A    between atoms: C12_13  and  C13_14 
REMARK    8  A    between atoms: C13_14  and  C14_15 
REMARK    9  A    between atoms: C14_15  and  C15_16 
REMARK   10  A    between atoms: C18_19  and  O2_20 
ROOT
HETATM    1  C4  UNL     1     -45.173  68.704  -7.083  1.00  0.00    -0.024 A 
HETATM    2  C5  UNL     1     -44.640  69.581  -8.003  1.00  0.00     0.017 A 
HETATM    3  C6  UNL     1     -45.023  69.598  -9.318  1.00  0.00    -0.055 A 
HETATM    4  C11 UNL     1     -45.978  68.702  -9.728  1.00  0.00     0.017 A 
HETATM    5  C12 UNL     1     -46.547  67.802  -8.854  1.00  0.00    -0.024 A 
HETATM    6  C18 UNL     1     -46.138  67.813  -7.535  1.00  0.00     0.078 A 
ENDROOT
BRANCH   3   7
HETATM    7  C7  UNL     1     -44.436  70.563 -10.331  1.00  0.00     0.065 C 
BRANCH   7   8
HETATM    8  C8  UNL     1     -44.141  71.875  -9.697  1.00  0.00     0.172 C 
BRANCH   8   9
HETATM    9  O1  UNL     1     -45.200  72.682  -9.566  1.00  0.00    -0.391 OA
BRANCH   9  10
HETATM   10  C9  UNL     1     -45.743  73.059  -8.399  1.00  0.00     0.163 C 
HETATM   11  C10 UNL     1     -44.865  73.279  -7.212  1.00  0.00     0.033 C 
ENDBRANCH   9  10
ENDBRANCH   8   9
ENDBRANCH   7   8
ENDBRANCH   3   7
BRANCH   1  12
HETATM   12  C3  UNL     1     -44.755  68.699  -5.667  1.00  0.00     0.041 C 
BRANCH  12  13
HETATM   13  C2  UNL     1     -44.549  70.088  -5.118  1.00  0.00     0.000 C 
HETATM   14  C1  UNL     1     -45.953  70.662  -4.882  1.00  0.00     0.005 C 
ENDBRANCH  12  13
ENDBRANCH   1  12
BRANCH   5  15
HETATM   15  C13 UNL     1     -47.578  66.875  -9.350  1.00  0.00     0.042 C 
BRANCH  15  16
HETATM   16  C14 UNL     1     -48.588  67.594 -10.200  1.00  0.00     0.008 C 
BRANCH  16  17
HETATM   17  C15 UNL     1     -48.882  66.868 -11.466  1.00  0.00    -0.023 C 
HETATM   18  C16 UNL     1     -50.116  67.327 -12.177  1.00  0.00     0.009 C 
HETATM   19  C17 UNL     1     -47.718  66.934 -12.422  1.00  0.00     0.009 C 
ENDBRANCH  16  17
ENDBRANCH  15  16
ENDBRANCH   5  15
BRANCH   6  20
HETATM   20  O2  UNL     1     -46.713  66.907  -6.672  1.00  0.00    -0.360 OA
ATOM     21  H2  UNL     1     -47.375  67.185  -6.050  1.00  0.00     0.217 HD
ENDBRANCH   6  20
TORSDOF 10
ENDMDL
MODEL 3
REMARK VINA RESULT: -6.728973799      2.191      3.036
REMARK  10 active torsions:
REMARK  status: ('A' for Active; 'I' for Inactive)
REMARK    1  A    between atoms: C2_2  and  C3_3 
REMARK    2  A    between atoms: C3_3  and  C4_4 
REMARK    3  A    between atoms: C6_6  and  C7_7 
REMARK    4  A    between atoms: C7_7  and  C8_8 
REMARK    5  A    between atoms: C8_8  and  O1_9 
REMARK    6  A    between atoms: O1_9  and  C9_10 
REMARK    7  A    between atoms: C12_13  and  C13_14 
REMARK    8  A    between atoms: C13_14  and  C14_15 
REMARK    9  A    between atoms: C14_15  and  C15_16 
REMARK   10  A    between atoms: C18_19  and  O2_20 
ROOT
HETATM    1  C4  UNL     1     -45.282  67.627  -7.686  1.00  0.00    -0.024 A 
HETATM    2  C5  UNL     1     -45.305  68.997  -7.532  1.00  0.00     0.017 A 
HETATM    3  C6  UNL     1     -46.416  69.753  -7.800  1.00  0.00    -0.055 A 
HETATM    4  C11 UNL     1     -47.548  69.113  -8.238  1.00  0.00     0.017 A 
HETATM    5  C12 UNL     1     -47.584  67.747  -8.410  1.00  0.00    -0.024 A 
HETATM    6  C18 UNL     1     -46.446  67.014  -8.131  1.00  0.00     0.078 A 
ENDROOT
BRANCH   3   7
HETATM    7  C7  UNL     1     -46.441  71.260  -7.630  1.00  0.00     0.065 C 
BRANCH   7   8
HETATM    8  C8  UNL     1     -46.984  71.631  -6.298  1.00  0.00     0.172 C 
BRANCH   8   9
HETATM    9  O1  UNL     1     -47.613  72.812  -6.259  1.00  0.00    -0.391 OA
BRANCH   9  10
HETATM   10  C9  UNL     1     -48.939  72.976  -6.152  1.00  0.00     0.163 C 
HETATM   11  C10 UNL     1     -49.831  72.531  -7.262  1.00  0.00     0.033 C 
ENDBRANCH   9  10
ENDBRANCH   8   9
ENDBRANCH   7   8
ENDBRANCH   3   7
BRANCH   1  12
HETATM   12  C3  UNL     1     -44.080  66.823  -7.391  1.00  0.00     0.041 C 
BRANCH  12  13
HETATM   13  C2  UNL     1     -43.606  66.989  -5.969  1.00  0.00     0.000 C 
HETATM   14  C1  UNL     1     -44.391  65.965  -5.139  1.00  0.00     0.005 C 
ENDBRANCH  12  13
ENDBRANCH   1  12
BRANCH   5  15
HETATM   15  C13 UNL     1     -48.833  67.115  -8.870  1.00  0.00     0.042 C 
BRANCH  15  16
HETATM   16  C14 UNL     1     -49.325  67.752 -10.139  1.00  0.00     0.008 C 
BRANCH  16  17
HETATM   17  C15 UNL     1     -49.185  66.850 -11.316  1.00  0.00    -0.023 C 
HETATM   18  C16 UNL     1     -50.307  66.931 -12.302  1.00  0.00     0.009 C 
HETATM   19  C17 UNL     1     -47.884  67.087 -12.039  1.00  0.00     0.009 C 
ENDBRANCH  16  17
ENDBRANCH  15  16
ENDBRANCH   5  15
BRANCH   6  20
HETATM   20  O2  UNL     1     -46.496  65.650  -8.310  1.00  0.00    -0.360 OA
ATOM     21  H2  UNL     1     -47.219  65.250  -8.778  1.00  0.00     0.217 HD
ENDBRANCH   6  20
TORSDOF 10
ENDMDL
MODEL 4
REMARK VINA RESULT: -6.687068813      2.317      3.329
REMARK  10 active torsions:
REMARK  status: ('A' for Active; 'I' for Inactive)
REMARK    1  A    between atoms: C2_2  and  C3_3 
REMARK    2  A    between atoms: C3_3  and  C4_4 
REMARK    3  A    between atoms: C6_6  and  C7_7 
REMARK    4  A    between atoms: C7_7  and  C8_8 
REMARK    5  A    between atoms: C8_8  and  O1_9 
REMARK    6  A    between atoms: O1_9  and  C9_10 
REMARK    7  A    between atoms: C12_13  and  C13_14 
REMARK    8  A    between atoms: C13_14  and  C14_15 
REMARK    9  A    between atoms: C14_15  and  C15_16 
REMARK   10  A    between atoms: C18_19  and  O2_20 
ROOT
HETATM    1  C4  UNL     1     -45.813  68.115  -6.338  1.00  0.00    -0.024 A 
HETATM    2  C5  UNL     1     -46.121  69.456  -6.423  1.00  0.00     0.017 A 
HETATM    3  C6  UNL     1     -46.964  69.964  -7.376  1.00  0.00    -0.055 A 
HETATM    4  C11 UNL     1     -47.521  69.094  -8.280  1.00  0.00     0.017 A 
HETATM    5  C12 UNL     1     -47.250  67.744  -8.245  1.00  0.00    -0.024 A 
HETATM    6  C18 UNL     1     -46.396  67.266  -7.270  1.00  0.00     0.078 A 
ENDROOT
BRANCH   3   7
HETATM    7  C7  UNL     1     -47.303  71.440  -7.469  1.00  0.00     0.065 C 
BRANCH   7   8
HETATM    8  C8  UNL     1     -46.702  72.190  -6.335  1.00  0.00     0.172 C 
BRANCH   8   9
HETATM    9  O1  UNL     1     -45.944  73.233  -6.695  1.00  0.00    -0.391 OA
BRANCH   9  10
HETATM   10  C9  UNL     1     -45.004  73.211  -7.651  1.00  0.00     0.163 C 
HETATM   11  C10 UNL     1     -43.762  72.411  -7.447  1.00  0.00     0.033 C 
ENDBRANCH   9  10
ENDBRANCH   8   9
ENDBRANCH   7   8
ENDBRANCH   3   7
BRANCH   1  12
HETATM   12  C3  UNL     1     -44.907  67.580  -5.304  1.00  0.00     0.041 C 
BRANCH  12  13
HETATM   13  C2  UNL     1     -43.469  67.537  -5.758  1.00  0.00     0.000 C 
HETATM   14  C1  UNL     1     -42.906  68.944  -5.515  1.00  0.00     0.005 C 
ENDBRANCH  12  13
ENDBRANCH   1  12
BRANCH   5  15
HETATM   15  C13 UNL     1     -47.889  66.860  -9.233  1.00  0.00     0.042 C 
BRANCH  15  16
HETATM   16  C14 UNL     1     -49.076  67.528  -9.870  1.00  0.00     0.008 C 
BRANCH  16  17
HETATM   17  C15 UNL     1     -48.968  67.579 -11.354  1.00  0.00    -0.023 C 
HETATM   18  C16 UNL     1     -47.683  67.048 -11.905  1.00  0.00     0.009 C 
HETATM   19  C17 UNL     1     -50.115  66.857 -12.014  1.00  0.00     0.009 C 
ENDBRANCH  16  17
ENDBRANCH  15  16
ENDBRANCH   5  15
BRANCH   6  20
HETATM   20  O2  UNL     1     -46.133  65.915  -7.248  1.00  0.00    -0.360 OA
ATOM     21  H2  UNL     1     -45.862  65.462  -8.038  1.00  0.00     0.217 HD
ENDBRANCH   6  20
TORSDOF 10
ENDMDL
MODEL 5
REMARK VINA RESULT: -6.676204321      1.601      2.619
REMARK  10 active torsions:
REMARK  status: ('A' for Active; 'I' for Inactive)
REMARK    1  A    between atoms: C2_2  and  C3_3 
REMARK    2  A    between atoms: C3_3  and  C4_4 
REMARK    3  A    between atoms: C6_6  and  C7_7 
REMARK    4  A    between atoms: C7_7  and  C8_8 
REMARK    5  A    between atoms: C8_8  and  O1_9 
REMARK    6  A    between atoms: O1_9  and  C9_10 
REMARK    7  A    between atoms: C12_13  and  C13_14 
REMARK    8  A    between atoms: C13_14  and  C14_15 
REMARK    9  A    between atoms: C14_15  and  C15_16 
REMARK   10  A    between atoms: C18_19  and  O2_20 
ROOT
HETATM    1  C4  UNL     1     -44.787  70.559  -9.495  1.00  0.00    -0.024 A 
HETATM    2  C5  UNL     1     -45.212  71.000  -8.260  1.00  0.00     0.017 A 
HETATM    3  C6  UNL     1     -46.174  70.348  -7.533  1.00  0.00    -0.055 A 
HETATM    4  C11 UNL     1     -46.730  69.211  -8.062  1.00  0.00     0.017 A 
HETATM    5  C12 UNL     1     -46.345  68.723  -9.291  1.00  0.00    -0.024 A 
HETATM    6  C18 UNL     1     -45.373  69.404  -9.998  1.00  0.00     0.078 A 
ENDROOT
BRANCH   3   7
HETATM    7  C7  UNL     1     -46.642  70.834  -6.173  1.00  0.00     0.065 C 
BRANCH   7   8
HETATM    8  C8  UNL     1     -45.537  70.766  -5.182  1.00  0.00     0.172 C 
BRANCH   8   9
HETATM    9  O1  UNL     1     -44.983  69.555  -5.045  1.00  0.00    -0.391 OA
BRANCH   9  10
HETATM   10  C9  UNL     1     -43.678  69.283  -5.193  1.00  0.00     0.163 C 
HETATM   11  C10 UNL     1     -43.226  68.421  -6.323  1.00  0.00     0.033 C 
ENDBRANCH   9  10
ENDBRANCH   8   9
ENDBRANCH   7   8
ENDBRANCH   3   7
BRANCH   1  12
HETATM   12  C3  UNL     1     -43.748  71.267 -10.267  1.00  0.00     0.041 C 
BRANCH  12  13
HETATM   13  C2  UNL     1     -42.410  71.275  -9.569  1.00  0.00     0.000 C 
HETATM   14  C1  UNL     1     -41.785  69.899  -9.838  1.00  0.00     0.005 C 
ENDBRANCH  12  13
ENDBRANCH   1  12
BRANCH   5  15
HETATM   15  C13 UNL     1     -46.969  67.490  -9.800  1.00  0.00     0.042 C 
BRANCH  15  16
HETATM   16  C14 UNL     1     -48.395  67.735 -10.208  1.00  0.00     0.008 C 
BRANCH  16  17
HETATM   17  C15 UNL     1     -48.778  66.955 -11.417  1.00  0.00    -0.023 C 
HETATM   18  C16 UNL     1     -50.040  67.411 -12.080  1.00  0.00     0.009 C 
HETATM   19  C17 UNL     1     -47.670  66.943 -12.439  1.00  0.00     0.009 C 
ENDBRANCH  16  17
ENDBRANCH  15  16
ENDBRANCH   5  15
BRANCH   6  20
HETATM   20  O2  UNL     1     -44.999  68.907 -11.226  1.00  0.00    -0.360 OA
ATOM     21  H2  UNL     1     -44.984  69.469 -11.991  1.00  0.00     0.217 HD
ENDBRANCH   6  20
TORSDOF 10
ENDMDL
