MODEL 1
REMARK VINA RESULT: -7.451275796      0.000      0.000
REMARK  9 active torsions:
REMARK  status: ('A' for Active; 'I' for Inactive)
REMARK    1  A    between atoms: C2_2  and  C3_3 
REMARK    2  A    between atoms: C3_3  and  C6_6 
REMARK    3  A    between atoms: C6_6  and  C7_7 
REMARK    4  A    between atoms: C7_7  and  C8_8 
REMARK    5  A    between atoms: C8_8  and  C9_9 
REMARK    6  A    between atoms: C9_9  and  C10_10 
REMARK    7  A    between atoms: C9_9  and  C13_15 
REMARK    8  A    between atoms: C10_10  and  O2_12 
REMARK    9  A    between atoms: O2_12  and  C11_13 
ROOT
HETATM    1  C9  UNL     1     -46.753  67.313  -8.738  1.00  0.00     0.089 C 
ENDROOT
BRANCH   1   2
HETATM    2  C8  UNL     1     -45.975  68.437  -9.369  1.00  0.00     0.015 C 
BRANCH   2   3
HETATM    3  C7  UNL     1     -45.773  69.641  -8.493  1.00  0.00     0.005 C 
BRANCH   3   4
HETATM    4  C6  UNL     1     -47.027  69.946  -7.705  1.00  0.00     0.038 C 
BRANCH   4   5
HETATM    5  C3  UNL     1     -47.033  71.202  -6.971  1.00  0.00    -0.063 C 
HETATM    6  C4  UNL     1     -46.018  71.424  -6.131  1.00  0.00    -0.024 C 
HETATM    7  C5  UNL     1     -45.980  72.674  -5.331  1.00  0.00     0.036 C 
BRANCH   5   8
HETATM    8  C2  UNL     1     -48.066  72.193  -7.072  1.00  0.00    -0.004 C 
HETATM    9  C1  UNL     1     -49.354  72.039  -7.090  1.00  0.00     0.012 C 
ENDBRANCH   5   8
ENDBRANCH   4   5
ENDBRANCH   3   4
ENDBRANCH   2   3
ENDBRANCH   1   2
BRANCH   1  10
HETATM   10  C10 UNL     1     -45.827  66.343  -8.194  1.00  0.00     0.263 C 
HETATM   11  O1  UNL     1     -45.051  65.700  -8.952  1.00  0.00    -0.265 OA
BRANCH  10  12
HETATM   12  O2  UNL     1     -45.640  65.984  -6.874  1.00  0.00    -0.322 OA
BRANCH  12  13
HETATM   13  C11 UNL     1     -44.796  66.606  -5.954  1.00  0.00     0.174 C 
HETATM   14  C12 UNL     1     -45.399  67.724  -5.182  1.00  0.00     0.034 C 
ENDBRANCH  12  13
ENDBRANCH  10  12
ENDBRANCH   1  10
BRANCH   1  15
HETATM   15  C13 UNL     1     -47.777  66.846  -9.691  1.00  0.00    -0.001 C 
HETATM   16  C14 UNL     1     -49.193  67.195  -9.433  1.00  0.00     0.005 C 
HETATM   17  C15 UNL     1     -49.755  68.235 -10.425  1.00  0.00     0.000 C 
HETATM   18  C16 UNL     1     -49.751  67.720 -11.821  1.00  0.00     0.000 C 
HETATM   19  C17 UNL     1     -48.546  66.872 -12.053  1.00  0.00     0.000 C 
HETATM   20  C18 UNL     1     -47.451  67.351 -11.078  1.00  0.00     0.005 C 
ENDBRANCH   1  15
TORSDOF 9
ENDMDL
MODEL 2
REMARK VINA RESULT: -7.378513428      0.452      1.404
REMARK  9 active torsions:
REMARK  status: ('A' for Active; 'I' for Inactive)
REMARK    1  A    between atoms: C2_2  and  C3_3 
REMARK    2  A    between atoms: C3_3  and  C6_6 
REMARK    3  A    between atoms: C6_6  and  C7_7 
REMARK    4  A    between atoms: C7_7  and  C8_8 
REMARK    5  A    between atoms: C8_8  and  C9_9 
REMARK    6  A    between atoms: C9_9  and  C10_10 
REMARK    7  A    between atoms: C9_9  and  C13_15 
REMARK    8  A    between atoms: C10_10  and  O2_12 
REMARK    9  A    between atoms: O2_12  and  C11_13 
ROOT
HETATM    1  C9  UNL     1     -46.585  67.329  -8.700  1.00  0.00     0.089 C 
ENDROOT
BRANCH   1   2
HETATM    2  C8  UNL     1     -45.833  68.470  -9.332  1.00  0.00     0.015 C 
BRANCH   2   3
HETATM    3  C7  UNL     1     -45.818  69.742  -8.532  1.00  0.00     0.005 C 
BRANCH   3   4
HETATM    4  C6  UNL     1     -46.945  69.755  -7.526  1.00  0.00     0.038 C 
BRANCH   4   5
HETATM    5  C3  UNL     1     -47.215  71.031  -6.881  1.00  0.00    -0.063 C 
HETATM    6  C4  UNL     1     -48.397  71.603  -7.128  1.00  0.00    -0.024 C 
HETATM    7  C5  UNL     1     -48.721  72.919  -6.523  1.00  0.00     0.036 C 
BRANCH   5   8
HETATM    8  C2  UNL     1     -46.288  71.717  -6.027  1.00  0.00    -0.004 C 
HETATM    9  C1  UNL     1     -45.684  71.293  -4.960  1.00  0.00     0.012 C 
ENDBRANCH   5   8
ENDBRANCH   4   5
ENDBRANCH   3   4
ENDBRANCH   2   3
ENDBRANCH   1   2
BRANCH   1  10
HETATM   10  C10 UNL     1     -45.637  66.383  -8.150  1.00  0.00     0.263 C 
HETATM   11  O1  UNL     1     -44.869  65.729  -8.907  1.00  0.00    -0.265 OA
BRANCH  10  12
HETATM   12  O2  UNL     1     -45.418  66.063  -6.826  1.00  0.00    -0.322 OA
BRANCH  12  13
HETATM   13  C11 UNL     1     -44.574  66.729  -5.936  1.00  0.00     0.174 C 
HETATM   14  C12 UNL     1     -45.250  67.607  -4.945  1.00  0.00     0.034 C 
ENDBRANCH  12  13
ENDBRANCH  10  12
ENDBRANCH   1  10
BRANCH   1  15
HETATM   15  C13 UNL     1     -47.593  66.834  -9.656  1.00  0.00    -0.001 C 
HETATM   16  C14 UNL     1     -49.025  67.069  -9.357  1.00  0.00     0.005 C 
HETATM   17  C15 UNL     1     -49.679  68.110 -10.290  1.00  0.00     0.000 C 
HETATM   18  C16 UNL     1     -49.669  67.660 -11.707  1.00  0.00     0.000 C 
HETATM   19  C17 UNL     1     -48.412  66.910 -11.999  1.00  0.00     0.000 C 
HETATM   20  C18 UNL     1     -47.333  67.421 -11.023  1.00  0.00     0.005 C 
ENDBRANCH   1  15
TORSDOF 9
ENDMDL
MODEL 3
REMARK VINA RESULT: -7.188233310      0.970      1.313
REMARK  9 active torsions:
REMARK  status: ('A' for Active; 'I' for Inactive)
REMARK    1  A    between atoms: C2_2  and  C3_3 
REMARK    2  A    between atoms: C3_3  and  C6_6 
REMARK    3  A    between atoms: C6_6  and  C7_7 
REMARK    4  A    between atoms: C7_7  and  C8_8 
REMARK    5  A    between atoms: C8_8  and  C9_9 
REMARK    6  A    between atoms: C9_9  and  C10_10 
REMARK    7  A    between atoms: C9_9  and  C13_15 
REMARK    8  A    between atoms: C10_10  and  O2_12 
REMARK    9  A    between atoms: O2_12  and  C11_13 
ROOT
HETATM    1  C9  UNL     1     -46.625  67.280  -8.926  1.00  0.00     0.089 C 
ENDROOT
BRANCH   1   2
HETATM    2  C8  UNL     1     -45.767  68.244  -9.703  1.00  0.00     0.015 C 
BRANCH   2   3
HETATM    3  C7  UNL     1     -45.233  69.402  -8.909  1.00  0.00     0.005 C 
BRANCH   3   4
HETATM    4  C6  UNL     1     -46.280  69.921  -7.950  1.00  0.00     0.038 C 
BRANCH   4   5
HETATM    5  C3  UNL     1     -46.020  71.227  -7.361  1.00  0.00    -0.063 C 
HETATM    6  C4  UNL     1     -45.339  72.106  -8.101  1.00  0.00    -0.024 C 
HETATM    7  C5  UNL     1     -45.018  73.445  -7.547  1.00  0.00     0.036 C 
BRANCH   5   8
HETATM    8  C2  UNL     1     -46.421  71.611  -6.038  1.00  0.00    -0.004 C 
HETATM    9  C1  UNL     1     -46.097  71.088  -4.896  1.00  0.00     0.012 C 
ENDBRANCH   5   8
ENDBRANCH   4   5
ENDBRANCH   3   4
ENDBRANCH   2   3
ENDBRANCH   1   2
BRANCH   1  10
HETATM   10  C10 UNL     1     -45.778  66.284  -8.306  1.00  0.00     0.263 C 
HETATM   11  O1  UNL     1     -44.985  65.592  -9.001  1.00  0.00    -0.265 OA
BRANCH  10  12
HETATM   12  O2  UNL     1     -45.689  65.948  -6.970  1.00  0.00    -0.322 OA
BRANCH  12  13
HETATM   13  C11 UNL     1     -44.760  66.433  -6.049  1.00  0.00     0.174 C 
HETATM   14  C12 UNL     1     -45.218  67.577  -5.217  1.00  0.00     0.034 C 
ENDBRANCH  12  13
ENDBRANCH  10  12
ENDBRANCH   1  10
BRANCH   1  15
HETATM   15  C13 UNL     1     -47.729  66.821  -9.790  1.00  0.00    -0.001 C 
HETATM   16  C14 UNL     1     -49.116  67.177  -9.412  1.00  0.00     0.005 C 
HETATM   17  C15 UNL     1     -49.755  68.222 -10.351  1.00  0.00     0.000 C 
HETATM   18  C16 UNL     1     -49.873  67.711 -11.742  1.00  0.00     0.000 C 
HETATM   19  C17 UNL     1     -48.696  66.856 -12.077  1.00  0.00     0.000 C 
HETATM   20  C18 UNL     1     -47.519  67.327 -11.198  1.00  0.00     0.005 C 
ENDBRANCH   1  15
TORSDOF 9
ENDMDL
MODEL 4
REMARK VINA RESULT: -7.099259199      0.916      1.244
REMARK  9 active torsions:
REMARK  status: ('A' for Active; 'I' for Inactive)
REMARK    1  A    between atoms: C2_2  and  C3_3 
REMARK    2  A    between atoms: C3_3  and  C6_6 
REMARK    3  A    between atoms: C6_6  and  C7_7 
REMARK    4  A    between atoms: C7_7  and  C8_8 
REMARK    5  A    between atoms: C8_8  and  C9_9 
REMARK    6  A    between atoms: C9_9  and  C10_10 
REMARK    7  A    between atoms: C9_9  and  C13_15 
REMARK    8  A    between atoms: C10_10  and  O2_12 
REMARK    9  A    between atoms: O2_12  and  C11_13 
ROOT
HETATM    1  C9  UNL     1     -46.644  67.293  -8.858  1.00  0.00     0.089 C 
ENDROOT
BRANCH   1   2
HETATM    2  C8  UNL     1     -45.795  68.320  -9.560  1.00  0.00     0.015 C 
BRANCH   2   3
HETATM    3  C7  UNL     1     -45.297  69.437  -8.688  1.00  0.00     0.005 C 
BRANCH   3   4
HETATM    4  C6  UNL     1     -46.432  70.041  -7.892  1.00  0.00     0.038 C 
BRANCH   4   5
HETATM    5  C3  UNL     1     -46.177  71.346  -7.301  1.00  0.00    -0.063 C 
HETATM    6  C4  UNL     1     -46.208  71.430  -5.968  1.00  0.00    -0.024 C 
HETATM    7  C5  UNL     1     -45.983  72.739  -5.305  1.00  0.00     0.036 C 
BRANCH   5   8
HETATM    8  C2  UNL     1     -45.924  72.540  -8.056  1.00  0.00    -0.004 C 
HETATM    9  C1  UNL     1     -44.883  72.863  -8.759  1.00  0.00     0.012 C 
ENDBRANCH   5   8
ENDBRANCH   4   5
ENDBRANCH   3   4
ENDBRANCH   2   3
ENDBRANCH   1   2
BRANCH   1  10
HETATM   10  C10 UNL     1     -45.783  66.307  -8.242  1.00  0.00     0.263 C 
HETATM   11  O1  UNL     1     -45.007  65.603  -8.944  1.00  0.00    -0.265 OA
BRANCH  10  12
HETATM   12  O2  UNL     1     -45.663  65.992  -6.903  1.00  0.00    -0.322 OA
BRANCH  12  13
HETATM   13  C11 UNL     1     -44.800  66.587  -5.982  1.00  0.00     0.174 C 
HETATM   14  C12 UNL     1     -45.371  67.716  -5.203  1.00  0.00     0.034 C 
ENDBRANCH  12  13
ENDBRANCH  10  12
ENDBRANCH   1  10
BRANCH   1  15
HETATM   15  C13 UNL     1     -47.693  66.827  -9.784  1.00  0.00    -0.001 C 
HETATM   16  C14 UNL     1     -49.107  67.132  -9.461  1.00  0.00     0.005 C 
HETATM   17  C15 UNL     1     -49.733  68.184 -10.401  1.00  0.00     0.000 C 
HETATM   18  C16 UNL     1     -49.772  67.709 -11.809  1.00  0.00     0.000 C 
HETATM   19  C17 UNL     1     -48.556  66.898 -12.112  1.00  0.00     0.000 C 
HETATM   20  C18 UNL     1     -47.435  67.378 -11.167  1.00  0.00     0.005 C 
ENDBRANCH   1  15
TORSDOF 9
ENDMDL
MODEL 5
REMARK VINA RESULT: -7.008511541      1.281      1.775
REMARK  9 active torsions:
REMARK  status: ('A' for Active; 'I' for Inactive)
REMARK    1  A    between atoms: C2_2  and  C3_3 
REMARK    2  A    between atoms: C3_3  and  C6_6 
REMARK    3  A    between atoms: C6_6  and  C7_7 
REMARK    4  A    between atoms: C7_7  and  C8_8 
REMARK    5  A    between atoms: C8_8  and  C9_9 
REMARK    6  A    between atoms: C9_9  and  C10_10 
REMARK    7  A    between atoms: C9_9  and  C13_15 
REMARK    8  A    between atoms: C10_10  and  O2_12 
REMARK    9  A    between atoms: O2_12  and  C11_13 
ROOT
HETATM    1  C9  UNL     1     -46.727  67.685  -7.683  1.00  0.00     0.089 C 
ENDROOT
BRANCH   1   2
HETATM    2  C8  UNL     1     -46.399  69.123  -7.989  1.00  0.00     0.015 C 
BRANCH   2   3
HETATM    3  C7  UNL     1     -46.706  70.094  -6.885  1.00  0.00     0.005 C 
BRANCH   3   4
HETATM    4  C6  UNL     1     -47.084  71.445  -7.449  1.00  0.00     0.038 C 
BRANCH   4   5
HETATM    5  C3  UNL     1     -48.291  72.051  -6.908  1.00  0.00    -0.063 C 
HETATM    6  C4  UNL     1     -48.161  72.794  -5.806  1.00  0.00    -0.024 C 
HETATM    7  C5  UNL     1     -49.359  73.418  -5.189  1.00  0.00     0.036 C 
BRANCH   5   8
HETATM    8  C2  UNL     1     -49.602  71.878  -7.465  1.00  0.00    -0.004 C 
HETATM    9  C1  UNL     1     -50.048  70.940  -8.242  1.00  0.00     0.012 C 
ENDBRANCH   5   8
ENDBRANCH   4   5
ENDBRANCH   3   4
ENDBRANCH   2   3
ENDBRANCH   1   2
BRANCH   1  10
HETATM   10  C10 UNL     1     -45.567  67.049  -7.096  1.00  0.00     0.263 C 
HETATM   11  O1  UNL     1     -45.666  65.923  -6.537  1.00  0.00    -0.265 OA
BRANCH  10  12
HETATM   12  O2  UNL     1     -44.268  67.513  -7.050  1.00  0.00    -0.322 OA
BRANCH  12  13
HETATM   13  C11 UNL     1     -43.497  67.719  -5.906  1.00  0.00     0.174 C 
HETATM   14  C12 UNL     1     -43.423  69.124  -5.426  1.00  0.00     0.034 C 
ENDBRANCH  12  13
ENDBRANCH  10  12
ENDBRANCH   1  10
BRANCH   1  15
HETATM   15  C13 UNL     1     -47.335  67.069  -8.877  1.00  0.00    -0.001 C 
HETATM   16  C14 UNL     1     -48.804  66.888  -8.909  1.00  0.00     0.005 C 
HETATM   17  C15 UNL     1     -49.514  67.832  -9.902  1.00  0.00     0.000 C 
HETATM   18  C16 UNL     1     -49.082  67.580 -11.303  1.00  0.00     0.000 C 
HETATM   19  C17 UNL     1     -47.634  67.222 -11.338  1.00  0.00     0.000 C 
HETATM   20  C18 UNL     1     -46.969  67.869 -10.106  1.00  0.00     0.005 C 
ENDBRANCH   1  15
TORSDOF 9
ENDMDL
