MODEL 1
REMARK VINA RESULT: -6.727686031      0.000      0.000
REMARK  10 active torsions:
REMARK  status: ('A' for Active; 'I' for Inactive)
REMARK    1  A    between atoms: O1_2  and  C2_3 
REMARK    2  A    between atoms: C2_3  and  C5_6 
REMARK    3  A    between atoms: C5_6  and  O2_7 
REMARK    4  A    between atoms: C5_6  and  C6_9 
REMARK    5  A    between atoms: C5_6  and  C14_17 
REMARK    6  A    between atoms: C6_9  and  C7_10 
REMARK    7  A    between atoms: C7_10  and  C8_11 
REMARK    8  A    between atoms: C8_11  and  C9_12 
REMARK    9  A    between atoms: C9_12  and  C10_13 
REMARK   10  A    between atoms: C10_13  and  C11_14 
ROOT
HETATM    1  C5  UNL     1     -46.455  70.834  -7.355  1.00  0.00     0.092 C 
ENDROOT
BRANCH   1   2
HETATM    2  C2  UNL     1     -45.217  71.415  -7.988  1.00  0.00     0.084 C 
HETATM    3  C3  UNL     1     -45.408  72.889  -8.199  1.00  0.00     0.049 C 
HETATM    4  C4  UNL     1     -44.094  71.310  -6.935  1.00  0.00     0.049 C 
BRANCH   2   5
HETATM    5  O1  UNL     1     -44.800  70.756  -9.107  1.00  0.00    -0.383 OA
HETATM    6  C1  UNL     1     -44.351  71.539 -10.127  1.00  0.00     0.202 C 
ENDBRANCH   2   5
ENDBRANCH   1   2
BRANCH   1   7
HETATM    7  O2  UNL     1     -46.040  70.230  -6.158  1.00  0.00    -0.386 OA
ATOM      8  H2  UNL     1     -45.390  70.809  -5.778  1.00  0.00     0.210 HD
ENDBRANCH   1   7
BRANCH   1   9
HETATM    9  C6  UNL     1     -46.945  69.644  -8.196  1.00  0.00     0.041 C 
BRANCH   9  10
HETATM   10  C7  UNL     1     -46.613  68.312  -7.588  1.00  0.00     0.003 C 
BRANCH  10  11
HETATM   11  C8  UNL     1     -47.461  67.220  -8.208  1.00  0.00     0.000 C 
BRANCH  11  12
HETATM   12  C9  UNL     1     -48.654  67.785  -8.921  1.00  0.00     0.000 C 
BRANCH  12  13
HETATM   13  C10 UNL     1     -49.181  66.850  -9.971  1.00  0.00     0.004 C 
BRANCH  13  14
HETATM   14  C11 UNL     1     -49.049  67.444 -11.361  1.00  0.00    -0.023 C 
HETATM   15  C12 UNL     1     -47.768  67.059 -12.025  1.00  0.00     0.009 C 
HETATM   16  C13 UNL     1     -50.204  66.958 -12.205  1.00  0.00     0.009 C 
ENDBRANCH  13  14
ENDBRANCH  12  13
ENDBRANCH  11  12
ENDBRANCH  10  11
ENDBRANCH   9  10
ENDBRANCH   1   9
BRANCH   1  17
HETATM   17  C14 UNL     1     -47.578  71.719  -7.086  1.00  0.00     0.023 C 
HETATM   18  C15 UNL     1     -47.878  72.049  -5.648  1.00  0.00     0.007 C 
HETATM   19  C16 UNL     1     -49.101  72.963  -5.840  1.00  0.00     0.001 C 
HETATM   20  C17 UNL     1     -49.752  72.509  -7.137  1.00  0.00     0.001 C 
HETATM   21  C18 UNL     1     -48.936  71.272  -7.565  1.00  0.00     0.007 C 
ENDBRANCH   1  17
TORSDOF 10
ENDMDL
MODEL 2
REMARK VINA RESULT: -6.686559448      1.659      5.788
REMARK  10 active torsions:
REMARK  status: ('A' for Active; 'I' for Inactive)
REMARK    1  A    between atoms: O1_2  and  C2_3 
REMARK    2  A    between atoms: C2_3  and  C5_6 
REMARK    3  A    between atoms: C5_6  and  O2_7 
REMARK    4  A    between atoms: C5_6  and  C6_9 
REMARK    5  A    between atoms: C5_6  and  C14_17 
REMARK    6  A    between atoms: C6_9  and  C7_10 
REMARK    7  A    between atoms: C7_10  and  C8_11 
REMARK    8  A    between atoms: C8_11  and  C9_12 
REMARK    9  A    between atoms: C9_12  and  C10_13 
REMARK   10  A    between atoms: C10_13  and  C11_14 
ROOT
HETATM    1  C5  UNL     1     -46.456  67.981  -8.890  1.00  0.00     0.092 C 
ENDROOT
BRANCH   1   2
HETATM    2  C2  UNL     1     -45.656  66.980  -8.097  1.00  0.00     0.084 C 
HETATM    3  C3  UNL     1     -45.720  65.641  -8.773  1.00  0.00     0.049 C 
HETATM    4  C4  UNL     1     -44.178  67.409  -8.212  1.00  0.00     0.049 C 
BRANCH   2   5
HETATM    5  O1  UNL     1     -45.972  66.935  -6.771  1.00  0.00    -0.383 OA
HETATM    6  C1  UNL     1     -44.926  66.774  -5.914  1.00  0.00     0.202 C 
ENDBRANCH   2   5
ENDBRANCH   1   2
BRANCH   1   7
HETATM    7  O2  UNL     1     -45.525  68.788  -9.562  1.00  0.00    -0.386 OA
ATOM      8  H2  UNL     1     -45.617  69.661  -9.200  1.00  0.00     0.210 HD
ENDBRANCH   1   7
BRANCH   1   9
HETATM    9  C6  UNL     1     -47.138  68.965  -7.924  1.00  0.00     0.041 C 
BRANCH   9  10
HETATM   10  C7  UNL     1     -46.414  70.274  -7.802  1.00  0.00     0.003 C 
BRANCH  10  11
HETATM   11  C8  UNL     1     -45.843  70.437  -6.408  1.00  0.00     0.000 C 
BRANCH  11  12
HETATM   12  C9  UNL     1     -46.732  71.281  -5.542  1.00  0.00     0.000 C 
BRANCH  12  13
HETATM   13  C10 UNL     1     -47.458  72.332  -6.331  1.00  0.00     0.004 C 
BRANCH  13  14
HETATM   14  C11 UNL     1     -48.948  72.308  -6.047  1.00  0.00    -0.023 C 
HETATM   15  C12 UNL     1     -49.393  73.487  -5.245  1.00  0.00     0.009 C 
HETATM   16  C13 UNL     1     -49.689  72.304  -7.365  1.00  0.00     0.009 C 
ENDBRANCH  13  14
ENDBRANCH  12  13
ENDBRANCH  11  12
ENDBRANCH  10  11
ENDBRANCH   9  10
ENDBRANCH   1   9
BRANCH   1  17
HETATM   17  C14 UNL     1     -47.442  67.487  -9.838  1.00  0.00     0.023 C 
HETATM   18  C15 UNL     1     -47.195  67.747 -11.300  1.00  0.00     0.007 C 
HETATM   19  C16 UNL     1     -48.450  67.086 -11.897  1.00  0.00     0.001 C 
HETATM   20  C17 UNL     1     -49.515  67.177 -10.816  1.00  0.00     0.001 C 
HETATM   21  C18 UNL     1     -48.853  67.999  -9.691  1.00  0.00     0.007 C 
ENDBRANCH   1  17
TORSDOF 10
ENDMDL
MODEL 3
REMARK VINA RESULT: -6.676744933      1.696      2.362
REMARK  10 active torsions:
REMARK  status: ('A' for Active; 'I' for Inactive)
REMARK    1  A    between atoms: O1_2  and  C2_3 
REMARK    2  A    between atoms: C2_3  and  C5_6 
REMARK    3  A    between atoms: C5_6  and  O2_7 
REMARK    4  A    between atoms: C5_6  and  C6_9 
REMARK    5  A    between atoms: C5_6  and  C14_17 
REMARK    6  A    between atoms: C6_9  and  C7_10 
REMARK    7  A    between atoms: C7_10  and  C8_11 
REMARK    8  A    between atoms: C8_11  and  C9_12 
REMARK    9  A    between atoms: C9_12  and  C10_13 
REMARK   10  A    between atoms: C10_13  and  C11_14 
ROOT
HETATM    1  C5  UNL     1     -44.502  69.475  -8.313  1.00  0.00     0.092 C 
ENDROOT
BRANCH   1   2
HETATM    2  C2  UNL     1     -43.462  70.136  -9.181  1.00  0.00     0.084 C 
HETATM    3  C3  UNL     1     -42.729  71.173  -8.381  1.00  0.00     0.049 C 
HETATM    4  C4  UNL     1     -42.403  69.059  -9.495  1.00  0.00     0.049 C 
BRANCH   2   5
HETATM    5  O1  UNL     1     -43.942  70.605 -10.368  1.00  0.00    -0.383 OA
HETATM    6  C1  UNL     1     -43.864  71.953 -10.552  1.00  0.00     0.202 C 
ENDBRANCH   2   5
ENDBRANCH   1   2
BRANCH   1   7
HETATM    7  O2  UNL     1     -43.895  68.331  -7.772  1.00  0.00    -0.386 OA
ATOM      8  H2  UNL     1     -44.538  67.935  -7.194  1.00  0.00     0.210 HD
ENDBRANCH   1   7
BRANCH   1   9
HETATM    9  C6  UNL     1     -45.613  68.894  -9.204  1.00  0.00     0.041 C 
BRANCH   9  10
HETATM   10  C7  UNL     1     -45.882  67.440  -8.943  1.00  0.00     0.003 C 
BRANCH  10  11
HETATM   11  C8  UNL     1     -47.269  67.254  -8.362  1.00  0.00     0.000 C 
BRANCH  11  12
HETATM   12  C9  UNL     1     -48.301  68.019  -9.138  1.00  0.00     0.000 C 
BRANCH  12  13
HETATM   13  C10 UNL     1     -49.160  67.119  -9.977  1.00  0.00     0.004 C 
BRANCH  13  14
HETATM   14  C11 UNL     1     -49.080  67.487 -11.447  1.00  0.00    -0.023 C 
HETATM   15  C12 UNL     1     -47.821  67.002 -12.088  1.00  0.00     0.009 C 
HETATM   16  C13 UNL     1     -50.262  66.874 -12.163  1.00  0.00     0.009 C 
ENDBRANCH  13  14
ENDBRANCH  12  13
ENDBRANCH  11  12
ENDBRANCH  10  11
ENDBRANCH   9  10
ENDBRANCH   1   9
BRANCH   1  17
HETATM   17  C14 UNL     1     -45.110  70.252  -7.244  1.00  0.00     0.023 C 
HETATM   18  C15 UNL     1     -45.361  69.556  -5.932  1.00  0.00     0.007 C 
HETATM   19  C16 UNL     1     -46.000  70.713  -5.143  1.00  0.00     0.001 C 
HETATM   20  C17 UNL     1     -46.658  71.605  -6.184  1.00  0.00     0.001 C 
HETATM   21  C18 UNL     1     -46.468  70.849  -7.515  1.00  0.00     0.007 C 
ENDBRANCH   1  17
TORSDOF 10
ENDMDL
MODEL 4
REMARK VINA RESULT: -6.637619676      1.728      2.291
REMARK  10 active torsions:
REMARK  status: ('A' for Active; 'I' for Inactive)
REMARK    1  A    between atoms: O1_2  and  C2_3 
REMARK    2  A    between atoms: C2_3  and  C5_6 
REMARK    3  A    between atoms: C5_6  and  O2_7 
REMARK    4  A    between atoms: C5_6  and  C6_9 
REMARK    5  A    between atoms: C5_6  and  C14_17 
REMARK    6  A    between atoms: C6_9  and  C7_10 
REMARK    7  A    between atoms: C7_10  and  C8_11 
REMARK    8  A    between atoms: C8_11  and  C9_12 
REMARK    9  A    between atoms: C9_12  and  C10_13 
REMARK   10  A    between atoms: C10_13  and  C11_14 
ROOT
HETATM    1  C5  UNL     1     -44.549  69.567  -7.809  1.00  0.00     0.092 C 
ENDROOT
BRANCH   1   2
HETATM    2  C2  UNL     1     -43.384  70.143  -8.572  1.00  0.00     0.084 C 
HETATM    3  C3  UNL     1     -43.846  70.589  -9.929  1.00  0.00     0.049 C 
HETATM    4  C4  UNL     1     -42.983  71.444  -7.845  1.00  0.00     0.049 C 
BRANCH   2   5
HETATM    5  O1  UNL     1     -42.286  69.334  -8.610  1.00  0.00    -0.383 OA
HETATM    6  C1  UNL     1     -41.809  69.036  -9.850  1.00  0.00     0.202 C 
ENDBRANCH   2   5
ENDBRANCH   1   2
BRANCH   1   7
HETATM    7  O2  UNL     1     -44.066  68.423  -7.155  1.00  0.00    -0.386 OA
ATOM      8  H2  UNL     1     -43.118  68.476  -7.187  1.00  0.00     0.210 HD
ENDBRANCH   1   7
BRANCH   1   9
HETATM    9  C6  UNL     1     -45.574  68.996  -8.803  1.00  0.00     0.041 C 
BRANCH   9  10
HETATM   10  C7  UNL     1     -45.835  67.530  -8.609  1.00  0.00     0.003 C 
BRANCH  10  11
HETATM   11  C8  UNL     1     -47.267  67.299  -8.171  1.00  0.00     0.000 C 
BRANCH  11  12
HETATM   12  C9  UNL     1     -48.232  68.098  -8.996  1.00  0.00     0.000 C 
BRANCH  12  13
HETATM   13  C10 UNL     1     -49.136  67.222  -9.814  1.00  0.00     0.004 C 
BRANCH  13  14
HETATM   14  C11 UNL     1     -49.019  67.532 -11.294  1.00  0.00    -0.023 C 
HETATM   15  C12 UNL     1     -47.713  67.087 -11.867  1.00  0.00     0.009 C 
HETATM   16  C13 UNL     1     -50.140  66.829 -12.025  1.00  0.00     0.009 C 
ENDBRANCH  13  14
ENDBRANCH  12  13
ENDBRANCH  11  12
ENDBRANCH  10  11
ENDBRANCH   9  10
ENDBRANCH   1   9
BRANCH   1  17
HETATM   17  C14 UNL     1     -45.239  70.416  -6.851  1.00  0.00     0.023 C 
HETATM   18  C15 UNL     1     -45.473  69.864  -5.470  1.00  0.00     0.007 C 
HETATM   19  C16 UNL     1     -46.215  71.054  -4.836  1.00  0.00     0.001 C 
HETATM   20  C17 UNL     1     -46.909  71.765  -5.987  1.00  0.00     0.001 C 
HETATM   21  C18 UNL     1     -46.630  70.873  -7.214  1.00  0.00     0.007 C 
ENDBRANCH   1  17
TORSDOF 10
ENDMDL
MODEL 5
REMARK VINA RESULT: -6.623500532      0.765      1.117
REMARK  10 active torsions:
REMARK  status: ('A' for Active; 'I' for Inactive)
REMARK    1  A    between atoms: O1_2  and  C2_3 
REMARK    2  A    between atoms: C2_3  and  C5_6 
REMARK    3  A    between atoms: C5_6  and  O2_7 
REMARK    4  A    between atoms: C5_6  and  C6_9 
REMARK    5  A    between atoms: C5_6  and  C14_17 
REMARK    6  A    between atoms: C6_9  and  C7_10 
REMARK    7  A    between atoms: C7_10  and  C8_11 
REMARK    8  A    between atoms: C8_11  and  C9_12 
REMARK    9  A    between atoms: C9_12  and  C10_13 
REMARK   10  A    between atoms: C10_13  and  C11_14 
ROOT
HETATM    1  C5  UNL     1     -46.424  70.942  -7.294  1.00  0.00     0.092 C 
ENDROOT
BRANCH   1   2
HETATM    2  C2  UNL     1     -45.229  71.547  -7.986  1.00  0.00     0.084 C 
HETATM    3  C3  UNL     1     -45.360  73.042  -7.993  1.00  0.00     0.049 C 
HETATM    4  C4  UNL     1     -44.009  71.262  -7.085  1.00  0.00     0.049 C 
BRANCH   2   5
HETATM    5  O1  UNL     1     -44.969  71.019  -9.216  1.00  0.00    -0.383 OA
HETATM    6  C1  UNL     1     -44.238  71.801 -10.058  1.00  0.00     0.202 C 
ENDBRANCH   2   5
ENDBRANCH   1   2
BRANCH   1   7
HETATM    7  O2  UNL     1     -45.942  70.354  -6.115  1.00  0.00    -0.386 OA
ATOM      8  H2  UNL     1     -45.254  69.753  -6.378  1.00  0.00     0.210 HD
ENDBRANCH   1   7
BRANCH   1   9
HETATM    9  C6  UNL     1     -46.926  69.737  -8.107  1.00  0.00     0.041 C 
BRANCH   9  10
HETATM   10  C7  UNL     1     -46.390  68.425  -7.614  1.00  0.00     0.003 C 
BRANCH  10  11
HETATM   11  C8  UNL     1     -45.997  67.540  -8.779  1.00  0.00     0.000 C 
BRANCH  11  12
HETATM   12  C9  UNL     1     -46.536  68.065 -10.077  1.00  0.00     0.000 C 
BRANCH  12  13
HETATM   13  C10 UNL     1     -47.512  67.116 -10.710  1.00  0.00     0.004 C 
BRANCH  13  14
HETATM   14  C11 UNL     1     -48.878  67.754 -10.876  1.00  0.00    -0.023 C 
HETATM   15  C12 UNL     1     -49.739  67.012 -11.846  1.00  0.00     0.009 C 
HETATM   16  C13 UNL     1     -49.565  67.778  -9.530  1.00  0.00     0.009 C 
ENDBRANCH  13  14
ENDBRANCH  12  13
ENDBRANCH  11  12
ENDBRANCH  10  11
ENDBRANCH   9  10
ENDBRANCH   1   9
BRANCH   1  17
HETATM   17  C14 UNL     1     -47.552  71.804  -6.978  1.00  0.00     0.023 C 
HETATM   18  C15 UNL     1     -47.880  72.020  -5.524  1.00  0.00     0.007 C 
HETATM   19  C16 UNL     1     -49.100  72.947  -5.667  1.00  0.00     0.001 C 
HETATM   20  C17 UNL     1     -49.726  72.596  -7.008  1.00  0.00     0.001 C 
HETATM   21  C18 UNL     1     -48.901  71.395  -7.516  1.00  0.00     0.007 C 
ENDBRANCH   1  17
TORSDOF 10
ENDMDL
