MODEL 1
REMARK VINA RESULT: -7.272178872      0.000      0.000
REMARK  5 active torsions:
REMARK  status: ('A' for Active; 'I' for Inactive)
REMARK    1  A    between atoms: C2_2  and  C3_3 
REMARK    2  A    between atoms: C3_3  and  C4_4 
REMARK    3  A    between atoms: C4_4  and  O1_5 
REMARK    4  A    between atoms: C4_4  and  C7_8 
REMARK    5  A    between atoms: O1_5  and  C5_6 
ROOT
HETATM    1  C4  UNL     1      -2.045  -0.084   6.471  1.00  0.00     0.120 C 
ENDROOT
BRANCH   1   2
HETATM    2  C3  UNL     1      -2.631   0.383   7.560  1.00  0.00    -0.092 C 
BRANCH   2   3
HETATM    3  C2  UNL     1      -3.230   0.863   8.676  1.00  0.00     0.048 C 
HETATM    4  C1  UNL     1      -2.439   1.549   9.562  1.00  0.00     0.020 C 
ENDBRANCH   2   3
ENDBRANCH   1   2
BRANCH   1   5
HETATM    5  O1  UNL     1      -1.558  -1.354   6.572  1.00  0.00    -0.343 OA
BRANCH   5   6
HETATM    6  C5  UNL     1      -0.583  -2.211   6.771  1.00  0.00     0.172 C 
HETATM    7  C6  UNL     1       0.644  -1.545   7.452  1.00  0.00     0.034 C 
ENDBRANCH   5   6
ENDBRANCH   1   5
BRANCH   1   8
HETATM    8  C7  UNL     1      -1.900   0.664   5.222  1.00  0.00    -0.020 C 
HETATM    9  C8  UNL     1      -0.701   1.125   4.807  1.00  0.00    -0.016 C 
HETATM   10  C9  UNL     1      -0.846   1.859   3.522  1.00  0.00     0.028 C 
HETATM   11  C10 UNL     1      -2.020   1.125   2.926  1.00  0.00     0.009 C 
HETATM   12  C11 UNL     1      -2.891   1.042   4.191  1.00  0.00     0.042 C 
ENDBRANCH   1   8
TORSDOF 5
ENDMDL
MODEL 2
REMARK VINA RESULT: -7.162055639      0.950      1.475
REMARK  5 active torsions:
REMARK  status: ('A' for Active; 'I' for Inactive)
REMARK    1  A    between atoms: C2_2  and  C3_3 
REMARK    2  A    between atoms: C3_3  and  C4_4 
REMARK    3  A    between atoms: C4_4  and  O1_5 
REMARK    4  A    between atoms: C4_4  and  C7_8 
REMARK    5  A    between atoms: O1_5  and  C5_6 
ROOT
HETATM    1  C4  UNL     1      -2.263  -0.590   6.392  1.00  0.00     0.120 C 
ENDROOT
BRANCH   1   2
HETATM    2  C3  UNL     1      -2.716  -0.010   7.490  1.00  0.00    -0.092 C 
BRANCH   2   3
HETATM    3  C2  UNL     1      -3.180   0.586   8.615  1.00  0.00     0.048 C 
HETATM    4  C1  UNL     1      -2.273   1.290   9.365  1.00  0.00     0.020 C 
ENDBRANCH   2   3
ENDBRANCH   1   2
BRANCH   1   5
HETATM    5  O1  UNL     1      -1.489  -1.694   6.595  1.00  0.00    -0.343 OA
BRANCH   5   6
HETATM    6  C5  UNL     1      -0.326  -2.283   6.757  1.00  0.00     0.172 C 
HETATM    7  C6  UNL     1       0.774  -1.279   7.202  1.00  0.00     0.034 C 
ENDBRANCH   5   6
ENDBRANCH   1   5
BRANCH   1   8
HETATM    8  C7  UNL     1      -2.540  -0.122   5.034  1.00  0.00    -0.020 C 
HETATM    9  C8  UNL     1      -3.204  -0.889   4.141  1.00  0.00    -0.016 C 
HETATM   10  C9  UNL     1      -3.332  -0.176   2.843  1.00  0.00     0.028 C 
HETATM   11  C10 UNL     1      -3.369   1.253   3.324  1.00  0.00     0.009 C 
HETATM   12  C11 UNL     1      -2.240   1.161   4.364  1.00  0.00     0.042 C 
ENDBRANCH   1   8
TORSDOF 5
ENDMDL
MODEL 3
REMARK VINA RESULT: -7.126042713      0.831      1.452
REMARK  5 active torsions:
REMARK  status: ('A' for Active; 'I' for Inactive)
REMARK    1  A    between atoms: C2_2  and  C3_3 
REMARK    2  A    between atoms: C3_3  and  C4_4 
REMARK    3  A    between atoms: C4_4  and  O1_5 
REMARK    4  A    between atoms: C4_4  and  C7_8 
REMARK    5  A    between atoms: O1_5  and  C5_6 
ROOT
HETATM    1  C4  UNL     1      -1.206   0.310   6.644  1.00  0.00     0.120 C 
ENDROOT
BRANCH   1   2
HETATM    2  C3  UNL     1      -2.164   0.416   7.548  1.00  0.00    -0.092 C 
BRANCH   2   3
HETATM    3  C2  UNL     1      -3.147   0.525   8.475  1.00  0.00     0.048 C 
HETATM    4  C1  UNL     1      -3.051   1.566   9.362  1.00  0.00     0.020 C 
ENDBRANCH   2   3
ENDBRANCH   1   2
BRANCH   1   5
HETATM    5  O1  UNL     1      -0.023  -0.185   7.106  1.00  0.00    -0.343 OA
BRANCH   5   6
HETATM    6  C5  UNL     1       0.793  -1.177   7.382  1.00  0.00     0.172 C 
HETATM    7  C6  UNL     1       0.189  -2.552   6.981  1.00  0.00     0.034 C 
ENDBRANCH   5   6
ENDBRANCH   1   5
BRANCH   1   8
HETATM    8  C7  UNL     1      -1.350   0.685   5.237  1.00  0.00    -0.020 C 
HETATM    9  C8  UNL     1      -2.556   0.966   4.698  1.00  0.00    -0.016 C 
HETATM   10  C9  UNL     1      -2.411   1.300   3.256  1.00  0.00     0.028 C 
HETATM   11  C10 UNL     1      -1.029   1.902   3.257  1.00  0.00     0.009 C 
HETATM   12  C11 UNL     1      -0.344   0.870   4.169  1.00  0.00     0.042 C 
ENDBRANCH   1   8
TORSDOF 5
ENDMDL
MODEL 4
REMARK VINA RESULT: -7.094899458      0.958      1.201
REMARK  5 active torsions:
REMARK  status: ('A' for Active; 'I' for Inactive)
REMARK    1  A    between atoms: C2_2  and  C3_3 
REMARK    2  A    between atoms: C3_3  and  C4_4 
REMARK    3  A    between atoms: C4_4  and  O1_5 
REMARK    4  A    between atoms: C4_4  and  C7_8 
REMARK    5  A    between atoms: O1_5  and  C5_6 
ROOT
HETATM    1  C4  UNL     1      -2.245  -0.612   6.277  1.00  0.00     0.120 C 
ENDROOT
BRANCH   1   2
HETATM    2  C3  UNL     1      -2.677  -0.107   7.419  1.00  0.00    -0.092 C 
BRANCH   2   3
HETATM    3  C2  UNL     1      -3.119   0.411   8.591  1.00  0.00     0.048 C 
HETATM    4  C1  UNL     1      -2.251   1.214   9.284  1.00  0.00     0.020 C 
ENDBRANCH   2   3
ENDBRANCH   1   2
BRANCH   1   5
HETATM    5  O1  UNL     1      -1.341  -1.626   6.394  1.00  0.00    -0.343 OA
BRANCH   5   6
HETATM    6  C5  UNL     1      -0.183  -2.111   6.779  1.00  0.00     0.172 C 
HETATM    7  C6  UNL     1       0.854  -0.986   7.053  1.00  0.00     0.034 C 
ENDBRANCH   5   6
ENDBRANCH   1   5
BRANCH   1   8
HETATM    8  C7  UNL     1      -2.670  -0.151   4.955  1.00  0.00    -0.020 C 
HETATM    9  C8  UNL     1      -2.388   1.093   4.513  1.00  0.00    -0.016 C 
HETATM   10  C9  UNL     1      -2.949   1.297   3.150  1.00  0.00     0.028 C 
HETATM   11  C10 UNL     1      -2.880  -0.112   2.619  1.00  0.00     0.009 C 
HETATM   12  C11 UNL     1      -3.399  -0.842   3.869  1.00  0.00     0.042 C 
ENDBRANCH   1   8
TORSDOF 5
ENDMDL
MODEL 5
REMARK VINA RESULT: -7.070154003      1.328      1.950
REMARK  5 active torsions:
REMARK  status: ('A' for Active; 'I' for Inactive)
REMARK    1  A    between atoms: C2_2  and  C3_3 
REMARK    2  A    between atoms: C3_3  and  C4_4 
REMARK    3  A    between atoms: C4_4  and  O1_5 
REMARK    4  A    between atoms: C4_4  and  C7_8 
REMARK    5  A    between atoms: O1_5  and  C5_6 
ROOT
HETATM    1  C4  UNL     1      -1.601   0.273   6.291  1.00  0.00     0.120 C 
ENDROOT
BRANCH   1   2
HETATM    2  C3  UNL     1      -2.245   0.431   7.434  1.00  0.00    -0.092 C 
BRANCH   2   3
HETATM    3  C2  UNL     1      -2.906   0.592   8.606  1.00  0.00     0.048 C 
HETATM    4  C1  UNL     1      -2.414   1.534   9.473  1.00  0.00     0.020 C 
ENDBRANCH   2   3
ENDBRANCH   1   2
BRANCH   1   5
HETATM    5  O1  UNL     1      -0.267   0.018   6.405  1.00  0.00    -0.343 OA
BRANCH   5   6
HETATM    6  C5  UNL     1       0.870  -0.451   5.943  1.00  0.00     0.172 C 
HETATM    7  C6  UNL     1       1.387   0.373   4.732  1.00  0.00     0.034 C 
ENDBRANCH   5   6
ENDBRANCH   1   5
BRANCH   1   8
HETATM    8  C7  UNL     1      -2.225   0.360   4.970  1.00  0.00    -0.020 C 
HETATM    9  C8  UNL     1      -3.061  -0.599   4.516  1.00  0.00    -0.016 C 
HETATM   10  C9  UNL     1      -3.535  -0.265   3.147  1.00  0.00     0.028 C 
HETATM   11  C10 UNL     1      -3.506   1.240   3.213  1.00  0.00     0.009 C 
HETATM   12  C11 UNL     1      -2.151   1.401   3.923  1.00  0.00     0.042 C 
ENDBRANCH   1   8
TORSDOF 5
ENDMDL
