MODEL 1
REMARK VINA RESULT: -7.413894823      0.000      0.000
REMARK  6 active torsions:
REMARK  status: ('A' for Active; 'I' for Inactive)
REMARK    1  A    between atoms: C2_2  and  C3_3 
REMARK    2  A    between atoms: C3_3  and  C5_5 
REMARK    3  A    between atoms: C5_5  and  C6_6 
REMARK    4  A    between atoms: C6_6  and  C8_8 
REMARK    5  A    between atoms: C8_8  and  C9_9 
REMARK    6  A    between atoms: C9_9  and  C10_10 
ROOT
HETATM    1  C6  UNL     1      -2.164   1.049   4.276  1.00  0.00    -0.083 C 
HETATM    2  C7  UNL     1      -3.306   1.420   3.262  1.00  0.00     0.043 C 
ENDROOT
BRANCH   1   3
HETATM    3  C5  UNL     1      -2.555   0.405   5.265  1.00  0.00     0.009 C 
BRANCH   3   4
HETATM    4  C3  UNL     1      -2.193  -0.021   6.574  1.00  0.00    -0.063 C 
HETATM    5  C4  UNL     1      -1.590  -1.315   6.602  1.00  0.00     0.048 C 
BRANCH   4   6
HETATM    6  C2  UNL     1      -2.294   0.485   7.889  1.00  0.00    -0.004 C 
HETATM    7  C1  UNL     1      -3.263   0.857   8.653  1.00  0.00     0.012 C 
ENDBRANCH   4   6
ENDBRANCH   3   4
ENDBRANCH   1   3
BRANCH   1   8
HETATM    8  C8  UNL     1      -0.880   1.483   3.793  1.00  0.00     0.041 C 
BRANCH   8   9
HETATM    9  C9  UNL     1       0.205   1.528   4.852  1.00  0.00     0.082 C 
BRANCH   9  10
HETATM   10  C10 UNL     1       1.082   0.332   4.786  1.00  0.00     0.123 C 
HETATM   11  C11 UNL     1       1.224  -0.462   3.543  1.00  0.00     0.091 C 
HETATM   12  O1  UNL     1       1.703  -0.018   5.768  1.00  0.00    -0.298 OA
ENDBRANCH   9  10
ENDBRANCH   8   9
ENDBRANCH   1   8
TORSDOF 6
ENDMDL
MODEL 2
REMARK VINA RESULT: -7.383194385      1.778      2.889
REMARK  6 active torsions:
REMARK  status: ('A' for Active; 'I' for Inactive)
REMARK    1  A    between atoms: C2_2  and  C3_3 
REMARK    2  A    between atoms: C3_3  and  C5_5 
REMARK    3  A    between atoms: C5_5  and  C6_6 
REMARK    4  A    between atoms: C6_6  and  C8_8 
REMARK    5  A    between atoms: C8_8  and  C9_9 
REMARK    6  A    between atoms: C9_9  and  C10_10 
ROOT
HETATM    1  C6  UNL     1      -0.422   1.156   4.765  1.00  0.00    -0.083 C 
HETATM    2  C7  UNL     1       1.110   0.829   4.638  1.00  0.00     0.043 C 
ENDROOT
BRANCH   1   3
HETATM    3  C5  UNL     1      -0.901   0.911   5.886  1.00  0.00     0.009 C 
BRANCH   3   4
HETATM    4  C3  UNL     1      -1.803   0.063   6.588  1.00  0.00    -0.063 C 
HETATM    5  C4  UNL     1      -1.741  -1.301   6.169  1.00  0.00     0.048 C 
BRANCH   4   6
HETATM    6  C2  UNL     1      -2.787   0.208   7.591  1.00  0.00    -0.004 C 
HETATM    7  C1  UNL     1      -2.900   0.910   8.666  1.00  0.00     0.012 C 
ENDBRANCH   4   6
ENDBRANCH   3   4
ENDBRANCH   1   3
BRANCH   1   8
HETATM    8  C8  UNL     1      -0.928   1.745   3.554  1.00  0.00     0.041 C 
BRANCH   8   9
HETATM    9  C9  UNL     1      -1.059   0.778   2.394  1.00  0.00     0.082 C 
BRANCH   9  10
HETATM   10  C10 UNL     1      -2.098  -0.250   2.655  1.00  0.00     0.123 C 
HETATM   11  C11 UNL     1      -3.477   0.119   3.052  1.00  0.00     0.091 C 
HETATM   12  O1  UNL     1      -1.825  -1.428   2.545  1.00  0.00    -0.298 OA
ENDBRANCH   9  10
ENDBRANCH   8   9
ENDBRANCH   1   8
TORSDOF 6
ENDMDL
MODEL 3
REMARK VINA RESULT: -7.297986545      2.121      3.219
REMARK  6 active torsions:
REMARK  status: ('A' for Active; 'I' for Inactive)
REMARK    1  A    between atoms: C2_2  and  C3_3 
REMARK    2  A    between atoms: C3_3  and  C5_5 
REMARK    3  A    between atoms: C5_5  and  C6_6 
REMARK    4  A    between atoms: C6_6  and  C8_8 
REMARK    5  A    between atoms: C8_8  and  C9_9 
REMARK    6  A    between atoms: C9_9  and  C10_10 
ROOT
HETATM    1  C6  UNL     1      -0.426   0.968   4.290  1.00  0.00    -0.083 C 
HETATM    2  C7  UNL     1       0.739   0.105   3.684  1.00  0.00     0.043 C 
ENDROOT
BRANCH   1   3
HETATM    3  C5  UNL     1      -0.461   0.968   5.534  1.00  0.00     0.009 C 
BRANCH   3   4
HETATM    4  C3  UNL     1      -1.149   0.443   6.662  1.00  0.00    -0.063 C 
HETATM    5  C4  UNL     1      -0.328  -0.371   7.500  1.00  0.00     0.048 C 
BRANCH   4   6
HETATM    6  C2  UNL     1      -2.463   0.484   7.181  1.00  0.00    -0.004 C 
HETATM    7  C1  UNL     1      -2.980   0.483   8.362  1.00  0.00     0.012 C 
ENDBRANCH   4   6
ENDBRANCH   3   4
ENDBRANCH   1   3
BRANCH   1   8
HETATM    8  C8  UNL     1      -1.168   1.637   3.256  1.00  0.00     0.041 C 
BRANCH   8   9
HETATM    9  C9  UNL     1      -2.671   1.453   3.345  1.00  0.00     0.082 C 
BRANCH   9  10
HETATM   10  C10 UNL     1      -3.076   0.076   2.965  1.00  0.00     0.123 C 
HETATM   11  C11 UNL     1      -3.437  -0.939   3.983  1.00  0.00     0.091 C 
HETATM   12  O1  UNL     1      -3.115  -0.243   1.795  1.00  0.00    -0.298 OA
ENDBRANCH   9  10
ENDBRANCH   8   9
ENDBRANCH   1   8
TORSDOF 6
ENDMDL
MODEL 4
REMARK VINA RESULT: -7.285090276      0.401      1.647
REMARK  6 active torsions:
REMARK  status: ('A' for Active; 'I' for Inactive)
REMARK    1  A    between atoms: C2_2  and  C3_3 
REMARK    2  A    between atoms: C3_3  and  C5_5 
REMARK    3  A    between atoms: C5_5  and  C6_6 
REMARK    4  A    between atoms: C6_6  and  C8_8 
REMARK    5  A    between atoms: C8_8  and  C9_9 
REMARK    6  A    between atoms: C9_9  and  C10_10 
ROOT
HETATM    1  C6  UNL     1      -2.093   1.151   4.332  1.00  0.00    -0.083 C 
HETATM    2  C7  UNL     1      -3.212   1.213   3.230  1.00  0.00     0.043 C 
ENDROOT
BRANCH   1   3
HETATM    3  C5  UNL     1      -2.497   0.762   5.442  1.00  0.00     0.009 C 
BRANCH   3   4
HETATM    4  C3  UNL     1      -2.177  -0.066   6.553  1.00  0.00    -0.063 C 
HETATM    5  C4  UNL     1      -2.595   0.479   7.806  1.00  0.00     0.048 C 
BRANCH   4   6
HETATM    6  C2  UNL     1      -1.519  -1.299   6.768  1.00  0.00    -0.004 C 
HETATM    7  C1  UNL     1      -0.897  -2.144   6.020  1.00  0.00     0.012 C 
ENDBRANCH   4   6
ENDBRANCH   3   4
ENDBRANCH   1   3
BRANCH   1   8
HETATM    8  C8  UNL     1      -0.807   1.497   3.786  1.00  0.00     0.041 C 
BRANCH   8   9
HETATM    9  C9  UNL     1       0.309   1.569   4.810  1.00  0.00     0.082 C 
BRANCH   9  10
HETATM   10  C10 UNL     1       1.180   0.369   4.754  1.00  0.00     0.123 C 
HETATM   11  C11 UNL     1       1.292  -0.457   3.528  1.00  0.00     0.091 C 
HETATM   12  O1  UNL     1       1.823   0.040   5.730  1.00  0.00    -0.298 OA
ENDBRANCH   9  10
ENDBRANCH   8   9
ENDBRANCH   1   8
TORSDOF 6
ENDMDL
MODEL 5
REMARK VINA RESULT: -7.184750454      1.509      1.887
REMARK  6 active torsions:
REMARK  status: ('A' for Active; 'I' for Inactive)
REMARK    1  A    between atoms: C2_2  and  C3_3 
REMARK    2  A    between atoms: C3_3  and  C5_5 
REMARK    3  A    between atoms: C5_5  and  C6_6 
REMARK    4  A    between atoms: C6_6  and  C8_8 
REMARK    5  A    between atoms: C8_8  and  C9_9 
REMARK    6  A    between atoms: C9_9  and  C10_10 
ROOT
HETATM    1  C6  UNL     1      -2.636   0.067   5.113  1.00  0.00    -0.083 C 
HETATM    2  C7  UNL     1      -3.255  -0.984   4.122  1.00  0.00     0.043 C 
ENDROOT
BRANCH   1   3
HETATM    3  C5  UNL     1      -2.558  -0.331   6.289  1.00  0.00     0.009 C 
BRANCH   3   4
HETATM    4  C3  UNL     1      -2.408   0.097   7.637  1.00  0.00    -0.063 C 
HETATM    5  C4  UNL     1      -1.071  -0.025   8.125  1.00  0.00     0.048 C 
BRANCH   4   6
HETATM    6  C2  UNL     1      -3.244   0.596   8.662  1.00  0.00    -0.004 C 
HETATM    7  C1  UNL     1      -3.282   1.675   9.365  1.00  0.00     0.012 C 
ENDBRANCH   4   6
ENDBRANCH   3   4
ENDBRANCH   1   3
BRANCH   1   8
HETATM    8  C8  UNL     1      -2.222   1.255   4.417  1.00  0.00     0.041 C 
BRANCH   8   9
HETATM    9  C9  UNL     1      -0.722   1.478   4.394  1.00  0.00     0.082 C 
BRANCH   9  10
HETATM   10  C10 UNL     1      -0.063   0.646   3.355  1.00  0.00     0.123 C 
HETATM   11  C11 UNL     1       0.980  -0.349   3.699  1.00  0.00     0.091 C 
HETATM   12  O1  UNL     1      -0.375   0.774   2.189  1.00  0.00    -0.298 OA
ENDBRANCH   9  10
ENDBRANCH   8   9
ENDBRANCH   1   8
TORSDOF 6
ENDMDL
