MODEL 1
REMARK VINA RESULT: -7.190743243      0.000      0.000
REMARK  6 active torsions:
REMARK  status: ('A' for Active; 'I' for Inactive)
REMARK    1  A    between atoms: C3_3  and  C4_4 
REMARK    2  A    between atoms: C4_4  and  C5_5 
REMARK    3  A    between atoms: C5_5  and  C6_7 
REMARK    4  A    between atoms: C6_7  and  C7_8 
REMARK    5  A    between atoms: C6_7  and  C9_10 
REMARK    6  A    between atoms: C9_10  and  C10_11 
ROOT
HETATM    1  C1  UNL     1       0.415   1.729   4.540  1.00  0.00     0.012 C 
HETATM    2  C2  UNL     1      -0.619   1.580   3.949  1.00  0.00    -0.117 C 
HETATM    3  C3  UNL     1      -1.889   1.380   3.245  1.00  0.00     0.100 C 
ENDROOT
BRANCH   3   4
HETATM    4  C4  UNL     1      -2.911   0.879   4.230  1.00  0.00     0.090 C 
BRANCH   4   5
HETATM    5  C5  UNL     1      -2.585  -0.538   4.610  1.00  0.00     0.132 C 
HETATM    6  O1  UNL     1      -2.638  -1.378   3.744  1.00  0.00    -0.298 OA
BRANCH   5   7
HETATM    7  C6  UNL     1      -2.234  -0.851   5.981  1.00  0.00     0.055 C 
BRANCH   7   8
HETATM    8  C7  UNL     1      -1.007  -1.757   6.024  1.00  0.00     0.007 C 
HETATM    9  C8  UNL     1       0.119  -1.073   6.761  1.00  0.00     0.006 C 
ENDBRANCH   7   8
BRANCH   7  10
HETATM   10  C9  UNL     1      -2.235   0.230   6.964  1.00  0.00     0.011 C 
BRANCH  10  11
HETATM   11  C10 UNL     1      -3.004   0.045   8.213  1.00  0.00    -0.004 C 
HETATM   12  C11 UNL     1      -3.284   1.230   9.047  1.00  0.00     0.005 C 
ENDBRANCH  10  11
ENDBRANCH   7  10
ENDBRANCH   5   7
ENDBRANCH   4   5
ENDBRANCH   3   4
TORSDOF 6
ENDMDL
MODEL 2
REMARK VINA RESULT: -7.030022754      1.628      3.304
REMARK  6 active torsions:
REMARK  status: ('A' for Active; 'I' for Inactive)
REMARK    1  A    between atoms: C3_3  and  C4_4 
REMARK    2  A    between atoms: C4_4  and  C5_5 
REMARK    3  A    between atoms: C5_5  and  C6_7 
REMARK    4  A    between atoms: C6_7  and  C7_8 
REMARK    5  A    between atoms: C6_7  and  C9_10 
REMARK    6  A    between atoms: C9_10  and  C10_11 
ROOT
HETATM    1  C1  UNL     1       1.202  -1.447   6.308  1.00  0.00     0.012 C 
HETATM    2  C2  UNL     1       1.248  -0.603   5.455  1.00  0.00    -0.117 C 
HETATM    3  C3  UNL     1       1.280   0.434   4.421  1.00  0.00     0.100 C 
ENDROOT
BRANCH   3   4
HETATM    4  C4  UNL     1       0.325   1.530   4.810  1.00  0.00     0.090 C 
BRANCH   4   5
HETATM    5  C5  UNL     1      -0.914   1.436   3.964  1.00  0.00     0.132 C 
HETATM    6  O1  UNL     1      -0.795   1.604   2.774  1.00  0.00    -0.298 OA
BRANCH   5   7
HETATM    7  C6  UNL     1      -2.192   1.163   4.591  1.00  0.00     0.055 C 
BRANCH   7   8
HETATM    8  C7  UNL     1      -3.308   1.165   3.551  1.00  0.00     0.007 C 
HETATM    9  C8  UNL     1      -3.748  -0.249   3.258  1.00  0.00     0.006 C 
ENDBRANCH   7   8
BRANCH   7  10
HETATM   10  C9  UNL     1      -2.269   0.085   5.574  1.00  0.00     0.011 C 
BRANCH  10  11
HETATM   11  C10 UNL     1      -2.572   0.433   6.979  1.00  0.00    -0.004 C 
HETATM   12  C11 UNL     1      -1.466   0.434   7.956  1.00  0.00     0.005 C 
ENDBRANCH  10  11
ENDBRANCH   7  10
ENDBRANCH   5   7
ENDBRANCH   4   5
ENDBRANCH   3   4
TORSDOF 6
ENDMDL
MODEL 3
REMARK VINA RESULT: -6.988349986      1.808      3.422
REMARK  6 active torsions:
REMARK  status: ('A' for Active; 'I' for Inactive)
REMARK    1  A    between atoms: C3_3  and  C4_4 
REMARK    2  A    between atoms: C4_4  and  C5_5 
REMARK    3  A    between atoms: C5_5  and  C6_7 
REMARK    4  A    between atoms: C6_7  and  C7_8 
REMARK    5  A    between atoms: C6_7  and  C9_10 
REMARK    6  A    between atoms: C9_10  and  C10_11 
ROOT
HETATM    1  C1  UNL     1      -1.215   1.870   3.006  1.00  0.00     0.012 C 
HETATM    2  C2  UNL     1      -1.768   1.377   3.951  1.00  0.00    -0.117 C 
HETATM    3  C3  UNL     1      -2.420   0.766   5.111  1.00  0.00     0.100 C 
ENDROOT
BRANCH   3   4
HETATM    4  C4  UNL     1      -1.385   0.535   6.178  1.00  0.00     0.090 C 
BRANCH   4   5
HETATM    5  C5  UNL     1      -0.723  -0.796   5.953  1.00  0.00     0.132 C 
HETATM    6  O1  UNL     1      -1.431  -1.740   5.699  1.00  0.00    -0.298 OA
BRANCH   5   7
HETATM    7  C6  UNL     1       0.720  -0.905   6.055  1.00  0.00     0.055 C 
BRANCH   7   8
HETATM    8  C7  UNL     1       1.397   0.069   5.096  1.00  0.00     0.007 C 
HETATM    9  C8  UNL     1       1.458  -0.524   3.709  1.00  0.00     0.006 C 
ENDBRANCH   7   8
BRANCH   7  10
HETATM   10  C9  UNL     1       1.319  -0.979   7.384  1.00  0.00     0.011 C 
BRANCH  10  11
HETATM   11  C10 UNL     1       1.111  -2.205   8.184  1.00  0.00    -0.004 C 
HETATM   12  C11 UNL     1       1.401  -3.509   7.559  1.00  0.00     0.005 C 
ENDBRANCH  10  11
ENDBRANCH   7  10
ENDBRANCH   5   7
ENDBRANCH   4   5
ENDBRANCH   3   4
TORSDOF 6
ENDMDL
MODEL 4
REMARK VINA RESULT: -6.916051519      1.429      4.600
REMARK  6 active torsions:
REMARK  status: ('A' for Active; 'I' for Inactive)
REMARK    1  A    between atoms: C3_3  and  C4_4 
REMARK    2  A    between atoms: C4_4  and  C5_5 
REMARK    3  A    between atoms: C5_5  and  C6_7 
REMARK    4  A    between atoms: C6_7  and  C7_8 
REMARK    5  A    between atoms: C6_7  and  C9_10 
REMARK    6  A    between atoms: C9_10  and  C10_11 
ROOT
HETATM    1  C1  UNL     1      -3.160   2.103   9.780  1.00  0.00     0.012 C 
HETATM    2  C2  UNL     1      -2.546   1.258   9.188  1.00  0.00    -0.117 C 
HETATM    3  C3  UNL     1      -1.818   0.220   8.454  1.00  0.00     0.100 C 
ENDROOT
BRANCH   3   4
HETATM    4  C4  UNL     1      -2.583  -0.109   7.201  1.00  0.00     0.090 C 
BRANCH   4   5
HETATM    5  C5  UNL     1      -1.628  -0.583   6.142  1.00  0.00     0.132 C 
HETATM    6  O1  UNL     1      -1.170  -1.694   6.255  1.00  0.00    -0.298 OA
BRANCH   5   7
HETATM    7  C6  UNL     1      -1.282   0.297   5.042  1.00  0.00     0.055 C 
BRANCH   7   8
HETATM    8  C7  UNL     1      -2.527   1.002   4.512  1.00  0.00     0.007 C 
HETATM    9  C8  UNL     1      -2.267   1.546   3.128  1.00  0.00     0.006 C 
ENDBRANCH   7   8
BRANCH   7  10
HETATM   10  C9  UNL     1      -0.102   1.148   5.176  1.00  0.00     0.011 C 
BRANCH  10  11
HETATM   11  C10 UNL     1       1.191   0.646   4.664  1.00  0.00    -0.004 C 
HETATM   12  C11 UNL     1       1.175  -0.420   3.643  1.00  0.00     0.005 C 
ENDBRANCH  10  11
ENDBRANCH   7  10
ENDBRANCH   5   7
ENDBRANCH   4   5
ENDBRANCH   3   4
TORSDOF 6
ENDMDL
MODEL 5
REMARK VINA RESULT: -6.914405374      1.776      3.474
REMARK  6 active torsions:
REMARK  status: ('A' for Active; 'I' for Inactive)
REMARK    1  A    between atoms: C3_3  and  C4_4 
REMARK    2  A    between atoms: C4_4  and  C5_5 
REMARK    3  A    between atoms: C5_5  and  C6_7 
REMARK    4  A    between atoms: C6_7  and  C7_8 
REMARK    5  A    between atoms: C6_7  and  C9_10 
REMARK    6  A    between atoms: C9_10  and  C10_11 
ROOT
HETATM    1  C1  UNL     1      -3.139   1.229   3.650  1.00  0.00     0.012 C 
HETATM    2  C2  UNL     1      -1.941   1.191   3.574  1.00  0.00    -0.117 C 
HETATM    3  C3  UNL     1      -0.478   1.160   3.502  1.00  0.00     0.100 C 
ENDROOT
BRANCH   3   4
HETATM    4  C4  UNL     1       0.076   1.432   4.875  1.00  0.00     0.090 C 
BRANCH   4   5
HETATM    5  C5  UNL     1       0.597   0.151   5.466  1.00  0.00     0.132 C 
HETATM    6  O1  UNL     1       1.673  -0.244   5.088  1.00  0.00    -0.298 OA
BRANCH   5   7
HETATM    7  C6  UNL     1      -0.199  -0.563   6.445  1.00  0.00     0.055 C 
BRANCH   7   8
HETATM    8  C7  UNL     1      -1.174   0.387   7.134  1.00  0.00     0.007 C 
HETATM    9  C8  UNL     1      -2.572  -0.180   7.088  1.00  0.00     0.006 C 
ENDBRANCH   7   8
BRANCH   7  10
HETATM   10  C9  UNL     1      -0.760  -1.859   6.074  1.00  0.00     0.011 C 
BRANCH  10  11
HETATM   11  C10 UNL     1      -0.265  -3.067   6.769  1.00  0.00    -0.004 C 
HETATM   12  C11 UNL     1       1.051  -3.004   7.433  1.00  0.00     0.005 C 
ENDBRANCH  10  11
ENDBRANCH   7  10
ENDBRANCH   5   7
ENDBRANCH   4   5
ENDBRANCH   3   4
TORSDOF 6
ENDMDL
