MODEL 1
REMARK VINA RESULT: -7.154003873      0.000      0.000
REMARK  5 active torsions:
REMARK  status: ('A' for Active; 'I' for Inactive)
REMARK    1  A    between atoms: C2_2  and  C3_3 
REMARK    2  A    between atoms: C3_3  and  C4_4 
REMARK    3  A    between atoms: C4_4  and  C5_5 
REMARK    4  A    between atoms: C5_5  and  C6_7 
REMARK    5  A    between atoms: C6_7  and  C7_8 
ROOT
HETATM    1  C5  UNL     1      -2.621   0.730   2.908  1.00  0.00     0.131 C 
HETATM    2  O1  UNL     1      -2.887   0.288   1.835  1.00  0.00    -0.298 OA
ENDROOT
BRANCH   1   3
HETATM    3  C4  UNL     1      -3.327   0.371   4.134  1.00  0.00     0.078 C 
BRANCH   3   4
HETATM    4  C3  UNL     1      -3.006  -0.972   4.686  1.00  0.00     0.007 C 
BRANCH   4   5
HETATM    5  C2  UNL     1      -2.230  -0.950   5.976  1.00  0.00    -0.004 C 
HETATM    6  C1  UNL     1      -2.416   0.406   6.678  1.00  0.00     0.005 C 
ENDBRANCH   4   5
ENDBRANCH   3   4
ENDBRANCH   1   3
BRANCH   1   7
HETATM    7  C6  UNL     1      -1.486   1.715   2.979  1.00  0.00     0.116 C 
BRANCH   7   8
HETATM    8  C7  UNL     1      -0.267   1.078   3.600  1.00  0.00    -0.055 A 
HETATM    9  C8  UNL     1       0.399   1.561   4.629  1.00  0.00    -0.015 A 
HETATM   10  C9  UNL     1       1.514   0.632   4.909  1.00  0.00     0.054 A 
HETATM   11  C10 UNL     1       1.359  -0.421   3.887  1.00  0.00    -0.022 A 
HETATM   12  C11 UNL     1       0.317  -0.164   3.119  1.00  0.00     0.003 A 
ENDBRANCH   7   8
ENDBRANCH   1   7
TORSDOF 5
ENDMDL
MODEL 2
REMARK VINA RESULT: -7.086911085      2.316      3.681
REMARK  5 active torsions:
REMARK  status: ('A' for Active; 'I' for Inactive)
REMARK    1  A    between atoms: C2_2  and  C3_3 
REMARK    2  A    between atoms: C3_3  and  C4_4 
REMARK    3  A    between atoms: C4_4  and  C5_5 
REMARK    4  A    between atoms: C5_5  and  C6_7 
REMARK    5  A    between atoms: C6_7  and  C7_8 
ROOT
HETATM    1  C5  UNL     1      -1.590  -0.815   6.761  1.00  0.00     0.131 C 
HETATM    2  O1  UNL     1      -1.049  -1.813   6.402  1.00  0.00    -0.298 OA
ENDROOT
BRANCH   1   3
HETATM    3  C4  UNL     1      -2.884  -0.787   7.436  1.00  0.00     0.078 C 
BRANCH   3   4
HETATM    4  C3  UNL     1      -2.865  -0.276   8.833  1.00  0.00     0.007 C 
BRANCH   4   5
HETATM    5  C2  UNL     1      -3.330   1.147   8.986  1.00  0.00    -0.004 C 
HETATM    6  C1  UNL     1      -2.310   1.947   9.814  1.00  0.00     0.005 C 
ENDBRANCH   4   5
ENDBRANCH   3   4
ENDBRANCH   1   3
BRANCH   1   7
HETATM    7  C6  UNL     1      -0.878   0.483   6.492  1.00  0.00     0.116 C 
BRANCH   7   8
HETATM    8  C7  UNL     1      -1.180   0.977   5.098  1.00  0.00    -0.055 A 
HETATM    9  C8  UNL     1      -0.288   1.460   4.257  1.00  0.00    -0.015 A 
HETATM   10  C9  UNL     1      -1.003   1.823   3.015  1.00  0.00     0.054 A 
HETATM   11  C10 UNL     1      -2.407   1.468   3.302  1.00  0.00    -0.022 A 
HETATM   12  C11 UNL     1      -2.514   0.973   4.520  1.00  0.00     0.003 A 
ENDBRANCH   7   8
ENDBRANCH   1   7
TORSDOF 5
ENDMDL
MODEL 3
REMARK VINA RESULT: -7.084935915      1.127      3.623
REMARK  5 active torsions:
REMARK  status: ('A' for Active; 'I' for Inactive)
REMARK    1  A    between atoms: C2_2  and  C3_3 
REMARK    2  A    between atoms: C3_3  and  C4_4 
REMARK    3  A    between atoms: C4_4  and  C5_5 
REMARK    4  A    between atoms: C5_5  and  C6_7 
REMARK    5  A    between atoms: C6_7  and  C7_8 
ROOT
HETATM    1  C5  UNL     1      -2.305  -0.246   3.546  1.00  0.00     0.131 C 
HETATM    2  O1  UNL     1      -1.904  -1.001   2.718  1.00  0.00    -0.298 OA
ENDROOT
BRANCH   1   3
HETATM    3  C4  UNL     1      -2.100   1.199   3.497  1.00  0.00     0.078 C 
BRANCH   3   4
HETATM    4  C3  UNL     1      -0.685   1.640   3.372  1.00  0.00     0.007 C 
BRANCH   4   5
HETATM    5  C2  UNL     1       0.096   1.613   4.658  1.00  0.00    -0.004 C 
HETATM    6  C1  UNL     1       1.224   0.571   4.566  1.00  0.00     0.005 C 
ENDBRANCH   4   5
ENDBRANCH   3   4
ENDBRANCH   1   3
BRANCH   1   7
HETATM    7  C6  UNL     1      -3.065  -0.838   4.702  1.00  0.00     0.116 C 
BRANCH   7   8
HETATM    8  C7  UNL     1      -2.271  -0.716   5.979  1.00  0.00    -0.055 A 
HETATM    9  C8  UNL     1      -1.282  -1.511   6.334  1.00  0.00    -0.015 A 
HETATM   10  C9  UNL     1      -0.787  -1.041   7.646  1.00  0.00     0.054 A 
HETATM   11  C10 UNL     1      -1.648   0.119   7.951  1.00  0.00    -0.022 A 
HETATM   12  C11 UNL     1      -2.517   0.312   6.978  1.00  0.00     0.003 A 
ENDBRANCH   7   8
ENDBRANCH   1   7
TORSDOF 5
ENDMDL
MODEL 4
REMARK VINA RESULT: -7.065161037      1.347      1.980
REMARK  5 active torsions:
REMARK  status: ('A' for Active; 'I' for Inactive)
REMARK    1  A    between atoms: C2_2  and  C3_3 
REMARK    2  A    between atoms: C3_3  and  C4_4 
REMARK    3  A    between atoms: C4_4  and  C5_5 
REMARK    4  A    between atoms: C5_5  and  C6_7 
REMARK    5  A    between atoms: C6_7  and  C7_8 
ROOT
HETATM    1  C5  UNL     1      -2.823  -0.375   4.930  1.00  0.00     0.131 C 
HETATM    2  O1  UNL     1      -3.540  -0.976   4.193  1.00  0.00    -0.298 OA
ENDROOT
BRANCH   1   3
HETATM    3  C4  UNL     1      -2.578  -0.755   6.317  1.00  0.00     0.078 C 
BRANCH   3   4
HETATM    4  C3  UNL     1      -2.661   0.351   7.308  1.00  0.00     0.007 C 
BRANCH   4   5
HETATM    5  C2  UNL     1      -1.503   0.422   8.266  1.00  0.00    -0.004 C 
HETATM    6  C1  UNL     1      -0.430  -0.607   7.871  1.00  0.00     0.005 C 
ENDBRANCH   4   5
ENDBRANCH   3   4
ENDBRANCH   1   3
BRANCH   1   7
HETATM    7  C6  UNL     1      -2.140   0.845   4.375  1.00  0.00     0.116 C 
BRANCH   7   8
HETATM    8  C7  UNL     1      -0.646   0.637   4.313  1.00  0.00    -0.055 A 
HETATM    9  C8  UNL     1       0.249   1.408   4.896  1.00  0.00    -0.015 A 
HETATM   10  C9  UNL     1       1.582   0.850   4.583  1.00  0.00     0.054 A 
HETATM   11  C10 UNL     1       1.282  -0.331   3.750  1.00  0.00    -0.022 A 
HETATM   12  C11 UNL     1      -0.021  -0.458   3.590  1.00  0.00     0.003 A 
ENDBRANCH   7   8
ENDBRANCH   1   7
TORSDOF 5
ENDMDL
MODEL 5
REMARK VINA RESULT: -7.022801807      1.984      3.683
REMARK  5 active torsions:
REMARK  status: ('A' for Active; 'I' for Inactive)
REMARK    1  A    between atoms: C2_2  and  C3_3 
REMARK    2  A    between atoms: C3_3  and  C4_4 
REMARK    3  A    between atoms: C4_4  and  C5_5 
REMARK    4  A    between atoms: C5_5  and  C6_7 
REMARK    5  A    between atoms: C6_7  and  C7_8 
ROOT
HETATM    1  C5  UNL     1      -2.584  -0.315   4.915  1.00  0.00     0.131 C 
HETATM    2  O1  UNL     1      -2.912  -1.094   4.076  1.00  0.00    -0.298 OA
ENDROOT
BRANCH   1   3
HETATM    3  C4  UNL     1      -2.188   1.062   4.637  1.00  0.00     0.078 C 
BRANCH   3   4
HETATM    4  C3  UNL     1      -0.924   1.221   3.868  1.00  0.00     0.007 C 
BRANCH   4   5
HETATM    5  C2  UNL     1       0.287   1.524   4.708  1.00  0.00    -0.004 C 
HETATM    6  C1  UNL     1       1.354   0.435   4.505  1.00  0.00     0.005 C 
ENDBRANCH   4   5
ENDBRANCH   3   4
ENDBRANCH   1   3
BRANCH   1   7
HETATM    7  C6  UNL     1      -2.588  -0.801   6.338  1.00  0.00     0.116 C 
BRANCH   7   8
HETATM    8  C7  UNL     1      -1.204  -1.233   6.757  1.00  0.00    -0.055 A 
HETATM    9  C8  UNL     1      -0.577  -2.301   6.309  1.00  0.00    -0.015 A 
HETATM   10  C9  UNL     1       0.743  -2.350   6.974  1.00  0.00     0.054 A 
HETATM   11  C10 UNL     1       0.741  -1.158   7.845  1.00  0.00    -0.022 A 
HETATM   12  C11 UNL     1      -0.397  -0.502   7.720  1.00  0.00     0.003 A 
ENDBRANCH   7   8
ENDBRANCH   1   7
TORSDOF 5
ENDMDL
