MODEL 1
REMARK VINA RESULT: -6.580449182      0.000      0.000
REMARK  10 active torsions:
REMARK  status: ('A' for Active; 'I' for Inactive)
REMARK    1  A    between atoms: C2_2  and  C3_3 
REMARK    2  A    between atoms: C3_3  and  C4_4 
REMARK    3  A    between atoms: C4_4  and  C5_5 
REMARK    4  A    between atoms: C5_5  and  O1_6 
REMARK    5  A    between atoms: O1_6  and  C6_7 
REMARK    6  A    between atoms: C9_10  and  C10_11 
REMARK    7  A    between atoms: C10_11  and  O2_13 
REMARK    8  A    between atoms: C13_16  and  C14_17 
REMARK    9  A    between atoms: C14_17  and  C16_19 
REMARK   10  A    between atoms: C16_19  and  C17_20 
ROOT
HETATM    1  C6  UNL     1      18.363  35.572  56.611  1.00  0.00     0.075 A 
HETATM    2  C7  UNL     1      17.571  35.635  55.482  1.00  0.00     0.038 A 
HETATM    3  C8  UNL     1      17.981  34.908  54.374  1.00  0.00     0.012 A 
HETATM    4  C9  UNL     1      19.139  34.153  54.411  1.00  0.00    -0.029 A 
HETATM    5  C12 UNL     1      19.881  34.141  55.577  1.00  0.00     0.020 A 
HETATM    6  C13 UNL     1      19.519  34.849  56.710  1.00  0.00    -0.020 A 
ENDROOT
BRANCH   1   7
HETATM    7  O1  UNL     1      17.930  36.280  57.740  1.00  0.00    -0.351 OA
BRANCH   7   8
HETATM    8  C5  UNL     1      16.540  36.568  57.894  1.00  0.00     0.175 C 
BRANCH   8   9
HETATM    9  C4  UNL     1      16.008  35.683  59.021  1.00  0.00     0.027 C 
BRANCH   9  10
HETATM   10  C3  UNL     1      15.420  34.436  58.385  1.00  0.00     0.002 C 
BRANCH  10  11
HETATM   11  C2  UNL     1      16.242  33.193  58.609  1.00  0.00    -0.004 C 
HETATM   12  C1  UNL     1      16.498  32.381  57.385  1.00  0.00     0.005 C 
ENDBRANCH  10  11
ENDBRANCH   9  10
ENDBRANCH   8   9
ENDBRANCH   7   8
ENDBRANCH   1   7
BRANCH   6  13
HETATM   13  C14 UNL     1      20.394  35.007  57.883  1.00  0.00     0.017 C 
HETATM   14  C15 UNL     1      19.881  33.970  58.944  1.00  0.00     0.015 C 
BRANCH  13  15
HETATM   15  C16 UNL     1      21.804  34.473  57.546  1.00  0.00     0.009 C 
BRANCH  15  16
HETATM   16  C17 UNL     1      22.393  33.660  58.650  1.00  0.00    -0.004 C 
HETATM   17  C18 UNL     1      23.795  33.243  58.280  1.00  0.00     0.005 C 
ENDBRANCH  15  16
ENDBRANCH  13  15
ENDBRANCH   6  13
BRANCH   4  18
HETATM   18  C10 UNL     1      19.475  33.441  53.182  1.00  0.00     0.147 C 
HETATM   19  C11 UNL     1      20.594  32.425  53.487  1.00  0.00     0.044 C 
BRANCH  18  20
HETATM   20  O2  UNL     1      18.403  32.693  52.690  1.00  0.00    -0.391 OA
ATOM     21  H2  UNL     1      18.080  33.027  51.862  1.00  0.00     0.210 HD
ENDBRANCH  18  20
ENDBRANCH   4  18
TORSDOF 10
ENDMDL
MODEL 2
REMARK VINA RESULT: -6.506070256      1.421      4.271
REMARK  10 active torsions:
REMARK  status: ('A' for Active; 'I' for Inactive)
REMARK    1  A    between atoms: C2_2  and  C3_3 
REMARK    2  A    between atoms: C3_3  and  C4_4 
REMARK    3  A    between atoms: C4_4  and  C5_5 
REMARK    4  A    between atoms: C5_5  and  O1_6 
REMARK    5  A    between atoms: O1_6  and  C6_7 
REMARK    6  A    between atoms: C9_10  and  C10_11 
REMARK    7  A    between atoms: C10_11  and  O2_13 
REMARK    8  A    between atoms: C13_16  and  C14_17 
REMARK    9  A    between atoms: C14_17  and  C16_19 
REMARK   10  A    between atoms: C16_19  and  C17_20 
ROOT
HETATM    1  C6  UNL     1      18.831  35.233  57.413  1.00  0.00     0.075 A 
HETATM    2  C7  UNL     1      20.040  34.716  56.990  1.00  0.00     0.038 A 
HETATM    3  C8  UNL     1      20.102  34.214  55.699  1.00  0.00     0.012 A 
HETATM    4  C9  UNL     1      18.991  34.236  54.876  1.00  0.00    -0.029 A 
HETATM    5  C12 UNL     1      17.815  34.768  55.370  1.00  0.00     0.020 A 
HETATM    6  C13 UNL     1      17.697  35.280  56.652  1.00  0.00    -0.020 A 
ENDROOT
BRANCH   1   7
HETATM    7  O1  UNL     1      18.779  35.769  58.706  1.00  0.00    -0.351 OA
BRANCH   7   8
HETATM    8  C5  UNL     1      18.951  34.904  59.830  1.00  0.00     0.175 C 
BRANCH   8   9
HETATM    9  C4  UNL     1      19.393  35.767  61.012  1.00  0.00     0.027 C 
BRANCH   9  10
HETATM   10  C3  UNL     1      20.912  35.767  61.035  1.00  0.00     0.002 C 
BRANCH  10  11
HETATM   11  C2  UNL     1      21.518  34.388  61.067  1.00  0.00    -0.004 C 
HETATM   12  C1  UNL     1      22.604  34.158  60.071  1.00  0.00     0.005 C 
ENDBRANCH  10  11
ENDBRANCH   9  10
ENDBRANCH   8   9
ENDBRANCH   7   8
ENDBRANCH   1   7
BRANCH   6  13
HETATM   13  C14 UNL     1      16.412  35.663  57.258  1.00  0.00     0.017 C 
HETATM   14  C15 UNL     1      15.685  36.557  56.193  1.00  0.00     0.015 C 
BRANCH  13  15
HETATM   15  C16 UNL     1      15.493  34.423  57.338  1.00  0.00     0.009 C 
BRANCH  15  16
HETATM   16  C17 UNL     1      15.939  33.441  58.368  1.00  0.00    -0.004 C 
HETATM   17  C18 UNL     1      16.355  32.156  57.695  1.00  0.00     0.005 C 
ENDBRANCH  15  16
ENDBRANCH  13  15
ENDBRANCH   6  13
BRANCH   4  18
HETATM   18  C10 UNL     1      19.173  33.670  53.543  1.00  0.00     0.147 C 
HETATM   19  C11 UNL     1      20.358  32.684  53.580  1.00  0.00     0.044 C 
BRANCH  18  20
HETATM   20  O2  UNL     1      18.069  32.925  53.125  1.00  0.00    -0.391 OA
ATOM     21  H2  UNL     1      18.320  32.138  52.656  1.00  0.00     0.210 HD
ENDBRANCH  18  20
ENDBRANCH   4  18
TORSDOF 10
ENDMDL
MODEL 3
REMARK VINA RESULT: -6.388952642      1.382      4.035
REMARK  10 active torsions:
REMARK  status: ('A' for Active; 'I' for Inactive)
REMARK    1  A    between atoms: C2_2  and  C3_3 
REMARK    2  A    between atoms: C3_3  and  C4_4 
REMARK    3  A    between atoms: C4_4  and  C5_5 
REMARK    4  A    between atoms: C5_5  and  O1_6 
REMARK    5  A    between atoms: O1_6  and  C6_7 
REMARK    6  A    between atoms: C9_10  and  C10_11 
REMARK    7  A    between atoms: C10_11  and  O2_13 
REMARK    8  A    between atoms: C13_16  and  C14_17 
REMARK    9  A    between atoms: C14_17  and  C16_19 
REMARK   10  A    between atoms: C16_19  and  C17_20 
ROOT
HETATM    1  C6  UNL     1      19.792  34.925  56.533  1.00  0.00     0.075 A 
HETATM    2  C7  UNL     1      20.590  34.378  55.547  1.00  0.00     0.038 A 
HETATM    3  C8  UNL     1      19.991  34.087  54.330  1.00  0.00     0.012 A 
HETATM    4  C9  UNL     1      18.647  34.338  54.124  1.00  0.00    -0.029 A 
HETATM    5  C12 UNL     1      17.912  34.885  55.159  1.00  0.00     0.020 A 
HETATM    6  C13 UNL     1      18.460  35.193  56.394  1.00  0.00    -0.020 A 
ENDROOT
BRANCH   1   7
HETATM    7  O1  UNL     1      20.407  35.249  57.750  1.00  0.00    -0.351 OA
BRANCH   7   8
HETATM    8  C5  UNL     1      21.480  34.438  58.229  1.00  0.00     0.175 C 
BRANCH   8   9
HETATM    9  C4  UNL     1      21.259  34.220  59.726  1.00  0.00     0.027 C 
BRANCH   9  10
HETATM   10  C3  UNL     1      19.833  33.732  59.912  1.00  0.00     0.002 C 
BRANCH  10  11
HETATM   11  C2  UNL     1      19.043  34.535  60.913  1.00  0.00    -0.004 C 
HETATM   12  C1  UNL     1      19.413  35.977  60.991  1.00  0.00     0.005 C 
ENDBRANCH  10  11
ENDBRANCH   9  10
ENDBRANCH   8   9
ENDBRANCH   7   8
ENDBRANCH   1   7
BRANCH   6  13
HETATM   13  C14 UNL     1      17.656  35.585  57.563  1.00  0.00     0.017 C 
HETATM   14  C15 UNL     1      17.169  37.049  57.277  1.00  0.00     0.015 C 
BRANCH  13  15
HETATM   15  C16 UNL     1      16.333  34.787  57.567  1.00  0.00     0.009 C 
BRANCH  15  16
HETATM   16  C17 UNL     1      16.375  33.607  58.479  1.00  0.00    -0.004 C 
HETATM   17  C18 UNL     1      16.422  32.338  57.663  1.00  0.00     0.005 C 
ENDBRANCH  15  16
ENDBRANCH  13  15
ENDBRANCH   6  13
BRANCH   4  18
HETATM   18  C10 UNL     1      18.126  33.979  52.809  1.00  0.00     0.147 C 
HETATM   19  C11 UNL     1      18.875  34.798  51.738  1.00  0.00     0.044 C 
BRANCH  18  20
HETATM   20  O2  UNL     1      18.353  32.638  52.494  1.00  0.00    -0.391 OA
ATOM     21  H2  UNL     1      18.428  32.494  51.558  1.00  0.00     0.210 HD
ENDBRANCH  18  20
ENDBRANCH   4  18
TORSDOF 10
ENDMDL
MODEL 4
REMARK VINA RESULT: -6.349262456      2.086      4.785
REMARK  10 active torsions:
REMARK  status: ('A' for Active; 'I' for Inactive)
REMARK    1  A    between atoms: C2_2  and  C3_3 
REMARK    2  A    between atoms: C3_3  and  C4_4 
REMARK    3  A    between atoms: C4_4  and  C5_5 
REMARK    4  A    between atoms: C5_5  and  O1_6 
REMARK    5  A    between atoms: O1_6  and  C6_7 
REMARK    6  A    between atoms: C9_10  and  C10_11 
REMARK    7  A    between atoms: C10_11  and  O2_13 
REMARK    8  A    between atoms: C13_16  and  C14_17 
REMARK    9  A    between atoms: C14_17  and  C16_19 
REMARK   10  A    between atoms: C16_19  and  C17_20 
ROOT
HETATM    1  C6  UNL     1      20.318  35.036  57.415  1.00  0.00     0.075 A 
HETATM    2  C7  UNL     1      19.369  34.596  56.513  1.00  0.00     0.038 A 
HETATM    3  C8  UNL     1      18.215  34.025  57.029  1.00  0.00     0.012 A 
HETATM    4  C9  UNL     1      18.033  33.906  58.395  1.00  0.00    -0.029 A 
HETATM    5  C12 UNL     1      19.028  34.368  59.235  1.00  0.00     0.020 A 
HETATM    6  C13 UNL     1      20.200  34.945  58.773  1.00  0.00    -0.020 A 
ENDROOT
BRANCH   1   7
HETATM    7  O1  UNL     1      21.468  35.643  56.893  1.00  0.00    -0.351 OA
BRANCH   7   8
HETATM    8  C5  UNL     1      21.586  35.817  55.480  1.00  0.00     0.175 C 
BRANCH   8   9
HETATM    9  C4  UNL     1      22.872  35.119  55.037  1.00  0.00     0.027 C 
BRANCH   9  10
HETATM   10  C3  UNL     1      22.498  33.719  54.581  1.00  0.00     0.002 C 
BRANCH  10  11
HETATM   11  C2  UNL     1      21.468  33.694  53.482  1.00  0.00    -0.004 C 
HETATM   12  C1  UNL     1      20.456  32.605  53.597  1.00  0.00     0.005 C 
ENDBRANCH  10  11
ENDBRANCH   9  10
ENDBRANCH   8   9
ENDBRANCH   7   8
ENDBRANCH   1   7
BRANCH   6  13
HETATM   13  C14 UNL     1      21.347  35.257  59.641  1.00  0.00     0.017 C 
HETATM   14  C15 UNL     1      20.739  35.652  61.032  1.00  0.00     0.015 C 
BRANCH  13  15
HETATM   15  C16 UNL     1      22.112  33.955  59.967  1.00  0.00     0.009 C 
BRANCH  15  16
HETATM   16  C17 UNL     1      23.505  33.955  59.433  1.00  0.00    -0.004 C 
HETATM   17  C18 UNL     1      23.560  33.141  58.163  1.00  0.00     0.005 C 
ENDBRANCH  15  16
ENDBRANCH  13  15
ENDBRANCH   6  13
BRANCH   4  18
HETATM   18  C10 UNL     1      16.785  33.278  58.819  1.00  0.00     0.147 C 
HETATM   19  C11 UNL     1      15.620  34.247  58.534  1.00  0.00     0.044 C 
BRANCH  18  20
HETATM   20  O2  UNL     1      16.502  32.116  58.099  1.00  0.00    -0.391 OA
ATOM     21  H2  UNL     1      16.970  32.080  57.273  1.00  0.00     0.210 HD
ENDBRANCH  18  20
ENDBRANCH   4  18
TORSDOF 10
ENDMDL
MODEL 5
REMARK VINA RESULT: -6.342317834      1.773      4.717
REMARK  10 active torsions:
REMARK  status: ('A' for Active; 'I' for Inactive)
REMARK    1  A    between atoms: C2_2  and  C3_3 
REMARK    2  A    between atoms: C3_3  and  C4_4 
REMARK    3  A    between atoms: C4_4  and  C5_5 
REMARK    4  A    between atoms: C5_5  and  O1_6 
REMARK    5  A    between atoms: O1_6  and  C6_7 
REMARK    6  A    between atoms: C9_10  and  C10_11 
REMARK    7  A    between atoms: C10_11  and  O2_13 
REMARK    8  A    between atoms: C13_16  and  C14_17 
REMARK    9  A    between atoms: C14_17  and  C16_19 
REMARK   10  A    between atoms: C16_19  and  C17_20 
ROOT
HETATM    1  C6  UNL     1      18.525  34.025  57.433  1.00  0.00     0.075 A 
HETATM    2  C7  UNL     1      18.619  33.810  58.794  1.00  0.00     0.038 A 
HETATM    3  C8  UNL     1      19.781  34.226  59.426  1.00  0.00     0.012 A 
HETATM    4  C9  UNL     1      20.800  34.829  58.711  1.00  0.00    -0.029 A 
HETATM    5  C12 UNL     1      20.634  35.008  57.351  1.00  0.00     0.020 A 
HETATM    6  C13 UNL     1      19.495  34.611  56.670  1.00  0.00    -0.020 A 
ENDROOT
BRANCH   1   7
HETATM    7  O1  UNL     1      17.336  33.634  56.802  1.00  0.00    -0.351 OA
BRANCH   7   8
HETATM    8  C5  UNL     1      16.092  34.155  57.271  1.00  0.00     0.175 C 
BRANCH   8   9
HETATM    9  C4  UNL     1      15.900  35.532  56.636  1.00  0.00     0.027 C 
BRANCH   9  10
HETATM   10  C3  UNL     1      16.218  36.573  57.695  1.00  0.00     0.002 C 
BRANCH  10  11
HETATM   11  C2  UNL     1      17.237  37.593  57.257  1.00  0.00    -0.004 C 
HETATM   12  C1  UNL     1      16.828  38.427  56.091  1.00  0.00     0.005 C 
ENDBRANCH  10  11
ENDBRANCH   9  10
ENDBRANCH   8   9
ENDBRANCH   7   8
ENDBRANCH   1   7
BRANCH   6  13
HETATM   13  C14 UNL     1      19.386  34.612  55.202  1.00  0.00     0.017 C 
HETATM   14  C15 UNL     1      19.540  36.110  54.761  1.00  0.00     0.015 C 
BRANCH  13  15
HETATM   15  C16 UNL     1      20.643  33.951  54.594  1.00  0.00     0.009 C 
BRANCH  15  16
HETATM   16  C17 UNL     1      20.321  32.763  53.752  1.00  0.00    -0.004 C 
HETATM   17  C18 UNL     1      19.245  33.125  52.757  1.00  0.00     0.005 C 
ENDBRANCH  15  16
ENDBRANCH  13  15
ENDBRANCH   6  13
BRANCH   4  18
HETATM   18  C10 UNL     1      21.979  35.213  59.482  1.00  0.00     0.147 C 
HETATM   19  C11 UNL     1      22.919  33.996  59.588  1.00  0.00     0.044 C 
BRANCH  18  20
HETATM   20  O2  UNL     1      22.720  36.216  58.855  1.00  0.00    -0.391 OA
ATOM     21  H2  UNL     1      22.323  37.074  58.953  1.00  0.00     0.210 HD
ENDBRANCH  18  20
ENDBRANCH   4  18
TORSDOF 10
ENDMDL
