MODEL 1
REMARK VINA RESULT: -7.194362304      0.000      0.000
REMARK  9 active torsions:
REMARK  status: ('A' for Active; 'I' for Inactive)
REMARK    1  A    between atoms: O1_2  and  C2_3 
REMARK    2  A    between atoms: C9_10  and  C10_11 
REMARK    3  A    between atoms: C10_11  and  C11_12 
REMARK    4  A    between atoms: C11_12  and  C12_13 
REMARK    5  A    between atoms: C12_13  and  C13_14 
REMARK    6  A    between atoms: C13_14  and  C14_15 
REMARK    7  A    between atoms: C14_15  and  C15_16 
REMARK    8  A    between atoms: C15_16  and  C16_17 
REMARK    9  A    between atoms: C16_17  and  O2_20 
ROOT
HETATM    1  C10 UNL     1      18.300  34.799  59.979  1.00  0.00     0.041 C 
ENDROOT
BRANCH   1   2
HETATM    2  C9  UNL     1      17.457  35.255  58.838  1.00  0.00    -0.024 A 
HETATM    3  C2  UNL     1      16.515  34.459  58.240  1.00  0.00     0.075 A 
HETATM    4  C3  UNL     1      15.780  34.964  57.195  1.00  0.00     0.044 A 
HETATM    5  C4  UNL     1      15.941  36.250  56.706  1.00  0.00    -0.053 A 
HETATM    6  C5  UNL     1      15.140  36.780  55.576  1.00  0.00     0.049 C 
HETATM    7  C6  UNL     1      16.892  37.024  57.326  1.00  0.00    -0.055 A 
HETATM    8  C7  UNL     1      17.095  38.419  56.825  1.00  0.00     0.049 C 
HETATM    9  C8  UNL     1      17.633  36.534  58.370  1.00  0.00     0.017 A 
BRANCH   3  10
HETATM   10  O1  UNL     1      16.309  33.166  58.686  1.00  0.00    -0.355 OA
HETATM   11  C1  UNL     1      16.316  32.081  57.766  1.00  0.00     0.210 C 
ENDBRANCH   3  10
ENDBRANCH   1   2
BRANCH   1  12
HETATM   12  C11 UNL     1      18.881  35.969  60.714  1.00  0.00     0.005 C 
BRANCH  12  13
HETATM   13  C12 UNL     1      20.217  35.678  61.326  1.00  0.00     0.000 C 
BRANCH  13  14
HETATM   14  C13 UNL     1      20.681  34.243  61.119  1.00  0.00     0.000 C 
BRANCH  14  15
HETATM   15  C14 UNL     1      22.088  34.124  60.670  1.00  0.00     0.003 C 
BRANCH  15  16
HETATM   16  C15 UNL     1      22.371  33.815  59.259  1.00  0.00     0.037 C 
BRANCH  16  17
HETATM   17  C16 UNL     1      22.562  34.904  58.286  1.00  0.00     0.051 C 
HETATM   18  C17 UNL     1      21.220  35.034  57.521  1.00  0.00     0.045 C 
HETATM   19  C18 UNL     1      23.596  34.757  57.226  1.00  0.00     0.045 C 
BRANCH  17  20
HETATM   20  O2  UNL     1      22.756  36.154  58.892  1.00  0.00    -0.391 OA
ATOM     21  H2  UNL     1      23.668  36.336  59.086  1.00  0.00     0.210 HD
ENDBRANCH  17  20
ENDBRANCH  16  17
ENDBRANCH  15  16
ENDBRANCH  14  15
ENDBRANCH  13  14
ENDBRANCH  12  13
ENDBRANCH   1  12
TORSDOF 9
ENDMDL
MODEL 2
REMARK VINA RESULT: -6.939456209      2.260      5.669
REMARK  9 active torsions:
REMARK  status: ('A' for Active; 'I' for Inactive)
REMARK    1  A    between atoms: O1_2  and  C2_3 
REMARK    2  A    between atoms: C9_10  and  C10_11 
REMARK    3  A    between atoms: C10_11  and  C11_12 
REMARK    4  A    between atoms: C11_12  and  C12_13 
REMARK    5  A    between atoms: C12_13  and  C13_14 
REMARK    6  A    between atoms: C13_14  and  C14_15 
REMARK    7  A    between atoms: C14_15  and  C15_16 
REMARK    8  A    between atoms: C15_16  and  C16_17 
REMARK    9  A    between atoms: C16_17  and  O2_20 
ROOT
HETATM    1  C10 UNL     1      21.204  34.943  58.534  1.00  0.00     0.041 C 
ENDROOT
BRANCH   1   2
HETATM    2  C9  UNL     1      21.145  34.521  57.106  1.00  0.00    -0.024 A 
HETATM    3  C2  UNL     1      22.254  34.169  56.383  1.00  0.00     0.075 A 
HETATM    4  C3  UNL     1      22.106  33.790  55.071  1.00  0.00     0.044 A 
HETATM    5  C4  UNL     1      20.878  33.743  54.430  1.00  0.00    -0.053 A 
HETATM    6  C5  UNL     1      20.733  33.332  53.013  1.00  0.00     0.049 C 
HETATM    7  C6  UNL     1      19.784  34.101  55.180  1.00  0.00    -0.055 A 
HETATM    8  C7  UNL     1      18.440  34.064  54.522  1.00  0.00     0.049 C 
HETATM    9  C8  UNL     1      19.917  34.482  56.491  1.00  0.00     0.017 A 
BRANCH   3  10
HETATM   10  O1  UNL     1      23.507  34.196  56.970  1.00  0.00    -0.355 OA
HETATM   11  C1  UNL     1      24.529  35.030  56.440  1.00  0.00     0.210 C 
ENDBRANCH   3  10
ENDBRANCH   1   2
BRANCH   1  12
HETATM   12  C11 UNL     1      20.800  33.819  59.440  1.00  0.00     0.005 C 
BRANCH  12  13
HETATM   13  C12 UNL     1      19.593  34.134  60.269  1.00  0.00     0.000 C 
BRANCH  13  14
HETATM   14  C13 UNL     1      19.294  35.623  60.368  1.00  0.00     0.000 C 
BRANCH  14  15
HETATM   15  C14 UNL     1      17.907  35.986  59.992  1.00  0.00     0.003 C 
BRANCH  15  16
HETATM   16  C15 UNL     1      17.575  36.190  58.573  1.00  0.00     0.037 C 
BRANCH  16  17
HETATM   17  C16 UNL     1      16.268  35.755  58.049  1.00  0.00     0.051 C 
HETATM   18  C17 UNL     1      16.219  34.218  58.243  1.00  0.00     0.045 C 
HETATM   19  C18 UNL     1      15.955  35.971  56.610  1.00  0.00     0.045 C 
BRANCH  17  20
HETATM   20  O2  UNL     1      15.187  36.248  58.793  1.00  0.00    -0.391 OA
ATOM     21  H2  UNL     1      15.181  37.196  58.858  1.00  0.00     0.210 HD
ENDBRANCH  17  20
ENDBRANCH  16  17
ENDBRANCH  15  16
ENDBRANCH  14  15
ENDBRANCH  13  14
ENDBRANCH  12  13
ENDBRANCH   1  12
TORSDOF 9
ENDMDL
MODEL 3
REMARK VINA RESULT: -6.931960142      1.972      6.077
REMARK  9 active torsions:
REMARK  status: ('A' for Active; 'I' for Inactive)
REMARK    1  A    between atoms: O1_2  and  C2_3 
REMARK    2  A    between atoms: C9_10  and  C10_11 
REMARK    3  A    between atoms: C10_11  and  C11_12 
REMARK    4  A    between atoms: C11_12  and  C12_13 
REMARK    5  A    between atoms: C12_13  and  C13_14 
REMARK    6  A    between atoms: C13_14  and  C14_15 
REMARK    7  A    between atoms: C14_15  and  C15_16 
REMARK    8  A    between atoms: C15_16  and  C16_17 
REMARK    9  A    between atoms: C16_17  and  O2_20 
ROOT
HETATM    1  C10 UNL     1      19.647  35.170  58.460  1.00  0.00     0.041 C 
ENDROOT
BRANCH   1   2
HETATM    2  C9  UNL     1      20.698  34.876  57.446  1.00  0.00    -0.024 A 
HETATM    3  C2  UNL     1      22.040  34.944  57.717  1.00  0.00     0.075 A 
HETATM    4  C3  UNL     1      22.939  34.652  56.721  1.00  0.00     0.044 A 
HETATM    5  C4  UNL     1      22.559  34.288  55.439  1.00  0.00    -0.053 A 
HETATM    6  C5  UNL     1      23.542  33.977  54.373  1.00  0.00     0.049 C 
HETATM    7  C6  UNL     1      21.207  34.228  55.197  1.00  0.00    -0.055 A 
HETATM    8  C7  UNL     1      20.758  33.839  53.823  1.00  0.00     0.049 C 
HETATM    9  C8  UNL     1      20.298  34.517  56.182  1.00  0.00     0.017 A 
BRANCH   3  10
HETATM   10  O1  UNL     1      22.479  35.302  58.979  1.00  0.00    -0.355 OA
HETATM   11  C1  UNL     1      22.985  34.314  59.868  1.00  0.00     0.210 C 
ENDBRANCH   3  10
ENDBRANCH   1   2
BRANCH   1  12
HETATM   12  C11 UNL     1      18.891  33.928  58.822  1.00  0.00     0.005 C 
BRANCH  12  13
HETATM   13  C12 UNL     1      17.620  34.205  59.565  1.00  0.00     0.000 C 
BRANCH  13  14
HETATM   14  C13 UNL     1      16.390  33.583  58.919  1.00  0.00     0.000 C 
BRANCH  14  15
HETATM   15  C14 UNL     1      15.542  34.550  58.182  1.00  0.00     0.003 C 
BRANCH  15  16
HETATM   16  C15 UNL     1      15.939  35.966  58.134  1.00  0.00     0.037 C 
BRANCH  16  17
HETATM   17  C16 UNL     1      16.238  36.608  56.842  1.00  0.00     0.051 C 
HETATM   18  C17 UNL     1      16.745  35.478  55.910  1.00  0.00     0.045 C 
HETATM   19  C18 UNL     1      17.290  37.659  56.780  1.00  0.00     0.045 C 
BRANCH  17  20
HETATM   20  O2  UNL     1      15.097  37.118  56.206  1.00  0.00    -0.391 OA
ATOM     21  H2  UNL     1      15.138  38.056  56.063  1.00  0.00     0.210 HD
ENDBRANCH  17  20
ENDBRANCH  16  17
ENDBRANCH  15  16
ENDBRANCH  14  15
ENDBRANCH  13  14
ENDBRANCH  12  13
ENDBRANCH   1  12
TORSDOF 9
ENDMDL
MODEL 4
REMARK VINA RESULT: -6.914294518      2.048      5.819
REMARK  9 active torsions:
REMARK  status: ('A' for Active; 'I' for Inactive)
REMARK    1  A    between atoms: O1_2  and  C2_3 
REMARK    2  A    between atoms: C9_10  and  C10_11 
REMARK    3  A    between atoms: C10_11  and  C11_12 
REMARK    4  A    between atoms: C11_12  and  C12_13 
REMARK    5  A    between atoms: C12_13  and  C13_14 
REMARK    6  A    between atoms: C13_14  and  C14_15 
REMARK    7  A    between atoms: C14_15  and  C15_16 
REMARK    8  A    between atoms: C15_16  and  C16_17 
REMARK    9  A    between atoms: C16_17  and  O2_20 
ROOT
HETATM    1  C10 UNL     1      18.291  35.116  59.537  1.00  0.00     0.041 C 
ENDROOT
BRANCH   1   2
HETATM    2  C9  UNL     1      19.571  34.790  58.848  1.00  0.00    -0.024 A 
HETATM    3  C2  UNL     1      20.678  34.323  59.507  1.00  0.00     0.075 A 
HETATM    4  C3  UNL     1      21.816  34.045  58.790  1.00  0.00     0.044 A 
HETATM    5  C4  UNL     1      21.908  34.214  57.418  1.00  0.00    -0.053 A 
HETATM    6  C5  UNL     1      23.144  33.911  56.657  1.00  0.00     0.049 C 
HETATM    7  C6  UNL     1      20.782  34.684  56.784  1.00  0.00    -0.055 A 
HETATM    8  C7  UNL     1      20.843  34.880  55.302  1.00  0.00     0.049 C 
HETATM    9  C8  UNL     1      19.639  34.965  57.487  1.00  0.00     0.017 A 
BRANCH   3  10
HETATM   10  O1  UNL     1      20.646  34.134  60.877  1.00  0.00    -0.355 OA
HETATM   11  C1  UNL     1      21.605  34.771  61.711  1.00  0.00     0.210 C 
ENDBRANCH   3  10
ENDBRANCH   1   2
BRANCH   1  12
HETATM   12  C11 UNL     1      17.218  34.140  59.159  1.00  0.00     0.005 C 
BRANCH  12  13
HETATM   13  C12 UNL     1      15.933  34.800  58.760  1.00  0.00     0.000 C 
BRANCH  13  14
HETATM   14  C13 UNL     1      15.535  34.534  57.316  1.00  0.00     0.000 C 
BRANCH  14  15
HETATM   15  C14 UNL     1      16.275  35.353  56.326  1.00  0.00     0.003 C 
BRANCH  15  16
HETATM   16  C15 UNL     1      15.853  36.741  56.081  1.00  0.00     0.037 C 
BRANCH  16  17
HETATM   17  C16 UNL     1      16.800  37.851  56.289  1.00  0.00     0.051 C 
HETATM   18  C17 UNL     1      18.072  37.486  55.481  1.00  0.00     0.045 C 
HETATM   19  C18 UNL     1      17.289  38.137  57.665  1.00  0.00     0.045 C 
BRANCH  17  20
HETATM   20  O2  UNL     1      16.356  39.062  55.740  1.00  0.00    -0.391 OA
ATOM     21  H2  UNL     1      16.816  39.817  56.085  1.00  0.00     0.210 HD
ENDBRANCH  17  20
ENDBRANCH  16  17
ENDBRANCH  15  16
ENDBRANCH  14  15
ENDBRANCH  13  14
ENDBRANCH  12  13
ENDBRANCH   1  12
TORSDOF 9
ENDMDL
MODEL 5
REMARK VINA RESULT: -6.881202389      1.838      2.003
REMARK  9 active torsions:
REMARK  status: ('A' for Active; 'I' for Inactive)
REMARK    1  A    between atoms: O1_2  and  C2_3 
REMARK    2  A    between atoms: C9_10  and  C10_11 
REMARK    3  A    between atoms: C10_11  and  C11_12 
REMARK    4  A    between atoms: C11_12  and  C12_13 
REMARK    5  A    between atoms: C12_13  and  C13_14 
REMARK    6  A    between atoms: C13_14  and  C14_15 
REMARK    7  A    between atoms: C14_15  and  C15_16 
REMARK    8  A    between atoms: C15_16  and  C16_17 
REMARK    9  A    between atoms: C16_17  and  O2_20 
ROOT
HETATM    1  C10 UNL     1      17.104  35.319  59.160  1.00  0.00     0.041 C 
ENDROOT
BRANCH   1   2
HETATM    2  C9  UNL     1      17.594  35.105  57.769  1.00  0.00    -0.024 A 
HETATM    3  C2  UNL     1      17.610  33.877  57.161  1.00  0.00     0.075 A 
HETATM    4  C3  UNL     1      18.077  33.773  55.874  1.00  0.00     0.044 A 
HETATM    5  C4  UNL     1      18.540  34.857  55.146  1.00  0.00    -0.053 A 
HETATM    6  C5  UNL     1      19.043  34.730  53.757  1.00  0.00     0.049 C 
HETATM    7  C6  UNL     1      18.513  36.076  55.781  1.00  0.00    -0.055 A 
HETATM    8  C7  UNL     1      19.007  37.270  55.027  1.00  0.00     0.049 C 
HETATM    9  C8  UNL     1      18.050  36.194  57.066  1.00  0.00     0.017 A 
BRANCH   3  10
HETATM   10  O1  UNL     1      17.158  32.758  57.839  1.00  0.00    -0.355 OA
HETATM   11  C1  UNL     1      16.071  32.000  57.324  1.00  0.00     0.210 C 
ENDBRANCH   3  10
ENDBRANCH   1   2
BRANCH   1  12
HETATM   12  C11 UNL     1      18.104  36.091  59.966  1.00  0.00     0.005 C 
BRANCH  12  13
HETATM   13  C12 UNL     1      19.037  35.217  60.745  1.00  0.00     0.000 C 
BRANCH  13  14
HETATM   14  C13 UNL     1      20.192  35.976  61.383  1.00  0.00     0.000 C 
BRANCH  14  15
HETATM   15  C14 UNL     1      21.478  35.239  61.370  1.00  0.00     0.003 C 
BRANCH  15  16
HETATM   16  C15 UNL     1      21.743  34.272  60.293  1.00  0.00     0.037 C 
BRANCH  16  17
HETATM   17  C16 UNL     1      22.397  34.711  59.048  1.00  0.00     0.051 C 
HETATM   18  C17 UNL     1      21.338  34.550  57.928  1.00  0.00     0.045 C 
HETATM   19  C18 UNL     1      23.591  33.971  58.556  1.00  0.00     0.045 C 
BRANCH  17  20
HETATM   20  O2  UNL     1      22.719  36.076  59.049  1.00  0.00    -0.391 OA
ATOM     21  H2  UNL     1      22.274  36.563  58.367  1.00  0.00     0.210 HD
ENDBRANCH  17  20
ENDBRANCH  16  17
ENDBRANCH  15  16
ENDBRANCH  14  15
ENDBRANCH  13  14
ENDBRANCH  12  13
ENDBRANCH   1  12
TORSDOF 9
ENDMDL
