MODEL 1
REMARK VINA RESULT: -7.189583227      0.000      0.000
REMARK  10 active torsions:
REMARK  status: ('A' for Active; 'I' for Inactive)
REMARK    1  A    between atoms: C2_2  and  C3_3 
REMARK    2  A    between atoms: C5_5  and  C6_6 
REMARK    3  A    between atoms: C6_6  and  C7_7 
REMARK    4  A    between atoms: C7_7  and  C8_8 
REMARK    5  A    between atoms: C14_14  and  O1_15 
REMARK    6  A    between atoms: O1_15  and  C15_16 
REMARK    7  A    between atoms: C15_16  and  C16_17 
REMARK    8  A    between atoms: C16_17  and  C17_18 
REMARK    9  A    between atoms: C17_18  and  C18_19 
REMARK   10  A    between atoms: C18_19  and  O2_20 
ROOT
HETATM    1  C8  UNL     1      21.615  34.751  59.200  1.00  0.00    -0.024 A 
HETATM    2  C9  UNL     1      22.674  34.266  59.929  1.00  0.00     0.010 A 
HETATM    3  C10 UNL     1      23.751  33.639  59.369  1.00  0.00     0.001 A 
HETATM    4  C11 UNL     1      23.780  33.486  58.019  1.00  0.00     0.009 A 
HETATM    5  C12 UNL     1      22.710  33.970  57.249  1.00  0.00    -0.028 A 
HETATM    6  C13 UNL     1      22.856  33.742  55.799  1.00  0.00     0.051 C 
HETATM    7  C14 UNL     1      21.617  34.602  57.795  1.00  0.00     0.081 A 
ENDROOT
BRANCH   1   8
HETATM    8  C7  UNL     1      20.573  35.459  59.960  1.00  0.00     0.045 C 
BRANCH   8   9
HETATM    9  C6  UNL     1      19.474  34.519  60.427  1.00  0.00     0.032 C 
BRANCH   9  10
HETATM   10  C5  UNL     1      18.166  35.070  59.987  1.00  0.00    -0.024 C 
HETATM   11  C3  UNL     1      17.386  34.558  59.064  1.00  0.00    -0.088 C 
HETATM   12  C4  UNL     1      16.083  35.269  58.751  1.00  0.00     0.043 C 
BRANCH  11  13
HETATM   13  C2  UNL     1      17.636  33.336  58.273  1.00  0.00     0.029 C 
HETATM   14  C1  UNL     1      16.366  32.557  57.959  1.00  0.00     0.010 C 
ENDBRANCH  11  13
ENDBRANCH   9  10
ENDBRANCH   8   9
ENDBRANCH   1   8
BRANCH   7  15
HETATM   15  O1  UNL     1      20.587  35.068  57.131  1.00  0.00    -0.350 OA
BRANCH  15  16
HETATM   16  C15 UNL     1      20.014  35.824  56.224  1.00  0.00     0.176 C 
BRANCH  16  17
HETATM   17  C16 UNL     1      18.603  36.232  56.131  1.00  0.00     0.029 C 
BRANCH  17  18
HETATM   18  C17 UNL     1      18.310  37.651  55.761  1.00  0.00     0.028 C 
BRANCH  18  19
HETATM   19  C18 UNL     1      17.113  38.201  56.533  1.00  0.00     0.164 C 
BRANCH  19  20
HETATM   20  O2  UNL     1      16.359  39.079  55.774  1.00  0.00    -0.401 OA
ATOM     21  H2  UNL     1      16.896  39.735  55.344  1.00  0.00     0.209 HD
ENDBRANCH  19  20
ENDBRANCH  18  19
ENDBRANCH  17  18
ENDBRANCH  16  17
ENDBRANCH  15  16
ENDBRANCH   7  15
TORSDOF 10
ENDMDL
MODEL 2
REMARK VINA RESULT: -7.044962446      1.672      2.183
REMARK  10 active torsions:
REMARK  status: ('A' for Active; 'I' for Inactive)
REMARK    1  A    between atoms: C2_2  and  C3_3 
REMARK    2  A    between atoms: C5_5  and  C6_6 
REMARK    3  A    between atoms: C6_6  and  C7_7 
REMARK    4  A    between atoms: C7_7  and  C8_8 
REMARK    5  A    between atoms: C14_14  and  O1_15 
REMARK    6  A    between atoms: O1_15  and  C15_16 
REMARK    7  A    between atoms: C15_16  and  C16_17 
REMARK    8  A    between atoms: C16_17  and  C17_18 
REMARK    9  A    between atoms: C17_18  and  C18_19 
REMARK   10  A    between atoms: C18_19  and  O2_20 
ROOT
HETATM    1  C8  UNL     1      21.564  34.657  59.265  1.00  0.00    -0.024 A 
HETATM    2  C9  UNL     1      22.691  34.280  59.953  1.00  0.00     0.010 A 
HETATM    3  C10 UNL     1      23.797  33.745  59.356  1.00  0.00     0.001 A 
HETATM    4  C11 UNL     1      23.785  33.578  58.007  1.00  0.00     0.009 A 
HETATM    5  C12 UNL     1      22.646  33.953  57.277  1.00  0.00    -0.028 A 
HETATM    6  C13 UNL     1      22.753  33.721  55.824  1.00  0.00     0.051 C 
HETATM    7  C14 UNL     1      21.522  34.491  57.862  1.00  0.00     0.081 A 
ENDROOT
BRANCH   1   8
HETATM    8  C7  UNL     1      20.493  35.278  60.061  1.00  0.00     0.045 C 
BRANCH   8   9
HETATM    9  C6  UNL     1      19.369  34.299  60.362  1.00  0.00     0.032 C 
BRANCH   9  10
HETATM   10  C5  UNL     1      18.091  34.894  59.894  1.00  0.00    -0.024 C 
HETATM   11  C3  UNL     1      17.259  34.355  59.034  1.00  0.00    -0.088 C 
HETATM   12  C4  UNL     1      15.999  35.120  58.678  1.00  0.00     0.043 C 
BRANCH  11  13
HETATM   13  C2  UNL     1      17.413  33.053  58.353  1.00  0.00     0.029 C 
HETATM   14  C1  UNL     1      16.197  32.668  57.521  1.00  0.00     0.010 C 
ENDBRANCH  11  13
ENDBRANCH   9  10
ENDBRANCH   8   9
ENDBRANCH   1   8
BRANCH   7  15
HETATM   15  O1  UNL     1      20.428  34.853  57.237  1.00  0.00    -0.350 OA
BRANCH  15  16
HETATM   16  C15 UNL     1      19.726  35.628  56.445  1.00  0.00     0.176 C 
BRANCH  16  17
HETATM   17  C16 UNL     1      18.562  35.276  55.615  1.00  0.00     0.029 C 
BRANCH  17  18
HETATM   18  C17 UNL     1      18.575  33.950  54.923  1.00  0.00     0.028 C 
BRANCH  18  19
HETATM   19  C18 UNL     1      18.214  34.081  53.445  1.00  0.00     0.164 C 
BRANCH  19  20
HETATM   20  O2  UNL     1      18.211  32.859  52.797  1.00  0.00    -0.401 OA
ATOM     21  H2  UNL     1      18.405  32.943  51.870  1.00  0.00     0.209 HD
ENDBRANCH  19  20
ENDBRANCH  18  19
ENDBRANCH  17  18
ENDBRANCH  16  17
ENDBRANCH  15  16
ENDBRANCH   7  15
TORSDOF 10
ENDMDL
MODEL 3
REMARK VINA RESULT: -6.970673009      2.022      2.943
REMARK  10 active torsions:
REMARK  status: ('A' for Active; 'I' for Inactive)
REMARK    1  A    between atoms: C2_2  and  C3_3 
REMARK    2  A    between atoms: C5_5  and  C6_6 
REMARK    3  A    between atoms: C6_6  and  C7_7 
REMARK    4  A    between atoms: C7_7  and  C8_8 
REMARK    5  A    between atoms: C14_14  and  O1_15 
REMARK    6  A    between atoms: O1_15  and  C15_16 
REMARK    7  A    between atoms: C15_16  and  C16_17 
REMARK    8  A    between atoms: C16_17  and  C17_18 
REMARK    9  A    between atoms: C17_18  and  C18_19 
REMARK   10  A    between atoms: C18_19  and  O2_20 
ROOT
HETATM    1  C8  UNL     1      20.322  34.831  59.063  1.00  0.00    -0.024 A 
HETATM    2  C9  UNL     1      20.821  34.578  60.318  1.00  0.00     0.010 A 
HETATM    3  C10 UNL     1      22.069  34.071  60.545  1.00  0.00     0.001 A 
HETATM    4  C11 UNL     1      22.862  33.802  59.474  1.00  0.00     0.009 A 
HETATM    5  C12 UNL     1      22.377  34.049  58.180  1.00  0.00    -0.028 A 
HETATM    6  C13 UNL     1      23.328  33.716  57.103  1.00  0.00     0.051 C 
HETATM    7  C14 UNL     1      21.123  34.558  57.931  1.00  0.00     0.081 A 
ENDROOT
BRANCH   1   8
HETATM    8  C7  UNL     1      18.984  35.441  59.007  1.00  0.00     0.045 C 
BRANCH   8   9
HETATM    9  C6  UNL     1      17.955  34.624  59.770  1.00  0.00     0.032 C 
BRANCH   9  10
HETATM   10  C5  UNL     1      17.539  33.479  58.919  1.00  0.00    -0.024 C 
HETATM   11  C3  UNL     1      16.472  33.434  58.156  1.00  0.00    -0.088 C 
HETATM   12  C4  UNL     1      16.214  32.171  57.358  1.00  0.00     0.043 C 
BRANCH  11  13
HETATM   13  C2  UNL     1      15.465  34.500  57.980  1.00  0.00     0.029 C 
HETATM   14  C1  UNL     1      15.794  35.450  56.836  1.00  0.00     0.010 C 
ENDBRANCH  11  13
ENDBRANCH   9  10
ENDBRANCH   8   9
ENDBRANCH   1   8
BRANCH   7  15
HETATM   15  O1  UNL     1      20.613  34.802  56.749  1.00  0.00    -0.350 OA
BRANCH  15  16
HETATM   16  C15 UNL     1      20.115  34.454  55.586  1.00  0.00     0.176 C 
BRANCH  16  17
HETATM   17  C16 UNL     1      18.862  33.734  55.305  1.00  0.00     0.029 C 
BRANCH  17  18
HETATM   18  C17 UNL     1      18.029  34.206  54.155  1.00  0.00     0.028 C 
BRANCH  18  19
HETATM   19  C18 UNL     1      18.685  33.888  52.814  1.00  0.00     0.164 C 
BRANCH  19  20
HETATM   20  O2  UNL     1      18.390  32.609  52.377  1.00  0.00    -0.401 OA
ATOM     21  H2  UNL     1      18.971  31.958  52.752  1.00  0.00     0.209 HD
ENDBRANCH  19  20
ENDBRANCH  18  19
ENDBRANCH  17  18
ENDBRANCH  16  17
ENDBRANCH  15  16
ENDBRANCH   7  15
TORSDOF 10
ENDMDL
MODEL 4
REMARK VINA RESULT: -6.892153551      2.075      3.613
REMARK  10 active torsions:
REMARK  status: ('A' for Active; 'I' for Inactive)
REMARK    1  A    between atoms: C2_2  and  C3_3 
REMARK    2  A    between atoms: C5_5  and  C6_6 
REMARK    3  A    between atoms: C6_6  and  C7_7 
REMARK    4  A    between atoms: C7_7  and  C8_8 
REMARK    5  A    between atoms: C14_14  and  O1_15 
REMARK    6  A    between atoms: O1_15  and  C15_16 
REMARK    7  A    between atoms: C15_16  and  C16_17 
REMARK    8  A    between atoms: C16_17  and  C17_18 
REMARK    9  A    between atoms: C17_18  and  C18_19 
REMARK   10  A    between atoms: C18_19  and  O2_20 
ROOT
HETATM    1  C8  UNL     1      19.386  34.355  59.649  1.00  0.00    -0.024 A 
HETATM    2  C9  UNL     1      19.831  34.122  60.928  1.00  0.00     0.010 A 
HETATM    3  C10 UNL     1      21.139  34.241  61.305  1.00  0.00     0.001 A 
HETATM    4  C11 UNL     1      22.051  34.611  60.368  1.00  0.00     0.009 A 
HETATM    5  C12 UNL     1      21.625  34.854  59.052  1.00  0.00    -0.028 A 
HETATM    6  C13 UNL     1      22.706  35.245  58.128  1.00  0.00     0.051 C 
HETATM    7  C14 UNL     1      20.313  34.737  58.653  1.00  0.00     0.081 A 
ENDROOT
BRANCH   1   8
HETATM    8  C7  UNL     1      17.934  34.245  59.436  1.00  0.00     0.045 C 
BRANCH   8   9
HETATM    9  C6  UNL     1      17.268  35.609  59.358  1.00  0.00     0.032 C 
BRANCH   9  10
HETATM   10  C5  UNL     1      16.402  35.640  58.151  1.00  0.00    -0.024 C 
HETATM   11  C3  UNL     1      16.432  36.549  57.204  1.00  0.00    -0.088 C 
HETATM   12  C4  UNL     1      15.463  36.410  56.046  1.00  0.00     0.043 C 
BRANCH  11  13
HETATM   13  C2  UNL     1      17.326  37.723  57.134  1.00  0.00     0.029 C 
HETATM   14  C1  UNL     1      18.026  37.861  55.789  1.00  0.00     0.010 C 
ENDBRANCH  11  13
ENDBRANCH   9  10
ENDBRANCH   8   9
ENDBRANCH   1   8
BRANCH   7  15
HETATM   15  O1  UNL     1      19.857  34.943  57.442  1.00  0.00    -0.350 OA
BRANCH  15  16
HETATM   16  C15 UNL     1      19.621  34.600  56.197  1.00  0.00     0.176 C 
BRANCH  16  17
HETATM   17  C16 UNL     1      18.452  33.896  55.647  1.00  0.00     0.029 C 
BRANCH  17  18
HETATM   18  C17 UNL     1      18.034  34.225  54.249  1.00  0.00     0.028 C 
BRANCH  18  19
HETATM   19  C18 UNL     1      18.963  33.590  53.217  1.00  0.00     0.164 C 
BRANCH  19  20
HETATM   20  O2  UNL     1      18.320  32.632  52.454  1.00  0.00    -0.401 OA
ATOM     21  H2  UNL     1      18.856  31.858  52.321  1.00  0.00     0.209 HD
ENDBRANCH  19  20
ENDBRANCH  18  19
ENDBRANCH  17  18
ENDBRANCH  16  17
ENDBRANCH  15  16
ENDBRANCH   7  15
TORSDOF 10
ENDMDL
MODEL 5
REMARK VINA RESULT: -6.803281063      1.775      3.088
REMARK  10 active torsions:
REMARK  status: ('A' for Active; 'I' for Inactive)
REMARK    1  A    between atoms: C2_2  and  C3_3 
REMARK    2  A    between atoms: C5_5  and  C6_6 
REMARK    3  A    between atoms: C6_6  and  C7_7 
REMARK    4  A    between atoms: C7_7  and  C8_8 
REMARK    5  A    between atoms: C14_14  and  O1_15 
REMARK    6  A    between atoms: O1_15  and  C15_16 
REMARK    7  A    between atoms: C15_16  and  C16_17 
REMARK    8  A    between atoms: C16_17  and  C17_18 
REMARK    9  A    between atoms: C17_18  and  C18_19 
REMARK   10  A    between atoms: C18_19  and  O2_20 
ROOT
HETATM    1  C8  UNL     1      21.017  34.181  59.102  1.00  0.00    -0.024 A 
HETATM    2  C9  UNL     1      22.195  34.085  59.803  1.00  0.00     0.010 A 
HETATM    3  C10 UNL     1      23.428  34.166  59.220  1.00  0.00     0.001 A 
HETATM    4  C11 UNL     1      23.496  34.353  57.876  1.00  0.00     0.009 A 
HETATM    5  C12 UNL     1      22.308  34.453  57.134  1.00  0.00    -0.028 A 
HETATM    6  C13 UNL     1      22.513  34.652  55.687  1.00  0.00     0.051 C 
HETATM    7  C14 UNL     1      21.058  34.372  57.702  1.00  0.00     0.081 A 
ENDROOT
BRANCH   1   8
HETATM    8  C7  UNL     1      19.781  34.140  59.900  1.00  0.00     0.045 C 
BRANCH   8   9
HETATM    9  C6  UNL     1      19.176  35.522  60.082  1.00  0.00     0.032 C 
BRANCH   9  10
HETATM   10  C5  UNL     1      17.716  35.434  59.823  1.00  0.00    -0.024 C 
HETATM   11  C3  UNL     1      17.062  36.065  58.876  1.00  0.00    -0.088 C 
HETATM   12  C4  UNL     1      15.565  35.848  58.770  1.00  0.00     0.043 C 
BRANCH  11  13
HETATM   13  C2  UNL     1      17.632  36.988  57.872  1.00  0.00     0.029 C 
HETATM   14  C1  UNL     1      16.704  37.230  56.690  1.00  0.00     0.010 C 
ENDBRANCH  11  13
ENDBRANCH   9  10
ENDBRANCH   8   9
ENDBRANCH   1   8
BRANCH   7  15
HETATM   15  O1  UNL     1      19.916  34.450  57.064  1.00  0.00    -0.350 OA
BRANCH  15  16
HETATM   16  C15 UNL     1      19.089  34.156  56.089  1.00  0.00     0.176 C 
BRANCH  16  17
HETATM   17  C16 UNL     1      17.723  33.616  56.178  1.00  0.00     0.029 C 
BRANCH  17  18
HETATM   18  C17 UNL     1      17.369  32.808  57.387  1.00  0.00     0.028 C 
BRANCH  18  19
HETATM   19  C18 UNL     1      15.921  32.329  57.342  1.00  0.00     0.164 C 
BRANCH  19  20
HETATM   20  O2  UNL     1      15.821  30.998  56.976  1.00  0.00    -0.401 OA
ATOM     21  H2  UNL     1      16.478  30.458  57.400  1.00  0.00     0.209 HD
ENDBRANCH  19  20
ENDBRANCH  18  19
ENDBRANCH  17  18
ENDBRANCH  16  17
ENDBRANCH  15  16
ENDBRANCH   7  15
TORSDOF 10
ENDMDL
