MODEL 1
REMARK VINA RESULT: -7.434571315      0.000      0.000
REMARK  9 active torsions:
REMARK  status: ('A' for Active; 'I' for Inactive)
REMARK    1  A    between atoms: C2_2  and  C3_3 
REMARK    2  A    between atoms: C3_3  and  C6_6 
REMARK    3  A    between atoms: C6_6  and  C7_7 
REMARK    4  A    between atoms: C7_7  and  O1_8 
REMARK    5  A    between atoms: C7_7  and  C8_10 
REMARK    6  A    between atoms: C8_10  and  C9_11 
REMARK    7  A    between atoms: C9_11  and  C10_12 
REMARK    8  A    between atoms: C10_12  and  O2_13 
REMARK    9  A    between atoms: O2_13  and  C11_14 
ROOT
HETATM    1  C9  UNL     1      18.391  35.548  55.561  1.00  0.00     0.029 C 
ENDROOT
BRANCH   1   2
HETATM    2  C8  UNL     1      16.894  35.349  55.583  1.00  0.00     0.034 C 
BRANCH   2   3
HETATM    3  C7  UNL     1      16.203  36.277  56.555  1.00  0.00     0.122 C 
BRANCH   3   4
HETATM    4  C6  UNL     1      15.682  35.431  57.684  1.00  0.00     0.070 C 
BRANCH   4   5
HETATM    5  C3  UNL     1      16.664  34.984  58.663  1.00  0.00    -0.061 C 
HETATM    6  C4  UNL     1      17.502  35.789  59.269  1.00  0.00    -0.024 C 
HETATM    7  C5  UNL     1      18.460  35.218  60.274  1.00  0.00     0.036 C 
BRANCH   5   8
HETATM    8  C2  UNL     1      16.693  33.558  58.985  1.00  0.00    -0.004 C 
HETATM    9  C1  UNL     1      16.454  32.648  58.065  1.00  0.00     0.012 C 
ENDBRANCH   5   8
ENDBRANCH   4   5
ENDBRANCH   3   4
BRANCH   3  10
HETATM   10  O1  UNL     1      15.133  36.938  55.970  1.00  0.00    -0.395 OA
ATOM     11  H1  UNL     1      14.917  36.498  55.155  1.00  0.00     0.210 HD
ENDBRANCH   3  10
ENDBRANCH   2   3
ENDBRANCH   1   2
BRANCH   1  12
HETATM   12  C10 UNL     1      19.162  34.323  55.897  1.00  0.00     0.175 C 
BRANCH  12  13
HETATM   13  O2  UNL     1      20.483  34.615  56.143  1.00  0.00    -0.351 OA
BRANCH  13  14
HETATM   14  C11 UNL     1      21.393  34.277  57.082  1.00  0.00     0.075 A 
HETATM   15  C12 UNL     1      21.226  34.333  58.443  1.00  0.00     0.044 A 
HETATM   16  C13 UNL     1      22.211  33.969  59.361  1.00  0.00    -0.059 A 
HETATM   17  C14 UNL     1      21.978  34.047  60.829  1.00  0.00     0.048 C 
HETATM   18  C15 UNL     1      23.412  33.535  58.845  1.00  0.00     0.007 A 
HETATM   19  C16 UNL     1      23.595  33.475  57.484  1.00  0.00     0.010 A 
HETATM   20  C17 UNL     1      22.629  33.831  56.582  1.00  0.00    -0.029 A 
HETATM   21  C18 UNL     1      22.882  33.746  55.108  1.00  0.00     0.051 C 
ENDBRANCH  13  14
ENDBRANCH  12  13
ENDBRANCH   1  12
TORSDOF 9
ENDMDL
MODEL 2
REMARK VINA RESULT: -7.234503065      1.530      3.442
REMARK  9 active torsions:
REMARK  status: ('A' for Active; 'I' for Inactive)
REMARK    1  A    between atoms: C2_2  and  C3_3 
REMARK    2  A    between atoms: C3_3  and  C6_6 
REMARK    3  A    between atoms: C6_6  and  C7_7 
REMARK    4  A    between atoms: C7_7  and  O1_8 
REMARK    5  A    between atoms: C7_7  and  C8_10 
REMARK    6  A    between atoms: C8_10  and  C9_11 
REMARK    7  A    between atoms: C9_11  and  C10_12 
REMARK    8  A    between atoms: C10_12  and  O2_13 
REMARK    9  A    between atoms: O2_13  and  C11_14 
ROOT
HETATM    1  C9  UNL     1      18.314  35.769  59.669  1.00  0.00     0.029 C 
ENDROOT
BRANCH   1   2
HETATM    2  C8  UNL     1      17.431  36.197  58.521  1.00  0.00     0.034 C 
BRANCH   2   3
HETATM    3  C7  UNL     1      16.216  35.312  58.367  1.00  0.00     0.122 C 
BRANCH   3   4
HETATM    4  C6  UNL     1      16.015  35.085  56.895  1.00  0.00     0.070 C 
BRANCH   4   5
HETATM    5  C3  UNL     1      16.988  34.224  56.235  1.00  0.00    -0.061 C 
HETATM    6  C4  UNL     1      17.643  34.566  55.153  1.00  0.00    -0.024 C 
HETATM    7  C5  UNL     1      18.635  33.603  54.569  1.00  0.00     0.036 C 
BRANCH   5   8
HETATM    8  C2  UNL     1      17.245  32.914  56.834  1.00  0.00    -0.004 C 
HETATM    9  C1  UNL     1      16.255  32.122  57.186  1.00  0.00     0.012 C 
ENDBRANCH   5   8
ENDBRANCH   4   5
ENDBRANCH   3   4
BRANCH   3  10
HETATM   10  O1  UNL     1      15.072  35.907  58.881  1.00  0.00    -0.395 OA
ATOM     11  H1  UNL     1      14.801  36.598  58.289  1.00  0.00     0.210 HD
ENDBRANCH   3  10
ENDBRANCH   2   3
ENDBRANCH   1   2
BRANCH   1  12
HETATM   12  C10 UNL     1      18.256  34.313  59.956  1.00  0.00     0.175 C 
BRANCH  12  13
HETATM   13  O2  UNL     1      19.425  33.684  59.596  1.00  0.00    -0.351 OA
BRANCH  13  14
HETATM   14  C11 UNL     1      20.553  34.035  58.943  1.00  0.00     0.075 A 
HETATM   15  C12 UNL     1      20.691  34.232  57.592  1.00  0.00     0.044 A 
HETATM   16  C13 UNL     1      21.890  34.593  56.978  1.00  0.00    -0.059 A 
HETATM   17  C14 UNL     1      21.985  34.797  55.507  1.00  0.00     0.048 C 
HETATM   18  C15 UNL     1      22.985  34.752  57.799  1.00  0.00     0.007 A 
HETATM   19  C16 UNL     1      22.863  34.556  59.154  1.00  0.00     0.010 A 
HETATM   20  C17 UNL     1      21.687  34.203  59.758  1.00  0.00    -0.029 A 
HETATM   21  C18 UNL     1      21.611  34.003  61.239  1.00  0.00     0.051 C 
ENDBRANCH  13  14
ENDBRANCH  12  13
ENDBRANCH   1  12
TORSDOF 9
ENDMDL
MODEL 3
REMARK VINA RESULT: -7.224239219      1.270      3.724
REMARK  9 active torsions:
REMARK  status: ('A' for Active; 'I' for Inactive)
REMARK    1  A    between atoms: C2_2  and  C3_3 
REMARK    2  A    between atoms: C3_3  and  C6_6 
REMARK    3  A    between atoms: C6_6  and  C7_7 
REMARK    4  A    between atoms: C7_7  and  O1_8 
REMARK    5  A    between atoms: C7_7  and  C8_10 
REMARK    6  A    between atoms: C8_10  and  C9_11 
REMARK    7  A    between atoms: C9_11  and  C10_12 
REMARK    8  A    between atoms: C10_12  and  O2_13 
REMARK    9  A    between atoms: O2_13  and  C11_14 
ROOT
HETATM    1  C9  UNL     1      17.855  34.490  59.755  1.00  0.00     0.029 C 
ENDROOT
BRANCH   1   2
HETATM    2  C8  UNL     1      17.511  35.816  59.118  1.00  0.00     0.034 C 
BRANCH   2   3
HETATM    3  C7  UNL     1      16.455  35.683  58.045  1.00  0.00     0.122 C 
BRANCH   3   4
HETATM    4  C6  UNL     1      16.959  36.415  56.833  1.00  0.00     0.070 C 
BRANCH   4   5
HETATM    5  C3  UNL     1      17.841  35.667  55.946  1.00  0.00    -0.061 C 
HETATM    6  C4  UNL     1      17.639  34.418  55.607  1.00  0.00    -0.024 C 
HETATM    7  C5  UNL     1      18.606  33.752  54.672  1.00  0.00     0.036 C 
BRANCH   5   8
HETATM    8  C2  UNL     1      19.004  36.369  55.403  1.00  0.00    -0.004 C 
HETATM    9  C1  UNL     1      18.911  37.609  54.975  1.00  0.00     0.012 C 
ENDBRANCH   5   8
ENDBRANCH   4   5
ENDBRANCH   3   4
BRANCH   3  10
HETATM   10  O1  UNL     1      15.248  36.249  58.431  1.00  0.00    -0.395 OA
ATOM     11  H1  UNL     1      14.656  35.551  58.685  1.00  0.00     0.210 HD
ENDBRANCH   3  10
ENDBRANCH   2   3
ENDBRANCH   1   2
BRANCH   1  12
HETATM   12  C10 UNL     1      18.860  33.705  58.993  1.00  0.00     0.175 C 
BRANCH  12  13
HETATM   13  O2  UNL     1      20.020  34.421  58.809  1.00  0.00    -0.351 OA
BRANCH  13  14
HETATM   14  C11 UNL     1      21.233  34.182  58.266  1.00  0.00     0.075 A 
HETATM   15  C12 UNL     1      21.536  34.124  56.929  1.00  0.00     0.044 A 
HETATM   16  C13 UNL     1      22.814  33.869  56.434  1.00  0.00    -0.059 A 
HETATM   17  C14 UNL     1      23.090  33.818  54.971  1.00  0.00     0.048 C 
HETATM   18  C15 UNL     1      23.811  33.665  57.362  1.00  0.00     0.007 A 
HETATM   19  C16 UNL     1      23.523  33.719  58.704  1.00  0.00     0.010 A 
HETATM   20  C17 UNL     1      22.270  33.969  59.193  1.00  0.00    -0.029 A 
HETATM   21  C18 UNL     1      22.011  34.016  60.667  1.00  0.00     0.051 C 
ENDBRANCH  13  14
ENDBRANCH  12  13
ENDBRANCH   1  12
TORSDOF 9
ENDMDL
MODEL 4
REMARK VINA RESULT: -7.205116015      1.750      6.308
REMARK  9 active torsions:
REMARK  status: ('A' for Active; 'I' for Inactive)
REMARK    1  A    between atoms: C2_2  and  C3_3 
REMARK    2  A    between atoms: C3_3  and  C6_6 
REMARK    3  A    between atoms: C6_6  and  C7_7 
REMARK    4  A    between atoms: C7_7  and  O1_8 
REMARK    5  A    between atoms: C7_7  and  C8_10 
REMARK    6  A    between atoms: C8_10  and  C9_11 
REMARK    7  A    between atoms: C9_11  and  C10_12 
REMARK    8  A    between atoms: C10_12  and  O2_13 
REMARK    9  A    between atoms: O2_13  and  C11_14 
ROOT
HETATM    1  C9  UNL     1      19.746  33.813  59.802  1.00  0.00     0.029 C 
ENDROOT
BRANCH   1   2
HETATM    2  C8  UNL     1      21.202  33.885  59.408  1.00  0.00     0.034 C 
BRANCH   2   3
HETATM    3  C7  UNL     1      21.483  35.011  58.440  1.00  0.00     0.122 C 
BRANCH   3   4
HETATM    4  C6  UNL     1      22.020  34.391  57.181  1.00  0.00     0.070 C 
BRANCH   4   5
HETATM    5  C3  UNL     1      21.088  34.279  56.067  1.00  0.00    -0.061 C 
HETATM    6  C4  UNL     1      19.811  34.564  56.157  1.00  0.00    -0.024 C 
HETATM    7  C5  UNL     1      18.947  34.427  54.938  1.00  0.00     0.036 C 
BRANCH   5   8
HETATM    8  C2  UNL     1      21.625  33.837  54.780  1.00  0.00    -0.004 C 
HETATM    9  C1  UNL     1      22.873  33.438  54.666  1.00  0.00     0.012 C 
ENDBRANCH   5   8
ENDBRANCH   4   5
ENDBRANCH   3   4
BRANCH   3  10
HETATM   10  O1  UNL     1      22.431  35.895  58.935  1.00  0.00    -0.395 OA
ATOM     11  H1  UNL     1      23.248  35.425  59.053  1.00  0.00     0.210 HD
ENDBRANCH   3  10
ENDBRANCH   2   3
ENDBRANCH   1   2
BRANCH   1  12
HETATM   12  C10 UNL     1      19.160  35.130  60.164  1.00  0.00     0.175 C 
BRANCH  12  13
HETATM   13  O2  UNL     1      17.856  35.231  59.738  1.00  0.00    -0.351 OA
BRANCH  13  14
HETATM   14  C11 UNL     1      17.234  35.566  58.587  1.00  0.00     0.075 A 
HETATM   15  C12 UNL     1      17.374  36.740  57.891  1.00  0.00     0.044 A 
HETATM   16  C13 UNL     1      16.698  37.024  56.704  1.00  0.00    -0.059 A 
HETATM   17  C14 UNL     1      16.887  38.315  55.987  1.00  0.00     0.048 C 
HETATM   18  C15 UNL     1      15.846  36.053  56.227  1.00  0.00     0.007 A 
HETATM   19  C16 UNL     1      15.695  34.872  56.914  1.00  0.00     0.010 A 
HETATM   20  C17 UNL     1      16.357  34.591  58.077  1.00  0.00    -0.029 A 
HETATM   21  C18 UNL     1      16.155  33.288  58.785  1.00  0.00     0.051 C 
ENDBRANCH  13  14
ENDBRANCH  12  13
ENDBRANCH   1  12
TORSDOF 9
ENDMDL
MODEL 5
REMARK VINA RESULT: -7.201979802      1.857      6.034
REMARK  9 active torsions:
REMARK  status: ('A' for Active; 'I' for Inactive)
REMARK    1  A    between atoms: C2_2  and  C3_3 
REMARK    2  A    between atoms: C3_3  and  C6_6 
REMARK    3  A    between atoms: C6_6  and  C7_7 
REMARK    4  A    between atoms: C7_7  and  O1_8 
REMARK    5  A    between atoms: C7_7  and  C8_10 
REMARK    6  A    between atoms: C8_10  and  C9_11 
REMARK    7  A    between atoms: C9_11  and  C10_12 
REMARK    8  A    between atoms: C10_12  and  O2_13 
REMARK    9  A    between atoms: O2_13  and  C11_14 
ROOT
HETATM    1  C9  UNL     1      19.790  34.130  58.970  1.00  0.00     0.029 C 
ENDROOT
BRANCH   1   2
HETATM    2  C8  UNL     1      21.206  34.515  58.611  1.00  0.00     0.034 C 
BRANCH   2   3
HETATM    3  C7  UNL     1      21.363  34.829  57.142  1.00  0.00     0.122 C 
BRANCH   3   4
HETATM    4  C6  UNL     1      20.043  34.545  56.482  1.00  0.00     0.070 C 
BRANCH   4   5
HETATM    5  C3  UNL     1      19.671  35.420  55.378  1.00  0.00    -0.061 C 
HETATM    6  C4  UNL     1      20.165  36.622  55.206  1.00  0.00    -0.024 C 
HETATM    7  C5  UNL     1      19.720  37.428  54.021  1.00  0.00     0.036 C 
BRANCH   5   8
HETATM    8  C2  UNL     1      18.700  34.908  54.410  1.00  0.00    -0.004 C 
HETATM    9  C1  UNL     1      18.096  33.755  54.599  1.00  0.00     0.012 C 
ENDBRANCH   5   8
ENDBRANCH   4   5
ENDBRANCH   3   4
BRANCH   3  10
HETATM   10  O1  UNL     1      22.334  34.038  56.543  1.00  0.00    -0.395 OA
ATOM     11  H1  UNL     1      22.875  33.658  57.226  1.00  0.00     0.210 HD
ENDBRANCH   3  10
ENDBRANCH   2   3
ENDBRANCH   1   2
BRANCH   1  12
HETATM   12  C10 UNL     1      19.174  35.009  59.997  1.00  0.00     0.175 C 
BRANCH  12  13
HETATM   13  O2  UNL     1      17.874  35.320  59.674  1.00  0.00    -0.351 OA
BRANCH  13  14
HETATM   14  C11 UNL     1      17.207  35.654  58.548  1.00  0.00     0.075 A 
HETATM   15  C12 UNL     1      17.332  36.820  57.836  1.00  0.00     0.044 A 
HETATM   16  C13 UNL     1      16.609  37.103  56.677  1.00  0.00    -0.059 A 
HETATM   17  C14 UNL     1      16.784  38.385  55.940  1.00  0.00     0.048 C 
HETATM   18  C15 UNL     1      15.723  36.140  56.246  1.00  0.00     0.007 A 
HETATM   19  C16 UNL     1      15.586  34.967  56.950  1.00  0.00     0.010 A 
HETATM   20  C17 UNL     1      16.295  34.687  58.086  1.00  0.00    -0.029 A 
HETATM   21  C18 UNL     1      16.105  33.393  58.814  1.00  0.00     0.051 C 
ENDBRANCH  13  14
ENDBRANCH  12  13
ENDBRANCH   1  12
TORSDOF 9
ENDMDL
