MODEL 1
REMARK VINA RESULT: -7.288051423      0.000      0.000
REMARK  10 active torsions:
REMARK  status: ('A' for Active; 'I' for Inactive)
REMARK    1  A    between atoms: C2_2  and  C3_3 
REMARK    2  A    between atoms: C5_5  and  C6_6 
REMARK    3  A    between atoms: C6_6  and  C7_7 
REMARK    4  A    between atoms: C7_7  and  C8_8 
REMARK    5  A    between atoms: C14_14  and  O1_15 
REMARK    6  A    between atoms: O1_15  and  C15_16 
REMARK    7  A    between atoms: C15_16  and  C16_17 
REMARK    8  A    between atoms: C16_17  and  C17_18 
REMARK    9  A    between atoms: C17_18  and  C18_19 
REMARK   10  A    between atoms: C18_19  and  O2_20 
ROOT
HETATM    1  C8  UNL     1      21.476  34.637  59.041  1.00  0.00    -0.024 A 
HETATM    2  C9  UNL     1      22.538  34.177  59.782  1.00  0.00     0.010 A 
HETATM    3  C10 UNL     1      23.627  33.559  59.236  1.00  0.00     0.001 A 
HETATM    4  C11 UNL     1      23.666  33.391  57.888  1.00  0.00     0.009 A 
HETATM    5  C12 UNL     1      22.594  33.850  57.106  1.00  0.00    -0.028 A 
HETATM    6  C13 UNL     1      22.751  33.608  55.659  1.00  0.00     0.051 C 
HETATM    7  C14 UNL     1      21.488  34.472  57.638  1.00  0.00     0.081 A 
ENDROOT
BRANCH   1   8
HETATM    8  C7  UNL     1      20.419  35.338  59.787  1.00  0.00     0.045 C 
BRANCH   8   9
HETATM    9  C6  UNL     1      19.347  34.383  60.286  1.00  0.00     0.032 C 
BRANCH   9  10
HETATM   10  C5  UNL     1      18.023  34.889  59.841  1.00  0.00    -0.024 C 
HETATM   11  C3  UNL     1      17.274  34.364  58.899  1.00  0.00    -0.088 C 
HETATM   12  C4  UNL     1      15.948  35.027  58.584  1.00  0.00     0.043 C 
BRANCH  11  13
HETATM   13  C2  UNL     1      17.584  33.169  58.087  1.00  0.00     0.029 C 
HETATM   14  C1  UNL     1      16.342  32.389  57.675  1.00  0.00     0.010 C 
ENDBRANCH  11  13
ENDBRANCH   9  10
ENDBRANCH   8   9
ENDBRANCH   1   8
BRANCH   7  15
HETATM   15  O1  UNL     1      20.455  34.915  56.963  1.00  0.00    -0.350 OA
BRANCH  15  16
HETATM   16  C15 UNL     1      19.880  35.623  56.020  1.00  0.00     0.176 C 
BRANCH  16  17
HETATM   17  C16 UNL     1      18.485  36.085  55.944  1.00  0.00     0.029 C 
BRANCH  17  18
HETATM   18  C17 UNL     1      18.241  37.507  55.546  1.00  0.00     0.028 C 
BRANCH  18  19
HETATM   19  C18 UNL     1      17.110  38.134  56.356  1.00  0.00     0.164 C 
BRANCH  19  20
HETATM   20  O2  UNL     1      16.320  38.972  55.590  1.00  0.00    -0.401 OA
ATOM     21  H2  UNL     1      16.371  39.877  55.876  1.00  0.00     0.209 HD
ENDBRANCH  19  20
ENDBRANCH  18  19
ENDBRANCH  17  18
ENDBRANCH  16  17
ENDBRANCH  15  16
ENDBRANCH   7  15
TORSDOF 10
ENDMDL
MODEL 2
REMARK VINA RESULT: -7.166512142      1.634      2.189
REMARK  10 active torsions:
REMARK  status: ('A' for Active; 'I' for Inactive)
REMARK    1  A    between atoms: C2_2  and  C3_3 
REMARK    2  A    between atoms: C5_5  and  C6_6 
REMARK    3  A    between atoms: C6_6  and  C7_7 
REMARK    4  A    between atoms: C7_7  and  C8_8 
REMARK    5  A    between atoms: C14_14  and  O1_15 
REMARK    6  A    between atoms: O1_15  and  C15_16 
REMARK    7  A    between atoms: C15_16  and  C16_17 
REMARK    8  A    between atoms: C16_17  and  C17_18 
REMARK    9  A    between atoms: C17_18  and  C18_19 
REMARK   10  A    between atoms: C18_19  and  O2_20 
ROOT
HETATM    1  C8  UNL     1      21.496  34.636  59.175  1.00  0.00    -0.024 A 
HETATM    2  C9  UNL     1      22.600  34.165  59.843  1.00  0.00     0.010 A 
HETATM    3  C10 UNL     1      23.665  33.578  59.221  1.00  0.00     0.001 A 
HETATM    4  C11 UNL     1      23.634  33.452  57.868  1.00  0.00     0.009 A 
HETATM    5  C12 UNL     1      22.517  33.922  57.159  1.00  0.00    -0.028 A 
HETATM    6  C13 UNL     1      22.600  33.727  55.699  1.00  0.00     0.051 C 
HETATM    7  C14 UNL     1      21.435  34.515  57.768  1.00  0.00     0.081 A 
ENDROOT
BRANCH   1   8
HETATM    8  C7  UNL     1      20.474  35.302  59.997  1.00  0.00     0.045 C 
BRANCH   8   9
HETATM    9  C6  UNL     1      19.352  34.352  60.387  1.00  0.00     0.032 C 
BRANCH   9  10
HETATM   10  C5  UNL     1      18.071  34.905  59.878  1.00  0.00    -0.024 C 
HETATM   11  C3  UNL     1      17.323  34.375  58.938  1.00  0.00    -0.088 C 
HETATM   12  C4  UNL     1      16.043  35.091  58.551  1.00  0.00     0.043 C 
BRANCH  11  13
HETATM   13  C2  UNL     1      17.592  33.129  58.192  1.00  0.00     0.029 C 
HETATM   14  C1  UNL     1      16.353  32.562  57.511  1.00  0.00     0.010 C 
ENDBRANCH  11  13
ENDBRANCH   9  10
ENDBRANCH   8   9
ENDBRANCH   1   8
BRANCH   7  15
HETATM   15  O1  UNL     1      20.364  34.967  57.163  1.00  0.00    -0.350 OA
BRANCH  15  16
HETATM   16  C15 UNL     1      19.733  35.653  56.239  1.00  0.00     0.176 C 
BRANCH  16  17
HETATM   17  C16 UNL     1      18.616  35.224  55.382  1.00  0.00     0.029 C 
BRANCH  17  18
HETATM   18  C17 UNL     1      18.700  33.872  54.750  1.00  0.00     0.028 C 
BRANCH  18  19
HETATM   19  C18 UNL     1      18.077  33.860  53.357  1.00  0.00     0.164 C 
BRANCH  19  20
HETATM   20  O2  UNL     1      18.427  32.732  52.636  1.00  0.00    -0.401 OA
ATOM     21  H2  UNL     1      17.972  32.681  51.803  1.00  0.00     0.209 HD
ENDBRANCH  19  20
ENDBRANCH  18  19
ENDBRANCH  17  18
ENDBRANCH  16  17
ENDBRANCH  15  16
ENDBRANCH   7  15
TORSDOF 10
ENDMDL
MODEL 3
REMARK VINA RESULT: -7.099872961      0.585      1.279
REMARK  10 active torsions:
REMARK  status: ('A' for Active; 'I' for Inactive)
REMARK    1  A    between atoms: C2_2  and  C3_3 
REMARK    2  A    between atoms: C5_5  and  C6_6 
REMARK    3  A    between atoms: C6_6  and  C7_7 
REMARK    4  A    between atoms: C7_7  and  C8_8 
REMARK    5  A    between atoms: C14_14  and  O1_15 
REMARK    6  A    between atoms: O1_15  and  C15_16 
REMARK    7  A    between atoms: C15_16  and  C16_17 
REMARK    8  A    between atoms: C16_17  and  C17_18 
REMARK    9  A    between atoms: C17_18  and  C18_19 
REMARK   10  A    between atoms: C18_19  and  O2_20 
ROOT
HETATM    1  C8  UNL     1      21.043  34.522  58.744  1.00  0.00    -0.024 A 
HETATM    2  C9  UNL     1      21.953  34.136  59.699  1.00  0.00     0.010 A 
HETATM    3  C10 UNL     1      23.184  33.623  59.404  1.00  0.00     0.001 A 
HETATM    4  C11 UNL     1      23.531  33.486  58.097  1.00  0.00     0.009 A 
HETATM    5  C12 UNL     1      22.621  33.870  57.100  1.00  0.00    -0.028 A 
HETATM    6  C13 UNL     1      23.111  33.672  55.723  1.00  0.00     0.051 C 
HETATM    7  C14 UNL     1      21.376  34.387  57.377  1.00  0.00     0.081 A 
ENDROOT
BRANCH   1   8
HETATM    8  C7  UNL     1      19.792  35.117  59.241  1.00  0.00     0.045 C 
BRANCH   8   9
HETATM    9  C6  UNL     1      18.841  34.065  59.788  1.00  0.00     0.032 C 
BRANCH   9  10
HETATM   10  C5  UNL     1      18.231  33.342  58.643  1.00  0.00    -0.024 C 
HETATM   11  C3  UNL     1      16.963  33.366  58.304  1.00  0.00    -0.088 C 
HETATM   12  C4  UNL     1      16.528  32.558  57.097  1.00  0.00     0.043 C 
BRANCH  11  13
HETATM   13  C2  UNL     1      15.881  34.111  58.980  1.00  0.00     0.029 C 
HETATM   14  C1  UNL     1      15.838  35.583  58.595  1.00  0.00     0.010 C 
ENDBRANCH  11  13
ENDBRANCH   9  10
ENDBRANCH   8   9
ENDBRANCH   1   8
BRANCH   7  15
HETATM   15  O1  UNL     1      20.482  34.756  56.493  1.00  0.00    -0.350 OA
BRANCH  15  16
HETATM   16  C15 UNL     1      19.846  35.637  55.757  1.00  0.00     0.176 C 
BRANCH  16  17
HETATM   17  C16 UNL     1      18.480  36.158  55.926  1.00  0.00     0.029 C 
BRANCH  17  18
HETATM   18  C17 UNL     1      18.209  37.561  55.487  1.00  0.00     0.028 C 
BRANCH  18  19
HETATM   19  C18 UNL     1      17.110  38.213  56.323  1.00  0.00     0.164 C 
BRANCH  19  20
HETATM   20  O2  UNL     1      16.268  39.001  55.559  1.00  0.00    -0.401 OA
ATOM     21  H2  UNL     1      16.747  39.587  54.984  1.00  0.00     0.209 HD
ENDBRANCH  19  20
ENDBRANCH  18  19
ENDBRANCH  17  18
ENDBRANCH  16  17
ENDBRANCH  15  16
ENDBRANCH   7  15
TORSDOF 10
ENDMDL
MODEL 4
REMARK VINA RESULT: -7.014360934      2.057      3.522
REMARK  10 active torsions:
REMARK  status: ('A' for Active; 'I' for Inactive)
REMARK    1  A    between atoms: C2_2  and  C3_3 
REMARK    2  A    between atoms: C5_5  and  C6_6 
REMARK    3  A    between atoms: C6_6  and  C7_7 
REMARK    4  A    between atoms: C7_7  and  C8_8 
REMARK    5  A    between atoms: C14_14  and  O1_15 
REMARK    6  A    between atoms: O1_15  and  C15_16 
REMARK    7  A    between atoms: C15_16  and  C16_17 
REMARK    8  A    between atoms: C16_17  and  C17_18 
REMARK    9  A    between atoms: C17_18  and  C18_19 
REMARK   10  A    between atoms: C18_19  and  O2_20 
ROOT
HETATM    1  C8  UNL     1      19.505  34.155  59.462  1.00  0.00    -0.024 A 
HETATM    2  C9  UNL     1      19.981  33.926  60.730  1.00  0.00     0.010 A 
HETATM    3  C10 UNL     1      21.300  34.024  61.070  1.00  0.00     0.001 A 
HETATM    4  C11 UNL     1      22.193  34.368  60.104  1.00  0.00     0.009 A 
HETATM    5  C12 UNL     1      21.735  34.606  58.798  1.00  0.00    -0.028 A 
HETATM    6  C13 UNL     1      22.797  34.969  57.841  1.00  0.00     0.051 C 
HETATM    7  C14 UNL     1      20.411  34.511  58.437  1.00  0.00     0.081 A 
ENDROOT
BRANCH   1   8
HETATM    8  C7  UNL     1      18.046  34.072  59.290  1.00  0.00     0.045 C 
BRANCH   8   9
HETATM    9  C6  UNL     1      17.406  35.447  59.191  1.00  0.00     0.032 C 
BRANCH   9  10
HETATM   10  C5  UNL     1      16.431  35.432  58.070  1.00  0.00    -0.024 C 
HETATM   11  C3  UNL     1      16.449  36.223  57.023  1.00  0.00    -0.088 C 
HETATM   12  C4  UNL     1      15.362  36.056  55.979  1.00  0.00     0.043 C 
BRANCH  11  13
HETATM   13  C2  UNL     1      17.433  37.287  56.736  1.00  0.00     0.029 C 
HETATM   14  C1  UNL     1      16.833  38.466  55.981  1.00  0.00     0.010 C 
ENDBRANCH  11  13
ENDBRANCH   9  10
ENDBRANCH   8   9
ENDBRANCH   1   8
BRANCH   7  15
HETATM   15  O1  UNL     1      19.925  34.714  57.237  1.00  0.00    -0.350 OA
BRANCH  15  16
HETATM   16  C15 UNL     1      19.691  34.383  55.988  1.00  0.00     0.176 C 
BRANCH  16  17
HETATM   17  C16 UNL     1      18.525  33.681  55.429  1.00  0.00     0.029 C 
BRANCH  17  18
HETATM   18  C17 UNL     1      18.003  34.140  54.105  1.00  0.00     0.028 C 
BRANCH  18  19
HETATM   19  C18 UNL     1      18.896  33.680  52.956  1.00  0.00     0.164 C 
BRANCH  19  20
HETATM   20  O2  UNL     1      18.414  32.537  52.344  1.00  0.00    -0.401 OA
ATOM     21  H2  UNL     1      19.000  31.796  52.453  1.00  0.00     0.209 HD
ENDBRANCH  19  20
ENDBRANCH  18  19
ENDBRANCH  17  18
ENDBRANCH  16  17
ENDBRANCH  15  16
ENDBRANCH   7  15
TORSDOF 10
ENDMDL
MODEL 5
REMARK VINA RESULT: -7.001898613      1.952      2.899
REMARK  10 active torsions:
REMARK  status: ('A' for Active; 'I' for Inactive)
REMARK    1  A    between atoms: C2_2  and  C3_3 
REMARK    2  A    between atoms: C5_5  and  C6_6 
REMARK    3  A    between atoms: C6_6  and  C7_7 
REMARK    4  A    between atoms: C7_7  and  C8_8 
REMARK    5  A    between atoms: C14_14  and  O1_15 
REMARK    6  A    between atoms: O1_15  and  C15_16 
REMARK    7  A    between atoms: C15_16  and  C16_17 
REMARK    8  A    between atoms: C16_17  and  C17_18 
REMARK    9  A    between atoms: C17_18  and  C18_19 
REMARK   10  A    between atoms: C18_19  and  O2_20 
ROOT
HETATM    1  C8  UNL     1      20.319  34.780  59.030  1.00  0.00    -0.024 A 
HETATM    2  C9  UNL     1      20.824  34.505  60.278  1.00  0.00     0.010 A 
HETATM    3  C10 UNL     1      22.065  33.976  60.490  1.00  0.00     0.001 A 
HETATM    4  C11 UNL     1      22.846  33.707  59.410  1.00  0.00     0.009 A 
HETATM    5  C12 UNL     1      22.355  33.976  58.122  1.00  0.00    -0.028 A 
HETATM    6  C13 UNL     1      23.292  33.639  57.034  1.00  0.00     0.051 C 
HETATM    7  C14 UNL     1      21.107  34.507  57.889  1.00  0.00     0.081 A 
ENDROOT
BRANCH   1   8
HETATM    8  C7  UNL     1      18.990  35.411  58.991  1.00  0.00     0.045 C 
BRANCH   8   9
HETATM    9  C6  UNL     1      17.953  34.599  59.748  1.00  0.00     0.032 C 
BRANCH   9  10
HETATM   10  C5  UNL     1      17.507  33.479  58.878  1.00  0.00    -0.024 C 
HETATM   11  C3  UNL     1      16.465  33.492  58.080  1.00  0.00    -0.088 C 
HETATM   12  C4  UNL     1      16.168  32.246  57.268  1.00  0.00     0.043 C 
BRANCH  11  13
HETATM   13  C2  UNL     1      15.522  34.611  57.875  1.00  0.00     0.029 C 
HETATM   14  C1  UNL     1      15.880  35.482  56.679  1.00  0.00     0.010 C 
ENDBRANCH  11  13
ENDBRANCH   9  10
ENDBRANCH   8   9
ENDBRANCH   1   8
BRANCH   7  15
HETATM   15  O1  UNL     1      20.592  34.772  56.714  1.00  0.00    -0.350 OA
BRANCH  15  16
HETATM   16  C15 UNL     1      20.077  34.445  55.552  1.00  0.00     0.176 C 
BRANCH  16  17
HETATM   17  C16 UNL     1      18.850  33.680  55.276  1.00  0.00     0.029 C 
BRANCH  17  18
HETATM   18  C17 UNL     1      18.070  34.030  54.049  1.00  0.00     0.028 C 
BRANCH  18  19
HETATM   19  C18 UNL     1      18.857  33.730  52.775  1.00  0.00     0.164 C 
BRANCH  19  20
HETATM   20  O2  UNL     1      18.534  32.496  52.239  1.00  0.00    -0.401 OA
ATOM     21  H2  UNL     1      18.786  32.424  51.325  1.00  0.00     0.209 HD
ENDBRANCH  19  20
ENDBRANCH  18  19
ENDBRANCH  17  18
ENDBRANCH  16  17
ENDBRANCH  15  16
ENDBRANCH   7  15
TORSDOF 10
ENDMDL
