MODEL 1
REMARK VINA RESULT: -6.685500144      0.000      0.000
REMARK  7 active torsions:
REMARK  status: ('A' for Active; 'I' for Inactive)
REMARK    1  A    between atoms: C2_2  and  C3_3 
REMARK    2  A    between atoms: C3_3  and  C4_4 
REMARK    3  A    between atoms: C4_4  and  C5_5 
REMARK    4  A    between atoms: C6_7  and  C7_8 
REMARK    5  A    between atoms: C6_7  and  O2_10 
REMARK    6  A    between atoms: O2_10  and  C9_11 
REMARK    7  A    between atoms: C9_11  and  C10_12 
ROOT
HETATM    1  O2  UNL     1      17.955  34.908  55.466  1.00  0.00    -0.350 OA
ENDROOT
BRANCH   1   2
HETATM    2  C6  UNL     1      18.712  35.532  54.538  1.00  0.00     0.055 C 
HETATM    3  C4  UNL     1      19.106  34.972  53.386  1.00  0.00     0.009 C 
BRANCH   3   4
HETATM    4  C3  UNL     1      19.970  35.686  52.405  1.00  0.00     0.044 C 
BRANCH   4   5
HETATM    5  C2  UNL     1      21.233  34.926  52.059  1.00  0.00     0.000 C 
HETATM    6  C1  UNL     1      22.084  34.819  53.320  1.00  0.00     0.005 C 
ENDBRANCH   4   5
ENDBRANCH   3   4
BRANCH   3   7
HETATM    7  C5  UNL     1      18.619  33.646  53.029  1.00  0.00     0.268 C 
HETATM    8  O1  UNL     1      19.186  32.581  53.428  1.00  0.00    -0.302 OA
ENDBRANCH   3   7
BRANCH   2   9
HETATM    9  C7  UNL     1      19.123  36.935  54.888  1.00  0.00     0.061 C 
HETATM   10  C8  UNL     1      17.976  37.621  55.628  1.00  0.00     0.012 C 
ENDBRANCH   2   9
ENDBRANCH   1   2
BRANCH   1  11
HETATM   11  C9  UNL     1      18.103  34.130  56.559  1.00  0.00     0.215 C 
BRANCH  11  12
HETATM   12  C10 UNL     1      18.717  34.703  57.776  1.00  0.00    -0.022 A 
HETATM   13  C11 UNL     1      20.049  34.678  58.047  1.00  0.00    -0.053 A 
HETATM   14  C12 UNL     1      21.000  34.287  56.998  1.00  0.00     0.049 C 
HETATM   15  C13 UNL     1      20.575  35.080  59.293  1.00  0.00     0.014 A 
HETATM   16  C14 UNL     1      19.750  35.520  60.293  1.00  0.00    -0.061 A 
HETATM   17  C15 UNL     1      20.311  35.927  61.614  1.00  0.00     0.048 C 
HETATM   18  C16 UNL     1      18.390  35.553  60.029  1.00  0.00     0.014 A 
HETATM   19  C17 UNL     1      17.877  35.155  58.799  1.00  0.00    -0.053 A 
HETATM   20  C18 UNL     1      16.403  35.233  58.601  1.00  0.00     0.049 C 
ENDBRANCH  11  12
ENDBRANCH   1  11
TORSDOF 7
ENDMDL
MODEL 2
REMARK VINA RESULT: -6.609037236      1.531      2.194
REMARK  7 active torsions:
REMARK  status: ('A' for Active; 'I' for Inactive)
REMARK    1  A    between atoms: C2_2  and  C3_3 
REMARK    2  A    between atoms: C3_3  and  C4_4 
REMARK    3  A    between atoms: C4_4  and  C5_5 
REMARK    4  A    between atoms: C6_7  and  C7_8 
REMARK    5  A    between atoms: C6_7  and  O2_10 
REMARK    6  A    between atoms: O2_10  and  C9_11 
REMARK    7  A    between atoms: C9_11  and  C10_12 
ROOT
HETATM    1  O2  UNL     1      17.610  35.509  54.690  1.00  0.00    -0.350 OA
ENDROOT
BRANCH   1   2
HETATM    2  C6  UNL     1      18.906  35.308  54.367  1.00  0.00     0.055 C 
HETATM    3  C4  UNL     1      19.331  34.378  53.500  1.00  0.00     0.009 C 
BRANCH   3   4
HETATM    4  C3  UNL     1      20.774  34.169  53.197  1.00  0.00     0.044 C 
BRANCH   4   5
HETATM    5  C2  UNL     1      21.415  33.102  54.059  1.00  0.00     0.000 C 
HETATM    6  C1  UNL     1      22.763  33.628  54.543  1.00  0.00     0.005 C 
ENDBRANCH   4   5
ENDBRANCH   3   4
BRANCH   3   7
HETATM    7  C5  UNL     1      18.356  33.586  52.762  1.00  0.00     0.268 C 
HETATM    8  O1  UNL     1      18.646  32.467  52.233  1.00  0.00    -0.302 OA
ENDBRANCH   3   7
BRANCH   2   9
HETATM    9  C7  UNL     1      19.885  36.204  55.072  1.00  0.00     0.061 C 
HETATM   10  C8  UNL     1      19.650  37.647  54.630  1.00  0.00     0.012 C 
ENDBRANCH   2   9
ENDBRANCH   1   2
BRANCH   1  11
HETATM   11  C9  UNL     1      16.730  35.179  55.660  1.00  0.00     0.215 C 
BRANCH  11  12
HETATM   12  C10 UNL     1      17.184  35.146  57.067  1.00  0.00    -0.022 A 
HETATM   13  C11 UNL     1      17.460  36.251  57.810  1.00  0.00    -0.053 A 
HETATM   14  C12 UNL     1      17.075  37.579  57.313  1.00  0.00     0.049 C 
HETATM   15  C13 UNL     1      18.053  36.174  59.088  1.00  0.00     0.014 A 
HETATM   16  C14 UNL     1      18.376  34.963  59.638  1.00  0.00    -0.061 A 
HETATM   17  C15 UNL     1      19.019  34.890  60.982  1.00  0.00     0.048 C 
HETATM   18  C16 UNL     1      18.097  33.829  58.893  1.00  0.00     0.014 A 
HETATM   19  C17 UNL     1      17.513  33.910  57.634  1.00  0.00    -0.053 A 
HETATM   20  C18 UNL     1      17.241  32.638  56.908  1.00  0.00     0.049 C 
ENDBRANCH  11  12
ENDBRANCH   1  11
TORSDOF 7
ENDMDL
MODEL 3
REMARK VINA RESULT: -6.602969008      0.500      1.927
REMARK  7 active torsions:
REMARK  status: ('A' for Active; 'I' for Inactive)
REMARK    1  A    between atoms: C2_2  and  C3_3 
REMARK    2  A    between atoms: C3_3  and  C4_4 
REMARK    3  A    between atoms: C4_4  and  C5_5 
REMARK    4  A    between atoms: C6_7  and  C7_8 
REMARK    5  A    between atoms: C6_7  and  O2_10 
REMARK    6  A    between atoms: O2_10  and  C9_11 
REMARK    7  A    between atoms: C9_11  and  C10_12 
ROOT
HETATM    1  O2  UNL     1      17.895  34.541  55.579  1.00  0.00    -0.350 OA
ENDROOT
BRANCH   1   2
HETATM    2  C6  UNL     1      18.525  35.342  54.693  1.00  0.00     0.055 C 
HETATM    3  C4  UNL     1      18.903  34.958  53.466  1.00  0.00     0.009 C 
BRANCH   3   4
HETATM    4  C3  UNL     1      19.626  35.867  52.532  1.00  0.00     0.044 C 
BRANCH   4   5
HETATM    5  C2  UNL     1      20.926  35.284  52.021  1.00  0.00     0.000 C 
HETATM    6  C1  UNL     1      21.895  35.181  53.195  1.00  0.00     0.005 C 
ENDBRANCH   4   5
ENDBRANCH   3   4
BRANCH   3   7
HETATM    7  C5  UNL     1      18.537  33.634  52.983  1.00  0.00     0.268 C 
HETATM    8  O1  UNL     1      19.212  32.594  53.263  1.00  0.00    -0.302 OA
ENDBRANCH   3   7
BRANCH   2   9
HETATM    9  C7  UNL     1      18.808  36.735  55.182  1.00  0.00     0.061 C 
HETATM   10  C8  UNL     1      17.640  37.208  56.047  1.00  0.00     0.012 C 
ENDBRANCH   2   9
ENDBRANCH   1   2
BRANCH   1  11
HETATM   11  C9  UNL     1      18.191  33.632  56.533  1.00  0.00     0.215 C 
BRANCH  11  12
HETATM   12  C10 UNL     1      18.685  34.098  57.847  1.00  0.00    -0.022 A 
HETATM   13  C11 UNL     1      17.886  34.380  58.910  1.00  0.00    -0.053 A 
HETATM   14  C12 UNL     1      16.470  33.990  58.882  1.00  0.00     0.049 C 
HETATM   15  C13 UNL     1      18.377  34.984  60.087  1.00  0.00     0.014 A 
HETATM   16  C14 UNL     1      19.701  35.313  60.204  1.00  0.00    -0.061 A 
HETATM   17  C15 UNL     1      20.212  35.968  61.444  1.00  0.00     0.048 C 
HETATM   18  C16 UNL     1      20.528  35.028  59.129  1.00  0.00     0.014 A 
HETATM   19  C17 UNL     1      20.037  34.433  57.972  1.00  0.00    -0.053 A 
HETATM   20  C18 UNL     1      21.000  34.155  56.870  1.00  0.00     0.049 C 
ENDBRANCH  11  12
ENDBRANCH   1  11
TORSDOF 7
ENDMDL
MODEL 4
REMARK VINA RESULT: -6.591350648      2.955      4.477
REMARK  7 active torsions:
REMARK  status: ('A' for Active; 'I' for Inactive)
REMARK    1  A    between atoms: C2_2  and  C3_3 
REMARK    2  A    between atoms: C3_3  and  C4_4 
REMARK    3  A    between atoms: C4_4  and  C5_5 
REMARK    4  A    between atoms: C6_7  and  C7_8 
REMARK    5  A    between atoms: C6_7  and  O2_10 
REMARK    6  A    between atoms: O2_10  and  C9_11 
REMARK    7  A    between atoms: C9_11  and  C10_12 
ROOT
HETATM    1  O2  UNL     1      20.536  36.363  54.248  1.00  0.00    -0.350 OA
ENDROOT
BRANCH   1   2
HETATM    2  C6  UNL     1      21.349  37.351  53.816  1.00  0.00     0.055 C 
HETATM    3  C4  UNL     1      21.692  37.539  52.534  1.00  0.00     0.009 C 
BRANCH   3   4
HETATM    4  C3  UNL     1      22.619  38.623  52.106  1.00  0.00     0.044 C 
BRANCH   4   5
HETATM    5  C2  UNL     1      22.010  39.561  51.086  1.00  0.00     0.000 C 
HETATM    6  C1  UNL     1      21.222  40.632  51.835  1.00  0.00     0.005 C 
ENDBRANCH   4   5
ENDBRANCH   3   4
BRANCH   3   7
HETATM    7  C5  UNL     1      21.086  36.711  51.500  1.00  0.00     0.268 C 
HETATM    8  O1  UNL     1      19.903  36.903  51.078  1.00  0.00    -0.302 OA
ENDBRANCH   3   7
BRANCH   2   9
HETATM    9  C7  UNL     1      21.886  38.251  54.894  1.00  0.00     0.061 C 
HETATM   10  C8  UNL     1      23.157  37.633  55.475  1.00  0.00     0.012 C 
ENDBRANCH   2   9
ENDBRANCH   1   2
BRANCH   1  11
HETATM   11  C9  UNL     1      20.572  35.035  54.491  1.00  0.00     0.215 C 
BRANCH  11  12
HETATM   12  C10 UNL     1      21.279  34.540  55.692  1.00  0.00    -0.022 A 
HETATM   13  C11 UNL     1      20.794  34.629  56.959  1.00  0.00    -0.053 A 
HETATM   14  C12 UNL     1      19.392  35.013  57.178  1.00  0.00     0.049 C 
HETATM   15  C13 UNL     1      21.569  34.302  58.091  1.00  0.00     0.014 A 
HETATM   16  C14 UNL     1      22.862  33.873  57.954  1.00  0.00    -0.061 A 
HETATM   17  C15 UNL     1      23.683  33.546  59.157  1.00  0.00     0.048 C 
HETATM   18  C16 UNL     1      23.368  33.774  56.669  1.00  0.00     0.014 A 
HETATM   19  C17 UNL     1      22.600  34.098  55.556  1.00  0.00    -0.053 A 
HETATM   20  C18 UNL     1      23.224  33.954  54.211  1.00  0.00     0.049 C 
ENDBRANCH  11  12
ENDBRANCH   1  11
TORSDOF 7
ENDMDL
MODEL 5
REMARK VINA RESULT: -6.544605196      2.192      3.315
REMARK  7 active torsions:
REMARK  status: ('A' for Active; 'I' for Inactive)
REMARK    1  A    between atoms: C2_2  and  C3_3 
REMARK    2  A    between atoms: C3_3  and  C4_4 
REMARK    3  A    between atoms: C4_4  and  C5_5 
REMARK    4  A    between atoms: C6_7  and  C7_8 
REMARK    5  A    between atoms: C6_7  and  O2_10 
REMARK    6  A    between atoms: O2_10  and  C9_11 
REMARK    7  A    between atoms: C9_11  and  C10_12 
ROOT
HETATM    1  O2  UNL     1      18.950  35.493  54.152  1.00  0.00    -0.350 OA
ENDROOT
BRANCH   1   2
HETATM    2  C6  UNL     1      19.466  36.716  53.902  1.00  0.00     0.055 C 
HETATM    3  C4  UNL     1      20.021  37.076  52.737  1.00  0.00     0.009 C 
BRANCH   3   4
HETATM    4  C3  UNL     1      20.608  38.427  52.515  1.00  0.00     0.044 C 
BRANCH   4   5
HETATM    5  C2  UNL     1      21.918  38.392  51.758  1.00  0.00     0.000 C 
HETATM    6  C1  UNL     1      21.891  39.497  50.707  1.00  0.00     0.005 C 
ENDBRANCH   4   5
ENDBRANCH   3   4
BRANCH   3   7
HETATM    7  C5  UNL     1      19.992  36.152  51.612  1.00  0.00     0.268 C 
HETATM    8  O1  UNL     1      19.095  36.199  50.713  1.00  0.00    -0.302 OA
ENDBRANCH   3   7
BRANCH   2   9
HETATM    9  C7  UNL     1      19.398  37.683  55.050  1.00  0.00     0.061 C 
HETATM   10  C8  UNL     1      17.964  37.737  55.575  1.00  0.00     0.012 C 
ENDBRANCH   2   9
ENDBRANCH   1   2
BRANCH   1  11
HETATM   11  C9  UNL     1      19.301  34.332  54.746  1.00  0.00     0.215 C 
BRANCH  11  12
HETATM   12  C10 UNL     1      20.478  34.305  55.641  1.00  0.00    -0.022 A 
HETATM   13  C11 UNL     1      21.738  33.990  55.241  1.00  0.00    -0.053 A 
HETATM   14  C12 UNL     1      22.047  33.898  53.807  1.00  0.00     0.049 C 
HETATM   15  C13 UNL     1      22.799  33.809  56.153  1.00  0.00     0.014 A 
HETATM   16  C14 UNL     1      22.595  33.947  57.500  1.00  0.00    -0.061 A 
HETATM   17  C15 UNL     1      23.716  33.735  58.462  1.00  0.00     0.048 C 
HETATM   18  C16 UNL     1      21.316  34.271  57.922  1.00  0.00     0.014 A 
HETATM   19  C17 UNL     1      20.274  34.448  57.018  1.00  0.00    -0.053 A 
HETATM   20  C18 UNL     1      18.933  34.804  57.560  1.00  0.00     0.049 C 
ENDBRANCH  11  12
ENDBRANCH   1  11
TORSDOF 7
ENDMDL
