MODEL 1
REMARK VINA RESULT: -6.897405387      0.000      0.000
REMARK  10 active torsions:
REMARK  status: ('A' for Active; 'I' for Inactive)
REMARK    1  A    between atoms: C2_2  and  C3_3 
REMARK    2  A    between atoms: C3_3  and  C4_4 
REMARK    3  A    between atoms: C6_6  and  C7_7 
REMARK    4  A    between atoms: C10_10  and  C11_11 
REMARK    5  A    between atoms: C11_11  and  O1_12 
REMARK    6  A    between atoms: O1_12  and  C12_13 
REMARK    7  A    between atoms: C12_13  and  C14_15 
REMARK    8  A    between atoms: C14_15  and  O2_16 
REMARK    9  A    between atoms: C14_15  and  C15_18 
REMARK   10  A    between atoms: C15_18  and  C16_19 
ROOT
HETATM    1  C4  UNL     1      20.736  34.439  56.437  1.00  0.00    -0.057 A 
HETATM    2  C5  UNL     1      21.619  34.292  57.499  1.00  0.00     0.014 A 
HETATM    3  C6  UNL     1      21.214  33.985  58.774  1.00  0.00    -0.057 A 
HETATM    4  C9  UNL     1      19.858  33.821  58.979  1.00  0.00     0.016 A 
HETATM    5  C10 UNL     1      18.921  33.949  57.974  1.00  0.00    -0.034 A 
HETATM    6  C18 UNL     1      19.393  34.262  56.700  1.00  0.00     0.016 A 
ENDROOT
BRANCH   5   7
HETATM    7  C11 UNL     1      17.471  33.762  58.243  1.00  0.00     0.207 C 
BRANCH   7   8
HETATM    8  O1  UNL     1      16.772  34.033  57.090  1.00  0.00    -0.379 OA
BRANCH   8   9
HETATM    9  C12 UNL     1      15.790  34.984  57.234  1.00  0.00     0.146 C 
HETATM   10  C13 UNL     1      15.795  35.641  58.595  1.00  0.00     0.042 C 
BRANCH   9  11
HETATM   11  C14 UNL     1      16.083  36.095  56.219  1.00  0.00     0.146 C 
BRANCH  11  12
HETATM   12  O2  UNL     1      14.874  36.667  55.884  1.00  0.00    -0.393 OA
ATOM     13  H2  UNL     1      15.060  37.384  55.290  1.00  0.00     0.210 HD
ENDBRANCH  11  12
BRANCH  11  14
HETATM   14  C15 UNL     1      16.932  37.124  56.941  1.00  0.00     0.034 C 
BRANCH  14  15
HETATM   15  C16 UNL     1      17.468  38.098  55.916  1.00  0.00    -0.002 C 
HETATM   16  C17 UNL     1      18.651  37.539  55.169  1.00  0.00     0.005 C 
ENDBRANCH  14  15
ENDBRANCH  11  14
ENDBRANCH   9  11
ENDBRANCH   8   9
ENDBRANCH   7   8
ENDBRANCH   5   7
BRANCH   3  17
HETATM   17  C7  UNL     1      22.170  33.837  59.879  1.00  0.00     0.034 C 
HETATM   18  C8  UNL     1      21.621  34.200  61.215  1.00  0.00     0.010 C 
ENDBRANCH   3  17
BRANCH   1  19
HETATM   19  C3  UNL     1      21.255  34.771  55.094  1.00  0.00     0.038 C 
BRANCH  19  20
HETATM   20  C2  UNL     1      21.880  33.557  54.423  1.00  0.00     0.000 C 
HETATM   21  C1  UNL     1      20.852  32.827  53.569  1.00  0.00     0.005 C 
ENDBRANCH  19  20
ENDBRANCH   1  19
TORSDOF 10
ENDMDL
MODEL 2
REMARK VINA RESULT: -6.754891494      1.774      2.888
REMARK  10 active torsions:
REMARK  status: ('A' for Active; 'I' for Inactive)
REMARK    1  A    between atoms: C2_2  and  C3_3 
REMARK    2  A    between atoms: C3_3  and  C4_4 
REMARK    3  A    between atoms: C6_6  and  C7_7 
REMARK    4  A    between atoms: C10_10  and  C11_11 
REMARK    5  A    between atoms: C11_11  and  O1_12 
REMARK    6  A    between atoms: O1_12  and  C12_13 
REMARK    7  A    between atoms: C12_13  and  C14_15 
REMARK    8  A    between atoms: C14_15  and  O2_16 
REMARK    9  A    between atoms: C14_15  and  C15_18 
REMARK   10  A    between atoms: C15_18  and  C16_19 
ROOT
HETATM    1  C4  UNL     1      22.595  34.356  55.420  1.00  0.00    -0.057 A 
HETATM    2  C5  UNL     1      22.929  34.022  56.727  1.00  0.00     0.014 A 
HETATM    3  C6  UNL     1      22.023  34.034  57.758  1.00  0.00    -0.057 A 
HETATM    4  C9  UNL     1      20.727  34.400  57.451  1.00  0.00     0.016 A 
HETATM    5  C10 UNL     1      20.321  34.744  56.178  1.00  0.00    -0.034 A 
HETATM    6  C18 UNL     1      21.286  34.713  55.172  1.00  0.00     0.016 A 
ENDROOT
BRANCH   5   7
HETATM    7  C11 UNL     1      18.914  35.131  55.897  1.00  0.00     0.207 C 
BRANCH   7   8
HETATM    8  O1  UNL     1      18.080  34.186  56.447  1.00  0.00    -0.379 OA
BRANCH   8   9
HETATM    9  C12 UNL     1      16.781  34.604  56.610  1.00  0.00     0.146 C 
HETATM   10  C13 UNL     1      15.921  33.598  57.342  1.00  0.00     0.042 C 
BRANCH   9  11
HETATM   11  C14 UNL     1      16.816  35.859  57.489  1.00  0.00     0.146 C 
BRANCH  11  12
HETATM   12  O2  UNL     1      15.670  36.576  57.220  1.00  0.00    -0.393 OA
ATOM     13  H2  UNL     1      15.841  37.478  57.460  1.00  0.00     0.210 HD
ENDBRANCH  11  12
BRANCH  11  14
HETATM   14  C15 UNL     1      16.771  35.379  58.928  1.00  0.00     0.034 C 
BRANCH  14  15
HETATM   15  C16 UNL     1      18.089  35.725  59.584  1.00  0.00    -0.002 C 
HETATM   16  C17 UNL     1      18.639  34.577  60.388  1.00  0.00     0.005 C 
ENDBRANCH  14  15
ENDBRANCH  11  14
ENDBRANCH   9  11
ENDBRANCH   8   9
ENDBRANCH   7   8
ENDBRANCH   5   7
BRANCH   3  17
HETATM   17  C7  UNL     1      22.405  33.676  59.131  1.00  0.00     0.034 C 
HETATM   18  C8  UNL     1      23.874  33.680  59.376  1.00  0.00     0.010 C 
ENDBRANCH   3  17
BRANCH   1  19
HETATM   19  C3  UNL     1      23.631  34.318  54.367  1.00  0.00     0.038 C 
BRANCH  19  20
HETATM   20  C2  UNL     1      24.869  35.102  54.776  1.00  0.00     0.000 C 
HETATM   21  C1  UNL     1      24.675  36.588  54.509  1.00  0.00     0.005 C 
ENDBRANCH  19  20
ENDBRANCH   1  19
TORSDOF 10
ENDMDL
MODEL 3
REMARK VINA RESULT: -6.751329974      1.534      4.269
REMARK  10 active torsions:
REMARK  status: ('A' for Active; 'I' for Inactive)
REMARK    1  A    between atoms: C2_2  and  C3_3 
REMARK    2  A    between atoms: C3_3  and  C4_4 
REMARK    3  A    between atoms: C6_6  and  C7_7 
REMARK    4  A    between atoms: C10_10  and  C11_11 
REMARK    5  A    between atoms: C11_11  and  O1_12 
REMARK    6  A    between atoms: O1_12  and  C12_13 
REMARK    7  A    between atoms: C12_13  and  C14_15 
REMARK    8  A    between atoms: C14_15  and  O2_16 
REMARK    9  A    between atoms: C14_15  and  C15_18 
REMARK   10  A    between atoms: C15_18  and  C16_19 
ROOT
HETATM    1  C4  UNL     1      21.768  34.113  58.167  1.00  0.00    -0.057 A 
HETATM    2  C5  UNL     1      22.630  33.752  57.139  1.00  0.00     0.014 A 
HETATM    3  C6  UNL     1      22.357  33.986  55.814  1.00  0.00    -0.057 A 
HETATM    4  C9  UNL     1      21.161  34.612  55.521  1.00  0.00     0.016 A 
HETATM    5  C10 UNL     1      20.256  35.001  56.487  1.00  0.00    -0.034 A 
HETATM    6  C18 UNL     1      20.588  34.736  57.815  1.00  0.00     0.016 A 
ENDROOT
BRANCH   5   7
HETATM    7  C11 UNL     1      18.980  35.672  56.123  1.00  0.00     0.207 C 
BRANCH   7   8
HETATM    8  O1  UNL     1      17.993  35.229  56.973  1.00  0.00    -0.379 OA
BRANCH   8   9
HETATM    9  C12 UNL     1      17.084  36.194  57.335  1.00  0.00     0.146 C 
HETATM   10  C13 UNL     1      15.854  36.210  56.456  1.00  0.00     0.042 C 
BRANCH   9  11
HETATM   11  C14 UNL     1      16.598  35.852  58.747  1.00  0.00     0.146 C 
BRANCH  11  12
HETATM   12  O2  UNL     1      15.223  35.769  58.695  1.00  0.00    -0.393 OA
ATOM     13  H2  UNL     1      14.928  35.484  59.551  1.00  0.00     0.210 HD
ENDBRANCH  11  12
BRANCH  11  14
HETATM   14  C15 UNL     1      17.163  34.483  59.077  1.00  0.00     0.034 C 
BRANCH  14  15
HETATM   15  C16 UNL     1      16.050  33.468  58.946  1.00  0.00    -0.002 C 
HETATM   16  C17 UNL     1      16.352  32.431  57.896  1.00  0.00     0.005 C 
ENDBRANCH  14  15
ENDBRANCH  11  14
ENDBRANCH   9  11
ENDBRANCH   8   9
ENDBRANCH   7   8
ENDBRANCH   5   7
BRANCH   3  17
HETATM   17  C7  UNL     1      23.287  33.592  54.748  1.00  0.00     0.034 C 
HETATM   18  C8  UNL     1      24.327  34.612  54.439  1.00  0.00     0.010 C 
ENDBRANCH   3  17
BRANCH   1  19
HETATM   19  C3  UNL     1      22.138  33.824  59.568  1.00  0.00     0.038 C 
BRANCH  19  20
HETATM   20  C2  UNL     1      20.954  34.009  60.506  1.00  0.00     0.000 C 
HETATM   21  C1  UNL     1      21.086  35.310  61.286  1.00  0.00     0.005 C 
ENDBRANCH  19  20
ENDBRANCH   1  19
TORSDOF 10
ENDMDL
MODEL 4
REMARK VINA RESULT: -6.745841935      1.762      4.118
REMARK  10 active torsions:
REMARK  status: ('A' for Active; 'I' for Inactive)
REMARK    1  A    between atoms: C2_2  and  C3_3 
REMARK    2  A    between atoms: C3_3  and  C4_4 
REMARK    3  A    between atoms: C6_6  and  C7_7 
REMARK    4  A    between atoms: C10_10  and  C11_11 
REMARK    5  A    between atoms: C11_11  and  O1_12 
REMARK    6  A    between atoms: O1_12  and  C12_13 
REMARK    7  A    between atoms: C12_13  and  C14_15 
REMARK    8  A    between atoms: C14_15  and  O2_16 
REMARK    9  A    between atoms: C14_15  and  C15_18 
REMARK   10  A    between atoms: C15_18  and  C16_19 
ROOT
HETATM    1  C4  UNL     1      21.310  34.655  57.102  1.00  0.00    -0.057 A 
HETATM    2  C5  UNL     1      22.071  34.494  55.951  1.00  0.00     0.014 A 
HETATM    3  C6  UNL     1      21.532  34.133  54.741  1.00  0.00    -0.057 A 
HETATM    4  C9  UNL     1      20.167  33.926  54.698  1.00  0.00     0.016 A 
HETATM    5  C10 UNL     1      19.348  34.067  55.798  1.00  0.00    -0.034 A 
HETATM    6  C18 UNL     1      19.952  34.436  57.000  1.00  0.00     0.016 A 
ENDROOT
BRANCH   5   7
HETATM    7  C11 UNL     1      17.883  33.833  55.703  1.00  0.00     0.207 C 
BRANCH   7   8
HETATM    8  O1  UNL     1      17.229  34.992  56.054  1.00  0.00    -0.379 OA
BRANCH   8   9
HETATM    9  C12 UNL     1      16.176  34.809  56.918  1.00  0.00     0.146 C 
HETATM   10  C13 UNL     1      16.076  33.393  57.438  1.00  0.00     0.042 C 
BRANCH   9  11
HETATM   11  C14 UNL     1      16.432  35.699  58.139  1.00  0.00     0.146 C 
BRANCH  11  12
HETATM   12  O2  UNL     1      15.206  36.163  58.567  1.00  0.00    -0.393 OA
ATOM     13  H2  UNL     1      15.009  35.718  59.382  1.00  0.00     0.210 HD
ENDBRANCH  11  12
BRANCH  11  14
HETATM   14  C15 UNL     1      17.021  34.801  59.210  1.00  0.00     0.034 C 
BRANCH  14  15
HETATM   15  C16 UNL     1      18.185  35.527  59.848  1.00  0.00    -0.002 C 
HETATM   16  C17 UNL     1      19.033  34.607  60.686  1.00  0.00     0.005 C 
ENDBRANCH  14  15
ENDBRANCH  11  14
ENDBRANCH   9  11
ENDBRANCH   8   9
ENDBRANCH   7   8
ENDBRANCH   5   7
BRANCH   3  17
HETATM   17  C7  UNL     1      22.362  33.970  53.540  1.00  0.00     0.034 C 
HETATM   18  C8  UNL     1      21.649  34.253  52.263  1.00  0.00     0.010 C 
ENDBRANCH   3  17
BRANCH   1  19
HETATM   19  C3  UNL     1      21.968  35.046  58.366  1.00  0.00     0.038 C 
BRANCH  19  20
HETATM   20  C2  UNL     1      22.306  33.831  59.217  1.00  0.00     0.000 C 
HETATM   21  C1  UNL     1      23.807  33.578  59.218  1.00  0.00     0.005 C 
ENDBRANCH  19  20
ENDBRANCH   1  19
TORSDOF 10
ENDMDL
MODEL 5
REMARK VINA RESULT: -6.740443296      1.590      4.005
REMARK  10 active torsions:
REMARK  status: ('A' for Active; 'I' for Inactive)
REMARK    1  A    between atoms: C2_2  and  C3_3 
REMARK    2  A    between atoms: C3_3  and  C4_4 
REMARK    3  A    between atoms: C6_6  and  C7_7 
REMARK    4  A    between atoms: C10_10  and  C11_11 
REMARK    5  A    between atoms: C11_11  and  O1_12 
REMARK    6  A    between atoms: O1_12  and  C12_13 
REMARK    7  A    between atoms: C12_13  and  C14_15 
REMARK    8  A    between atoms: C14_15  and  O2_16 
REMARK    9  A    between atoms: C14_15  and  C15_18 
REMARK   10  A    between atoms: C15_18  and  C16_19 
ROOT
HETATM    1  C4  UNL     1      21.677  34.811  57.624  1.00  0.00    -0.057 A 
HETATM    2  C5  UNL     1      22.700  34.570  56.715  1.00  0.00     0.014 A 
HETATM    3  C6  UNL     1      22.473  34.182  55.418  1.00  0.00    -0.057 A 
HETATM    4  C9  UNL     1      21.156  34.032  55.028  1.00  0.00     0.016 A 
HETATM    5  C10 UNL     1      20.089  34.255  55.874  1.00  0.00    -0.034 A 
HETATM    6  C18 UNL     1      20.382  34.647  57.179  1.00  0.00     0.016 A 
ENDROOT
BRANCH   5   7
HETATM    7  C11 UNL     1      18.688  34.081  55.408  1.00  0.00     0.207 C 
BRANCH   7   8
HETATM    8  O1  UNL     1      17.988  35.234  55.680  1.00  0.00    -0.379 OA
BRANCH   8   9
HETATM    9  C12 UNL     1      16.742  35.025  56.221  1.00  0.00     0.146 C 
HETATM   10  C13 UNL     1      16.587  33.657  56.846  1.00  0.00     0.042 C 
BRANCH   9  11
HETATM   11  C14 UNL     1      16.564  36.039  57.356  1.00  0.00     0.146 C 
BRANCH  11  12
HETATM   12  O2  UNL     1      15.333  36.634  57.180  1.00  0.00    -0.393 OA
ATOM     13  H2  UNL     1      14.684  36.047  57.546  1.00  0.00     0.210 HD
ENDBRANCH  11  12
BRANCH  11  14
HETATM   14  C15 UNL     1      16.546  35.242  58.646  1.00  0.00     0.034 C 
BRANCH  14  15
HETATM   15  C16 UNL     1      17.720  35.683  59.492  1.00  0.00    -0.002 C 
HETATM   16  C17 UNL     1      18.374  34.525  60.198  1.00  0.00     0.005 C 
ENDBRANCH  14  15
ENDBRANCH  11  14
ENDBRANCH   9  11
ENDBRANCH   8   9
ENDBRANCH   7   8
ENDBRANCH   5   7
BRANCH   3  17
HETATM   17  C7  UNL     1      23.574  33.933  54.478  1.00  0.00     0.034 C 
HETATM   18  C8  UNL     1      24.677  34.930  54.553  1.00  0.00     0.010 C 
ENDBRANCH   3  17
BRANCH   1  19
HETATM   19  C3  UNL     1      22.007  35.226  59.003  1.00  0.00     0.038 C 
BRANCH  19  20
HETATM   20  C2  UNL     1      22.456  34.044  59.848  1.00  0.00     0.000 C 
HETATM   21  C1  UNL     1      21.746  34.046  61.194  1.00  0.00     0.005 C 
ENDBRANCH  19  20
ENDBRANCH   1  19
TORSDOF 10
ENDMDL
