MODEL 1
REMARK VINA RESULT: -6.645699334      0.000      0.000
REMARK  9 active torsions:
REMARK  status: ('A' for Active; 'I' for Inactive)
REMARK    1  A    between atoms: C2_2  and  C3_3 
REMARK    2  A    between atoms: C3_3  and  C4_4 
REMARK    3  A    between atoms: C4_4  and  C5_5 
REMARK    4  A    between atoms: C4_4  and  C8_8 
REMARK    5  A    between atoms: C5_5  and  C6_6 
REMARK    6  A    between atoms: C8_8  and  C9_10 
REMARK    7  A    between atoms: C9_10  and  C10_11 
REMARK    8  A    between atoms: C10_11  and  C11_12 
REMARK    9  A    between atoms: C14_15  and  C15_16 
ROOT
HETATM    1  C9  UNL     1      22.031  33.697  58.616  1.00  0.00     0.083 C 
ENDROOT
BRANCH   1   2
HETATM    2  C8  UNL     1      22.124  34.944  57.848  1.00  0.00     0.132 C 
HETATM    3  O1  UNL     1      22.553  35.977  58.433  1.00  0.00    -0.298 OA
BRANCH   2   4
HETATM    4  C4  UNL     1      21.779  35.180  56.429  1.00  0.00     0.062 C 
BRANCH   4   5
HETATM    5  C3  UNL     1      20.396  35.841  56.335  1.00  0.00     0.038 C 
BRANCH   5   6
HETATM    6  C2  UNL     1      19.444  35.100  55.497  1.00  0.00    -0.036 C 
HETATM    7  C1  UNL     1      18.197  35.548  55.380  1.00  0.00     0.007 C 
ENDBRANCH   5   6
ENDBRANCH   4   5
BRANCH   4   8
HETATM    8  C5  UNL     1      21.707  33.947  55.569  1.00  0.00     0.038 C 
BRANCH   8   9
HETATM    9  C6  UNL     1      23.034  33.550  55.034  1.00  0.00    -0.036 C 
HETATM   10  C7  UNL     1      23.847  34.437  54.500  1.00  0.00     0.007 C 
ENDBRANCH   8   9
ENDBRANCH   4   8
ENDBRANCH   2   4
ENDBRANCH   1   2
BRANCH   1  11
HETATM   11  C10 UNL     1      21.191  33.766  59.829  1.00  0.00     0.046 C 
BRANCH  11  12
HETATM   12  C11 UNL     1      19.761  34.062  59.529  1.00  0.00    -0.052 A 
HETATM   13  C12 UNL     1      19.042  33.248  58.693  1.00  0.00     0.008 A 
HETATM   14  C13 UNL     1      17.721  33.468  58.366  1.00  0.00     0.015 A 
HETATM   15  C14 UNL     1      17.100  34.580  58.925  1.00  0.00     0.002 A 
HETATM   16  C16 UNL     1      17.831  35.393  59.766  1.00  0.00     0.021 A 
HETATM   17  C17 UNL     1      19.153  35.172  60.092  1.00  0.00    -0.055 A 
HETATM   18  C18 UNL     1      19.916  36.058  60.999  1.00  0.00     0.049 C 
BRANCH  15  19
HETATM   19  C15 UNL     1      15.711  34.874  58.623  1.00  0.00     0.269 C 
HETATM   20  O2  UNL     1      15.254  36.040  58.675  1.00  0.00    -0.301 OA
ENDBRANCH  15  19
ENDBRANCH  11  12
ENDBRANCH   1  11
TORSDOF 9
ENDMDL
MODEL 2
REMARK VINA RESULT: -6.600592160      2.419      5.594
REMARK  9 active torsions:
REMARK  status: ('A' for Active; 'I' for Inactive)
REMARK    1  A    between atoms: C2_2  and  C3_3 
REMARK    2  A    between atoms: C3_3  and  C4_4 
REMARK    3  A    between atoms: C4_4  and  C5_5 
REMARK    4  A    between atoms: C4_4  and  C8_8 
REMARK    5  A    between atoms: C5_5  and  C6_6 
REMARK    6  A    between atoms: C8_8  and  C9_10 
REMARK    7  A    between atoms: C9_10  and  C10_11 
REMARK    8  A    between atoms: C10_11  and  C11_12 
REMARK    9  A    between atoms: C14_15  and  C15_16 
ROOT
HETATM    1  C9  UNL     1      16.831  33.491  56.854  1.00  0.00     0.083 C 
ENDROOT
BRANCH   1   2
HETATM    2  C8  UNL     1      16.393  34.078  58.126  1.00  0.00     0.132 C 
HETATM    3  O1  UNL     1      15.930  33.307  59.012  1.00  0.00    -0.298 OA
BRANCH   2   4
HETATM    4  C4  UNL     1      16.415  35.496  58.543  1.00  0.00     0.062 C 
BRANCH   4   5
HETATM    5  C3  UNL     1      16.082  36.395  57.342  1.00  0.00     0.038 C 
BRANCH   5   6
HETATM    6  C2  UNL     1      17.113  37.403  57.056  1.00  0.00    -0.036 C 
HETATM    7  C1  UNL     1      16.978  38.183  55.988  1.00  0.00     0.007 C 
ENDBRANCH   5   6
ENDBRANCH   4   5
BRANCH   4   8
HETATM    8  C5  UNL     1      17.733  35.990  59.076  1.00  0.00     0.038 C 
BRANCH   8   9
HETATM    9  C6  UNL     1      18.303  35.087  60.107  1.00  0.00    -0.036 C 
HETATM   10  C7  UNL     1      19.354  35.440  60.818  1.00  0.00     0.007 C 
ENDBRANCH   8   9
ENDBRANCH   4   8
ENDBRANCH   2   4
ENDBRANCH   1   2
BRANCH   1  11
HETATM   11  C10 UNL     1      18.295  33.391  56.679  1.00  0.00     0.046 C 
BRANCH  11  12
HETATM   12  C11 UNL     1      18.845  34.445  55.780  1.00  0.00    -0.052 A 
HETATM   13  C12 UNL     1      18.215  34.754  54.601  1.00  0.00     0.008 A 
HETATM   14  C13 UNL     1      18.675  35.709  53.720  1.00  0.00     0.015 A 
HETATM   15  C14 UNL     1      19.841  36.388  54.062  1.00  0.00     0.002 A 
HETATM   16  C16 UNL     1      20.467  36.071  55.249  1.00  0.00     0.021 A 
HETATM   17  C17 UNL     1      20.007  35.114  56.130  1.00  0.00    -0.055 A 
HETATM   18  C18 UNL     1      20.695  34.793  57.400  1.00  0.00     0.049 C 
BRANCH  15  19
HETATM   19  C15 UNL     1      20.383  37.405  53.180  1.00  0.00     0.269 C 
HETATM   20  O2  UNL     1      19.780  38.483  52.962  1.00  0.00    -0.301 OA
ENDBRANCH  15  19
ENDBRANCH  11  12
ENDBRANCH   1  11
TORSDOF 9
ENDMDL
MODEL 3
REMARK VINA RESULT: -6.568051367      2.271      5.721
REMARK  9 active torsions:
REMARK  status: ('A' for Active; 'I' for Inactive)
REMARK    1  A    between atoms: C2_2  and  C3_3 
REMARK    2  A    between atoms: C3_3  and  C4_4 
REMARK    3  A    between atoms: C4_4  and  C5_5 
REMARK    4  A    between atoms: C4_4  and  C8_8 
REMARK    5  A    between atoms: C5_5  and  C6_6 
REMARK    6  A    between atoms: C8_8  and  C9_10 
REMARK    7  A    between atoms: C9_10  and  C10_11 
REMARK    8  A    between atoms: C10_11  and  C11_12 
REMARK    9  A    between atoms: C14_15  and  C15_16 
ROOT
HETATM    1  C9  UNL     1      16.095  35.634  58.512  1.00  0.00     0.083 C 
ENDROOT
BRANCH   1   2
HETATM    2  C8  UNL     1      17.103  34.731  59.079  1.00  0.00     0.132 C 
HETATM    3  O1  UNL     1      16.753  33.554  59.375  1.00  0.00    -0.298 OA
BRANCH   2   4
HETATM    4  C4  UNL     1      18.528  35.003  59.364  1.00  0.00     0.062 C 
BRANCH   4   5
HETATM    5  C3  UNL     1      19.405  33.941  58.684  1.00  0.00     0.038 C 
BRANCH   5   6
HETATM    6  C2  UNL     1      20.414  34.503  57.776  1.00  0.00    -0.036 C 
HETATM    7  C1  UNL     1      21.694  34.191  57.954  1.00  0.00     0.007 C 
ENDBRANCH   5   6
ENDBRANCH   4   5
BRANCH   4   8
HETATM    8  C5  UNL     1      18.910  34.984  60.820  1.00  0.00     0.038 C 
BRANCH   8   9
HETATM    9  C6  UNL     1      20.031  35.908  61.126  1.00  0.00    -0.036 C 
HETATM   10  C7  UNL     1      21.195  35.454  61.541  1.00  0.00     0.007 C 
ENDBRANCH   8   9
ENDBRANCH   4   8
ENDBRANCH   2   4
ENDBRANCH   1   2
BRANCH   1  11
HETATM   11  C10 UNL     1      15.860  35.483  57.061  1.00  0.00     0.046 C 
BRANCH  11  12
HETATM   12  C11 UNL     1      16.962  36.049  56.233  1.00  0.00    -0.052 A 
HETATM   13  C12 UNL     1      17.187  37.401  56.202  1.00  0.00     0.008 A 
HETATM   14  C13 UNL     1      18.182  37.991  55.451  1.00  0.00     0.015 A 
HETATM   15  C14 UNL     1      18.992  37.153  54.691  1.00  0.00     0.002 A 
HETATM   16  C16 UNL     1      18.759  35.794  54.728  1.00  0.00     0.021 A 
HETATM   17  C17 UNL     1      17.762  35.205  55.479  1.00  0.00    -0.055 A 
HETATM   18  C18 UNL     1      17.533  33.744  55.505  1.00  0.00     0.049 C 
BRANCH  15  19
HETATM   19  C15 UNL     1      20.058  37.706  53.875  1.00  0.00     0.269 C 
HETATM   20  O2  UNL     1      19.826  38.479  52.916  1.00  0.00    -0.301 OA
ENDBRANCH  15  19
ENDBRANCH  11  12
ENDBRANCH   1  11
TORSDOF 9
ENDMDL
MODEL 4
REMARK VINA RESULT: -6.538396887      1.827      5.033
REMARK  9 active torsions:
REMARK  status: ('A' for Active; 'I' for Inactive)
REMARK    1  A    between atoms: C2_2  and  C3_3 
REMARK    2  A    between atoms: C3_3  and  C4_4 
REMARK    3  A    between atoms: C4_4  and  C5_5 
REMARK    4  A    between atoms: C4_4  and  C8_8 
REMARK    5  A    between atoms: C5_5  and  C6_6 
REMARK    6  A    between atoms: C8_8  and  C9_10 
REMARK    7  A    between atoms: C9_10  and  C10_11 
REMARK    8  A    between atoms: C10_11  and  C11_12 
REMARK    9  A    between atoms: C14_15  and  C15_16 
ROOT
HETATM    1  C9  UNL     1      17.486  36.272  58.956  1.00  0.00     0.083 C 
ENDROOT
BRANCH   1   2
HETATM    2  C8  UNL     1      16.287  35.900  58.196  1.00  0.00     0.132 C 
HETATM    3  O1  UNL     1      15.186  35.832  58.811  1.00  0.00    -0.298 OA
BRANCH   2   4
HETATM    4  C4  UNL     1      16.169  35.584  56.756  1.00  0.00     0.062 C 
BRANCH   4   5
HETATM    5  C3  UNL     1      16.741  34.185  56.484  1.00  0.00     0.038 C 
BRANCH   5   6
HETATM    6  C2  UNL     1      16.006  33.105  57.157  1.00  0.00    -0.036 C 
HETATM    7  C1  UNL     1      16.683  32.182  57.833  1.00  0.00     0.007 C 
ENDBRANCH   5   6
ENDBRANCH   4   5
BRANCH   4   8
HETATM    8  C5  UNL     1      16.900  36.517  55.829  1.00  0.00     0.038 C 
BRANCH   8   9
HETATM    9  C6  UNL     1      18.188  35.951  55.353  1.00  0.00    -0.036 C 
HETATM   10  C7  UNL     1      19.289  36.673  55.349  1.00  0.00     0.007 C 
ENDBRANCH   8   9
ENDBRANCH   4   8
ENDBRANCH   2   4
ENDBRANCH   1   2
BRANCH   1  11
HETATM   11  C10 UNL     1      18.087  35.184  59.754  1.00  0.00     0.046 C 
BRANCH  11  12
HETATM   12  C11 UNL     1      19.513  34.926  59.403  1.00  0.00    -0.052 A 
HETATM   13  C12 UNL     1      19.839  34.309  58.222  1.00  0.00     0.008 A 
HETATM   14  C13 UNL     1      21.135  34.032  57.841  1.00  0.00     0.015 A 
HETATM   15  C14 UNL     1      22.154  34.408  58.712  1.00  0.00     0.002 A 
HETATM   16  C16 UNL     1      21.816  35.028  59.896  1.00  0.00     0.021 A 
HETATM   17  C17 UNL     1      20.519  35.304  60.278  1.00  0.00    -0.055 A 
HETATM   18  C18 UNL     1      20.182  35.973  61.553  1.00  0.00     0.049 C 
BRANCH  15  19
HETATM   19  C15 UNL     1      23.541  34.146  58.375  1.00  0.00     0.269 C 
HETATM   20  O2  UNL     1      23.966  32.984  58.173  1.00  0.00    -0.301 OA
ENDBRANCH  15  19
ENDBRANCH  11  12
ENDBRANCH   1  11
TORSDOF 9
ENDMDL
MODEL 5
REMARK VINA RESULT: -6.481029289      2.713      5.906
REMARK  9 active torsions:
REMARK  status: ('A' for Active; 'I' for Inactive)
REMARK    1  A    between atoms: C2_2  and  C3_3 
REMARK    2  A    between atoms: C3_3  and  C4_4 
REMARK    3  A    between atoms: C4_4  and  C5_5 
REMARK    4  A    between atoms: C4_4  and  C8_8 
REMARK    5  A    between atoms: C5_5  and  C6_6 
REMARK    6  A    between atoms: C8_8  and  C9_10 
REMARK    7  A    between atoms: C9_10  and  C10_11 
REMARK    8  A    between atoms: C10_11  and  C11_12 
REMARK    9  A    between atoms: C14_15  and  C15_16 
ROOT
HETATM    1  C9  UNL     1      16.247  36.666  56.883  1.00  0.00     0.083 C 
ENDROOT
BRANCH   1   2
HETATM    2  C8  UNL     1      16.182  35.855  58.104  1.00  0.00     0.132 C 
HETATM    3  O1  UNL     1      15.194  36.013  58.875  1.00  0.00    -0.298 OA
BRANCH   2   4
HETATM    4  C4  UNL     1      17.139  34.836  58.586  1.00  0.00     0.062 C 
BRANCH   4   5
HETATM    5  C3  UNL     1      16.372  33.653  59.197  1.00  0.00     0.038 C 
BRANCH   5   6
HETATM    6  C2  UNL     1      16.012  32.615  58.222  1.00  0.00    -0.036 C 
HETATM    7  C1  UNL     1      16.943  32.153  57.393  1.00  0.00     0.007 C 
ENDBRANCH   5   6
ENDBRANCH   4   5
BRANCH   4   8
HETATM    8  C5  UNL     1      18.097  35.302  59.649  1.00  0.00     0.038 C 
BRANCH   8   9
HETATM    9  C6  UNL     1      19.508  34.976  59.324  1.00  0.00    -0.036 C 
HETATM   10  C7  UNL     1      19.836  34.447  58.163  1.00  0.00     0.007 C 
ENDBRANCH   8   9
ENDBRANCH   4   8
ENDBRANCH   2   4
ENDBRANCH   1   2
BRANCH   1  11
HETATM   11  C10 UNL     1      17.611  36.979  56.407  1.00  0.00     0.046 C 
BRANCH  11  12
HETATM   12  C11 UNL     1      18.082  36.047  55.342  1.00  0.00    -0.052 A 
HETATM   13  C12 UNL     1      17.483  34.826  55.170  1.00  0.00     0.008 A 
HETATM   14  C13 UNL     1      17.874  33.914  54.213  1.00  0.00     0.015 A 
HETATM   15  C14 UNL     1      18.934  34.270  53.385  1.00  0.00     0.002 A 
HETATM   16  C16 UNL     1      19.530  35.501  53.565  1.00  0.00     0.021 A 
HETATM   17  C17 UNL     1      19.138  36.413  54.524  1.00  0.00    -0.055 A 
HETATM   18  C18 UNL     1      19.792  37.728  54.695  1.00  0.00     0.049 C 
BRANCH  15  19
HETATM   19  C15 UNL     1      19.400  33.358  52.357  1.00  0.00     0.269 C 
HETATM   20  O2  UNL     1      18.756  32.330  52.040  1.00  0.00    -0.301 OA
ENDBRANCH  15  19
ENDBRANCH  11  12
ENDBRANCH   1  11
TORSDOF 9
ENDMDL
