MODEL 1
REMARK VINA RESULT: -9.181046303      0.000      0.000
REMARK  5 active torsions:
REMARK  status: ('A' for Active; 'I' for Inactive)
REMARK    1  A    between atoms: C2_2  and  C5_5 
REMARK    2  A    between atoms: C6_10  and  O1_11 
REMARK    3  A    between atoms: C7_13  and  C8_14 
REMARK    4  A    between atoms: C8_14  and  C9_15 
REMARK    5  A    between atoms: C9_15  and  C10_16 
ROOT
HETATM    1  C10 UNL     1      20.083  36.435  54.548  1.00  0.00     0.123 A 
HETATM    2  N3  UNL     1      19.370  36.682  53.398  1.00  0.00    -0.284 N 
ATOM      3  H3  UNL     1      18.498  36.224  53.135  1.00  0.00     0.188 HD
HETATM    4  N4  UNL     1      19.984  37.596  52.696  1.00  0.00    -0.285 N 
ATOM      5  H4  UNL     1      19.663  37.960  51.799  1.00  0.00     0.188 HD
HETATM    6  C11 UNL     1      21.099  37.985  53.327  1.00  0.00     0.136 A 
HETATM    7  N5  UNL     1      21.158  37.274  54.456  1.00  0.00    -0.317 N 
HETATM    8  C12 UNL     1      22.269  37.439  55.350  1.00  0.00     0.159 C 
HETATM    9  C13 UNL     1      23.329  38.306  54.781  1.00  0.00     0.254 C 
HETATM   10  N6  UNL     1      22.888  39.426  54.037  1.00  0.00    -0.058 N 
ATOM     11  H61 UNL     1      23.669  40.013  53.747  1.00  0.00     0.278 HD
ATOM     12  H62 UNL     1      22.396  40.096  54.627  1.00  0.00     0.278 HD
HETATM   13  C14 UNL     1      22.071  39.020  52.893  1.00  0.00     0.184 C 
HETATM   14  C15 UNL     1      21.316  40.249  52.447  1.00  0.00     0.047 C 
HETATM   15  C16 UNL     1      21.862  40.713  51.093  1.00  0.00     0.003 C 
HETATM   16  C17 UNL     1      21.585  39.593  50.119  1.00  0.00     0.000 C 
HETATM   17  C18 UNL     1      22.442  38.424  50.482  1.00  0.00     0.003 C 
HETATM   18  C19 UNL     1      23.026  38.487  51.855  1.00  0.00     0.047 C 
ENDROOT
BRANCH   1  19
HETATM   19  C9  UNL     1      19.680  35.471  55.557  1.00  0.00     0.051 C 
BRANCH  19  20
HETATM   20  C8  UNL     1      19.057  35.659  56.667  1.00  0.00     0.022 C 
BRANCH  20  21
HETATM   21  C7  UNL     1      17.650  35.997  56.825  1.00  0.00     0.041 A 
HETATM   22  C5  UNL     1      16.709  35.221  57.516  1.00  0.00     0.048 A 
HETATM   23  N1  UNL     1      15.548  35.870  57.430  1.00  0.00    -0.301 N 
HETATM   24  N2  UNL     1      15.692  36.968  56.752  1.00  0.00    -0.279 N 
ATOM     25  H1  UNL     1      14.670  35.550  57.840  1.00  0.00     0.186 HD
HETATM   26  C6  UNL     1      16.995  37.099  56.345  1.00  0.00     0.167 A 
ATOM     27  H2  UNL     1      14.946  37.634  56.551  1.00  0.00     0.189 HD
BRANCH  22  28
HETATM   28  C2  UNL     1      16.999  33.960  58.182  1.00  0.00    -0.006 C 
HETATM   29  C1  UNL     1      15.800  33.593  59.060  1.00  0.00     0.021 C 
HETATM   30  C3  UNL     1      18.188  34.089  59.139  1.00  0.00     0.021 C 
HETATM   31  C4  UNL     1      17.189  32.799  57.230  1.00  0.00     0.021 C 
ENDBRANCH  22  28
BRANCH  26  32
HETATM   32  O1  UNL     1      17.469  38.179  55.593  1.00  0.00    -0.344 OA
ATOM     33  H1  UNL     1      18.170  38.753  55.879  1.00  0.00     0.219 HD
ENDBRANCH  26  32
ENDBRANCH  20  21
ENDBRANCH  19  20
ENDBRANCH   1  19
TORSDOF 5
ENDMDL
MODEL 2
REMARK VINA RESULT: -8.733762270      2.542      7.638
REMARK  5 active torsions:
REMARK  status: ('A' for Active; 'I' for Inactive)
REMARK    1  A    between atoms: C2_2  and  C5_5 
REMARK    2  A    between atoms: C6_10  and  O1_11 
REMARK    3  A    between atoms: C7_13  and  C8_14 
REMARK    4  A    between atoms: C8_14  and  C9_15 
REMARK    5  A    between atoms: C9_15  and  C10_16 
ROOT
HETATM    1  C10 UNL     1      20.919  34.916  55.910  1.00  0.00     0.123 A 
HETATM    2  N3  UNL     1      19.702  35.016  55.278  1.00  0.00    -0.284 N 
ATOM      3  H3  UNL     1      19.565  35.248  54.295  1.00  0.00     0.188 HD
HETATM    4  N4  UNL     1      18.747  34.768  56.136  1.00  0.00    -0.285 N 
ATOM      5  H4  UNL     1      17.751  34.776  55.921  1.00  0.00     0.188 HD
HETATM    6  C11 UNL     1      19.272  34.500  57.338  1.00  0.00     0.136 A 
HETATM    7  N5  UNL     1      20.597  34.593  57.198  1.00  0.00    -0.317 N 
HETATM    8  C12 UNL     1      21.453  34.391  58.332  1.00  0.00     0.159 C 
HETATM    9  C13 UNL     1      20.694  34.259  59.598  1.00  0.00     0.254 C 
HETATM   10  N6  UNL     1      19.482  33.531  59.527  1.00  0.00    -0.058 N 
ATOM     11  H61 UNL     1      19.060  33.417  60.448  1.00  0.00     0.278 HD
ATOM     12  H62 UNL     1      19.649  32.549  59.308  1.00  0.00     0.278 HD
HETATM   13  C14 UNL     1      18.546  34.139  58.582  1.00  0.00     0.184 C 
HETATM   14  C15 UNL     1      17.513  33.086  58.262  1.00  0.00     0.047 C 
HETATM   15  C16 UNL     1      16.172  33.490  58.882  1.00  0.00     0.003 C 
HETATM   16  C17 UNL     1      15.770  34.783  58.215  1.00  0.00     0.000 C 
HETATM   17  C18 UNL     1      16.715  35.856  58.647  1.00  0.00     0.003 C 
HETATM   18  C19 UNL     1      17.978  35.356  59.269  1.00  0.00     0.047 C 
ENDROOT
BRANCH   1  19
HETATM   19  C9  UNL     1      22.193  35.131  55.246  1.00  0.00     0.051 C 
BRANCH  19  20
HETATM   20  C8  UNL     1      22.451  35.743  54.144  1.00  0.00     0.022 C 
BRANCH  20  21
HETATM   21  C7  UNL     1      22.852  37.135  53.998  1.00  0.00     0.041 A 
HETATM   22  C5  UNL     1      22.144  38.105  53.278  1.00  0.00     0.048 A 
HETATM   23  N1  UNL     1      22.836  39.238  53.387  1.00  0.00    -0.301 N 
HETATM   24  N2  UNL     1      23.901  39.051  54.107  1.00  0.00    -0.279 N 
ATOM     25  H1  UNL     1      22.568  40.128  52.966  1.00  0.00     0.186 HD
HETATM   26  C6  UNL     1      23.963  37.744  54.518  1.00  0.00     0.167 A 
ATOM     27  H2  UNL     1      24.590  39.769  54.333  1.00  0.00     0.189 HD
BRANCH  22  28
HETATM   28  C2  UNL     1      20.896  37.866  52.567  1.00  0.00    -0.006 C 
HETATM   29  C1  UNL     1      20.628  39.064  51.652  1.00  0.00     0.021 C 
HETATM   30  C3  UNL     1      19.704  37.805  53.526  1.00  0.00     0.021 C 
HETATM   31  C4  UNL     1      20.933  36.653  51.663  1.00  0.00     0.021 C 
ENDBRANCH  22  28
BRANCH  26  32
HETATM   32  O1  UNL     1      24.994  37.226  55.310  1.00  0.00    -0.344 OA
ATOM     33  H1  UNL     1      25.567  37.763  55.844  1.00  0.00     0.219 HD
ENDBRANCH  26  32
ENDBRANCH  20  21
ENDBRANCH  19  20
ENDBRANCH   1  19
TORSDOF 5
ENDMDL
MODEL 3
REMARK VINA RESULT: -8.690196239      2.096      2.639
REMARK  5 active torsions:
REMARK  status: ('A' for Active; 'I' for Inactive)
REMARK    1  A    between atoms: C2_2  and  C5_5 
REMARK    2  A    between atoms: C6_10  and  O1_11 
REMARK    3  A    between atoms: C7_13  and  C8_14 
REMARK    4  A    between atoms: C8_14  and  C9_15 
REMARK    5  A    between atoms: C9_15  and  C10_16 
ROOT
HETATM    1  C10 UNL     1      20.713  36.463  55.240  1.00  0.00     0.123 A 
HETATM    2  N3  UNL     1      19.613  36.997  54.611  1.00  0.00    -0.284 N 
ATOM      3  H3  UNL     1      18.657  36.655  54.704  1.00  0.00     0.188 HD
HETATM    4  N4  UNL     1      19.985  38.010  53.875  1.00  0.00    -0.285 N 
ATOM      5  H4  UNL     1      19.360  38.581  53.306  1.00  0.00     0.188 HD
HETATM    6  C11 UNL     1      21.308  38.190  53.979  1.00  0.00     0.136 A 
HETATM    7  N5  UNL     1      21.750  37.242  54.811  1.00  0.00    -0.317 N 
HETATM    8  C12 UNL     1      23.152  37.145  55.106  1.00  0.00     0.159 C 
HETATM    9  C13 UNL     1      23.970  38.059  54.274  1.00  0.00     0.254 C 
HETATM   10  N6  UNL     1      23.418  39.339  54.023  1.00  0.00    -0.058 N 
ATOM     11  H61 UNL     1      24.071  39.933  53.513  1.00  0.00     0.278 HD
ATOM     12  H62 UNL     1      23.342  39.886  54.880  1.00  0.00     0.278 HD
HETATM   13  C14 UNL     1      22.132  39.242  53.333  1.00  0.00     0.184 C 
HETATM   14  C15 UNL     1      21.451  40.577  53.506  1.00  0.00     0.047 C 
HETATM   15  C16 UNL     1      21.409  41.302  52.157  1.00  0.00     0.003 C 
HETATM   16  C17 UNL     1      20.569  40.442  51.242  1.00  0.00     0.000 C 
HETATM   17  C18 UNL     1      21.313  39.178  50.960  1.00  0.00     0.003 C 
HETATM   18  C19 UNL     1      22.444  38.902  51.897  1.00  0.00     0.047 C 
ENDROOT
BRANCH   1  19
HETATM   19  C9  UNL     1      20.656  35.321  56.137  1.00  0.00     0.051 C 
BRANCH  19  20
HETATM   20  C8  UNL     1      19.634  34.679  56.582  1.00  0.00     0.022 C 
BRANCH  20  21
HETATM   21  C7  UNL     1      19.260  34.506  57.979  1.00  0.00     0.041 A 
HETATM   22  C5  UNL     1      18.026  34.872  58.533  1.00  0.00     0.048 A 
HETATM   23  N1  UNL     1      18.082  34.551  59.825  1.00  0.00    -0.301 N 
HETATM   24  N2  UNL     1      19.234  34.024  60.112  1.00  0.00    -0.279 N 
ATOM     25  H1  UNL     1      17.326  34.698  60.494  1.00  0.00     0.186 HD
HETATM   26  C6  UNL     1      20.016  33.971  58.987  1.00  0.00     0.167 A 
ATOM     27  H2  UNL     1      19.514  33.698  61.037  1.00  0.00     0.189 HD
BRANCH  22  28
HETATM   28  C2  UNL     1      16.931  35.480  57.793  1.00  0.00    -0.006 C 
HETATM   29  C1  UNL     1      15.719  35.580  58.724  1.00  0.00     0.021 C 
HETATM   30  C3  UNL     1      16.481  34.597  56.624  1.00  0.00     0.021 C 
HETATM   31  C4  UNL     1      17.218  36.892  57.330  1.00  0.00     0.021 C 
ENDBRANCH  22  28
BRANCH  26  32
HETATM   32  O1  UNL     1      21.317  33.456  58.969  1.00  0.00    -0.344 OA
ATOM     33  H1  UNL     1      21.568  32.676  58.489  1.00  0.00     0.219 HD
ENDBRANCH  26  32
ENDBRANCH  20  21
ENDBRANCH  19  20
ENDBRANCH   1  19
TORSDOF 5
ENDMDL
MODEL 4
REMARK VINA RESULT: -8.596811601      2.403      7.212
REMARK  5 active torsions:
REMARK  status: ('A' for Active; 'I' for Inactive)
REMARK    1  A    between atoms: C2_2  and  C5_5 
REMARK    2  A    between atoms: C6_10  and  O1_11 
REMARK    3  A    between atoms: C7_13  and  C8_14 
REMARK    4  A    between atoms: C8_14  and  C9_15 
REMARK    5  A    between atoms: C9_15  and  C10_16 
ROOT
HETATM    1  C10 UNL     1      20.237  34.222  54.821  1.00  0.00     0.123 A 
HETATM    2  N3  UNL     1      18.916  34.215  54.441  1.00  0.00    -0.284 N 
ATOM      3  H3  UNL     1      18.579  34.208  53.478  1.00  0.00     0.188 HD
HETATM    4  N4  UNL     1      18.159  34.218  55.506  1.00  0.00    -0.285 N 
ATOM      5  H4  UNL     1      17.139  34.214  55.499  1.00  0.00     0.188 HD
HETATM    6  C11 UNL     1      18.920  34.227  56.607  1.00  0.00     0.136 A 
HETATM    7  N5  UNL     1      20.188  34.231  56.186  1.00  0.00    -0.317 N 
HETATM    8  C12 UNL     1      21.259  34.274  57.141  1.00  0.00     0.159 C 
HETATM    9  C13 UNL     1      20.775  34.481  58.527  1.00  0.00     0.254 C 
HETATM   10  N6  UNL     1      19.581  33.805  58.879  1.00  0.00    -0.058 N 
ATOM     11  H61 UNL     1      19.357  33.934  59.865  1.00  0.00     0.278 HD
ATOM     12  H62 UNL     1      19.710  32.794  58.877  1.00  0.00     0.278 HD
HETATM   13  C14 UNL     1      18.467  34.205  58.021  1.00  0.00     0.184 C 
HETATM   14  C15 UNL     1      17.402  33.148  58.180  1.00  0.00     0.047 C 
HETATM   15  C16 UNL     1      16.210  33.741  58.939  1.00  0.00     0.003 C 
HETATM   16  C17 UNL     1      15.667  34.851  58.070  1.00  0.00     0.000 C 
HETATM   17  C18 UNL     1      16.669  35.959  58.030  1.00  0.00     0.003 C 
HETATM   18  C19 UNL     1      18.037  35.573  58.489  1.00  0.00     0.047 C 
ENDROOT
BRANCH   1  19
HETATM   19  C9  UNL     1      21.348  34.220  53.884  1.00  0.00     0.051 C 
BRANCH  19  20
HETATM   20  C8  UNL     1      21.908  35.205  53.276  1.00  0.00     0.022 C 
BRANCH  20  21
HETATM   21  C7  UNL     1      21.243  36.381  52.732  1.00  0.00     0.041 A 
HETATM   22  C5  UNL     1      21.472  37.699  53.147  1.00  0.00     0.048 A 
HETATM   23  N1  UNL     1      20.674  38.471  52.411  1.00  0.00    -0.301 N 
HETATM   24  N2  UNL     1      19.978  37.748  51.586  1.00  0.00    -0.279 N 
ATOM     25  H1  UNL     1      20.617  39.487  52.485  1.00  0.00     0.186 HD
HETATM   26  C6  UNL     1      20.296  36.423  51.745  1.00  0.00     0.167 A 
ATOM     27  H2  UNL     1      19.298  38.111  50.919  1.00  0.00     0.189 HD
BRANCH  22  28
HETATM   28  C2  UNL     1      22.413  38.092  54.185  1.00  0.00    -0.006 C 
HETATM   29  C1  UNL     1      22.264  39.597  54.424  1.00  0.00     0.021 C 
HETATM   30  C3  UNL     1      23.864  37.886  53.739  1.00  0.00     0.021 C 
HETATM   31  C4  UNL     1      22.156  37.431  55.523  1.00  0.00     0.021 C 
ENDBRANCH  22  28
BRANCH  26  32
HETATM   32  O1  UNL     1      19.715  35.391  51.000  1.00  0.00    -0.344 OA
ATOM     33  H1  UNL     1      18.957  35.507  50.440  1.00  0.00     0.219 HD
ENDBRANCH  26  32
ENDBRANCH  20  21
ENDBRANCH  19  20
ENDBRANCH   1  19
TORSDOF 5
ENDMDL
MODEL 5
REMARK VINA RESULT: -8.559155332      2.803      7.590
REMARK  5 active torsions:
REMARK  status: ('A' for Active; 'I' for Inactive)
REMARK    1  A    between atoms: C2_2  and  C5_5 
REMARK    2  A    between atoms: C6_10  and  O1_11 
REMARK    3  A    between atoms: C7_13  and  C8_14 
REMARK    4  A    between atoms: C8_14  and  C9_15 
REMARK    5  A    between atoms: C9_15  and  C10_16 
ROOT
HETATM    1  C10 UNL     1      21.050  34.164  55.777  1.00  0.00     0.123 A 
HETATM    2  N3  UNL     1      21.042  34.367  57.137  1.00  0.00    -0.284 N 
ATOM      3  H3  UNL     1      21.864  34.355  57.740  1.00  0.00     0.188 HD
HETATM    4  N4  UNL     1      19.815  34.579  57.535  1.00  0.00    -0.285 N 
ATOM      5  H4  UNL     1      19.536  34.757  58.500  1.00  0.00     0.188 HD
HETATM    6  C11 UNL     1      18.980  34.527  56.491  1.00  0.00     0.136 A 
HETATM    7  N5  UNL     1      19.736  34.271  55.419  1.00  0.00    -0.317 N 
HETATM    8  C12 UNL     1      19.122  34.121  54.130  1.00  0.00     0.159 C 
HETATM    9  C13 UNL     1      17.642  34.112  54.204  1.00  0.00     0.254 C 
HETATM   10  N6  UNL     1      17.057  35.008  55.131  1.00  0.00    -0.058 N 
ATOM     11  H61 UNL     1      16.039  34.999  55.068  1.00  0.00     0.278 HD
ATOM     12  H62 UNL     1      17.223  35.979  54.868  1.00  0.00     0.278 HD
HETATM   13  C14 UNL     1      17.511  34.739  56.495  1.00  0.00     0.184 C 
HETATM   14  C15 UNL     1      17.193  35.972  57.305  1.00  0.00     0.047 C 
HETATM   15  C16 UNL     1      16.062  35.655  58.288  1.00  0.00     0.003 C 
HETATM   16  C17 UNL     1      16.596  34.589  59.216  1.00  0.00     0.000 C 
HETATM   17  C18 UNL     1      16.775  33.326  58.437  1.00  0.00     0.003 C 
HETATM   18  C19 UNL     1      16.771  33.507  56.955  1.00  0.00     0.047 C 
ENDROOT
BRANCH   1  19
HETATM   19  C9  UNL     1      22.252  33.900  55.007  1.00  0.00     0.051 C 
BRANCH  19  20
HETATM   20  C8  UNL     1      22.801  34.601  54.078  1.00  0.00     0.022 C 
BRANCH  20  21
HETATM   21  C7  UNL     1      23.499  35.868  54.244  1.00  0.00     0.041 A 
HETATM   22  C5  UNL     1      23.006  37.117  53.845  1.00  0.00     0.048 A 
HETATM   23  N1  UNL     1      23.937  38.013  54.171  1.00  0.00    -0.301 N 
HETATM   24  N2  UNL     1      24.952  37.428  54.732  1.00  0.00    -0.279 N 
ATOM     25  H1  UNL     1      23.863  39.016  54.004  1.00  0.00     0.186 HD
HETATM   26  C6  UNL     1      24.731  36.076  54.804  1.00  0.00     0.167 A 
ATOM     27  H2  UNL     1      25.789  37.903  55.069  1.00  0.00     0.189 HD
BRANCH  22  28
HETATM   28  C2  UNL     1      21.718  37.335  53.203  1.00  0.00    -0.006 C 
HETATM   29  C1  UNL     1      21.768  38.680  52.472  1.00  0.00     0.021 C 
HETATM   30  C3  UNL     1      20.591  37.466  54.232  1.00  0.00     0.021 C 
HETATM   31  C4  UNL     1      21.379  36.302  52.150  1.00  0.00     0.021 C 
ENDBRANCH  22  28
BRANCH  26  32
HETATM   32  O1  UNL     1      25.642  35.169  55.357  1.00  0.00    -0.344 OA
ATOM     33  H1  UNL     1      26.129  34.534  54.846  1.00  0.00     0.219 HD
ENDBRANCH  26  32
ENDBRANCH  20  21
ENDBRANCH  19  20
ENDBRANCH   1  19
TORSDOF 5
ENDMDL
