MODEL 1
REMARK VINA RESULT: -5.474287115      0.000      0.000
REMARK  5 active torsions:
REMARK  status: ('A' for Active; 'I' for Inactive)
REMARK    1  A    between atoms: N1_1  and  C1_5 
REMARK    2  A    between atoms: C1_5  and  C2_6 
REMARK    3  A    between atoms: C2_6  and  C3_7 
REMARK    4  A    between atoms: C3_7  and  N2_8 
REMARK    5  A    between atoms: C3_7  and  C4_12 
ROOT
HETATM    1  C3  UNL     1      66.065  43.684   9.971  1.00  0.00     0.234 C 
ENDROOT
BRANCH   1   2
HETATM    2  C2  UNL     1      66.631  44.977   9.570  1.00  0.00     0.066 C 
BRANCH   2   3
HETATM    3  C1  UNL     1      65.903  46.205   9.984  1.00  0.00     0.232 C 
BRANCH   3   4
HETATM    4  N1  UNL     1      66.428  46.734  11.247  1.00  0.00    -0.079 N 
ATOM      5  H13 UNL     1      67.158  46.134  11.630  1.00  0.00     0.274 HD
ATOM      6  H12 UNL     1      66.981  47.578  11.098  1.00  0.00     0.274 HD
ATOM      7  H11 UNL     1      65.680  46.891  11.922  1.00  0.00     0.274 HD
ENDBRANCH   3   4
ENDBRANCH   2   3
ENDBRANCH   1   2
BRANCH   1   8
HETATM    8  N2  UNL     1      64.609  43.899  10.182  1.00  0.00    -0.070 N 
ATOM      9  H23 UNL     1      64.315  43.745  11.146  1.00  0.00     0.275 HD
ATOM     10  H22 UNL     1      64.335  44.880  10.119  1.00  0.00     0.275 HD
ATOM     11  H21 UNL     1      64.123  43.303   9.512  1.00  0.00     0.275 HD
ENDBRANCH   1   8
BRANCH   1  12
HETATM   12  C4  UNL     1      66.115  42.596   8.964  1.00  0.00     0.035 A 
HETATM   13  C5  UNL     1      67.085  41.766   8.665  1.00  0.00     0.005 A 
HETATM   14  C6  UNL     1      66.606  40.880   7.581  1.00  0.00     0.073 A 
HETATM   15  C7  UNL     1      65.234  41.378   7.344  1.00  0.00     0.065 A 
HETATM   16  N3  UNL     1      64.995  42.337   8.138  1.00  0.00    -0.371 N 
ATOM     17  H3  UNL     1      64.115  42.852   8.175  1.00  0.00     0.164 HD
ENDBRANCH   1  12
TORSDOF 5
ENDMDL
MODEL 2
REMARK VINA RESULT: -5.403841669      2.016      4.754
REMARK  5 active torsions:
REMARK  status: ('A' for Active; 'I' for Inactive)
REMARK    1  A    between atoms: N1_1  and  C1_5 
REMARK    2  A    between atoms: C1_5  and  C2_6 
REMARK    3  A    between atoms: C2_6  and  C3_7 
REMARK    4  A    between atoms: C3_7  and  N2_8 
REMARK    5  A    between atoms: C3_7  and  C4_12 
ROOT
HETATM    1  C3  UNL     1      65.884  41.356   7.799  1.00  0.00     0.234 C 
ENDROOT
BRANCH   1   2
HETATM    2  C2  UNL     1      66.090  41.627   6.371  1.00  0.00     0.066 C 
BRANCH   2   3
HETATM    3  C1  UNL     1      66.275  40.458   5.470  1.00  0.00     0.232 C 
BRANCH   3   4
HETATM    4  N1  UNL     1      67.097  40.808   4.308  1.00  0.00    -0.079 N 
ATOM      5  H13 UNL     1      67.125  40.050   3.627  1.00  0.00     0.274 HD
ATOM      6  H12 UNL     1      66.648  41.521   3.732  1.00  0.00     0.274 HD
ATOM      7  H11 UNL     1      68.035  41.092   4.591  1.00  0.00     0.274 HD
ENDBRANCH   3   4
ENDBRANCH   2   3
ENDBRANCH   1   2
BRANCH   1   8
HETATM    8  N2  UNL     1      67.018  40.505   8.243  1.00  0.00    -0.070 N 
ATOM      9  H23 UNL     1      66.930  39.533   7.949  1.00  0.00     0.275 HD
ATOM     10  H22 UNL     1      67.890  40.709   7.753  1.00  0.00     0.275 HD
ATOM     11  H21 UNL     1      67.091  40.615   9.254  1.00  0.00     0.275 HD
ENDBRANCH   1   8
BRANCH   1  12
HETATM   12  C4  UNL     1      65.945  42.524   8.711  1.00  0.00     0.035 A 
HETATM   13  C5  UNL     1      66.980  43.133   9.236  1.00  0.00     0.005 A 
HETATM   14  C6  UNL     1      66.477  44.243  10.075  1.00  0.00     0.073 A 
HETATM   15  C7  UNL     1      65.012  44.122   9.920  1.00  0.00     0.065 A 
HETATM   16  N3  UNL     1      64.752  43.150   9.148  1.00  0.00    -0.371 N 
ATOM     17  H3  UNL     1      63.812  42.859   8.880  1.00  0.00     0.164 HD
ENDBRANCH   1  12
TORSDOF 5
ENDMDL
MODEL 3
REMARK VINA RESULT: -5.348365535      1.484      4.542
REMARK  5 active torsions:
REMARK  status: ('A' for Active; 'I' for Inactive)
REMARK    1  A    between atoms: N1_1  and  C1_5 
REMARK    2  A    between atoms: C1_5  and  C2_6 
REMARK    3  A    between atoms: C2_6  and  C3_7 
REMARK    4  A    between atoms: C3_7  and  N2_8 
REMARK    5  A    between atoms: C3_7  and  C4_12 
ROOT
HETATM    1  C3  UNL     1      66.023  42.496   8.024  1.00  0.00     0.234 C 
ENDROOT
BRANCH   1   2
HETATM    2  C2  UNL     1      66.903  41.352   8.292  1.00  0.00     0.066 C 
BRANCH   2   3
HETATM    3  C1  UNL     1      66.546  40.050   7.671  1.00  0.00     0.232 C 
BRANCH   3   4
HETATM    4  N1  UNL     1      67.013  39.977   6.283  1.00  0.00    -0.079 N 
ATOM      5  H13 UNL     1      66.725  40.796   5.748  1.00  0.00     0.274 HD
ATOM      6  H12 UNL     1      68.024  40.097   6.220  1.00  0.00     0.274 HD
ATOM      7  H11 UNL     1      66.710  39.113   5.835  1.00  0.00     0.274 HD
ENDBRANCH   3   4
ENDBRANCH   2   3
ENDBRANCH   1   2
BRANCH   1   8
HETATM    8  N2  UNL     1      64.643  41.957   7.906  1.00  0.00    -0.070 N 
ATOM      9  H23 UNL     1      64.564  40.985   8.204  1.00  0.00     0.275 HD
ATOM     10  H22 UNL     1      63.997  42.353   8.589  1.00  0.00     0.275 HD
ATOM     11  H21 UNL     1      64.349  42.106   6.941  1.00  0.00     0.275 HD
ENDBRANCH   1   8
BRANCH   1  12
HETATM   12  C4  UNL     1      65.911  43.512   9.098  1.00  0.00     0.035 A 
HETATM   13  C5  UNL     1      66.748  44.454   9.460  1.00  0.00     0.005 A 
HETATM   14  C6  UNL     1      66.142  45.191  10.591  1.00  0.00     0.073 A 
HETATM   15  C7  UNL     1      64.856  44.485  10.779  1.00  0.00     0.065 A 
HETATM   16  N3  UNL     1      64.762  43.554   9.924  1.00  0.00    -0.371 N 
ATOM     17  H3  UNL     1      63.966  42.920   9.843  1.00  0.00     0.164 HD
ENDBRANCH   1  12
TORSDOF 5
ENDMDL
MODEL 4
REMARK VINA RESULT: -5.324427355      0.848      1.199
REMARK  5 active torsions:
REMARK  status: ('A' for Active; 'I' for Inactive)
REMARK    1  A    between atoms: N1_1  and  C1_5 
REMARK    2  A    between atoms: C1_5  and  C2_6 
REMARK    3  A    between atoms: C2_6  and  C3_7 
REMARK    4  A    between atoms: C3_7  and  N2_8 
REMARK    5  A    between atoms: C3_7  and  C4_12 
ROOT
HETATM    1  C3  UNL     1      66.107  43.689   9.903  1.00  0.00     0.234 C 
ENDROOT
BRANCH   1   2
HETATM    2  C2  UNL     1      66.589  45.016   9.502  1.00  0.00     0.066 C 
BRANCH   2   3
HETATM    3  C1  UNL     1      65.837  46.199   9.998  1.00  0.00     0.232 C 
BRANCH   3   4
HETATM    4  N1  UNL     1      66.436  46.732  11.225  1.00  0.00    -0.079 N 
ATOM      5  H13 UNL     1      66.456  47.752  11.219  1.00  0.00     0.274 HD
ATOM      6  H12 UNL     1      65.827  46.592  12.031  1.00  0.00     0.274 HD
ATOM      7  H11 UNL     1      67.364  46.340  11.384  1.00  0.00     0.274 HD
ENDBRANCH   3   4
ENDBRANCH   2   3
ENDBRANCH   1   2
BRANCH   1   8
HETATM    8  N2  UNL     1      64.682  43.849  10.293  1.00  0.00    -0.070 N 
ATOM      9  H23 UNL     1      64.555  44.031  11.288  1.00  0.00     0.275 HD
ATOM     10  H22 UNL     1      64.267  44.715   9.949  1.00  0.00     0.275 HD
ATOM     11  H21 UNL     1      64.193  43.014   9.971  1.00  0.00     0.275 HD
ENDBRANCH   1   8
BRANCH   1  12
HETATM   12  C4  UNL     1      66.067  42.650   8.845  1.00  0.00     0.035 A 
HETATM   13  C5  UNL     1      65.197  42.456   7.884  1.00  0.00     0.005 A 
HETATM   14  C6  UNL     1      65.632  41.274   7.108  1.00  0.00     0.073 A 
HETATM   15  C7  UNL     1      66.864  40.865   7.815  1.00  0.00     0.065 A 
HETATM   16  N3  UNL     1      67.076  41.659   8.780  1.00  0.00    -0.371 N 
ATOM     17  H3  UNL     1      67.866  41.592   9.422  1.00  0.00     0.164 HD
ENDBRANCH   1  12
TORSDOF 5
ENDMDL
MODEL 5
REMARK VINA RESULT: -5.031905629      1.269      1.568
REMARK  5 active torsions:
REMARK  status: ('A' for Active; 'I' for Inactive)
REMARK    1  A    between atoms: N1_1  and  C1_5 
REMARK    2  A    between atoms: C1_5  and  C2_6 
REMARK    3  A    between atoms: C2_6  and  C3_7 
REMARK    4  A    between atoms: C3_7  and  N2_8 
REMARK    5  A    between atoms: C3_7  and  C4_12 
ROOT
HETATM    1  C3  UNL     1      65.984  42.564   9.095  1.00  0.00     0.234 C 
ENDROOT
BRANCH   1   2
HETATM    2  C2  UNL     1      66.640  43.876   9.084  1.00  0.00     0.066 C 
BRANCH   2   3
HETATM    3  C1  UNL     1      66.172  44.887  10.069  1.00  0.00     0.232 C 
BRANCH   3   4
HETATM    4  N1  UNL     1      66.669  46.225   9.735  1.00  0.00    -0.079 N 
ATOM      5  H13 UNL     1      67.682  46.230   9.618  1.00  0.00     0.274 HD
ATOM      6  H12 UNL     1      66.401  46.499   8.789  1.00  0.00     0.274 HD
ATOM      7  H11 UNL     1      66.368  46.914  10.423  1.00  0.00     0.274 HD
ENDBRANCH   3   4
ENDBRANCH   2   3
ENDBRANCH   1   2
BRANCH   1   8
HETATM    8  N2  UNL     1      64.520  42.815   9.060  1.00  0.00    -0.070 N 
ATOM      9  H23 UNL     1      64.260  43.728   9.433  1.00  0.00     0.275 HD
ATOM     10  H22 UNL     1      64.158  42.954   8.116  1.00  0.00     0.275 HD
ATOM     11  H21 UNL     1      64.076  42.039   9.551  1.00  0.00     0.275 HD
ENDBRANCH   1   8
BRANCH   1  12
HETATM   12  C4  UNL     1      66.218  41.696   7.915  1.00  0.00     0.035 A 
HETATM   13  C5  UNL     1      66.520  40.421   7.851  1.00  0.00     0.005 A 
HETATM   14  C6  UNL     1      66.643  40.055   6.422  1.00  0.00     0.073 A 
HETATM   15  C7  UNL     1      66.369  41.338   5.740  1.00  0.00     0.065 A 
HETATM   16  N3  UNL     1      66.134  42.232   6.608  1.00  0.00    -0.371 N 
ATOM     17  H3  UNL     1      65.915  43.205   6.393  1.00  0.00     0.164 HD
ENDBRANCH   1  12
TORSDOF 5
ENDMDL
