MODEL 1
REMARK VINA RESULT: -3.849289309      0.000      0.000
REMARK  5 active torsions:
REMARK  status: ('A' for Active; 'I' for Inactive)
REMARK    1  A    between atoms: C2_2  and  C3_4 
REMARK    2  A    between atoms: C3_4  and  C4_5 
REMARK    3  A    between atoms: C4_5  and  N2_6 
REMARK    4  A    between atoms: C5_10  and  C7_12 
REMARK    5  A    between atoms: C7_12  and  N3_13 
ROOT
HETATM    1  C3  UNL     1      69.158  51.406   1.096  1.00  0.00    -0.006 C 
HETATM    2  C5  UNL     1      69.299  52.560   1.617  1.00  0.00    -0.049 C 
HETATM    3  C6  UNL     1      70.111  53.602   0.847  1.00  0.00     0.046 C 
ENDROOT
BRANCH   1   4
HETATM    4  C2  UNL     1      68.449  50.285   1.630  1.00  0.00     0.045 C 
HETATM    5  C1  UNL     1      69.015  49.550   2.579  1.00  0.00     0.040 C 
HETATM    6  N1  UNL     1      67.169  49.866   1.221  1.00  0.00    -0.103 NA
ENDBRANCH   1   4
BRANCH   1   7
HETATM    7  C4  UNL     1      69.860  51.218  -0.255  1.00  0.00     0.270 C 
BRANCH   7   8
HETATM    8  N2  UNL     1      69.245  50.166  -1.030  1.00  0.00    -0.075 N 
ATOM      9  H23 UNL     1      69.685  49.263  -0.849  1.00  0.00     0.274 HD
ATOM     10  H22 UNL     1      68.306  49.954  -0.693  1.00  0.00     0.274 HD
ATOM     11  H21 UNL     1      69.244  50.387  -2.025  1.00  0.00     0.274 HD
ENDBRANCH   7   8
ENDBRANCH   1   7
BRANCH   2  12
HETATM   12  C7  UNL     1      68.776  53.094   2.855  1.00  0.00     0.264 C 
BRANCH  12  13
HETATM   13  N3  UNL     1      69.712  52.884   3.978  1.00  0.00    -0.076 N 
ATOM     14  H33 UNL     1      69.886  51.892   4.137  1.00  0.00     0.274 HD
ATOM     15  H32 UNL     1      70.658  53.175   3.733  1.00  0.00     0.274 HD
ATOM     16  H31 UNL     1      69.390  53.346   4.828  1.00  0.00     0.274 HD
ENDBRANCH  12  13
ENDBRANCH   2  12
TORSDOF 5
ENDMDL
MODEL 2
REMARK VINA RESULT: -3.828591347      1.148      3.025
REMARK  5 active torsions:
REMARK  status: ('A' for Active; 'I' for Inactive)
REMARK    1  A    between atoms: C2_2  and  C3_4 
REMARK    2  A    between atoms: C3_4  and  C4_5 
REMARK    3  A    between atoms: C4_5  and  N2_6 
REMARK    4  A    between atoms: C5_10  and  C7_12 
REMARK    5  A    between atoms: C7_12  and  N3_13 
ROOT
HETATM    1  C3  UNL     1      69.071  51.494   1.150  1.00  0.00    -0.006 C 
HETATM    2  C5  UNL     1      69.704  51.638   0.055  1.00  0.00    -0.049 C 
HETATM    3  C6  UNL     1      70.304  53.010  -0.255  1.00  0.00     0.046 C 
ENDROOT
BRANCH   1   4
HETATM    4  C2  UNL     1      68.430  50.315   1.644  1.00  0.00     0.045 C 
HETATM    5  C1  UNL     1      69.053  49.566   2.545  1.00  0.00     0.040 C 
HETATM    6  N1  UNL     1      67.163  49.852   1.242  1.00  0.00    -0.103 NA
ENDBRANCH   1   4
BRANCH   1   7
HETATM    7  C4  UNL     1      68.983  52.759   2.015  1.00  0.00     0.270 C 
BRANCH   7   8
HETATM    8  N2  UNL     1      67.668  52.917   2.591  1.00  0.00    -0.075 N 
ATOM      9  H23 UNL     1      67.043  52.162   2.305  1.00  0.00     0.274 HD
ATOM     10  H22 UNL     1      67.677  52.742   3.596  1.00  0.00     0.274 HD
ATOM     11  H21 UNL     1      67.273  53.831   2.374  1.00  0.00     0.274 HD
ENDBRANCH   7   8
ENDBRANCH   1   7
BRANCH   2  12
HETATM   12  C7  UNL     1      69.994  50.678  -0.987  1.00  0.00     0.264 C 
BRANCH  12  13
HETATM   13  N3  UNL     1      71.194  49.877  -0.673  1.00  0.00    -0.076 N 
ATOM     14  H33 UNL     1      71.380  49.863   0.330  1.00  0.00     0.274 HD
ATOM     15  H32 UNL     1      71.025  48.881  -0.817  1.00  0.00     0.274 HD
ATOM     16  H31 UNL     1      72.009  50.195  -1.198  1.00  0.00     0.274 HD
ENDBRANCH  12  13
ENDBRANCH   2  12
TORSDOF 5
ENDMDL
MODEL 3
REMARK VINA RESULT: -3.545346536      1.265      1.528
REMARK  5 active torsions:
REMARK  status: ('A' for Active; 'I' for Inactive)
REMARK    1  A    between atoms: C2_2  and  C3_4 
REMARK    2  A    between atoms: C3_4  and  C4_5 
REMARK    3  A    between atoms: C4_5  and  N2_6 
REMARK    4  A    between atoms: C5_10  and  C7_12 
REMARK    5  A    between atoms: C7_12  and  N3_13 
ROOT
HETATM    1  C3  UNL     1      69.186  51.457   0.333  1.00  0.00    -0.006 C 
HETATM    2  C5  UNL     1      69.387  52.425   1.135  1.00  0.00    -0.049 C 
HETATM    3  C6  UNL     1      70.634  53.285   0.925  1.00  0.00     0.046 C 
ENDROOT
BRANCH   1   4
HETATM    4  C2  UNL     1      68.099  50.526   0.338  1.00  0.00     0.045 C 
HETATM    5  C1  UNL     1      67.508  50.211  -0.808  1.00  0.00     0.040 C 
HETATM    6  N1  UNL     1      67.572  49.902   1.484  1.00  0.00    -0.103 NA
ENDBRANCH   1   4
BRANCH   1   7
HETATM    7  C4  UNL     1      70.264  51.275  -0.744  1.00  0.00     0.270 C 
BRANCH   7   8
HETATM    8  N2  UNL     1      70.972  50.028  -0.580  1.00  0.00    -0.075 N 
ATOM      9  H23 UNL     1      71.504  50.012   0.290  1.00  0.00     0.274 HD
ATOM     10  H22 UNL     1      70.332  49.258  -0.387  1.00  0.00     0.274 HD
ATOM     11  H21 UNL     1      71.566  49.827  -1.384  1.00  0.00     0.274 HD
ENDBRANCH   7   8
ENDBRANCH   1   7
BRANCH   2  12
HETATM   12  C7  UNL     1      68.591  52.897   2.246  1.00  0.00     0.264 C 
BRANCH  12  13
HETATM   13  N3  UNL     1      68.786  52.064   3.450  1.00  0.00    -0.076 N 
ATOM     14  H33 UNL     1      69.670  51.556   3.412  1.00  0.00     0.274 HD
ATOM     15  H32 UNL     1      68.967  52.638   4.273  1.00  0.00     0.274 HD
ATOM     16  H31 UNL     1      68.001  51.432   3.603  1.00  0.00     0.274 HD
ENDBRANCH  12  13
ENDBRANCH   2  12
TORSDOF 5
ENDMDL
MODEL 4
REMARK VINA RESULT: -3.412972145      2.046      3.584
REMARK  5 active torsions:
REMARK  status: ('A' for Active; 'I' for Inactive)
REMARK    1  A    between atoms: C2_2  and  C3_4 
REMARK    2  A    between atoms: C3_4  and  C4_5 
REMARK    3  A    between atoms: C4_5  and  N2_6 
REMARK    4  A    between atoms: C5_10  and  C7_12 
REMARK    5  A    between atoms: C7_12  and  N3_13 
ROOT
HETATM    1  C3  UNL     1      68.617  51.586   1.059  1.00  0.00    -0.006 C 
HETATM    2  C5  UNL     1      68.338  51.650  -0.181  1.00  0.00    -0.049 C 
HETATM    3  C6  UNL     1      68.355  50.352  -0.990  1.00  0.00     0.046 C 
ENDROOT
BRANCH   1   4
HETATM    4  C2  UNL     1      68.666  52.660   2.003  1.00  0.00     0.045 C 
HETATM    5  C1  UNL     1      69.774  53.380   2.112  1.00  0.00     0.040 C 
HETATM    6  N1  UNL     1      67.615  53.029   2.865  1.00  0.00    -0.103 NA
ENDBRANCH   1   4
BRANCH   1   7
HETATM    7  C4  UNL     1      68.960  50.181   1.572  1.00  0.00     0.270 C 
BRANCH   7   8
HETATM    8  N2  UNL     1      68.881  50.109   3.012  1.00  0.00    -0.075 N 
ATOM      9  H23 UNL     1      68.758  51.033   3.426  1.00  0.00     0.274 HD
ATOM     10  H22 UNL     1      68.006  49.682   3.317  1.00  0.00     0.274 HD
ATOM     11  H21 UNL     1      69.688  49.627   3.407  1.00  0.00     0.274 HD
ENDBRANCH   7   8
ENDBRANCH   1   7
BRANCH   2  12
HETATM   12  C7  UNL     1      67.960  52.784  -0.995  1.00  0.00     0.264 C 
BRANCH  12  13
HETATM   13  N3  UNL     1      66.503  53.022  -0.958  1.00  0.00    -0.076 N 
ATOM     14  H33 UNL     1      66.270  53.954  -1.302  1.00  0.00     0.274 HD
ATOM     15  H32 UNL     1      66.017  52.466  -1.661  1.00  0.00     0.274 HD
ATOM     16  H31 UNL     1      66.119  52.863  -0.027  1.00  0.00     0.274 HD
ENDBRANCH  12  13
ENDBRANCH   2  12
TORSDOF 5
ENDMDL
MODEL 5
REMARK VINA RESULT: -3.404734389      1.748      3.075
REMARK  5 active torsions:
REMARK  status: ('A' for Active; 'I' for Inactive)
REMARK    1  A    between atoms: C2_2  and  C3_4 
REMARK    2  A    between atoms: C3_4  and  C4_5 
REMARK    3  A    between atoms: C4_5  and  N2_6 
REMARK    4  A    between atoms: C5_10  and  C7_12 
REMARK    5  A    between atoms: C7_12  and  N3_13 
ROOT
HETATM    1  C3  UNL     1      69.441  51.676   0.766  1.00  0.00    -0.006 C 
HETATM    2  C5  UNL     1      69.064  51.419   1.955  1.00  0.00    -0.049 C 
HETATM    3  C6  UNL     1      68.744  49.967   2.310  1.00  0.00     0.046 C 
ENDROOT
BRANCH   1   4
HETATM    4  C2  UNL     1      69.787  52.948   0.212  1.00  0.00     0.045 C 
HETATM    5  C1  UNL     1      68.867  53.644  -0.443  1.00  0.00     0.040 C 
HETATM    6  N1  UNL     1      71.059  53.546   0.289  1.00  0.00    -0.103 NA
ENDBRANCH   1   4
BRANCH   1   7
HETATM    7  C4  UNL     1      69.500  50.460  -0.169  1.00  0.00     0.270 C 
BRANCH   7   8
HETATM    8  N2  UNL     1      70.811  50.305  -0.753  1.00  0.00    -0.075 N 
ATOM      9  H23 UNL     1      71.023  51.063  -1.402  1.00  0.00     0.274 HD
ATOM     10  H22 UNL     1      71.548  50.474  -0.067  1.00  0.00     0.274 HD
ATOM     11  H21 UNL     1      70.917  49.393  -1.196  1.00  0.00     0.274 HD
ENDBRANCH   7   8
ENDBRANCH   1   7
BRANCH   2  12
HETATM   12  C7  UNL     1      68.906  52.297   3.093  1.00  0.00     0.264 C 
BRANCH  12  13
HETATM   13  N3  UNL     1      67.617  53.016   3.053  1.00  0.00    -0.076 N 
ATOM     14  H33 UNL     1      67.048  52.807   3.874  1.00  0.00     0.274 HD
ATOM     15  H32 UNL     1      67.745  54.018   3.199  1.00  0.00     0.274 HD
ATOM     16  H31 UNL     1      67.107  52.829   2.190  1.00  0.00     0.274 HD
ENDBRANCH  12  13
ENDBRANCH   2  12
TORSDOF 5
ENDMDL
