MODEL 1
REMARK VINA RESULT: -6.597255543      0.000      0.000
REMARK  11 active torsions:
REMARK  status: ('A' for Active; 'I' for Inactive)
REMARK    1  A    between atoms: C2_2  and  C3_3 
REMARK    2  A    between atoms: C3_3  and  C4_4 
REMARK    3  A    between atoms: C4_4  and  C5_5 
REMARK    4  A    between atoms: C5_5  and  C6_6 
REMARK    5  A    between atoms: C6_6  and  C7_7 
REMARK    6  A    between atoms: C7_7  and  O1_8 
REMARK    7  A    between atoms: O1_8  and  C8_9 
REMARK    8  A    between atoms: C11_12  and  C12_13 
REMARK    9  A    between atoms: C12_13  and  O2_14 
REMARK   10  A    between atoms: C12_13  and  C13_16 
REMARK   11  A    between atoms: C13_16  and  C14_17 
ROOT
HETATM    1  C8  UNL     1      10.287  31.234   9.012  1.00  0.00     0.069 A 
HETATM    2  C9  UNL     1      11.326  31.963   8.485  1.00  0.00     0.037 A 
HETATM    3  C10 UNL     1      11.235  32.467   7.216  1.00  0.00     0.013 A 
HETATM    4  C11 UNL     1      10.109  32.268   6.417  1.00  0.00    -0.023 A 
HETATM    5  C16 UNL     1       9.077  31.549   6.929  1.00  0.00    -0.051 A 
HETATM    6  C17 UNL     1       7.866  31.291   6.169  1.00  0.00     0.049 C 
HETATM    7  C18 UNL     1       9.174  31.037   8.223  1.00  0.00     0.044 A 
ENDROOT
BRANCH   1   8
HETATM    8  O1  UNL     1      10.403  30.737  10.295  1.00  0.00    -0.351 OA
BRANCH   8   9
HETATM    9  C7  UNL     1      11.546  31.058  11.061  1.00  0.00     0.175 C 
BRANCH   9  10
HETATM   10  C6  UNL     1      12.286  29.786  11.437  1.00  0.00     0.027 C 
BRANCH  10  11
HETATM   11  C5  UNL     1      13.566  29.715  10.703  1.00  0.00     0.002 C 
BRANCH  11  12
HETATM   12  C4  UNL     1      13.544  29.310   9.285  1.00  0.00     0.004 C 
BRANCH  12  13
HETATM   13  C3  UNL     1      14.499  29.904   8.340  1.00  0.00     0.026 C 
BRANCH  13  14
HETATM   14  C2  UNL     1      15.724  30.527   8.816  1.00  0.00    -0.037 C 
HETATM   15  C1  UNL     1      16.801  30.675   8.022  1.00  0.00     0.007 C 
ENDBRANCH  13  14
ENDBRANCH  12  13
ENDBRANCH  11  12
ENDBRANCH  10  11
ENDBRANCH   9  10
ENDBRANCH   8   9
ENDBRANCH   1   8
BRANCH   4  16
HETATM   16  C12 UNL     1      10.013  32.808   5.057  1.00  0.00     0.155 C 
BRANCH  16  17
HETATM   17  O2  UNL     1      10.942  32.249   4.174  1.00  0.00    -0.391 OA
ATOM     18  H2  UNL     1      11.205  32.843   3.480  1.00  0.00     0.210 HD
ENDBRANCH  16  17
BRANCH  16  19
HETATM   19  C13 UNL     1      10.015  34.314   5.005  1.00  0.00     0.062 C 
BRANCH  19  20
HETATM   20  C14 UNL     1       8.932  34.729   4.076  1.00  0.00    -0.034 C 
HETATM   21  C15 UNL     1       7.660  34.514   4.374  1.00  0.00     0.007 C 
ENDBRANCH  19  20
ENDBRANCH  16  19
ENDBRANCH   4  16
TORSDOF 11
ENDMDL
MODEL 2
REMARK VINA RESULT: -6.583358091      1.923      3.300
REMARK  11 active torsions:
REMARK  status: ('A' for Active; 'I' for Inactive)
REMARK    1  A    between atoms: C2_2  and  C3_3 
REMARK    2  A    between atoms: C3_3  and  C4_4 
REMARK    3  A    between atoms: C4_4  and  C5_5 
REMARK    4  A    between atoms: C5_5  and  C6_6 
REMARK    5  A    between atoms: C6_6  and  C7_7 
REMARK    6  A    between atoms: C7_7  and  O1_8 
REMARK    7  A    between atoms: O1_8  and  C8_9 
REMARK    8  A    between atoms: C11_12  and  C12_13 
REMARK    9  A    between atoms: C12_13  and  O2_14 
REMARK   10  A    between atoms: C12_13  and  C13_16 
REMARK   11  A    between atoms: C13_16  and  C14_17 
ROOT
HETATM    1  C8  UNL     1       9.061  32.709   6.685  1.00  0.00     0.069 A 
HETATM    2  C9  UNL     1      10.409  32.441   6.717  1.00  0.00     0.037 A 
HETATM    3  C10 UNL     1      11.237  32.980   5.769  1.00  0.00     0.013 A 
HETATM    4  C11 UNL     1      10.762  33.806   4.750  1.00  0.00    -0.023 A 
HETATM    5  C16 UNL     1       9.432  34.075   4.710  1.00  0.00    -0.051 A 
HETATM    6  C17 UNL     1       8.848  34.924   3.686  1.00  0.00     0.049 C 
HETATM    7  C18 UNL     1       8.591  33.525   5.678  1.00  0.00     0.044 A 
ENDROOT
BRANCH   1   8
HETATM    8  O1  UNL     1       8.247  32.154   7.653  1.00  0.00    -0.351 OA
BRANCH   8   9
HETATM    9  C7  UNL     1       8.223  30.751   7.816  1.00  0.00     0.175 C 
BRANCH   9  10
HETATM   10  C6  UNL     1       8.880  30.376   9.133  1.00  0.00     0.027 C 
BRANCH  10  11
HETATM   11  C5  UNL     1      10.023  29.474   8.885  1.00  0.00     0.002 C 
BRANCH  11  12
HETATM   12  C4  UNL     1      11.376  29.933   9.246  1.00  0.00     0.004 C 
BRANCH  12  13
HETATM   13  C3  UNL     1      12.370  28.970   9.738  1.00  0.00     0.026 C 
BRANCH  13  14
HETATM   14  C2  UNL     1      13.703  29.410  10.117  1.00  0.00    -0.037 C 
HETATM   15  C1  UNL     1      14.604  29.818   9.204  1.00  0.00     0.007 C 
ENDBRANCH  13  14
ENDBRANCH  12  13
ENDBRANCH  11  12
ENDBRANCH  10  11
ENDBRANCH   9  10
ENDBRANCH   8   9
ENDBRANCH   1   8
BRANCH   4  16
HETATM   16  C12 UNL     1      11.650  34.381   3.736  1.00  0.00     0.155 C 
BRANCH  16  17
HETATM   17  O2  UNL     1      12.302  33.417   2.960  1.00  0.00    -0.391 OA
ATOM     18  H2  UNL     1      13.248  33.494   2.983  1.00  0.00     0.210 HD
ENDBRANCH  16  17
BRANCH  16  19
HETATM   19  C13 UNL     1      12.606  35.409   4.285  1.00  0.00     0.062 C 
BRANCH  19  20
HETATM   20  C14 UNL     1      12.073  36.749   3.925  1.00  0.00    -0.034 C 
HETATM   21  C15 UNL     1      11.398  37.472   4.806  1.00  0.00     0.007 C 
ENDBRANCH  19  20
ENDBRANCH  16  19
ENDBRANCH   4  16
TORSDOF 11
ENDMDL
MODEL 3
REMARK VINA RESULT: -6.501449506      1.712      4.052
REMARK  11 active torsions:
REMARK  status: ('A' for Active; 'I' for Inactive)
REMARK    1  A    between atoms: C2_2  and  C3_3 
REMARK    2  A    between atoms: C3_3  and  C4_4 
REMARK    3  A    between atoms: C4_4  and  C5_5 
REMARK    4  A    between atoms: C5_5  and  C6_6 
REMARK    5  A    between atoms: C6_6  and  C7_7 
REMARK    6  A    between atoms: C7_7  and  O1_8 
REMARK    7  A    between atoms: O1_8  and  C8_9 
REMARK    8  A    between atoms: C11_12  and  C12_13 
REMARK    9  A    between atoms: C12_13  and  O2_14 
REMARK   10  A    between atoms: C12_13  and  C13_16 
REMARK   11  A    between atoms: C13_16  and  C14_17 
ROOT
HETATM    1  C8  UNL     1      13.211  32.380   6.039  1.00  0.00     0.069 A 
HETATM    2  C9  UNL     1      12.886  31.909   7.288  1.00  0.00     0.037 A 
HETATM    3  C10 UNL     1      11.588  31.949   7.718  1.00  0.00     0.013 A 
HETATM    4  C11 UNL     1      10.558  32.456   6.926  1.00  0.00    -0.023 A 
HETATM    5  C16 UNL     1      10.869  32.924   5.691  1.00  0.00    -0.051 A 
HETATM    6  C17 UNL     1       9.863  33.470   4.797  1.00  0.00     0.049 C 
HETATM    7  C18 UNL     1      12.194  32.882   5.255  1.00  0.00     0.044 A 
ENDROOT
BRANCH   1   8
HETATM    8  O1  UNL     1      14.529  32.328   5.628  1.00  0.00    -0.351 OA
BRANCH   8   9
HETATM    9  C7  UNL     1      15.558  32.375   6.595  1.00  0.00     0.175 C 
BRANCH   9  10
HETATM   10  C6  UNL     1      16.356  31.083   6.558  1.00  0.00     0.027 C 
BRANCH  10  11
HETATM   11  C5  UNL     1      16.816  30.740   7.919  1.00  0.00     0.002 C 
BRANCH  11  12
HETATM   12  C4  UNL     1      15.843  30.784   9.025  1.00  0.00     0.004 C 
BRANCH  12  13
HETATM   13  C3  UNL     1      14.891  29.680   9.208  1.00  0.00     0.026 C 
BRANCH  13  14
HETATM   14  C2  UNL     1      13.814  29.784  10.180  1.00  0.00    -0.037 C 
HETATM   15  C1  UNL     1      12.675  29.076  10.057  1.00  0.00     0.007 C 
ENDBRANCH  13  14
ENDBRANCH  12  13
ENDBRANCH  11  12
ENDBRANCH  10  11
ENDBRANCH   9  10
ENDBRANCH   8   9
ENDBRANCH   1   8
BRANCH   4  16
HETATM   16  C12 UNL     1       9.167  32.498   7.389  1.00  0.00     0.155 C 
BRANCH  16  17
HETATM   17  O2  UNL     1       8.968  33.370   8.464  1.00  0.00    -0.391 OA
ATOM     18  H2  UNL     1       8.885  34.279   8.200  1.00  0.00     0.210 HD
ENDBRANCH  16  17
BRANCH  16  19
HETATM   19  C13 UNL     1       8.577  31.136   7.647  1.00  0.00     0.062 C 
BRANCH  19  20
HETATM   20  C14 UNL     1       8.190  30.563   6.331  1.00  0.00    -0.034 C 
HETATM   21  C15 UNL     1       7.046  30.896   5.754  1.00  0.00     0.007 C 
ENDBRANCH  19  20
ENDBRANCH  16  19
ENDBRANCH   4  16
TORSDOF 11
ENDMDL
MODEL 4
REMARK VINA RESULT: -6.499819155      1.789      6.642
REMARK  11 active torsions:
REMARK  status: ('A' for Active; 'I' for Inactive)
REMARK    1  A    between atoms: C2_2  and  C3_3 
REMARK    2  A    between atoms: C3_3  and  C4_4 
REMARK    3  A    between atoms: C4_4  and  C5_5 
REMARK    4  A    between atoms: C5_5  and  C6_6 
REMARK    5  A    between atoms: C6_6  and  C7_7 
REMARK    6  A    between atoms: C7_7  and  O1_8 
REMARK    7  A    between atoms: O1_8  and  C8_9 
REMARK    8  A    between atoms: C11_12  and  C12_13 
REMARK    9  A    between atoms: C12_13  and  O2_14 
REMARK   10  A    between atoms: C12_13  and  C13_16 
REMARK   11  A    between atoms: C13_16  and  C14_17 
ROOT
HETATM    1  C8  UNL     1       9.747  30.718   8.261  1.00  0.00     0.069 A 
HETATM    2  C9  UNL     1      10.373  31.934   8.392  1.00  0.00     0.037 A 
HETATM    3  C10 UNL     1      11.592  32.013   9.011  1.00  0.00     0.013 A 
HETATM    4  C11 UNL     1      12.239  30.888   9.524  1.00  0.00    -0.023 A 
HETATM    5  C16 UNL     1      11.627  29.683   9.399  1.00  0.00    -0.051 A 
HETATM    6  C17 UNL     1      12.226  28.459   9.902  1.00  0.00     0.049 C 
HETATM    7  C18 UNL     1      10.385  29.606   8.767  1.00  0.00     0.044 A 
ENDROOT
BRANCH   1   8
HETATM    8  O1  UNL     1       8.518  30.665   7.632  1.00  0.00    -0.351 OA
BRANCH   8   9
HETATM    9  C7  UNL     1       7.790  31.859   7.432  1.00  0.00     0.175 C 
BRANCH   9  10
HETATM   10  C6  UNL     1       7.786  32.217   5.957  1.00  0.00     0.027 C 
BRANCH  10  11
HETATM   11  C5  UNL     1       8.273  33.601   5.776  1.00  0.00     0.002 C 
BRANCH  11  12
HETATM   12  C4  UNL     1       7.812  34.362   4.601  1.00  0.00     0.004 C 
BRANCH  12  13
HETATM   13  C3  UNL     1       8.792  34.924   3.661  1.00  0.00     0.026 C 
BRANCH  13  14
HETATM   14  C2  UNL     1      10.139  35.251   4.103  1.00  0.00    -0.037 C 
HETATM   15  C1  UNL     1      10.735  36.410   3.766  1.00  0.00     0.007 C 
ENDBRANCH  13  14
ENDBRANCH  12  13
ENDBRANCH  11  12
ENDBRANCH  10  11
ENDBRANCH   9  10
ENDBRANCH   8   9
ENDBRANCH   1   8
BRANCH   4  16
HETATM   16  C12 UNL     1      13.544  30.975  10.186  1.00  0.00     0.155 C 
BRANCH  16  17
HETATM   17  O2  UNL     1      13.504  31.669  11.399  1.00  0.00    -0.391 OA
ATOM     18  H2  UNL     1      13.454  31.099  12.157  1.00  0.00     0.210 HD
ENDBRANCH  16  17
BRANCH  16  19
HETATM   19  C13 UNL     1      14.645  31.470   9.284  1.00  0.00     0.062 C 
BRANCH  19  20
HETATM   20  C14 UNL     1      15.265  30.281   8.644  1.00  0.00    -0.034 C 
HETATM   21  C15 UNL     1      15.107  30.045   7.350  1.00  0.00     0.007 C 
ENDBRANCH  19  20
ENDBRANCH  16  19
ENDBRANCH   4  16
TORSDOF 11
ENDMDL
MODEL 5
REMARK VINA RESULT: -6.491497782      2.055      6.217
REMARK  11 active torsions:
REMARK  status: ('A' for Active; 'I' for Inactive)
REMARK    1  A    between atoms: C2_2  and  C3_3 
REMARK    2  A    between atoms: C3_3  and  C4_4 
REMARK    3  A    between atoms: C4_4  and  C5_5 
REMARK    4  A    between atoms: C5_5  and  C6_6 
REMARK    5  A    between atoms: C6_6  and  C7_7 
REMARK    6  A    between atoms: C7_7  and  O1_8 
REMARK    7  A    between atoms: O1_8  and  C8_9 
REMARK    8  A    between atoms: C11_12  and  C12_13 
REMARK    9  A    between atoms: C12_13  and  O2_14 
REMARK   10  A    between atoms: C12_13  and  C13_16 
REMARK   11  A    between atoms: C13_16  and  C14_17 
ROOT
HETATM    1  C8  UNL     1      10.325  32.800   5.372  1.00  0.00     0.069 A 
HETATM    2  C9  UNL     1      11.293  32.664   6.338  1.00  0.00     0.037 A 
HETATM    3  C10 UNL     1      11.026  31.957   7.479  1.00  0.00     0.013 A 
HETATM    4  C11 UNL     1       9.789  31.355   7.709  1.00  0.00    -0.023 A 
HETATM    5  C16 UNL     1       8.826  31.485   6.760  1.00  0.00    -0.051 A 
HETATM    6  C17 UNL     1       7.509  30.893   6.913  1.00  0.00     0.049 C 
HETATM    7  C18 UNL     1       9.101  32.206   5.598  1.00  0.00     0.044 A 
ENDROOT
BRANCH   1   8
HETATM    8  O1  UNL     1      10.618  33.518   4.229  1.00  0.00    -0.351 OA
BRANCH   8   9
HETATM    9  C7  UNL     1       9.764  34.573   3.835  1.00  0.00     0.175 C 
BRANCH   9  10
HETATM   10  C6  UNL     1      10.109  35.830   4.614  1.00  0.00     0.027 C 
BRANCH  10  11
HETATM   11  C5  UNL     1      11.101  36.628   3.864  1.00  0.00     0.002 C 
BRANCH  11  12
HETATM   12  C4  UNL     1      12.505  36.606   4.309  1.00  0.00     0.004 C 
BRANCH  12  13
HETATM   13  C3  UNL     1      12.843  36.096   5.645  1.00  0.00     0.026 C 
BRANCH  13  14
HETATM   14  C2  UNL     1      13.879  35.090   5.815  1.00  0.00    -0.037 C 
HETATM   15  C1  UNL     1      14.222  34.248   4.821  1.00  0.00     0.007 C 
ENDBRANCH  13  14
ENDBRANCH  12  13
ENDBRANCH  11  12
ENDBRANCH  10  11
ENDBRANCH   9  10
ENDBRANCH   8   9
ENDBRANCH   1   8
BRANCH   4  16
HETATM   16  C12 UNL     1       9.505  30.598   8.932  1.00  0.00     0.155 C 
BRANCH  16  17
HETATM   17  O2  UNL     1       9.627  31.363  10.096  1.00  0.00    -0.391 OA
ATOM     18  H2  UNL     1       9.614  30.843  10.891  1.00  0.00     0.210 HD
ENDBRANCH  16  17
BRANCH  16  19
HETATM   19  C13 UNL     1      10.262  29.299   9.025  1.00  0.00     0.062 C 
BRANCH  19  20
HETATM   20  C14 UNL     1      11.487  29.554   9.827  1.00  0.00    -0.034 C 
HETATM   21  C15 UNL     1      12.606  28.886   9.592  1.00  0.00     0.007 C 
ENDBRANCH  19  20
ENDBRANCH  16  19
ENDBRANCH   4  16
TORSDOF 11
ENDMDL
