MODEL 1
REMARK VINA RESULT: -6.703063040      0.000      0.000
REMARK  10 active torsions:
REMARK  status: ('A' for Active; 'I' for Inactive)
REMARK    1  A    between atoms: C3_3  and  C4_4 
REMARK    2  A    between atoms: C3_3  and  C9_11 
REMARK    3  A    between atoms: C4_4  and  O2_6 
REMARK    4  A    between atoms: O2_6  and  C5_7 
REMARK    5  A    between atoms: C5_7  and  C6_8 
REMARK    6  A    between atoms: C9_11  and  C15_17 
REMARK    7  A    between atoms: C10_12  and  C11_13 
REMARK    8  A    between atoms: C11_13  and  C12_14 
REMARK    9  A    between atoms: C15_17  and  C16_18 
REMARK   10  A    between atoms: C16_18  and  C17_19 
ROOT
HETATM    1  C1  UNL     1      11.558  32.888   3.219  1.00  0.00     0.037 C 
HETATM    2  C2  UNL     1      11.595  32.393   4.598  1.00  0.00    -0.013 C 
HETATM    3  C3  UNL     1      10.839  32.913   5.570  1.00  0.00     0.041 C 
ENDROOT
BRANCH   3   4
HETATM    4  C4  UNL     1       9.941  34.001   5.263  1.00  0.00     0.293 C 
HETATM    5  O1  UNL     1       8.741  33.749   4.874  1.00  0.00    -0.259 OA
BRANCH   4   6
HETATM    6  O2  UNL     1      10.183  35.356   5.322  1.00  0.00    -0.317 OA
BRANCH   6   7
HETATM    7  C5  UNL     1      10.502  36.128   4.179  1.00  0.00     0.183 C 
BRANCH   7   8
HETATM    8  C6  UNL     1      11.755  36.914   4.343  1.00  0.00     0.002 C 
HETATM    9  C7  UNL     1      12.789  36.118   5.108  1.00  0.00     0.011 C 
HETATM   10  C8  UNL     1      11.397  38.191   5.091  1.00  0.00     0.011 C 
ENDBRANCH   7   8
ENDBRANCH   6   7
ENDBRANCH   4   6
ENDBRANCH   3   4
BRANCH   3  11
HETATM   11  C9  UNL     1      11.030  32.384   6.940  1.00  0.00    -0.046 C 
HETATM   12  C10 UNL     1      12.223  32.259   7.437  1.00  0.00    -0.018 C 
BRANCH  12  13
HETATM   13  C11 UNL     1      12.468  31.728   8.800  1.00  0.00     0.031 C 
BRANCH  13  14
HETATM   14  C12 UNL     1      12.991  30.310   8.751  1.00  0.00    -0.019 C 
HETATM   15  C13 UNL     1      14.356  30.228   9.377  1.00  0.00     0.010 C 
HETATM   16  C14 UNL     1      12.091  29.332   9.455  1.00  0.00     0.010 C 
ENDBRANCH  13  14
ENDBRANCH  12  13
BRANCH  11  17
HETATM   17  C15 UNL     1       9.864  32.043   7.758  1.00  0.00     0.039 C 
BRANCH  17  18
HETATM   18  C16 UNL     1       9.113  30.805   7.345  1.00  0.00     0.004 C 
BRANCH  18  19
HETATM   19  C17 UNL     1       7.659  31.229   7.167  1.00  0.00    -0.004 C 
HETATM   20  C18 UNL     1       7.114  30.775   5.840  1.00  0.00     0.005 C 
ENDBRANCH  18  19
ENDBRANCH  17  18
ENDBRANCH  11  17
ENDBRANCH   3  11
TORSDOF 10
ENDMDL
MODEL 2
REMARK VINA RESULT: -6.589275852      2.166      5.912
REMARK  10 active torsions:
REMARK  status: ('A' for Active; 'I' for Inactive)
REMARK    1  A    between atoms: C3_3  and  C4_4 
REMARK    2  A    between atoms: C3_3  and  C9_11 
REMARK    3  A    between atoms: C4_4  and  O2_6 
REMARK    4  A    between atoms: O2_6  and  C5_7 
REMARK    5  A    between atoms: C5_7  and  C6_8 
REMARK    6  A    between atoms: C9_11  and  C15_17 
REMARK    7  A    between atoms: C10_12  and  C11_13 
REMARK    8  A    between atoms: C11_13  and  C12_14 
REMARK    9  A    between atoms: C15_17  and  C16_18 
REMARK   10  A    between atoms: C16_18  and  C17_19 
ROOT
HETATM    1  C1  UNL     1       9.068  30.323   9.033  1.00  0.00     0.037 C 
HETATM    2  C2  UNL     1       9.383  30.937   7.740  1.00  0.00    -0.013 C 
HETATM    3  C3  UNL     1      10.398  31.790   7.576  1.00  0.00     0.041 C 
ENDROOT
BRANCH   3   4
HETATM    4  C4  UNL     1      11.231  32.125   8.707  1.00  0.00     0.293 C 
HETATM    5  O1  UNL     1      10.870  33.064   9.511  1.00  0.00    -0.259 OA
BRANCH   4   6
HETATM    6  O2  UNL     1      12.430  31.563   9.087  1.00  0.00    -0.317 OA
BRANCH   6   7
HETATM    7  C5  UNL     1      12.638  30.994  10.366  1.00  0.00     0.183 C 
BRANCH   7   8
HETATM    8  C6  UNL     1      13.308  29.666  10.307  1.00  0.00     0.002 C 
HETATM    9  C7  UNL     1      14.542  29.729   9.434  1.00  0.00     0.011 C 
HETATM   10  C8  UNL     1      12.301  28.672   9.745  1.00  0.00     0.011 C 
ENDBRANCH   7   8
ENDBRANCH   6   7
ENDBRANCH   4   6
ENDBRANCH   3   4
BRANCH   3  11
HETATM   11  C9  UNL     1      10.561  32.411   6.241  1.00  0.00    -0.046 C 
HETATM   12  C10 UNL     1      11.746  32.632   5.758  1.00  0.00    -0.018 C 
BRANCH  12  13
HETATM   13  C11 UNL     1      11.962  33.258   4.432  1.00  0.00     0.031 C 
BRANCH  13  14
HETATM   14  C12 UNL     1      12.884  34.453   4.532  1.00  0.00    -0.019 C 
HETATM   15  C13 UNL     1      12.156  35.635   5.112  1.00  0.00     0.010 C 
HETATM   16  C14 UNL     1      14.097  34.185   5.381  1.00  0.00     0.010 C 
ENDBRANCH  13  14
ENDBRANCH  12  13
BRANCH  11  17
HETATM   17  C15 UNL     1       9.379  32.736   5.440  1.00  0.00     0.039 C 
BRANCH  17  18
HETATM   18  C16 UNL     1       8.603  33.949   5.879  1.00  0.00     0.004 C 
BRANCH  18  19
HETATM   19  C17 UNL     1       7.870  34.456   4.641  1.00  0.00    -0.004 C 
HETATM   20  C18 UNL     1       8.835  34.930   3.588  1.00  0.00     0.005 C 
ENDBRANCH  18  19
ENDBRANCH  17  18
ENDBRANCH  11  17
ENDBRANCH   3  11
TORSDOF 10
ENDMDL
MODEL 3
REMARK VINA RESULT: -6.552445177      1.820      5.454
REMARK  10 active torsions:
REMARK  status: ('A' for Active; 'I' for Inactive)
REMARK    1  A    between atoms: C3_3  and  C4_4 
REMARK    2  A    between atoms: C3_3  and  C9_11 
REMARK    3  A    between atoms: C4_4  and  O2_6 
REMARK    4  A    between atoms: O2_6  and  C5_7 
REMARK    5  A    between atoms: C5_7  and  C6_8 
REMARK    6  A    between atoms: C9_11  and  C15_17 
REMARK    7  A    between atoms: C10_12  and  C11_13 
REMARK    8  A    between atoms: C11_13  and  C12_14 
REMARK    9  A    between atoms: C15_17  and  C16_18 
REMARK   10  A    between atoms: C16_18  and  C17_19 
ROOT
HETATM    1  C1  UNL     1       7.429  31.028   6.175  1.00  0.00     0.037 C 
HETATM    2  C2  UNL     1       8.646  31.517   5.521  1.00  0.00    -0.013 C 
HETATM    3  C3  UNL     1       9.391  32.502   6.031  1.00  0.00     0.041 C 
ENDROOT
BRANCH   3   4
HETATM    4  C4  UNL     1       8.997  33.114   7.278  1.00  0.00     0.293 C 
HETATM    5  O1  UNL     1       8.223  34.142   7.269  1.00  0.00    -0.259 OA
BRANCH   4   6
HETATM    6  O2  UNL     1       9.344  32.749   8.560  1.00  0.00    -0.317 OA
BRANCH   6   7
HETATM    7  C5  UNL     1      10.501  31.987   8.853  1.00  0.00     0.183 C 
BRANCH   7   8
HETATM    8  C6  UNL     1      10.275  30.521   8.730  1.00  0.00     0.002 C 
HETATM    9  C7  UNL     1       9.033  30.106   9.489  1.00  0.00     0.011 C 
HETATM   10  C8  UNL     1      11.506  29.822   9.289  1.00  0.00     0.011 C 
ENDBRANCH   7   8
ENDBRANCH   6   7
ENDBRANCH   4   6
ENDBRANCH   3   4
BRANCH   3  11
HETATM   11  C9  UNL     1      10.549  32.967   5.232  1.00  0.00    -0.046 C 
HETATM   12  C10 UNL     1      11.761  32.704   5.617  1.00  0.00    -0.018 C 
BRANCH  12  13
HETATM   13  C11 UNL     1      12.953  33.153   4.859  1.00  0.00     0.031 C 
BRANCH  13  14
HETATM   14  C12 UNL     1      13.658  34.289   5.566  1.00  0.00    -0.019 C 
HETATM   15  C13 UNL     1      13.683  34.053   7.051  1.00  0.00     0.010 C 
HETATM   16  C14 UNL     1      15.074  34.480   5.096  1.00  0.00     0.010 C 
ENDBRANCH  13  14
ENDBRANCH  12  13
BRANCH  11  17
HETATM   17  C15 UNL     1      10.326  33.687   3.978  1.00  0.00     0.039 C 
BRANCH  17  18
HETATM   18  C16 UNL     1       9.517  34.953   4.083  1.00  0.00     0.004 C 
BRANCH  18  19
HETATM   19  C17 UNL     1      10.457  36.013   4.648  1.00  0.00    -0.004 C 
HETATM   20  C18 UNL     1      11.483  36.434   3.631  1.00  0.00     0.005 C 
ENDBRANCH  18  19
ENDBRANCH  17  18
ENDBRANCH  11  17
ENDBRANCH   3  11
TORSDOF 10
ENDMDL
MODEL 4
REMARK VINA RESULT: -6.506574249      1.331      3.272
REMARK  10 active torsions:
REMARK  status: ('A' for Active; 'I' for Inactive)
REMARK    1  A    between atoms: C3_3  and  C4_4 
REMARK    2  A    between atoms: C3_3  and  C9_11 
REMARK    3  A    between atoms: C4_4  and  O2_6 
REMARK    4  A    between atoms: O2_6  and  C5_7 
REMARK    5  A    between atoms: C5_7  and  C6_8 
REMARK    6  A    between atoms: C9_11  and  C15_17 
REMARK    7  A    between atoms: C10_12  and  C11_13 
REMARK    8  A    between atoms: C11_13  and  C12_14 
REMARK    9  A    between atoms: C15_17  and  C16_18 
REMARK   10  A    between atoms: C16_18  and  C17_19 
ROOT
HETATM    1  C1  UNL     1       7.609  30.886   5.985  1.00  0.00     0.037 C 
HETATM    2  C2  UNL     1       8.861  30.940   6.746  1.00  0.00    -0.013 C 
HETATM    3  C3  UNL     1       9.585  32.057   6.862  1.00  0.00     0.041 C 
ENDROOT
BRANCH   3   4
HETATM    4  C4  UNL     1       9.126  33.267   6.223  1.00  0.00     0.293 C 
HETATM    5  O1  UNL     1       8.411  34.108   6.884  1.00  0.00    -0.259 OA
BRANCH   4   6
HETATM    6  O2  UNL     1       9.347  33.692   4.930  1.00  0.00    -0.317 OA
BRANCH   6   7
HETATM    7  C5  UNL     1       9.548  35.053   4.596  1.00  0.00     0.183 C 
BRANCH   7   8
HETATM    8  C6  UNL     1      10.964  35.485   4.751  1.00  0.00     0.002 C 
HETATM    9  C7  UNL     1      11.077  36.990   4.649  1.00  0.00     0.011 C 
HETATM   10  C8  UNL     1      11.769  34.809   3.649  1.00  0.00     0.011 C 
ENDBRANCH   7   8
ENDBRANCH   6   7
ENDBRANCH   4   6
ENDBRANCH   3   4
BRANCH   3  11
HETATM   11  C9  UNL     1      10.875  31.963   7.583  1.00  0.00    -0.046 C 
HETATM   12  C10 UNL     1      10.996  31.187   8.618  1.00  0.00    -0.018 C 
BRANCH  12  13
HETATM   13  C11 UNL     1      12.262  31.064   9.379  1.00  0.00     0.031 C 
BRANCH  13  14
HETATM   14  C12 UNL     1      12.937  29.736   9.110  1.00  0.00    -0.019 C 
HETATM   15  C13 UNL     1      14.387  29.792   9.505  1.00  0.00     0.010 C 
HETATM   16  C14 UNL     1      12.292  28.595   9.848  1.00  0.00     0.010 C 
ENDBRANCH  13  14
ENDBRANCH  12  13
BRANCH  11  17
HETATM   17  C15 UNL     1      12.035  32.714   7.101  1.00  0.00     0.039 C 
BRANCH  17  18
HETATM   18  C16 UNL     1      12.683  32.188   5.848  1.00  0.00     0.004 C 
BRANCH  18  19
HETATM   19  C17 UNL     1      14.122  31.851   6.222  1.00  0.00    -0.004 C 
HETATM   20  C18 UNL     1      14.694  32.866   7.175  1.00  0.00     0.005 C 
ENDBRANCH  18  19
ENDBRANCH  17  18
ENDBRANCH  11  17
ENDBRANCH   3  11
TORSDOF 10
ENDMDL
MODEL 5
REMARK VINA RESULT: -6.473861807      1.424      3.267
REMARK  10 active torsions:
REMARK  status: ('A' for Active; 'I' for Inactive)
REMARK    1  A    between atoms: C3_3  and  C4_4 
REMARK    2  A    between atoms: C3_3  and  C9_11 
REMARK    3  A    between atoms: C4_4  and  O2_6 
REMARK    4  A    between atoms: O2_6  and  C5_7 
REMARK    5  A    between atoms: C5_7  and  C6_8 
REMARK    6  A    between atoms: C9_11  and  C15_17 
REMARK    7  A    between atoms: C10_12  and  C11_13 
REMARK    8  A    between atoms: C11_13  and  C12_14 
REMARK    9  A    between atoms: C15_17  and  C16_18 
REMARK   10  A    between atoms: C16_18  and  C17_19 
ROOT
HETATM    1  C1  UNL     1       7.307  30.868   5.880  1.00  0.00     0.037 C 
HETATM    2  C2  UNL     1       8.507  30.826   6.720  1.00  0.00    -0.013 C 
HETATM    3  C3  UNL     1       9.264  31.903   6.947  1.00  0.00     0.041 C 
ENDROOT
BRANCH   3   4
HETATM    4  C4  UNL     1       8.894  33.167   6.354  1.00  0.00     0.293 C 
HETATM    5  O1  UNL     1       8.239  34.031   7.047  1.00  0.00    -0.259 OA
BRANCH   4   6
HETATM    6  O2  UNL     1       9.147  33.623   5.078  1.00  0.00    -0.317 OA
BRANCH   6   7
HETATM    7  C5  UNL     1       9.943  34.763   4.817  1.00  0.00     0.183 C 
BRANCH   7   8
HETATM    8  C6  UNL     1      11.177  34.445   4.048  1.00  0.00     0.002 C 
HETATM    9  C7  UNL     1      11.246  32.965   3.740  1.00  0.00     0.011 C 
HETATM   10  C8  UNL     1      12.366  34.873   4.897  1.00  0.00     0.011 C 
ENDBRANCH   7   8
ENDBRANCH   6   7
ENDBRANCH   4   6
ENDBRANCH   3   4
BRANCH   3  11
HETATM   11  C9  UNL     1      10.501  31.715   7.741  1.00  0.00    -0.046 C 
HETATM   12  C10 UNL     1      11.621  32.242   7.350  1.00  0.00    -0.018 C 
BRANCH  12  13
HETATM   13  C11 UNL     1      12.886  32.076   8.104  1.00  0.00     0.031 C 
BRANCH  13  14
HETATM   14  C12 UNL     1      13.831  31.134   7.391  1.00  0.00    -0.019 C 
HETATM   15  C13 UNL     1      14.509  31.834   6.245  1.00  0.00     0.010 C 
HETATM   16  C14 UNL     1      14.895  30.578   8.297  1.00  0.00     0.010 C 
ENDBRANCH  13  14
ENDBRANCH  12  13
BRANCH  11  17
HETATM   17  C15 UNL     1      10.451  30.967   8.999  1.00  0.00     0.039 C 
BRANCH  17  18
HETATM   18  C16 UNL     1      10.469  29.467   8.871  1.00  0.00     0.004 C 
BRANCH  18  19
HETATM   19  C17 UNL     1      11.732  28.995   9.584  1.00  0.00    -0.004 C 
HETATM   20  C18 UNL     1      12.032  29.844  10.789  1.00  0.00     0.005 C 
ENDBRANCH  18  19
ENDBRANCH  17  18
ENDBRANCH  11  17
ENDBRANCH   3  11
TORSDOF 10
ENDMDL
