MODEL 1
REMARK VINA RESULT: -6.559131184      0.000      0.000
REMARK  10 active torsions:
REMARK  status: ('A' for Active; 'I' for Inactive)
REMARK    1  A    between atoms: C2_2  and  C3_3 
REMARK    2  A    between atoms: C3_3  and  C4_4 
REMARK    3  A    between atoms: C4_4  and  C5_5 
REMARK    4  A    between atoms: C9_9  and  C10_10 
REMARK    5  A    between atoms: C10_10  and  C11_11 
REMARK    6  A    between atoms: C11_11  and  C12_12 
REMARK    7  A    between atoms: C12_12  and  O1_13 
REMARK    8  A    between atoms: C13_15  and  C14_16 
REMARK    9  A    between atoms: C14_16  and  C15_17 
REMARK   10  A    between atoms: C15_17  and  O2_20 
ROOT
HETATM    1  C5  UNL     1      10.336  30.922   8.545  1.00  0.00    -0.057 A 
HETATM    2  C6  UNL     1      11.088  29.960   9.128  1.00  0.00     0.014 A 
HETATM    3  C7  UNL     1      12.479  30.068   9.073  1.00  0.00    -0.055 A 
HETATM    4  C8  UNL     1      13.262  28.976   9.729  1.00  0.00     0.049 C 
HETATM    5  C9  UNL     1      13.115  31.119   8.448  1.00  0.00    -0.046 A 
HETATM    6  C13 UNL     1      12.309  32.066   7.868  1.00  0.00    -0.048 A 
HETATM    7  C18 UNL     1      10.909  31.988   7.906  1.00  0.00     0.014 A 
ENDROOT
BRANCH   6   8
HETATM    8  C14 UNL     1      12.853  33.157   7.066  1.00  0.00     0.076 C 
BRANCH   8   9
HETATM    9  C15 UNL     1      12.530  33.107   5.599  1.00  0.00     0.054 C 
HETATM   10  C16 UNL     1      11.114  33.120   5.196  1.00  0.00     0.045 C 
HETATM   11  C17 UNL     1      13.241  34.210   4.832  1.00  0.00     0.045 C 
BRANCH   9  12
HETATM   12  O2  UNL     1      13.101  31.906   5.110  1.00  0.00    -0.390 OA
ATOM     13  H2  UNL     1      12.963  31.910   4.170  1.00  0.00     0.210 HD
ENDBRANCH   9  12
ENDBRANCH   8   9
ENDBRANCH   6   8
BRANCH   5  14
HETATM   14  C10 UNL     1      14.562  31.223   8.487  1.00  0.00     0.042 C 
BRANCH  14  15
HETATM   15  C11 UNL     1      15.219  30.447   7.333  1.00  0.00     0.030 C 
BRANCH  15  16
HETATM   16  C12 UNL     1      16.298  31.276   6.671  1.00  0.00     0.164 C 
BRANCH  16  17
HETATM   17  O1  UNL     1      15.941  31.729   5.421  1.00  0.00    -0.401 OA
ATOM     18  H1  UNL     1      16.214  31.148   4.721  1.00  0.00     0.209 HD
ENDBRANCH  16  17
ENDBRANCH  15  16
ENDBRANCH  14  15
ENDBRANCH   5  14
BRANCH   1  19
HETATM   19  C4  UNL     1       8.855  30.817   8.600  1.00  0.00     0.038 C 
BRANCH  19  20
HETATM   20  C3  UNL     1       8.205  31.904   7.752  1.00  0.00     0.004 C 
BRANCH  20  21
HETATM   21  C2  UNL     1       7.332  31.217   6.721  1.00  0.00    -0.004 C 
HETATM   22  C1  UNL     1       8.170  30.756   5.550  1.00  0.00     0.005 C 
ENDBRANCH  20  21
ENDBRANCH  19  20
ENDBRANCH   1  19
TORSDOF 10
ENDMDL
MODEL 2
REMARK VINA RESULT: -6.543088211      2.175      2.821
REMARK  10 active torsions:
REMARK  status: ('A' for Active; 'I' for Inactive)
REMARK    1  A    between atoms: C2_2  and  C3_3 
REMARK    2  A    between atoms: C3_3  and  C4_4 
REMARK    3  A    between atoms: C4_4  and  C5_5 
REMARK    4  A    between atoms: C9_9  and  C10_10 
REMARK    5  A    between atoms: C10_10  and  C11_11 
REMARK    6  A    between atoms: C11_11  and  C12_12 
REMARK    7  A    between atoms: C12_12  and  O1_13 
REMARK    8  A    between atoms: C13_15  and  C14_16 
REMARK    9  A    between atoms: C14_16  and  C15_17 
REMARK   10  A    between atoms: C15_17  and  O2_20 
ROOT
HETATM    1  C5  UNL     1      10.042  31.022   8.820  1.00  0.00    -0.057 A 
HETATM    2  C6  UNL     1      10.494  29.780   9.107  1.00  0.00     0.014 A 
HETATM    3  C7  UNL     1      11.853  29.605   9.381  1.00  0.00    -0.055 A 
HETATM    4  C8  UNL     1      12.300  28.212   9.687  1.00  0.00     0.049 C 
HETATM    5  C9  UNL     1      12.749  30.652   9.370  1.00  0.00    -0.046 A 
HETATM    6  C13 UNL     1      12.243  31.891   9.070  1.00  0.00    -0.048 A 
HETATM    7  C18 UNL     1      10.884  32.101   8.791  1.00  0.00     0.014 A 
ENDROOT
BRANCH   6   8
HETATM    8  C14 UNL     1      13.104  33.057   8.899  1.00  0.00     0.076 C 
BRANCH   8   9
HETATM    9  C15 UNL     1      13.347  33.871  10.139  1.00  0.00     0.054 C 
HETATM   10  C16 UNL     1      12.808  33.374  11.415  1.00  0.00     0.045 C 
HETATM   11  C17 UNL     1      14.826  34.157  10.338  1.00  0.00     0.045 C 
BRANCH   9  12
HETATM   12  O2  UNL     1      12.766  35.141   9.897  1.00  0.00    -0.390 OA
ATOM     13  H2  UNL     1      13.003  35.686  10.638  1.00  0.00     0.210 HD
ENDBRANCH   9  12
ENDBRANCH   8   9
ENDBRANCH   6   8
BRANCH   5  14
HETATM   14  C10 UNL     1      14.135  30.427   9.738  1.00  0.00     0.042 C 
BRANCH  14  15
HETATM   15  C11 UNL     1      15.014  30.159   8.505  1.00  0.00     0.030 C 
BRANCH  15  16
HETATM   16  C12 UNL     1      16.407  30.717   8.702  1.00  0.00     0.164 C 
BRANCH  16  17
HETATM   17  O1  UNL     1      16.568  31.972   8.159  1.00  0.00    -0.401 OA
ATOM     18  H1  UNL     1      16.808  32.629   8.802  1.00  0.00     0.209 HD
ENDBRANCH  16  17
ENDBRANCH  15  16
ENDBRANCH  14  15
ENDBRANCH   5  14
BRANCH   1  19
HETATM   19  C4  UNL     1       8.598  31.219   8.530  1.00  0.00     0.038 C 
BRANCH  19  20
HETATM   20  C3  UNL     1       8.407  32.228   7.402  1.00  0.00     0.004 C 
BRANCH  20  21
HETATM   21  C2  UNL     1       8.391  31.455   6.098  1.00  0.00    -0.004 C 
HETATM   22  C1  UNL     1       7.056  30.768   5.914  1.00  0.00     0.005 C 
ENDBRANCH  20  21
ENDBRANCH  19  20
ENDBRANCH   1  19
TORSDOF 10
ENDMDL
MODEL 3
REMARK VINA RESULT: -6.523376275      1.425      1.908
REMARK  10 active torsions:
REMARK  status: ('A' for Active; 'I' for Inactive)
REMARK    1  A    between atoms: C2_2  and  C3_3 
REMARK    2  A    between atoms: C3_3  and  C4_4 
REMARK    3  A    between atoms: C4_4  and  C5_5 
REMARK    4  A    between atoms: C9_9  and  C10_10 
REMARK    5  A    between atoms: C10_10  and  C11_11 
REMARK    6  A    between atoms: C11_11  and  C12_12 
REMARK    7  A    between atoms: C12_12  and  O1_13 
REMARK    8  A    between atoms: C13_15  and  C14_16 
REMARK    9  A    between atoms: C14_16  and  C15_17 
REMARK   10  A    between atoms: C15_17  and  O2_20 
ROOT
HETATM    1  C5  UNL     1      10.327  31.114   8.568  1.00  0.00    -0.057 A 
HETATM    2  C6  UNL     1      10.807  29.992   9.151  1.00  0.00     0.014 A 
HETATM    3  C7  UNL     1      12.188  29.784   9.174  1.00  0.00    -0.055 A 
HETATM    4  C8  UNL     1      12.665  28.526   9.826  1.00  0.00     0.049 C 
HETATM    5  C9  UNL     1      13.079  30.680   8.624  1.00  0.00    -0.046 A 
HETATM    6  C13 UNL     1      12.543  31.800   8.041  1.00  0.00    -0.048 A 
HETATM    7  C18 UNL     1      11.161  32.040   8.002  1.00  0.00     0.014 A 
ENDROOT
BRANCH   6   8
HETATM    8  C14 UNL     1      13.365  32.760   7.312  1.00  0.00     0.076 C 
BRANCH   8   9
HETATM    9  C15 UNL     1      13.868  33.927   8.115  1.00  0.00     0.054 C 
HETATM   10  C16 UNL     1      13.539  33.977   9.550  1.00  0.00     0.045 C 
HETATM   11  C17 UNL     1      15.371  34.094   7.977  1.00  0.00     0.045 C 
BRANCH   9  12
HETATM   12  O2  UNL     1      13.321  35.087   7.513  1.00  0.00    -0.390 OA
ATOM     13  H2  UNL     1      13.502  35.805   8.107  1.00  0.00     0.210 HD
ENDBRANCH   9  12
ENDBRANCH   8   9
ENDBRANCH   6   8
BRANCH   5  14
HETATM   14  C10 UNL     1      14.508  30.453   8.743  1.00  0.00     0.042 C 
BRANCH  14  15
HETATM   15  C11 UNL     1      15.114  29.942   7.426  1.00  0.00     0.030 C 
BRANCH  15  16
HETATM   16  C12 UNL     1      16.434  30.624   7.138  1.00  0.00     0.164 C 
BRANCH  16  17
HETATM   17  O1  UNL     1      16.519  31.118   5.856  1.00  0.00    -0.401 OA
ATOM     18  H1  UNL     1      17.157  31.816   5.766  1.00  0.00     0.209 HD
ENDBRANCH  16  17
ENDBRANCH  15  16
ENDBRANCH  14  15
ENDBRANCH   5  14
BRANCH   1  19
HETATM   19  C4  UNL     1       8.859  31.345   8.541  1.00  0.00     0.038 C 
BRANCH  19  20
HETATM   20  C3  UNL     1       8.445  32.032   7.244  1.00  0.00     0.004 C 
BRANCH  20  21
HETATM   21  C2  UNL     1       8.328  30.959   6.179  1.00  0.00    -0.004 C 
HETATM   22  C1  UNL     1       6.874  30.684   5.870  1.00  0.00     0.005 C 
ENDBRANCH  20  21
ENDBRANCH  19  20
ENDBRANCH   1  19
TORSDOF 10
ENDMDL
MODEL 4
REMARK VINA RESULT: -6.512295654      2.516      4.428
REMARK  10 active torsions:
REMARK  status: ('A' for Active; 'I' for Inactive)
REMARK    1  A    between atoms: C2_2  and  C3_3 
REMARK    2  A    between atoms: C3_3  and  C4_4 
REMARK    3  A    between atoms: C4_4  and  C5_5 
REMARK    4  A    between atoms: C9_9  and  C10_10 
REMARK    5  A    between atoms: C10_10  and  C11_11 
REMARK    6  A    between atoms: C11_11  and  C12_12 
REMARK    7  A    between atoms: C12_12  and  O1_13 
REMARK    8  A    between atoms: C13_15  and  C14_16 
REMARK    9  A    between atoms: C14_16  and  C15_17 
REMARK   10  A    between atoms: C15_17  and  O2_20 
ROOT
HETATM    1  C5  UNL     1      11.381  32.666   5.524  1.00  0.00    -0.057 A 
HETATM    2  C6  UNL     1      12.723  32.501   5.496  1.00  0.00     0.014 A 
HETATM    3  C7  UNL     1      13.377  32.100   6.663  1.00  0.00    -0.055 A 
HETATM    4  C8  UNL     1      14.860  31.937   6.578  1.00  0.00     0.049 C 
HETATM    5  C9  UNL     1      12.704  31.866   7.843  1.00  0.00    -0.046 A 
HETATM    6  C13 UNL     1      11.345  32.051   7.822  1.00  0.00    -0.048 A 
HETATM    7  C18 UNL     1      10.658  32.452   6.667  1.00  0.00     0.014 A 
ENDROOT
BRANCH   6   8
HETATM    8  C14 UNL     1      10.535  31.963   9.033  1.00  0.00     0.076 C 
BRANCH   8   9
HETATM    9  C15 UNL     1       9.415  30.962   8.992  1.00  0.00     0.054 C 
HETATM   10  C16 UNL     1       8.204  31.301   8.226  1.00  0.00     0.045 C 
HETATM   11  C17 UNL     1       9.898  29.601   8.519  1.00  0.00     0.045 C 
BRANCH   9  12
HETATM   12  O2  UNL     1       9.022  30.754  10.338  1.00  0.00    -0.390 OA
ATOM     13  H2  UNL     1       8.327  31.378  10.510  1.00  0.00     0.210 HD
ENDBRANCH   9  12
ENDBRANCH   8   9
ENDBRANCH   6   8
BRANCH   5  14
HETATM   14  C10 UNL     1      13.422  31.377   9.006  1.00  0.00     0.042 C 
BRANCH  14  15
HETATM   15  C11 UNL     1      13.403  29.841   9.080  1.00  0.00     0.030 C 
BRANCH  15  16
HETATM   16  C12 UNL     1      13.080  29.372  10.482  1.00  0.00     0.164 C 
BRANCH  16  17
HETATM   17  O1  UNL     1      13.263  30.350  11.435  1.00  0.00    -0.401 OA
ATOM     18  H1  UNL     1      13.943  30.137  12.062  1.00  0.00     0.209 HD
ENDBRANCH  16  17
ENDBRANCH  15  16
ENDBRANCH  14  15
ENDBRANCH   5  14
BRANCH   1  19
HETATM   19  C4  UNL     1      10.676  33.090   4.287  1.00  0.00     0.038 C 
BRANCH  19  20
HETATM   20  C3  UNL     1      10.432  34.595   4.293  1.00  0.00     0.004 C 
BRANCH  20  21
HETATM   21  C2  UNL     1       9.041  34.832   3.740  1.00  0.00    -0.004 C 
HETATM   22  C1  UNL     1       7.997  34.368   4.731  1.00  0.00     0.005 C 
ENDBRANCH  20  21
ENDBRANCH  19  20
ENDBRANCH   1  19
TORSDOF 10
ENDMDL
MODEL 5
REMARK VINA RESULT: -6.497872946      1.445      1.650
REMARK  10 active torsions:
REMARK  status: ('A' for Active; 'I' for Inactive)
REMARK    1  A    between atoms: C2_2  and  C3_3 
REMARK    2  A    between atoms: C3_3  and  C4_4 
REMARK    3  A    between atoms: C4_4  and  C5_5 
REMARK    4  A    between atoms: C9_9  and  C10_10 
REMARK    5  A    between atoms: C10_10  and  C11_11 
REMARK    6  A    between atoms: C11_11  and  C12_12 
REMARK    7  A    between atoms: C12_12  and  O1_13 
REMARK    8  A    between atoms: C13_15  and  C14_16 
REMARK    9  A    between atoms: C14_16  and  C15_17 
REMARK   10  A    between atoms: C15_17  and  O2_20 
ROOT
HETATM    1  C5  UNL     1      10.097  30.913   8.374  1.00  0.00    -0.057 A 
HETATM    2  C6  UNL     1      10.560  29.776   8.942  1.00  0.00     0.014 A 
HETATM    3  C7  UNL     1      11.891  29.728   9.362  1.00  0.00    -0.055 A 
HETATM    4  C8  UNL     1      12.353  28.446   9.978  1.00  0.00     0.049 C 
HETATM    5  C9  UNL     1      12.750  30.796   9.220  1.00  0.00    -0.046 A 
HETATM    6  C13 UNL     1      12.234  31.925   8.635  1.00  0.00    -0.048 A 
HETATM    7  C18 UNL     1      10.902  32.006   8.203  1.00  0.00     0.014 A 
ENDROOT
BRANCH   6   8
HETATM    8  C14 UNL     1      13.068  33.077   8.309  1.00  0.00     0.076 C 
BRANCH   8   9
HETATM    9  C15 UNL     1      13.596  33.119   6.903  1.00  0.00     0.054 C 
HETATM   10  C16 UNL     1      13.538  31.887   6.099  1.00  0.00     0.045 C 
HETATM   11  C17 UNL     1      12.947  34.231   6.096  1.00  0.00     0.045 C 
BRANCH   9  12
HETATM   12  O2  UNL     1      14.958  33.498   7.004  1.00  0.00    -0.390 OA
ATOM     13  H2  UNL     1      15.394  33.123   6.247  1.00  0.00     0.210 HD
ENDBRANCH   9  12
ENDBRANCH   8   9
ENDBRANCH   6   8
BRANCH   5  14
HETATM   14  C10 UNL     1      14.101  30.720   9.744  1.00  0.00     0.042 C 
BRANCH  14  15
HETATM   15  C11 UNL     1      15.056  30.030   8.755  1.00  0.00     0.030 C 
BRANCH  15  16
HETATM   16  C12 UNL     1      16.376  30.765   8.677  1.00  0.00     0.164 C 
BRANCH  16  17
HETATM   17  O1  UNL     1      16.320  32.034   9.209  1.00  0.00    -0.401 OA
ATOM     18  H1  UNL     1      15.604  32.150   9.822  1.00  0.00     0.209 HD
ENDBRANCH  16  17
ENDBRANCH  15  16
ENDBRANCH  14  15
ENDBRANCH   5  14
BRANCH   1  19
HETATM   19  C4  UNL     1       8.682  30.974   7.926  1.00  0.00     0.038 C 
BRANCH  19  20
HETATM   20  C3  UNL     1       8.353  32.353   7.363  1.00  0.00     0.004 C 
BRANCH  20  21
HETATM   21  C2  UNL     1       7.780  32.153   5.974  1.00  0.00    -0.004 C 
HETATM   22  C1  UNL     1       7.111  30.800   5.875  1.00  0.00     0.005 C 
ENDBRANCH  20  21
ENDBRANCH  19  20
ENDBRANCH   1  19
TORSDOF 10
ENDMDL
