MODEL 1
REMARK VINA RESULT: -7.016476550      0.000      0.000
REMARK  9 active torsions:
REMARK  status: ('A' for Active; 'I' for Inactive)
REMARK    1  A    between atoms: C2_2  and  C3_3 
REMARK    2  A    between atoms: C4_4  and  C5_5 
REMARK    3  A    between atoms: C4_4  and  C8_8 
REMARK    4  A    between atoms: C5_5  and  C6_6 
REMARK    5  A    between atoms: C10_10  and  C11_11 
REMARK    6  A    between atoms: C11_11  and  C12_12 
REMARK    7  A    between atoms: C11_11  and  O2_15 
REMARK    8  A    between atoms: C12_12  and  O1_13 
REMARK    9  A    between atoms: O2_15  and  C13_16 
ROOT
HETATM    1  C8  UNL     1       9.771  31.991   6.870  1.00  0.00    -0.024 A 
HETATM    2  C9  UNL     1      10.856  32.001   7.785  1.00  0.00     0.022 A 
HETATM    3  C10 UNL     1      10.846  31.308   8.985  1.00  0.00    -0.026 A 
HETATM    4  C15 UNL     1       9.704  30.586   9.255  1.00  0.00     0.010 A 
HETATM    5  C16 UNL     1       8.626  30.549   8.383  1.00  0.00     0.008 A 
HETATM    6  C17 UNL     1       8.668  31.274   7.155  1.00  0.00    -0.051 A 
HETATM    7  C18 UNL     1       7.549  31.035   6.237  1.00  0.00     0.049 C 
ENDROOT
BRANCH   1   8
HETATM    8  C4  UNL     1       9.833  32.950   5.693  1.00  0.00    -0.051 C 
HETATM    9  C3  UNL     1      10.513  32.345   4.570  1.00  0.00    -0.019 C 
BRANCH   9  10
HETATM   10  C2  UNL     1      11.422  32.855   3.570  1.00  0.00     0.023 C 
HETATM   11  C1  UNL     1      12.300  34.004   4.019  1.00  0.00     0.009 C 
ENDBRANCH   9  10
BRANCH   8  12
HETATM   12  C5  UNL     1       8.982  34.123   5.764  1.00  0.00     0.039 C 
BRANCH  12  13
HETATM   13  C6  UNL     1       8.004  34.326   4.606  1.00  0.00     0.000 C 
HETATM   14  C7  UNL     1       8.574  35.110   3.463  1.00  0.00     0.005 C 
ENDBRANCH  12  13
ENDBRANCH   8  12
ENDBRANCH   1   8
BRANCH   3  15
HETATM   15  C11 UNL     1      11.977  31.400   9.941  1.00  0.00     0.177 C 
BRANCH  15  16
HETATM   16  C12 UNL     1      11.744  32.395  11.058  1.00  0.00     0.201 C 
BRANCH  16  17
HETATM   17  O1  UNL     1      11.793  31.732  12.276  1.00  0.00    -0.398 OA
ATOM     18  H1  UNL     1      12.363  30.976  12.195  1.00  0.00     0.209 HD
ENDBRANCH  16  17
ENDBRANCH  15  16
BRANCH  15  19
HETATM   19  O2  UNL     1      13.117  31.771   9.249  1.00  0.00    -0.379 OA
BRANCH  19  20
HETATM   20  C13 UNL     1      14.278  31.226   9.764  1.00  0.00     0.164 C 
HETATM   21  C14 UNL     1      14.185  29.726   9.464  1.00  0.00     0.033 C 
ENDBRANCH  19  20
ENDBRANCH  15  19
ENDBRANCH   3  15
TORSDOF 9
ENDMDL
MODEL 2
REMARK VINA RESULT: -6.927449548      2.334      5.934
REMARK  9 active torsions:
REMARK  status: ('A' for Active; 'I' for Inactive)
REMARK    1  A    between atoms: C2_2  and  C3_3 
REMARK    2  A    between atoms: C4_4  and  C5_5 
REMARK    3  A    between atoms: C4_4  and  C8_8 
REMARK    4  A    between atoms: C5_5  and  C6_6 
REMARK    5  A    between atoms: C10_10  and  C11_11 
REMARK    6  A    between atoms: C11_11  and  C12_12 
REMARK    7  A    between atoms: C11_11  and  O2_15 
REMARK    8  A    between atoms: C12_12  and  O1_13 
REMARK    9  A    between atoms: O2_15  and  C13_16 
ROOT
HETATM    1  C8  UNL     1      10.586  31.430   8.252  1.00  0.00    -0.024 A 
HETATM    2  C9  UNL     1      10.883  32.261   7.139  1.00  0.00     0.022 A 
HETATM    3  C10 UNL     1      10.077  32.343   6.015  1.00  0.00    -0.026 A 
HETATM    4  C15 UNL     1       8.941  31.561   6.028  1.00  0.00     0.010 A 
HETATM    5  C16 UNL     1       8.617  30.742   7.098  1.00  0.00     0.008 A 
HETATM    6  C17 UNL     1       9.469  30.681   8.242  1.00  0.00    -0.051 A 
HETATM    7  C18 UNL     1       8.951  29.912   9.379  1.00  0.00     0.049 C 
ENDROOT
BRANCH   1   8
HETATM    8  C4  UNL     1      11.651  31.285   9.325  1.00  0.00    -0.051 C 
HETATM    9  C3  UNL     1      12.831  30.638   8.796  1.00  0.00    -0.019 C 
BRANCH   9  10
HETATM   10  C2  UNL     1      13.767  29.683   9.343  1.00  0.00     0.023 C 
HETATM   11  C1  UNL     1      15.230  30.009   9.119  1.00  0.00     0.009 C 
ENDBRANCH   9  10
BRANCH   8  12
HETATM   12  C5  UNL     1      11.457  32.050  10.543  1.00  0.00     0.039 C 
BRANCH  12  13
HETATM   13  C6  UNL     1      12.686  32.772  11.097  1.00  0.00     0.000 C 
HETATM   14  C7  UNL     1      12.945  34.103  10.458  1.00  0.00     0.005 C 
ENDBRANCH  12  13
ENDBRANCH   8  12
ENDBRANCH   1   8
BRANCH   3  15
HETATM   15  C11 UNL     1      10.459  33.175   4.847  1.00  0.00     0.177 C 
BRANCH  15  16
HETATM   16  C12 UNL     1      11.804  32.806   4.258  1.00  0.00     0.201 C 
BRANCH  16  17
HETATM   17  O1  UNL     1      11.610  32.213   3.018  1.00  0.00    -0.398 OA
ATOM     18  H1  UNL     1      11.710  31.273   3.104  1.00  0.00     0.209 HD
ENDBRANCH  16  17
ENDBRANCH  15  16
BRANCH  15  19
HETATM   19  O2  UNL     1      10.497  34.502   5.239  1.00  0.00    -0.379 OA
BRANCH  19  20
HETATM   20  C13 UNL     1      10.176  35.386   4.227  1.00  0.00     0.164 C 
HETATM   21  C14 UNL     1       8.825  34.907   3.687  1.00  0.00     0.033 C 
ENDBRANCH  19  20
ENDBRANCH  15  19
ENDBRANCH   3  15
TORSDOF 9
ENDMDL
MODEL 3
REMARK VINA RESULT: -6.906290208      2.308      6.050
REMARK  9 active torsions:
REMARK  status: ('A' for Active; 'I' for Inactive)
REMARK    1  A    between atoms: C2_2  and  C3_3 
REMARK    2  A    between atoms: C4_4  and  C5_5 
REMARK    3  A    between atoms: C4_4  and  C8_8 
REMARK    4  A    between atoms: C5_5  and  C6_6 
REMARK    5  A    between atoms: C10_10  and  C11_11 
REMARK    6  A    between atoms: C11_11  and  C12_12 
REMARK    7  A    between atoms: C11_11  and  O2_15 
REMARK    8  A    between atoms: C12_12  and  O1_13 
REMARK    9  A    between atoms: O2_15  and  C13_16 
ROOT
HETATM    1  C8  UNL     1      10.612  31.333   8.302  1.00  0.00    -0.024 A 
HETATM    2  C9  UNL     1      10.941  32.145   7.184  1.00  0.00     0.022 A 
HETATM    3  C10 UNL     1      10.099  32.321   6.098  1.00  0.00    -0.026 A 
HETATM    4  C15 UNL     1       8.894  31.654   6.154  1.00  0.00     0.010 A 
HETATM    5  C16 UNL     1       8.537  30.856   7.230  1.00  0.00     0.008 A 
HETATM    6  C17 UNL     1       9.427  30.696   8.334  1.00  0.00    -0.051 A 
HETATM    7  C18 UNL     1       8.886  29.967   9.487  1.00  0.00     0.049 C 
ENDROOT
BRANCH   1   8
HETATM    8  C4  UNL     1      11.704  31.069   9.326  1.00  0.00    -0.051 C 
HETATM    9  C3  UNL     1      11.720  32.101  10.339  1.00  0.00    -0.019 C 
BRANCH   9  10
HETATM   10  C2  UNL     1      12.781  32.763  11.061  1.00  0.00     0.023 C 
HETATM   11  C1  UNL     1      13.867  33.374  10.200  1.00  0.00     0.009 C 
ENDBRANCH   9  10
BRANCH   8  12
HETATM   12  C5  UNL     1      12.307  29.750   9.308  1.00  0.00     0.039 C 
BRANCH  12  13
HETATM   13  C6  UNL     1      13.834  29.701   9.224  1.00  0.00     0.000 C 
HETATM   14  C7  UNL     1      14.394  30.362   8.001  1.00  0.00     0.005 C 
ENDBRANCH  12  13
ENDBRANCH   8  12
ENDBRANCH   1   8
BRANCH   3  15
HETATM   15  C11 UNL     1      10.511  33.127   4.922  1.00  0.00     0.177 C 
BRANCH  15  16
HETATM   16  C12 UNL     1      11.833  32.692   4.326  1.00  0.00     0.201 C 
BRANCH  16  17
HETATM   17  O1  UNL     1      11.612  32.183   3.054  1.00  0.00    -0.398 OA
ATOM     18  H1  UNL     1      12.175  32.633   2.436  1.00  0.00     0.209 HD
ENDBRANCH  16  17
ENDBRANCH  15  16
BRANCH  15  19
HETATM   19  O2  UNL     1      10.614  34.453   5.305  1.00  0.00    -0.379 OA
BRANCH  19  20
HETATM   20  C13 UNL     1      10.325  35.345   4.290  1.00  0.00     0.164 C 
HETATM   21  C14 UNL     1       8.958  34.912   3.751  1.00  0.00     0.033 C 
ENDBRANCH  19  20
ENDBRANCH  15  19
ENDBRANCH   3  15
TORSDOF 9
ENDMDL
MODEL 4
REMARK VINA RESULT: -6.868594194      2.610      5.881
REMARK  9 active torsions:
REMARK  status: ('A' for Active; 'I' for Inactive)
REMARK    1  A    between atoms: C2_2  and  C3_3 
REMARK    2  A    between atoms: C4_4  and  C5_5 
REMARK    3  A    between atoms: C4_4  and  C8_8 
REMARK    4  A    between atoms: C5_5  and  C6_6 
REMARK    5  A    between atoms: C10_10  and  C11_11 
REMARK    6  A    between atoms: C11_11  and  C12_12 
REMARK    7  A    between atoms: C11_11  and  O2_15 
REMARK    8  A    between atoms: C12_12  and  O1_13 
REMARK    9  A    between atoms: O2_15  and  C13_16 
ROOT
HETATM    1  C8  UNL     1      12.026  31.221   8.492  1.00  0.00    -0.024 A 
HETATM    2  C9  UNL     1      10.967  31.793   7.737  1.00  0.00     0.022 A 
HETATM    3  C10 UNL     1       9.703  31.232   7.655  1.00  0.00    -0.026 A 
HETATM    4  C15 UNL     1       9.515  30.062   8.360  1.00  0.00     0.010 A 
HETATM    5  C16 UNL     1      10.524  29.477   9.110  1.00  0.00     0.008 A 
HETATM    6  C17 UNL     1      11.816  30.081   9.175  1.00  0.00    -0.051 A 
HETATM    7  C18 UNL     1      12.755  29.473  10.123  1.00  0.00     0.049 C 
ENDROOT
BRANCH   1   8
HETATM    8  C4  UNL     1      13.410  31.829   8.334  1.00  0.00    -0.051 C 
HETATM    9  C3  UNL     1      14.164  31.136   7.313  1.00  0.00    -0.019 C 
BRANCH   9  10
HETATM   10  C2  UNL     1      15.555  30.770   7.186  1.00  0.00     0.023 C 
HETATM   11  C1  UNL     1      16.260  30.442   8.486  1.00  0.00     0.009 C 
ENDBRANCH   9  10
BRANCH   8  12
HETATM   12  C5  UNL     1      13.629  33.119   8.962  1.00  0.00     0.039 C 
BRANCH  12  13
HETATM   13  C6  UNL     1      14.055  33.097  10.431  1.00  0.00     0.000 C 
HETATM   14  C7  UNL     1      12.957  33.466  11.384  1.00  0.00     0.005 C 
ENDBRANCH  12  13
ENDBRANCH   8  12
ENDBRANCH   1   8
BRANCH   3  15
HETATM   15  C11 UNL     1       8.646  31.828   6.803  1.00  0.00     0.177 C 
BRANCH  15  16
HETATM   16  C12 UNL     1       8.126  30.886   5.737  1.00  0.00     0.201 C 
BRANCH  16  17
HETATM   17  O1  UNL     1       6.738  30.914   5.745  1.00  0.00    -0.398 OA
ATOM     18  H1  UNL     1       6.414  30.462   4.975  1.00  0.00     0.209 HD
ENDBRANCH  16  17
ENDBRANCH  15  16
BRANCH  15  19
HETATM   19  O2  UNL     1       9.156  32.956   6.184  1.00  0.00    -0.379 OA
BRANCH  19  20
HETATM   20  C13 UNL     1       8.276  34.022   6.164  1.00  0.00     0.164 C 
HETATM   21  C14 UNL     1       8.158  34.419   4.689  1.00  0.00     0.033 C 
ENDBRANCH  19  20
ENDBRANCH  15  19
ENDBRANCH   3  15
TORSDOF 9
ENDMDL
MODEL 5
REMARK VINA RESULT: -6.858852710      1.095      2.252
REMARK  9 active torsions:
REMARK  status: ('A' for Active; 'I' for Inactive)
REMARK    1  A    between atoms: C2_2  and  C3_3 
REMARK    2  A    between atoms: C4_4  and  C5_5 
REMARK    3  A    between atoms: C4_4  and  C8_8 
REMARK    4  A    between atoms: C5_5  and  C6_6 
REMARK    5  A    between atoms: C10_10  and  C11_11 
REMARK    6  A    between atoms: C11_11  and  C12_12 
REMARK    7  A    between atoms: C11_11  and  O2_15 
REMARK    8  A    between atoms: C12_12  and  O1_13 
REMARK    9  A    between atoms: O2_15  and  C13_16 
ROOT
HETATM    1  C8  UNL     1       9.515  31.951   6.777  1.00  0.00    -0.024 A 
HETATM    2  C9  UNL     1      10.388  32.183   7.873  1.00  0.00     0.022 A 
HETATM    3  C10 UNL     1      10.204  31.619   9.125  1.00  0.00    -0.026 A 
HETATM    4  C15 UNL     1       9.105  30.797   9.261  1.00  0.00     0.010 A 
HETATM    5  C16 UNL     1       8.234  30.545   8.213  1.00  0.00     0.008 A 
HETATM    6  C17 UNL     1       8.452  31.141   6.934  1.00  0.00    -0.051 A 
HETATM    7  C18 UNL     1       7.569  30.679   5.858  1.00  0.00     0.049 C 
ENDROOT
BRANCH   1   8
HETATM    8  C4  UNL     1       9.721  32.786   5.524  1.00  0.00    -0.051 C 
HETATM    9  C3  UNL     1       8.811  33.910   5.499  1.00  0.00    -0.019 C 
BRANCH   9  10
HETATM   10  C2  UNL     1       8.079  34.568   4.443  1.00  0.00     0.023 C 
HETATM   11  C1  UNL     1       8.929  35.174   3.345  1.00  0.00     0.009 C 
ENDBRANCH   9  10
BRANCH   8  12
HETATM   12  C5  UNL     1      10.927  32.527   4.760  1.00  0.00     0.039 C 
BRANCH  12  13
HETATM   13  C6  UNL     1      12.162  33.345   5.141  1.00  0.00     0.000 C 
HETATM   14  C7  UNL     1      12.401  34.529   4.253  1.00  0.00     0.005 C 
ENDBRANCH  12  13
ENDBRANCH   8  12
ENDBRANCH   1   8
BRANCH   3  15
HETATM   15  C11 UNL     1      11.105  31.941  10.258  1.00  0.00     0.177 C 
BRANCH  15  16
HETATM   16  C12 UNL     1      12.228  32.885   9.888  1.00  0.00     0.201 C 
BRANCH  16  17
HETATM   17  O1  UNL     1      11.928  34.156  10.360  1.00  0.00    -0.398 OA
ATOM     18  H1  UNL     1      12.714  34.547  10.721  1.00  0.00     0.209 HD
ENDBRANCH  16  17
ENDBRANCH  15  16
BRANCH  15  19
HETATM   19  O2  UNL     1      11.656  30.765  10.738  1.00  0.00    -0.379 OA
BRANCH  19  20
HETATM   20  C13 UNL     1      12.836  30.413  10.113  1.00  0.00     0.164 C 
HETATM   21  C14 UNL     1      12.636  28.962   9.663  1.00  0.00     0.033 C 
ENDBRANCH  19  20
ENDBRANCH  15  19
ENDBRANCH   3  15
TORSDOF 9
ENDMDL
