MODEL 1
REMARK VINA RESULT: -6.747533732      0.000      0.000
REMARK  10 active torsions:
REMARK  status: ('A' for Active; 'I' for Inactive)
REMARK    1  A    between atoms: C2_2  and  C3_3 
REMARK    2  A    between atoms: C3_3  and  C4_4 
REMARK    3  A    between atoms: C6_6  and  C7_7 
REMARK    4  A    between atoms: C7_7  and  C8_8 
REMARK    5  A    between atoms: C8_8  and  O1_9 
REMARK    6  A    between atoms: O1_9  and  C9_10 
REMARK    7  A    between atoms: C12_13  and  C13_14 
REMARK    8  A    between atoms: C13_14  and  C14_15 
REMARK    9  A    between atoms: C14_15  and  C15_16 
REMARK   10  A    between atoms: C18_19  and  O2_20 
ROOT
HETATM    1  C4  UNL     1       9.544  31.804   7.812  1.00  0.00    -0.024 A 
HETATM    2  C5  UNL     1      10.164  32.197   6.645  1.00  0.00     0.017 A 
HETATM    3  C6  UNL     1      11.494  32.519   6.585  1.00  0.00    -0.055 A 
HETATM    4  C11 UNL     1      12.233  32.445   7.739  1.00  0.00     0.017 A 
HETATM    5  C12 UNL     1      11.668  32.059   8.934  1.00  0.00    -0.024 A 
HETATM    6  C18 UNL     1      10.324  31.740   8.959  1.00  0.00     0.078 A 
ENDROOT
BRANCH   3   7
HETATM    7  C7  UNL     1      12.176  32.951   5.300  1.00  0.00     0.065 C 
BRANCH   7   8
HETATM    8  C8  UNL     1      12.335  34.428   5.260  1.00  0.00     0.172 C 
BRANCH   8   9
HETATM    9  O1  UNL     1      11.196  35.116   5.396  1.00  0.00    -0.391 OA
BRANCH   9  10
HETATM   10  C9  UNL     1      10.395  35.492   4.387  1.00  0.00     0.163 C 
HETATM   11  C10 UNL     1       9.132  34.742   4.128  1.00  0.00     0.033 C 
ENDBRANCH   9  10
ENDBRANCH   8   9
ENDBRANCH   7   8
ENDBRANCH   3   7
BRANCH   1  12
HETATM   12  C3  UNL     1       8.111  31.456   7.862  1.00  0.00     0.041 C 
BRANCH  12  13
HETATM   13  C2  UNL     1       7.349  31.957   6.661  1.00  0.00     0.000 C 
HETATM   14  C1  UNL     1       6.960  30.709   5.856  1.00  0.00     0.005 C 
ENDBRANCH  12  13
ENDBRANCH   1  12
BRANCH   5  15
HETATM   15  C13 UNL     1      12.516  31.985  10.136  1.00  0.00     0.042 C 
BRANCH  15  16
HETATM   16  C14 UNL     1      13.536  30.888  10.011  1.00  0.00     0.008 C 
BRANCH  16  17
HETATM   17  C15 UNL     1      13.092  29.625  10.663  1.00  0.00    -0.023 C 
HETATM   18  C16 UNL     1      12.221  29.815  11.865  1.00  0.00     0.009 C 
HETATM   19  C17 UNL     1      12.382  28.721   9.687  1.00  0.00     0.009 C 
ENDBRANCH  16  17
ENDBRANCH  15  16
ENDBRANCH   5  15
BRANCH   6  20
HETATM   20  O2  UNL     1       9.773  31.358  10.161  1.00  0.00    -0.360 OA
ATOM     21  H2  UNL     1       9.984  31.826  10.961  1.00  0.00     0.217 HD
ENDBRANCH   6  20
TORSDOF 10
ENDMDL
MODEL 2
REMARK VINA RESULT: -6.607909983      3.092      6.015
REMARK  10 active torsions:
REMARK  status: ('A' for Active; 'I' for Inactive)
REMARK    1  A    between atoms: C2_2  and  C3_3 
REMARK    2  A    between atoms: C3_3  and  C4_4 
REMARK    3  A    between atoms: C6_6  and  C7_7 
REMARK    4  A    between atoms: C7_7  and  C8_8 
REMARK    5  A    between atoms: C8_8  and  O1_9 
REMARK    6  A    between atoms: O1_9  and  C9_10 
REMARK    7  A    between atoms: C12_13  and  C13_14 
REMARK    8  A    between atoms: C13_14  and  C14_15 
REMARK    9  A    between atoms: C14_15  and  C15_16 
REMARK   10  A    between atoms: C18_19  and  O2_20 
ROOT
HETATM    1  C4  UNL     1      11.541  35.052   4.334  1.00  0.00    -0.024 A 
HETATM    2  C5  UNL     1      12.558  34.292   4.871  1.00  0.00     0.017 A 
HETATM    3  C6  UNL     1      12.327  33.144   5.583  1.00  0.00    -0.055 A 
HETATM    4  C11 UNL     1      11.028  32.742   5.764  1.00  0.00     0.017 A 
HETATM    5  C12 UNL     1       9.971  33.460   5.251  1.00  0.00    -0.024 A 
HETATM    6  C18 UNL     1      10.239  34.612   4.537  1.00  0.00     0.078 A 
ENDROOT
BRANCH   3   7
HETATM    7  C7  UNL     1      13.447  32.308   6.174  1.00  0.00     0.065 C 
BRANCH   7   8
HETATM    8  C8  UNL     1      14.772  32.811   5.727  1.00  0.00     0.172 C 
BRANCH   8   9
HETATM    9  O1  UNL     1      15.685  31.858   5.505  1.00  0.00    -0.391 OA
BRANCH   9  10
HETATM   10  C9  UNL     1      16.598  31.442   6.395  1.00  0.00     0.163 C 
HETATM   11  C10 UNL     1      16.287  30.288   7.288  1.00  0.00     0.033 C 
ENDBRANCH   9  10
ENDBRANCH   8   9
ENDBRANCH   7   8
ENDBRANCH   3   7
BRANCH   1  12
HETATM   12  C3  UNL     1      11.802  36.284   3.565  1.00  0.00     0.041 C 
BRANCH  12  13
HETATM   13  C2  UNL     1      12.425  37.371   4.405  1.00  0.00     0.000 C 
HETATM   14  C1  UNL     1      11.255  38.156   5.015  1.00  0.00     0.005 C 
ENDBRANCH  12  13
ENDBRANCH   1  12
BRANCH   5  15
HETATM   15  C13 UNL     1       8.599  32.969   5.466  1.00  0.00     0.042 C 
BRANCH  15  16
HETATM   16  C14 UNL     1       8.298  32.834   6.933  1.00  0.00     0.008 C 
BRANCH  16  17
HETATM   17  C15 UNL     1       7.688  31.517   7.265  1.00  0.00    -0.023 C 
HETATM   18  C16 UNL     1       7.093  30.792   6.100  1.00  0.00     0.009 C 
HETATM   19  C17 UNL     1       8.678  30.608   7.948  1.00  0.00     0.009 C 
ENDBRANCH  16  17
ENDBRANCH  15  16
ENDBRANCH   5  15
BRANCH   6  20
HETATM   20  O2  UNL     1       9.173  35.321   4.031  1.00  0.00    -0.360 OA
ATOM     21  H2  UNL     1       8.828  35.126   3.168  1.00  0.00     0.217 HD
ENDBRANCH   6  20
TORSDOF 10
ENDMDL
MODEL 3
REMARK VINA RESULT: -6.604776752      1.393      1.983
REMARK  10 active torsions:
REMARK  status: ('A' for Active; 'I' for Inactive)
REMARK    1  A    between atoms: C2_2  and  C3_3 
REMARK    2  A    between atoms: C3_3  and  C4_4 
REMARK    3  A    between atoms: C6_6  and  C7_7 
REMARK    4  A    between atoms: C7_7  and  C8_8 
REMARK    5  A    between atoms: C8_8  and  O1_9 
REMARK    6  A    between atoms: O1_9  and  C9_10 
REMARK    7  A    between atoms: C12_13  and  C13_14 
REMARK    8  A    between atoms: C13_14  and  C14_15 
REMARK    9  A    between atoms: C14_15  and  C15_16 
REMARK   10  A    between atoms: C18_19  and  O2_20 
ROOT
HETATM    1  C4  UNL     1       9.769  31.458   7.749  1.00  0.00    -0.024 A 
HETATM    2  C5  UNL     1      10.180  32.189   6.655  1.00  0.00     0.017 A 
HETATM    3  C6  UNL     1      11.482  32.570   6.466  1.00  0.00    -0.055 A 
HETATM    4  C11 UNL     1      12.410  32.206   7.410  1.00  0.00     0.017 A 
HETATM    5  C12 UNL     1      12.058  31.475   8.523  1.00  0.00    -0.024 A 
HETATM    6  C18 UNL     1      10.736  31.107   8.683  1.00  0.00     0.078 A 
ENDROOT
BRANCH   3   7
HETATM    7  C7  UNL     1      11.934  33.375   5.262  1.00  0.00     0.065 C 
BRANCH   7   8
HETATM    8  C8  UNL     1      11.095  33.062   4.076  1.00  0.00     0.172 C 
BRANCH   8   9
HETATM    9  O1  UNL     1      10.445  34.112   3.559  1.00  0.00    -0.391 OA
BRANCH   9  10
HETATM   10  C9  UNL     1       9.616  34.918   4.239  1.00  0.00     0.163 C 
HETATM   11  C10 UNL     1       8.201  34.504   4.463  1.00  0.00     0.033 C 
ENDBRANCH   9  10
ENDBRANCH   8   9
ENDBRANCH   7   8
ENDBRANCH   3   7
BRANCH   1  12
HETATM   12  C3  UNL     1       8.364  31.050   7.940  1.00  0.00     0.041 C 
BRANCH  12  13
HETATM   13  C2  UNL     1       7.419  31.769   7.009  1.00  0.00     0.000 C 
HETATM   14  C1  UNL     1       7.001  30.738   5.952  1.00  0.00     0.005 C 
ENDBRANCH  12  13
ENDBRANCH   1  12
BRANCH   5  15
HETATM   15  C13 UNL     1      13.101  31.102   9.494  1.00  0.00     0.042 C 
BRANCH  15  16
HETATM   16  C14 UNL     1      13.788  29.829   9.085  1.00  0.00     0.008 C 
BRANCH  16  17
HETATM   17  C15 UNL     1      15.184  30.064   8.619  1.00  0.00    -0.023 C 
HETATM   18  C16 UNL     1      15.364  30.011   7.135  1.00  0.00     0.009 C 
HETATM   19  C17 UNL     1      15.719  31.378   9.128  1.00  0.00     0.009 C 
ENDBRANCH  16  17
ENDBRANCH  15  16
ENDBRANCH   5  15
BRANCH   6  20
HETATM   20  O2  UNL     1      10.398  30.379   9.801  1.00  0.00    -0.360 OA
ATOM     21  H2  UNL     1       9.849  30.759  10.477  1.00  0.00     0.217 HD
ENDBRANCH   6  20
TORSDOF 10
ENDMDL
MODEL 4
REMARK VINA RESULT: -6.598638152      1.665      2.720
REMARK  10 active torsions:
REMARK  status: ('A' for Active; 'I' for Inactive)
REMARK    1  A    between atoms: C2_2  and  C3_3 
REMARK    2  A    between atoms: C3_3  and  C4_4 
REMARK    3  A    between atoms: C6_6  and  C7_7 
REMARK    4  A    between atoms: C7_7  and  C8_8 
REMARK    5  A    between atoms: C8_8  and  O1_9 
REMARK    6  A    between atoms: O1_9  and  C9_10 
REMARK    7  A    between atoms: C12_13  and  C13_14 
REMARK    8  A    between atoms: C13_14  and  C14_15 
REMARK    9  A    between atoms: C14_15  and  C15_16 
REMARK   10  A    between atoms: C18_19  and  O2_20 
ROOT
HETATM    1  C4  UNL     1       9.749  31.914   7.817  1.00  0.00    -0.024 A 
HETATM    2  C5  UNL     1      10.482  32.226   6.692  1.00  0.00     0.017 A 
HETATM    3  C6  UNL     1      11.821  32.515   6.737  1.00  0.00    -0.055 A 
HETATM    4  C11 UNL     1      12.450  32.490   7.955  1.00  0.00     0.017 A 
HETATM    5  C12 UNL     1      11.770  32.185   9.114  1.00  0.00    -0.024 A 
HETATM    6  C18 UNL     1      10.421  31.898   9.032  1.00  0.00     0.078 A 
ENDROOT
BRANCH   3   7
HETATM    7  C7  UNL     1      12.627  32.858   5.498  1.00  0.00     0.065 C 
BRANCH   7   8
HETATM    8  C8  UNL     1      14.071  32.979   5.826  1.00  0.00     0.172 C 
BRANCH   8   9
HETATM    9  O1  UNL     1      14.793  31.880   5.582  1.00  0.00    -0.391 OA
BRANCH   9  10
HETATM   10  C9  UNL     1      15.644  31.307   6.447  1.00  0.00     0.163 C 
HETATM   11  C10 UNL     1      15.232  30.078   7.184  1.00  0.00     0.033 C 
ENDBRANCH   9  10
ENDBRANCH   8   9
ENDBRANCH   7   8
ENDBRANCH   3   7
BRANCH   1  12
HETATM   12  C3  UNL     1       8.309  31.600   7.755  1.00  0.00     0.041 C 
BRANCH  12  13
HETATM   13  C2  UNL     1       7.679  32.020   6.450  1.00  0.00     0.000 C 
HETATM   14  C1  UNL     1       7.022  30.759   5.873  1.00  0.00     0.005 C 
ENDBRANCH  12  13
ENDBRANCH   1  12
BRANCH   5  15
HETATM   15  C13 UNL     1      12.504  32.161  10.390  1.00  0.00     0.042 C 
BRANCH  15  16
HETATM   16  C14 UNL     1      13.613  31.146  10.357  1.00  0.00     0.008 C 
BRANCH  16  17
HETATM   17  C15 UNL     1      13.171  29.810  10.843  1.00  0.00    -0.023 C 
HETATM   18  C16 UNL     1      12.130  29.849  11.916  1.00  0.00     0.009 C 
HETATM   19  C17 UNL     1      12.670  28.950   9.711  1.00  0.00     0.009 C 
ENDBRANCH  16  17
ENDBRANCH  15  16
ENDBRANCH   5  15
BRANCH   6  20
HETATM   20  O2  UNL     1       9.753  31.597  10.198  1.00  0.00    -0.360 OA
ATOM     21  H2  UNL     1       8.855  31.879  10.327  1.00  0.00     0.217 HD
ENDBRANCH   6  20
TORSDOF 10
ENDMDL
MODEL 5
REMARK VINA RESULT: -6.463981386      2.808      5.703
REMARK  10 active torsions:
REMARK  status: ('A' for Active; 'I' for Inactive)
REMARK    1  A    between atoms: C2_2  and  C3_3 
REMARK    2  A    between atoms: C3_3  and  C4_4 
REMARK    3  A    between atoms: C6_6  and  C7_7 
REMARK    4  A    between atoms: C7_7  and  C8_8 
REMARK    5  A    between atoms: C8_8  and  O1_9 
REMARK    6  A    between atoms: O1_9  and  C9_10 
REMARK    7  A    between atoms: C12_13  and  C13_14 
REMARK    8  A    between atoms: C13_14  and  C14_15 
REMARK    9  A    between atoms: C14_15  and  C15_16 
REMARK   10  A    between atoms: C18_19  and  O2_20 
ROOT
HETATM    1  C4  UNL     1      11.400  35.141   4.436  1.00  0.00    -0.024 A 
HETATM    2  C5  UNL     1      12.378  34.479   5.146  1.00  0.00     0.017 A 
HETATM    3  C6  UNL     1      12.109  33.400   5.947  1.00  0.00    -0.055 A 
HETATM    4  C11 UNL     1      10.810  32.966   6.038  1.00  0.00     0.017 A 
HETATM    5  C12 UNL     1       9.791  33.588   5.351  1.00  0.00    -0.024 A 
HETATM    6  C18 UNL     1      10.097  34.674   4.553  1.00  0.00     0.078 A 
ENDROOT
BRANCH   3   7
HETATM    7  C7  UNL     1      13.186  32.671   6.728  1.00  0.00     0.065 C 
BRANCH   7   8
HETATM    8  C8  UNL     1      14.081  33.636   7.416  1.00  0.00     0.172 C 
BRANCH   8   9
HETATM    9  O1  UNL     1      13.503  34.330   8.404  1.00  0.00    -0.391 OA
BRANCH   9  10
HETATM   10  C9  UNL     1      13.896  35.538   8.832  1.00  0.00     0.163 C 
HETATM   11  C10 UNL     1      13.916  36.688   7.882  1.00  0.00     0.033 C 
ENDBRANCH   9  10
ENDBRANCH   8   9
ENDBRANCH   7   8
ENDBRANCH   3   7
BRANCH   1  12
HETATM   12  C3  UNL     1      11.703  36.301   3.574  1.00  0.00     0.041 C 
BRANCH  12  13
HETATM   13  C2  UNL     1      12.450  37.388   4.306  1.00  0.00     0.000 C 
HETATM   14  C1  UNL     1      11.389  38.184   5.078  1.00  0.00     0.005 C 
ENDBRANCH  12  13
ENDBRANCH   1  12
BRANCH   5  15
HETATM   15  C13 UNL     1       8.419  33.068   5.479  1.00  0.00     0.042 C 
BRANCH  15  16
HETATM   16  C14 UNL     1       8.046  32.878   6.923  1.00  0.00     0.008 C 
BRANCH  16  17
HETATM   17  C15 UNL     1       7.557  31.500   7.204  1.00  0.00    -0.023 C 
HETATM   18  C16 UNL     1       7.119  30.734   5.995  1.00  0.00     0.009 C 
HETATM   19  C17 UNL     1       8.591  30.689   7.943  1.00  0.00     0.009 C 
ENDBRANCH  16  17
ENDBRANCH  15  16
ENDBRANCH   5  15
BRANCH   6  20
HETATM   20  O2  UNL     1       9.069  35.287   3.874  1.00  0.00    -0.360 OA
ATOM     21  H2  UNL     1       8.330  34.781   3.556  1.00  0.00     0.217 HD
ENDBRANCH   6  20
TORSDOF 10
ENDMDL
