MODEL 1
REMARK VINA RESULT: -8.016525154      0.000      0.000
REMARK  6 active torsions:
REMARK  status: ('A' for Active; 'I' for Inactive)
REMARK    1  A    between atoms: C2_2  and  N1_3 
REMARK       I    between atoms: N1_3  and  C4_5 
REMARK    2  A    between atoms: C4_5  and  C5_7 
REMARK    3  A    between atoms: C5_7  and  C6_8 
REMARK    4  A    between atoms: C16_21  and  O2_22 
REMARK    5  A    between atoms: N3_25  and  C18_26 
REMARK    6  A    between atoms: C21_29  and  N4_30 
ROOT
HETATM    1  C6  UNL     1      12.876 -16.289  20.473  1.00  0.00     0.087 C 
HETATM    2  C7  UNL     1      12.048 -17.477  20.164  1.00  0.00     0.018 C 
HETATM    3  C8  UNL     1      11.569 -17.512  18.699  1.00  0.00     0.028 C 
HETATM    4  C9  UNL     1      10.951 -18.835  18.422  1.00  0.00    -0.022 C 
HETATM    5  C10 UNL     1      11.460 -19.814  17.729  1.00  0.00    -0.053 C 
HETATM    6  C11 UNL     1      10.881 -21.178  17.412  1.00  0.00     0.036 C 
HETATM    7  C12 UNL     1      11.352 -21.364  15.981  1.00  0.00     0.007 C 
HETATM    8  C13 UNL     1      12.749 -20.851  16.002  1.00  0.00     0.038 C 
HETATM    9  C14 UNL     1      12.783 -19.797  17.061  1.00  0.00     0.214 C 
HETATM   10  N2  UNL     1      13.881 -20.121  17.985  1.00  0.00    -0.065 N 
ATOM     11  H21 UNL     1      14.201 -21.083  17.876  1.00  0.00     0.278 HD
ATOM     12  H22 UNL     1      13.562 -20.178  18.953  1.00  0.00     0.278 HD
HETATM   13  C15 UNL     1      14.939 -19.188  17.829  1.00  0.00     0.266 C 
HETATM   14  C16 UNL     1      15.642 -18.795  19.119  1.00  0.00     0.162 C 
HETATM   15  C17 UNL     1      15.608 -17.310  19.336  1.00  0.00     0.165 C 
HETATM   16  N3  UNL     1      15.374 -16.852  20.667  1.00  0.00    -0.315 N 
HETATM   17  C28 UNL     1      14.079 -16.730  21.251  1.00  0.00     0.229 C 
HETATM   18  O3  UNL     1      13.873 -16.988  22.462  1.00  0.00    -0.273 OA
ENDROOT
BRANCH  16  19
HETATM   19  C18 UNL     1      16.508 -16.464  21.467  1.00  0.00     0.037 A 
HETATM   20  C19 UNL     1      17.382 -17.362  22.040  1.00  0.00     0.032 A 
HETATM   21  C20 UNL     1      18.462 -16.964  22.816  1.00  0.00     0.032 A 
HETATM   22  C21 UNL     1      18.710 -15.613  23.054  1.00  0.00     0.038 A 
HETATM   23  C26 UNL     1      17.822 -14.744  22.469  1.00  0.00     0.032 A 
HETATM   24  C27 UNL     1      16.754 -15.117  21.700  1.00  0.00     0.032 A 
BRANCH  22  25
HETATM   25  N4  UNL     1      19.805 -15.227  23.863  1.00  0.00    -0.333 N 
HETATM   26  C22 UNL     1      21.091 -15.219  23.558  1.00  0.00     0.096 A 
HETATM   27  C23 UNL     1      21.850 -14.762  24.621  1.00  0.00     0.019 A 
HETATM   28  C24 UNL     1      20.955 -14.480  25.629  1.00  0.00     0.019 A 
HETATM   29  C25 UNL     1      19.687 -14.782  25.124  1.00  0.00     0.096 A 
ENDBRANCH  22  25
ENDBRANCH  16  19
BRANCH  14  30
HETATM   30  O2  UNL     1      15.293 -19.574  20.179  1.00  0.00    -0.392 OA
ATOM     31  H2  UNL     1      15.960 -19.607  20.855  1.00  0.00     0.210 HD
ENDBRANCH  14  30
BRANCH   1  32
HETATM   32  C5  UNL     1      12.202 -15.102  21.054  1.00  0.00     0.117 C 
BRANCH  32  33
HETATM   33  C4  UNL     1      12.560 -13.785  20.577  1.00  0.00     0.220 C 
HETATM   34  N1  UNL     1      12.359 -12.586  21.305  1.00  0.00    -0.357 N 
HETATM   35  C3  UNL     1      11.753 -12.597  22.616  1.00  0.00     0.152 C 
HETATM   36  O1  UNL     1      13.095 -13.632  19.429  1.00  0.00    -0.273 OA
BRANCH  34  37
HETATM   37  C2  UNL     1      12.757 -11.286  20.767  1.00  0.00     0.120 C 
HETATM   38  C1  UNL     1      13.844 -10.652  21.650  1.00  0.00     0.026 C 
ENDBRANCH  34  37
ENDBRANCH  32  33
ENDBRANCH   1  32
TORSDOF 6
ENDMDL
MODEL 2
REMARK VINA RESULT: -7.699916707      2.094      8.275
REMARK  6 active torsions:
REMARK  status: ('A' for Active; 'I' for Inactive)
REMARK    1  A    between atoms: C2_2  and  N1_3 
REMARK       I    between atoms: N1_3  and  C4_5 
REMARK    2  A    between atoms: C4_5  and  C5_7 
REMARK    3  A    between atoms: C5_7  and  C6_8 
REMARK    4  A    between atoms: C16_21  and  O2_22 
REMARK    5  A    between atoms: N3_25  and  C18_26 
REMARK    6  A    between atoms: C21_29  and  N4_30 
ROOT
HETATM    1  C6  UNL     1      15.812 -15.382  20.835  1.00  0.00     0.087 C 
HETATM    2  C7  UNL     1      17.267 -15.124  20.916  1.00  0.00     0.018 C 
HETATM    3  C8  UNL     1      17.662 -14.289  22.150  1.00  0.00     0.028 C 
HETATM    4  C9  UNL     1      19.143 -14.278  22.275  1.00  0.00    -0.022 C 
HETATM    5  C10 UNL     1      19.868 -14.931  23.137  1.00  0.00    -0.053 C 
HETATM    6  C11 UNL     1      21.372 -14.959  23.313  1.00  0.00     0.036 C 
HETATM    7  C12 UNL     1      21.483 -15.001  24.827  1.00  0.00     0.007 C 
HETATM    8  C13 UNL     1      20.412 -15.951  25.231  1.00  0.00     0.038 C 
HETATM    9  C14 UNL     1      19.345 -15.832  24.192  1.00  0.00     0.214 C 
HETATM   10  N2  UNL     1      19.056 -17.182  23.683  1.00  0.00    -0.065 N 
ATOM     11  H21 UNL     1      19.787 -17.848  23.932  1.00  0.00     0.278 HD
ATOM     12  H22 UNL     1      19.145 -17.235  22.668  1.00  0.00     0.278 HD
HETATM   13  C15 UNL     1      17.777 -17.606  24.128  1.00  0.00     0.266 C 
HETATM   14  C16 UNL     1      16.982 -18.415  23.115  1.00  0.00     0.162 C 
HETATM   15  C17 UNL     1      15.648 -17.788  22.832  1.00  0.00     0.165 C 
HETATM   16  N3  UNL     1      15.201 -17.793  21.476  1.00  0.00    -0.315 N 
HETATM   17  C28 UNL     1      15.597 -16.829  20.504  1.00  0.00     0.229 C 
HETATM   18  O3  UNL     1      15.790 -17.141  19.303  1.00  0.00    -0.273 OA
ENDROOT
BRANCH  16  19
HETATM   19  C18 UNL     1      14.274 -18.817  21.065  1.00  0.00     0.037 A 
HETATM   20  C19 UNL     1      14.641 -20.120  20.805  1.00  0.00     0.032 A 
HETATM   21  C20 UNL     1      13.731 -21.086  20.400  1.00  0.00     0.032 A 
HETATM   22  C21 UNL     1      12.383 -20.772  20.232  1.00  0.00     0.038 A 
HETATM   23  C26 UNL     1      12.050 -19.466  20.499  1.00  0.00     0.032 A 
HETATM   24  C27 UNL     1      12.932 -18.501  20.901  1.00  0.00     0.032 A 
BRANCH  22  25
HETATM   25  N4  UNL     1      11.473 -21.766  19.800  1.00  0.00    -0.333 N 
HETATM   26  C22 UNL     1      11.374 -23.021  20.202  1.00  0.00     0.096 A 
HETATM   27  C23 UNL     1      10.346 -23.672  19.544  1.00  0.00     0.019 A 
HETATM   28  C24 UNL     1       9.796 -22.743  18.689  1.00  0.00     0.019 A 
HETATM   29  C25 UNL     1      10.524 -21.563  18.873  1.00  0.00     0.096 A 
ENDBRANCH  22  25
ENDBRANCH  16  19
BRANCH  14  30
HETATM   30  O2  UNL     1      17.719 -18.795  22.035  1.00  0.00    -0.392 OA
ATOM     31  H2  UNL     1      17.258 -18.688  21.211  1.00  0.00     0.210 HD
ENDBRANCH  14  30
BRANCH   1  32
HETATM   32  C5  UNL     1      14.985 -14.463  20.016  1.00  0.00     0.117 C 
BRANCH  32  33
HETATM   33  C4  UNL     1      14.743 -13.120  20.493  1.00  0.00     0.220 C 
HETATM   34  N1  UNL     1      13.695 -12.759  21.376  1.00  0.00    -0.357 N 
HETATM   35  C3  UNL     1      12.759 -13.741  21.872  1.00  0.00     0.152 C 
HETATM   36  O1  UNL     1      15.489 -12.154  20.125  1.00  0.00    -0.273 OA
BRANCH  34  37
HETATM   37  C2  UNL     1      13.514 -11.381  21.830  1.00  0.00     0.120 C 
HETATM   38  C1  UNL     1      12.073 -10.917  21.567  1.00  0.00     0.026 C 
ENDBRANCH  34  37
ENDBRANCH  32  33
ENDBRANCH   1  32
TORSDOF 6
ENDMDL
MODEL 3
REMARK VINA RESULT: -7.677984124      1.712      8.261
REMARK  6 active torsions:
REMARK  status: ('A' for Active; 'I' for Inactive)
REMARK    1  A    between atoms: C2_2  and  N1_3 
REMARK       I    between atoms: N1_3  and  C4_5 
REMARK    2  A    between atoms: C4_5  and  C5_7 
REMARK    3  A    between atoms: C5_7  and  C6_8 
REMARK    4  A    between atoms: C16_21  and  O2_22 
REMARK    5  A    between atoms: N3_25  and  C18_26 
REMARK    6  A    between atoms: C21_29  and  N4_30 
ROOT
HETATM    1  C6  UNL     1      16.144 -14.807  21.540  1.00  0.00     0.087 C 
HETATM    2  C7  UNL     1      17.590 -14.683  21.829  1.00  0.00     0.018 C 
HETATM    3  C8  UNL     1      17.901 -14.643  23.338  1.00  0.00     0.028 C 
HETATM    4  C9  UNL     1      19.369 -14.752  23.536  1.00  0.00    -0.022 C 
HETATM    5  C10 UNL     1      20.035 -15.789  23.960  1.00  0.00    -0.053 C 
HETATM    6  C11 UNL     1      21.523 -15.959  24.181  1.00  0.00     0.036 C 
HETATM    7  C12 UNL     1      21.531 -16.800  25.445  1.00  0.00     0.007 C 
HETATM    8  C13 UNL     1      20.435 -17.781  25.220  1.00  0.00     0.038 C 
HETATM    9  C14 UNL     1      19.441 -17.092  24.343  1.00  0.00     0.214 C 
HETATM   10  N2  UNL     1      19.188 -17.956  23.181  1.00  0.00    -0.065 N 
ATOM     11  H21 UNL     1      19.900 -18.679  23.080  1.00  0.00     0.278 HD
ATOM     12  H22 UNL     1      19.345 -17.467  22.299  1.00  0.00     0.278 HD
HETATM   13  C15 UNL     1      17.881 -18.505  23.258  1.00  0.00     0.266 C 
HETATM   14  C16 UNL     1      17.158 -18.626  21.926  1.00  0.00     0.162 C 
HETATM   15  C17 UNL     1      15.846 -17.897  21.942  1.00  0.00     0.165 C 
HETATM   16  N3  UNL     1      15.492 -17.168  20.767  1.00  0.00    -0.315 N 
HETATM   17  C28 UNL     1      15.952 -15.850  20.480  1.00  0.00     0.229 C 
HETATM   18  O3  UNL     1      16.227 -15.486  19.310  1.00  0.00    -0.273 OA
ENDROOT
BRANCH  16  19
HETATM   19  C18 UNL     1      14.596 -17.784  19.822  1.00  0.00     0.037 A 
HETATM   20  C19 UNL     1      15.015 -18.580  18.778  1.00  0.00     0.032 A 
HETATM   21  C20 UNL     1      14.132 -19.154  17.874  1.00  0.00     0.032 A 
HETATM   22  C21 UNL     1      12.758 -18.945  17.986  1.00  0.00     0.038 A 
HETATM   23  C26 UNL     1      12.373 -18.149  19.037  1.00  0.00     0.032 A 
HETATM   24  C27 UNL     1      13.227 -17.576  19.938  1.00  0.00     0.032 A 
BRANCH  22  25
HETATM   25  N4  UNL     1      11.875 -19.524  17.044  1.00  0.00    -0.333 N 
HETATM   26  C22 UNL     1      11.474 -20.780  16.957  1.00  0.00     0.096 A 
HETATM   27  C23 UNL     1      10.597 -20.948  15.899  1.00  0.00     0.019 A 
HETATM   28  C24 UNL     1      10.469 -19.707  15.315  1.00  0.00     0.019 A 
HETATM   29  C25 UNL     1      11.282 -18.841  16.053  1.00  0.00     0.096 A 
ENDBRANCH  22  25
ENDBRANCH  16  19
BRANCH  14  30
HETATM   30  O2  UNL     1      17.966 -18.402  20.854  1.00  0.00    -0.392 OA
ATOM     31  H2  UNL     1      18.217 -19.199  20.402  1.00  0.00     0.210 HD
ENDBRANCH  14  30
BRANCH   1  32
HETATM   32  C5  UNL     1      15.374 -13.564  21.287  1.00  0.00     0.117 C 
BRANCH  32  33
HETATM   33  C4  UNL     1      13.991 -13.495  21.703  1.00  0.00     0.220 C 
HETATM   34  N1  UNL     1      13.263 -12.291  21.872  1.00  0.00    -0.357 N 
HETATM   35  C3  UNL     1      13.877 -11.004  21.641  1.00  0.00     0.152 C 
HETATM   36  O1  UNL     1      13.332 -14.558  21.950  1.00  0.00    -0.273 OA
BRANCH  34  37
HETATM   37  C2  UNL     1      11.860 -12.293  22.283  1.00  0.00     0.120 C 
HETATM   38  C1  UNL     1      11.687 -11.509  23.593  1.00  0.00     0.026 C 
ENDBRANCH  34  37
ENDBRANCH  32  33
ENDBRANCH   1  32
TORSDOF 6
ENDMDL
MODEL 4
REMARK VINA RESULT: -7.376458370      2.106      8.485
REMARK  6 active torsions:
REMARK  status: ('A' for Active; 'I' for Inactive)
REMARK    1  A    between atoms: C2_2  and  N1_3 
REMARK       I    between atoms: N1_3  and  C4_5 
REMARK    2  A    between atoms: C4_5  and  C5_7 
REMARK    3  A    between atoms: C5_7  and  C6_8 
REMARK    4  A    between atoms: C16_21  and  O2_22 
REMARK    5  A    between atoms: N3_25  and  C18_26 
REMARK    6  A    between atoms: C21_29  and  N4_30 
ROOT
HETATM    1  C6  UNL     1      17.643 -14.856  21.989  1.00  0.00     0.087 C 
HETATM    2  C7  UNL     1      19.093 -14.926  22.281  1.00  0.00     0.018 C 
HETATM    3  C8  UNL     1      19.413 -14.769  23.781  1.00  0.00     0.028 C 
HETATM    4  C9  UNL     1      20.847 -15.082  24.007  1.00  0.00    -0.022 C 
HETATM    5  C10 UNL     1      21.346 -16.156  24.550  1.00  0.00    -0.053 C 
HETATM    6  C11 UNL     1      22.791 -16.529  24.807  1.00  0.00     0.036 C 
HETATM    7  C12 UNL     1      22.674 -17.217  26.156  1.00  0.00     0.007 C 
HETATM    8  C13 UNL     1      21.438 -18.036  26.025  1.00  0.00     0.038 C 
HETATM    9  C14 UNL     1      20.559 -17.302  25.066  1.00  0.00     0.214 C 
HETATM   10  N2  UNL     1      20.170 -18.239  24.001  1.00  0.00    -0.065 N 
ATOM     11  H21 UNL     1      20.761 -19.069  23.988  1.00  0.00     0.278 HD
ATOM     12  H22 UNL     1      20.397 -17.879  23.074  1.00  0.00     0.278 HD
HETATM   13  C15 UNL     1      18.794 -18.567  24.121  1.00  0.00     0.266 C 
HETATM   14  C16 UNL     1      18.055 -18.720  22.801  1.00  0.00     0.162 C 
HETATM   15  C17 UNL     1      16.872 -17.800  22.721  1.00  0.00     0.165 C 
HETATM   16  N3  UNL     1      16.630 -17.158  21.470  1.00  0.00    -0.315 N 
HETATM   17  C28 UNL     1      17.288 -15.966  21.046  1.00  0.00     0.229 C 
HETATM   18  O3  UNL     1      17.610 -15.779  19.847  1.00  0.00    -0.273 OA
ENDROOT
BRANCH  16  19
HETATM   19  C18 UNL     1      15.645 -17.728  20.587  1.00  0.00     0.037 A 
HETATM   20  C19 UNL     1      15.903 -18.776  19.729  1.00  0.00     0.032 A 
HETATM   21  C20 UNL     1      14.939 -19.302  18.880  1.00  0.00     0.032 A 
HETATM   22  C21 UNL     1      13.646 -18.780  18.856  1.00  0.00     0.038 A 
HETATM   23  C26 UNL     1      13.421 -17.738  19.723  1.00  0.00     0.032 A 
HETATM   24  C27 UNL     1      14.357 -17.208  20.568  1.00  0.00     0.032 A 
BRANCH  22  25
HETATM   25  N4  UNL     1      12.682 -19.317  17.970  1.00  0.00    -0.333 N 
HETATM   26  C22 UNL     1      12.384 -20.585  17.751  1.00  0.00     0.096 A 
HETATM   27  C23 UNL     1      11.372 -20.701  16.813  1.00  0.00     0.019 A 
HETATM   28  C24 UNL     1      11.048 -19.413  16.447  1.00  0.00     0.019 A 
HETATM   29  C25 UNL     1      11.885 -18.573  17.188  1.00  0.00     0.096 A 
ENDBRANCH  22  25
ENDBRANCH  16  19
BRANCH  14  30
HETATM   30  O2  UNL     1      18.884 -18.743  21.721  1.00  0.00    -0.392 OA
ATOM     31  H2  UNL     1      18.558 -18.234  20.989  1.00  0.00     0.210 HD
ENDBRANCH  14  30
BRANCH   1  32
HETATM   32  C5  UNL     1      17.074 -13.544  21.593  1.00  0.00     0.117 C 
BRANCH  32  33
HETATM   33  C4  UNL     1      15.663 -13.449  21.298  1.00  0.00     0.220 C 
HETATM   34  N1  UNL     1      15.128 -13.173  20.015  1.00  0.00    -0.357 N 
HETATM   35  C3  UNL     1      15.988 -12.950  18.876  1.00  0.00     0.152 C 
HETATM   36  O1  UNL     1      14.793 -13.614  22.216  1.00  0.00    -0.273 OA
BRANCH  34  37
HETATM   37  C2  UNL     1      13.686 -13.103  19.783  1.00  0.00     0.120 C 
HETATM   38  C1  UNL     1      13.145 -11.723  20.191  1.00  0.00     0.026 C 
ENDBRANCH  34  37
ENDBRANCH  32  33
ENDBRANCH   1  32
TORSDOF 6
ENDMDL
MODEL 5
REMARK VINA RESULT: -7.374372706      4.050      6.243
REMARK  6 active torsions:
REMARK  status: ('A' for Active; 'I' for Inactive)
REMARK    1  A    between atoms: C2_2  and  N1_3 
REMARK       I    between atoms: N1_3  and  C4_5 
REMARK    2  A    between atoms: C4_5  and  C5_7 
REMARK    3  A    between atoms: C5_7  and  C6_8 
REMARK    4  A    between atoms: C16_21  and  O2_22 
REMARK    5  A    between atoms: N3_25  and  C18_26 
REMARK    6  A    between atoms: C21_29  and  N4_30 
ROOT
HETATM    1  C6  UNL     1      15.279 -14.779  21.019  1.00  0.00     0.087 C 
HETATM    2  C7  UNL     1      15.666 -14.570  19.606  1.00  0.00     0.018 C 
HETATM    3  C8  UNL     1      16.475 -13.276  19.388  1.00  0.00     0.028 C 
HETATM    4  C9  UNL     1      17.014 -13.266  18.003  1.00  0.00    -0.022 C 
HETATM    5  C10 UNL     1      18.245 -13.476  17.632  1.00  0.00    -0.053 C 
HETATM    6  C11 UNL     1      18.850 -13.478  16.244  1.00  0.00     0.036 C 
HETATM    7  C12 UNL     1      20.192 -12.821  16.515  1.00  0.00     0.007 C 
HETATM    8  C13 UNL     1      20.630 -13.436  17.798  1.00  0.00     0.038 C 
HETATM    9  C14 UNL     1      19.378 -13.768  18.543  1.00  0.00     0.214 C 
HETATM   10  N2  UNL     1      19.441 -15.187  18.923  1.00  0.00    -0.065 N 
ATOM     11  H21 UNL     1      20.155 -15.692  18.399  1.00  0.00     0.278 HD
ATOM     12  H22 UNL     1      18.624 -15.706  18.599  1.00  0.00     0.278 HD
HETATM   13  C15 UNL     1      19.625 -15.308  20.325  1.00  0.00     0.266 C 
HETATM   14  C16 UNL     1      18.875 -16.462  20.973  1.00  0.00     0.162 C 
HETATM   15  C17 UNL     1      17.970 -15.984  22.070  1.00  0.00     0.165 C 
HETATM   16  N3  UNL     1      16.684 -16.596  22.167  1.00  0.00    -0.315 N 
HETATM   17  C28 UNL     1      15.556 -16.205  21.388  1.00  0.00     0.229 C 
HETATM   18  O3  UNL     1      14.724 -17.044  20.963  1.00  0.00    -0.273 OA
ENDROOT
BRANCH  16  19
HETATM   19  C18 UNL     1      16.501 -17.657  23.124  1.00  0.00     0.037 A 
HETATM   20  C19 UNL     1      15.514 -18.614  23.025  1.00  0.00     0.032 A 
HETATM   21  C20 UNL     1      15.351 -19.621  23.967  1.00  0.00     0.032 A 
HETATM   22  C21 UNL     1      16.194 -19.706  25.075  1.00  0.00     0.038 A 
HETATM   23  C26 UNL     1      17.167 -18.739  25.144  1.00  0.00     0.032 A 
HETATM   24  C27 UNL     1      17.344 -17.741  24.225  1.00  0.00     0.032 A 
BRANCH  22  25
HETATM   25  N4  UNL     1      16.000 -20.728  26.034  1.00  0.00    -0.333 N 
HETATM   26  C22 UNL     1      16.906 -21.504  26.603  1.00  0.00     0.096 A 
HETATM   27  C23 UNL     1      16.317 -22.377  27.501  1.00  0.00     0.019 A 
HETATM   28  C24 UNL     1      14.968 -22.104  27.463  1.00  0.00     0.019 A 
HETATM   29  C25 UNL     1      14.804 -21.069  26.536  1.00  0.00     0.096 A 
ENDBRANCH  22  25
ENDBRANCH  16  19
BRANCH  14  30
HETATM   30  O2  UNL     1      18.335 -17.325  20.069  1.00  0.00    -0.392 OA
ATOM     31  H2  UNL     1      18.921 -18.033  19.832  1.00  0.00     0.210 HD
ENDBRANCH  14  30
BRANCH   1  32
HETATM   32  C5  UNL     1      13.940 -14.309  21.452  1.00  0.00     0.117 C 
BRANCH  32  33
HETATM   33  C4  UNL     1      13.776 -12.933  21.862  1.00  0.00     0.220 C 
HETATM   34  N1  UNL     1      12.541 -12.353  22.247  1.00  0.00    -0.357 N 
HETATM   35  C3  UNL     1      11.318 -13.122  22.248  1.00  0.00     0.152 C 
HETATM   36  O1  UNL     1      14.773 -12.140  21.896  1.00  0.00    -0.273 OA
BRANCH  34  37
HETATM   37  C2  UNL     1      12.447 -10.955  22.663  1.00  0.00     0.120 C 
HETATM   38  C1  UNL     1      11.718 -10.846  24.012  1.00  0.00     0.026 C 
ENDBRANCH  34  37
ENDBRANCH  32  33
ENDBRANCH   1  32
TORSDOF 6
ENDMDL
