MODEL 1
REMARK VINA RESULT: -8.497323304      0.000      0.000
REMARK  8 active torsions:
REMARK  status: ('A' for Active; 'I' for Inactive)
REMARK    1  A    between atoms: C2_2  and  O1_3 
REMARK    2  A    between atoms: O1_3  and  C3_4 
REMARK    3  A    between atoms: C3_4  and  C4_6 
REMARK    4  A    between atoms: C5_7  and  C6_8 
REMARK    5  A    between atoms: C13_22  and  N3_23 
REMARK       I    between atoms: N3_23  and  C14_25 
REMARK    6  A    between atoms: C14_25  and  C15_27 
REMARK    7  A    between atoms: C16_28  and  O6_29 
REMARK    8  A    between atoms: C19_35  and  O9_36 
ROOT
HETATM    1  C4  UNL     1      19.872 -16.126  23.278  1.00  0.00     0.061 C 
HETATM    2  C5  UNL     1      20.496 -15.869  24.409  1.00  0.00     0.069 C 
HETATM    3  O3  UNL     1      20.473 -16.783  25.511  1.00  0.00    -0.287 OA
HETATM    4  C8  UNL     1      19.790 -17.970  25.411  1.00  0.00     0.243 C 
HETATM    5  F1  UNL     1      19.727 -18.891  26.405  1.00  0.00    -0.177 F 
HETATM    6  C9  UNL     1      19.130 -18.282  24.270  1.00  0.00     0.088 C 
HETATM    7  C10 UNL     1      18.407 -19.551  24.183  1.00  0.00     0.258 C 
HETATM    8  O4  UNL     1      18.840 -20.573  24.692  1.00  0.00    -0.267 OA
HETATM    9  N1  UNL     1      17.153 -19.420  23.438  1.00  0.00    -0.316 N 
ATOM     10  H1  UNL     1      16.535 -20.223  23.328  1.00  0.00     0.169 HD
HETATM   11  C11 UNL     1      16.809 -18.181  22.878  1.00  0.00     0.099 C 
HETATM   12  C12 UNL     1      17.556 -17.111  22.902  1.00  0.00     0.055 C 
HETATM   13  N2  UNL     1      16.980 -15.977  22.334  1.00  0.00    -0.360 N 
ATOM     14  H2  UNL     1      17.283 -15.037  22.591  1.00  0.00     0.162 HD
HETATM   15  C13 UNL     1      15.932 -16.198  21.365  1.00  0.00     0.255 C 
HETATM   16  S1  UNL     1      15.282 -17.763  22.018  1.00  0.00    -0.064 SA
HETATM   17  C20 UNL     1      19.035 -17.333  23.187  1.00  0.00     0.123 C 
ENDROOT
BRANCH  15  18
HETATM   18  N3  UNL     1      14.863 -15.227  21.488  1.00  0.00    -0.330 N 
HETATM   19  C14 UNL     1      15.044 -13.841  21.400  1.00  0.00     0.229 C 
HETATM   20  O5  UNL     1      16.192 -13.377  21.202  1.00  0.00    -0.273 OA
ATOM     21  H3  UNL     1      13.918 -15.575  21.648  1.00  0.00     0.165 HD
BRANCH  19  22
HETATM   22  C15 UNL     1      13.916 -12.918  21.533  1.00  0.00     0.147 C 
HETATM   23  C16 UNL     1      12.617 -13.590  21.837  1.00  0.00     0.158 C 
HETATM   24  C17 UNL     1      11.488 -12.619  21.897  1.00  0.00     0.211 C 
HETATM   25  O7  UNL     1      11.822 -11.293  21.566  1.00  0.00    -0.317 OA
HETATM   26  C18 UNL     1      12.805 -11.001  20.634  1.00  0.00     0.288 C 
HETATM   27  O8  UNL     1      12.971  -9.873  20.114  1.00  0.00    -0.262 OA
HETATM   28  C19 UNL     1      13.708 -12.113  20.242  1.00  0.00     0.233 C 
BRANCH  23  29
HETATM   29  O6  UNL     1      12.692 -14.269  23.061  1.00  0.00    -0.392 OA
ATOM     30  H6  UNL     1      12.003 -14.919  23.122  1.00  0.00     0.210 HD
ENDBRANCH  23  29
BRANCH  28  31
HETATM   31  O9  UNL     1      12.958 -12.902  19.345  1.00  0.00    -0.385 OA
ATOM     32  H9  UNL     1      12.569 -12.327  18.696  1.00  0.00     0.210 HD
ENDBRANCH  28  31
ENDBRANCH  19  22
ENDBRANCH  15  18
BRANCH   1  33
HETATM   33  C3  UNL     1      19.905 -15.243  22.132  1.00  0.00     0.292 C 
HETATM   34  O2  UNL     1      19.397 -14.104  22.166  1.00  0.00    -0.259 OA
BRANCH  33  35
HETATM   35  O1  UNL     1      20.503 -15.555  20.907  1.00  0.00    -0.318 OA
BRANCH  35  36
HETATM   36  C2  UNL     1      19.738 -15.907  19.770  1.00  0.00     0.174 C 
HETATM   37  C1  UNL     1      19.841 -14.878  18.690  1.00  0.00     0.034 C 
ENDBRANCH  35  36
ENDBRANCH  33  35
ENDBRANCH   1  33
BRANCH   2  38
HETATM   38  C6  UNL     1      21.288 -14.642  24.635  1.00  0.00     0.061 C 
HETATM   39  C7  UNL     1      21.009 -13.997  25.987  1.00  0.00     0.012 C 
ENDBRANCH   2  38
TORSDOF 8
ENDMDL
MODEL 2
REMARK VINA RESULT: -8.190211789      5.172      7.568
REMARK  8 active torsions:
REMARK  status: ('A' for Active; 'I' for Inactive)
REMARK    1  A    between atoms: C2_2  and  O1_3 
REMARK    2  A    between atoms: O1_3  and  C3_4 
REMARK    3  A    between atoms: C3_4  and  C4_6 
REMARK    4  A    between atoms: C5_7  and  C6_8 
REMARK    5  A    between atoms: C13_22  and  N3_23 
REMARK       I    between atoms: N3_23  and  C14_25 
REMARK    6  A    between atoms: C14_25  and  C15_27 
REMARK    7  A    between atoms: C16_28  and  O6_29 
REMARK    8  A    between atoms: C19_35  and  O9_36 
ROOT
HETATM    1  C4  UNL     1      15.935 -14.124  20.179  1.00  0.00     0.061 C 
HETATM    2  C5  UNL     1      15.306 -15.139  20.736  1.00  0.00     0.069 C 
HETATM    3  O3  UNL     1      16.001 -16.314  21.166  1.00  0.00    -0.287 OA
HETATM    4  C8  UNL     1      17.361 -16.411  21.009  1.00  0.00     0.243 C 
HETATM    5  F1  UNL     1      18.092 -17.487  21.397  1.00  0.00    -0.177 F 
HETATM    6  C9  UNL     1      18.055 -15.395  20.441  1.00  0.00     0.088 C 
HETATM    7  C10 UNL     1      19.504 -15.517  20.281  1.00  0.00     0.258 C 
HETATM    8  O4  UNL     1      20.200 -16.060  21.125  1.00  0.00    -0.267 OA
HETATM    9  N1  UNL     1      19.971 -14.927  19.025  1.00  0.00    -0.316 N 
ATOM     10  H1  UNL     1      20.958 -14.970  18.773  1.00  0.00     0.169 HD
HETATM   11  C11 UNL     1      19.050 -14.302  18.172  1.00  0.00     0.099 C 
HETATM   12  C12 UNL     1      17.781 -14.133  18.428  1.00  0.00     0.055 C 
HETATM   13  N2  UNL     1      17.046 -13.540  17.405  1.00  0.00    -0.360 N 
ATOM     14  H2  UNL     1      16.037 -13.669  17.326  1.00  0.00     0.162 HD
HETATM   15  C13 UNL     1      17.784 -12.733  16.459  1.00  0.00     0.255 C 
HETATM   16  S1  UNL     1      19.376 -13.605  16.543  1.00  0.00    -0.064 SA
HETATM   17  C20 UNL     1      17.372 -14.250  19.890  1.00  0.00     0.123 C 
ENDROOT
BRANCH  15  18
HETATM   18  N3  UNL     1      17.297 -12.899  15.105  1.00  0.00    -0.330 N 
HETATM   19  C14 UNL     1      16.465 -11.982  14.450  1.00  0.00     0.229 C 
HETATM   20  O5  UNL     1      16.101 -10.939  15.045  1.00  0.00    -0.273 OA
ATOM     21  H3  UNL     1      17.577 -13.737  14.596  1.00  0.00     0.165 HD
BRANCH  19  22
HETATM   22  C15 UNL     1      16.011 -12.214  13.078  1.00  0.00     0.147 C 
HETATM   23  C16 UNL     1      14.527 -12.152  12.912  1.00  0.00     0.158 C 
HETATM   24  C17 UNL     1      14.109 -12.460  11.516  1.00  0.00     0.211 C 
HETATM   25  O7  UNL     1      15.150 -12.843  10.651  1.00  0.00    -0.317 OA
HETATM   26  C18 UNL     1      16.254 -13.545  11.107  1.00  0.00     0.288 C 
HETATM   27  O8  UNL     1      17.076 -14.128  10.362  1.00  0.00    -0.262 OA
HETATM   28  C19 UNL     1      16.456 -13.596  12.577  1.00  0.00     0.233 C 
BRANCH  23  29
HETATM   29  O6  UNL     1      14.050 -10.880  13.256  1.00  0.00    -0.392 OA
ATOM     30  H6  UNL     1      13.674 -10.891  14.128  1.00  0.00     0.210 HD
ENDBRANCH  23  29
BRANCH  28  31
HETATM   31  O9  UNL     1      15.533 -14.555  13.045  1.00  0.00    -0.385 OA
ATOM     32  H9  UNL     1      16.010 -15.210  13.540  1.00  0.00     0.210 HD
ENDBRANCH  28  31
ENDBRANCH  19  22
ENDBRANCH  15  18
BRANCH   1  33
HETATM   33  C3  UNL     1      15.271 -12.905  19.767  1.00  0.00     0.292 C 
HETATM   34  O2  UNL     1      14.662 -12.825  18.682  1.00  0.00    -0.259 OA
BRANCH  33  35
HETATM   35  O1  UNL     1      15.229 -11.730  20.523  1.00  0.00    -0.318 OA
BRANCH  35  36
HETATM   36  C2  UNL     1      14.230 -11.504  21.498  1.00  0.00     0.174 C 
HETATM   37  C1  UNL     1      13.006 -10.882  20.908  1.00  0.00     0.034 C 
ENDBRANCH  35  36
ENDBRANCH  33  35
ENDBRANCH   1  33
BRANCH   2  38
HETATM   38  C6  UNL     1      13.850 -15.150  20.987  1.00  0.00     0.061 C 
HETATM   39  C7  UNL     1      13.313 -16.540  21.301  1.00  0.00     0.012 C 
ENDBRANCH   2  38
TORSDOF 8
ENDMDL
MODEL 3
REMARK VINA RESULT: -8.102271617      1.601      1.755
REMARK  8 active torsions:
REMARK  status: ('A' for Active; 'I' for Inactive)
REMARK    1  A    between atoms: C2_2  and  O1_3 
REMARK    2  A    between atoms: O1_3  and  C3_4 
REMARK    3  A    between atoms: C3_4  and  C4_6 
REMARK    4  A    between atoms: C5_7  and  C6_8 
REMARK    5  A    between atoms: C13_22  and  N3_23 
REMARK       I    between atoms: N3_23  and  C14_25 
REMARK    6  A    between atoms: C14_25  and  C15_27 
REMARK    7  A    between atoms: C16_28  and  O6_29 
REMARK    8  A    between atoms: C19_35  and  O9_36 
ROOT
HETATM    1  C4  UNL     1      20.211 -15.856  22.222  1.00  0.00     0.061 C 
HETATM    2  C5  UNL     1      20.872 -16.050  23.345  1.00  0.00     0.069 C 
HETATM    3  O3  UNL     1      21.038 -17.355  23.909  1.00  0.00    -0.287 OA
HETATM    4  C8  UNL     1      20.506 -18.454  23.281  1.00  0.00     0.243 C 
HETATM    5  F1  UNL     1      20.625 -19.723  23.747  1.00  0.00    -0.177 F 
HETATM    6  C9  UNL     1      19.815 -18.309  22.124  1.00  0.00     0.088 C 
HETATM    7  C10 UNL     1      19.254 -19.491  21.471  1.00  0.00     0.258 C 
HETATM    8  O4  UNL     1      19.845 -20.560  21.457  1.00  0.00    -0.267 OA
HETATM    9  N1  UNL     1      17.947 -19.219  20.870  1.00  0.00    -0.316 N 
ATOM     10  H1  UNL     1      17.429 -19.966  20.408  1.00  0.00     0.169 HD
HETATM   11  C11 UNL     1      17.413 -17.924  20.936  1.00  0.00     0.099 C 
HETATM   12  C12 UNL     1      18.018 -16.885  21.443  1.00  0.00     0.055 C 
HETATM   13  N2  UNL     1      17.267 -15.712  21.456  1.00  0.00    -0.360 N 
ATOM     14  H2  UNL     1      17.465 -14.956  22.112  1.00  0.00     0.162 HD
HETATM   15  C13 UNL     1      16.192 -15.620  20.494  1.00  0.00     0.255 C 
HETATM   16  S1  UNL     1      15.791 -17.387  20.364  1.00  0.00    -0.064 SA
HETATM   17  C20 UNL     1      19.529 -16.998  21.593  1.00  0.00     0.123 C 
ENDROOT
BRANCH  15  18
HETATM   18  N3  UNL     1      15.020 -14.972  21.048  1.00  0.00    -0.330 N 
HETATM   19  C14 UNL     1      14.970 -13.624  21.425  1.00  0.00     0.229 C 
HETATM   20  O5  UNL     1      15.987 -12.903  21.287  1.00  0.00    -0.273 OA
ATOM     21  H3  UNL     1      14.178 -15.534  21.171  1.00  0.00     0.165 HD
BRANCH  19  22
HETATM   22  C15 UNL     1      13.749 -13.036  21.978  1.00  0.00     0.147 C 
HETATM   23  C16 UNL     1      12.494 -13.525  21.331  1.00  0.00     0.158 C 
HETATM   24  C17 UNL     1      11.285 -12.850  21.879  1.00  0.00     0.211 C 
HETATM   25  O7  UNL     1      11.541 -11.828  22.811  1.00  0.00    -0.317 OA
HETATM   26  C18 UNL     1      12.675 -11.036  22.729  1.00  0.00     0.288 C 
HETATM   27  O8  UNL     1      12.834  -9.965  23.360  1.00  0.00    -0.262 OA
HETATM   28  C19 UNL     1      13.758 -11.507  21.829  1.00  0.00     0.233 C 
BRANCH  23  29
HETATM   29  O6  UNL     1      12.359 -14.908  21.511  1.00  0.00    -0.392 OA
ATOM     30  H6  UNL     1      12.595 -15.151  22.398  1.00  0.00     0.210 HD
ENDBRANCH  23  29
BRANCH  28  31
HETATM   31  O9  UNL     1      13.324 -11.187  20.526  1.00  0.00    -0.385 OA
ATOM     32  H9  UNL     1      13.929 -11.576  19.906  1.00  0.00     0.210 HD
ENDBRANCH  28  31
ENDBRANCH  19  22
ENDBRANCH  15  18
BRANCH   1  33
HETATM   33  C3  UNL     1      20.056 -14.557  21.603  1.00  0.00     0.292 C 
HETATM   34  O2  UNL     1      19.196 -13.743  21.994  1.00  0.00    -0.259 OA
BRANCH  33  35
HETATM   35  O1  UNL     1      20.837 -14.084  20.545  1.00  0.00    -0.318 OA
BRANCH  35  36
HETATM   36  C2  UNL     1      20.268 -13.714  19.304  1.00  0.00     0.174 C 
HETATM   37  C1  UNL     1      19.690 -14.889  18.583  1.00  0.00     0.034 C 
ENDBRANCH  35  36
ENDBRANCH  33  35
ENDBRANCH   1  33
BRANCH   2  38
HETATM   38  C6  UNL     1      21.517 -14.957  24.103  1.00  0.00     0.061 C 
HETATM   39  C7  UNL     1      20.671 -14.469  25.272  1.00  0.00     0.012 C 
ENDBRANCH   2  38
TORSDOF 8
ENDMDL
MODEL 4
REMARK VINA RESULT: -7.880971377      2.336      3.997
REMARK  8 active torsions:
REMARK  status: ('A' for Active; 'I' for Inactive)
REMARK    1  A    between atoms: C2_2  and  O1_3 
REMARK    2  A    between atoms: O1_3  and  C3_4 
REMARK    3  A    between atoms: C3_4  and  C4_6 
REMARK    4  A    between atoms: C5_7  and  C6_8 
REMARK    5  A    between atoms: C13_22  and  N3_23 
REMARK       I    between atoms: N3_23  and  C14_25 
REMARK    6  A    between atoms: C14_25  and  C15_27 
REMARK    7  A    between atoms: C16_28  and  O6_29 
REMARK    8  A    between atoms: C19_35  and  O9_36 
ROOT
HETATM    1  C4  UNL     1      19.281 -17.848  24.310  1.00  0.00     0.061 C 
HETATM    2  C5  UNL     1      18.828 -19.001  24.757  1.00  0.00     0.069 C 
HETATM    3  O3  UNL     1      19.186 -20.244  24.143  1.00  0.00    -0.287 OA
HETATM    4  C8  UNL     1      20.027 -20.263  23.058  1.00  0.00     0.243 C 
HETATM    5  F1  UNL     1      20.418 -21.398  22.426  1.00  0.00    -0.177 F 
HETATM    6  C9  UNL     1      20.520 -19.105  22.558  1.00  0.00     0.088 C 
HETATM    7  C10 UNL     1      21.414 -19.146  21.401  1.00  0.00     0.258 C 
HETATM    8  O4  UNL     1      22.242 -20.032  21.259  1.00  0.00    -0.267 OA
HETATM    9  N1  UNL     1      21.179 -18.028  20.485  1.00  0.00    -0.316 N 
ATOM     10  H1  UNL     1      21.714 -17.952  19.620  1.00  0.00     0.169 HD
HETATM   11  C11 UNL     1      20.213 -17.063  20.806  1.00  0.00     0.099 C 
HETATM   12  C12 UNL     1      19.523 -17.029  21.913  1.00  0.00     0.055 C 
HETATM   13  N2  UNL     1      18.574 -16.012  21.986  1.00  0.00    -0.360 N 
ATOM     14  H2  UNL     1      17.762 -16.080  22.600  1.00  0.00     0.162 HD
HETATM   15  C13 UNL     1      18.797 -14.856  21.147  1.00  0.00     0.255 C 
HETATM   16  S1  UNL     1      19.686 -15.672  19.790  1.00  0.00    -0.064 SA
HETATM   17  C20 UNL     1      20.087 -17.831  23.079  1.00  0.00     0.123 C 
ENDROOT
BRANCH  15  18
HETATM   18  N3  UNL     1      17.563 -14.347  20.583  1.00  0.00    -0.330 N 
HETATM   19  C14 UNL     1      16.411 -14.069  21.330  1.00  0.00     0.229 C 
HETATM   20  O5  UNL     1      16.415 -14.261  22.569  1.00  0.00    -0.273 OA
ATOM     21  H3  UNL     1      17.531 -14.181  19.577  1.00  0.00     0.165 HD
BRANCH  19  22
HETATM   22  C15 UNL     1      15.199 -13.555  20.692  1.00  0.00     0.147 C 
HETATM   23  C16 UNL     1      14.916 -12.120  20.996  1.00  0.00     0.158 C 
HETATM   24  C17 UNL     1      13.639 -11.661  20.381  1.00  0.00     0.211 C 
HETATM   25  O7  UNL     1      12.898 -12.660  19.726  1.00  0.00    -0.317 OA
HETATM   26  C18 UNL     1      12.905 -13.976  20.161  1.00  0.00     0.288 C 
HETATM   27  O8  UNL     1      12.085 -14.847  19.788  1.00  0.00    -0.262 OA
HETATM   28  C19 UNL     1      13.964 -14.354  21.133  1.00  0.00     0.233 C 
BRANCH  23  29
HETATM   29  O6  UNL     1      15.958 -11.307  20.531  1.00  0.00    -0.392 OA
ATOM     30  H6  UNL     1      16.771 -11.798  20.498  1.00  0.00     0.210 HD
ENDBRANCH  23  29
BRANCH  28  31
HETATM   31  O9  UNL     1      13.527 -13.845  22.373  1.00  0.00    -0.385 OA
ATOM     32  H9  UNL     1      13.873 -14.400  23.062  1.00  0.00     0.210 HD
ENDBRANCH  28  31
ENDBRANCH  19  22
ENDBRANCH  15  18
BRANCH   1  33
HETATM   33  C3  UNL     1      18.972 -16.577  24.928  1.00  0.00     0.292 C 
HETATM   34  O2  UNL     1      17.821 -16.096  24.897  1.00  0.00    -0.259 OA
BRANCH  33  35
HETATM   35  O1  UNL     1      19.894 -15.784  25.617  1.00  0.00    -0.318 OA
BRANCH  35  36
HETATM   36  C2  UNL     1      20.314 -14.527  25.123  1.00  0.00     0.174 C 
HETATM   37  C1  UNL     1      21.073 -13.750  26.150  1.00  0.00     0.034 C 
ENDBRANCH  35  36
ENDBRANCH  33  35
ENDBRANCH   1  33
BRANCH   2  38
HETATM   38  C6  UNL     1      17.939 -19.121  25.932  1.00  0.00     0.061 C 
HETATM   39  C7  UNL     1      16.726 -20.003  25.669  1.00  0.00     0.012 C 
ENDBRANCH   2  38
TORSDOF 8
ENDMDL
MODEL 5
REMARK VINA RESULT: -7.729069940      1.035      1.688
REMARK  8 active torsions:
REMARK  status: ('A' for Active; 'I' for Inactive)
REMARK    1  A    between atoms: C2_2  and  O1_3 
REMARK    2  A    between atoms: O1_3  and  C3_4 
REMARK    3  A    between atoms: C3_4  and  C4_6 
REMARK    4  A    between atoms: C5_7  and  C6_8 
REMARK    5  A    between atoms: C13_22  and  N3_23 
REMARK       I    between atoms: N3_23  and  C14_25 
REMARK    6  A    between atoms: C14_25  and  C15_27 
REMARK    7  A    between atoms: C16_28  and  O6_29 
REMARK    8  A    between atoms: C19_35  and  O9_36 
ROOT
HETATM    1  C4  UNL     1      19.244 -15.832  23.154  1.00  0.00     0.061 C 
HETATM    2  C5  UNL     1      19.796 -15.610  24.330  1.00  0.00     0.069 C 
HETATM    3  O3  UNL     1      19.701 -16.555  25.401  1.00  0.00    -0.287 OA
HETATM    4  C8  UNL     1      19.025 -17.736  25.224  1.00  0.00     0.243 C 
HETATM    5  F1  UNL     1      18.896 -18.685  26.186  1.00  0.00    -0.177 F 
HETATM    6  C9  UNL     1      18.438 -18.013  24.035  1.00  0.00     0.088 C 
HETATM    7  C10 UNL     1      17.720 -19.277  23.866  1.00  0.00     0.258 C 
HETATM    8  O4  UNL     1      18.118 -20.315  24.372  1.00  0.00    -0.267 OA
HETATM    9  N1  UNL     1      16.516 -19.120  23.047  1.00  0.00    -0.316 N 
ATOM     10  H1  UNL     1      15.905 -19.918  22.875  1.00  0.00     0.169 HD
HETATM   11  C11 UNL     1      16.211 -17.865  22.501  1.00  0.00     0.099 C 
HETATM   12  C12 UNL     1      16.956 -16.798  22.604  1.00  0.00     0.055 C 
HETATM   13  N2  UNL     1      16.419 -15.647  22.033  1.00  0.00    -0.360 N 
ATOM     14  H2  UNL     1      16.707 -14.715  22.335  1.00  0.00     0.162 HD
HETATM   15  C13 UNL     1      15.434 -15.836  20.992  1.00  0.00     0.255 C 
HETATM   16  S1  UNL     1      14.742 -17.418  21.558  1.00  0.00    -0.064 SA
HETATM   17  C20 UNL     1      18.414 -17.033  22.976  1.00  0.00     0.123 C 
ENDROOT
BRANCH  15  18
HETATM   18  N3  UNL     1      14.361 -14.866  21.075  1.00  0.00    -0.330 N 
HETATM   19  C14 UNL     1      14.536 -13.484  20.923  1.00  0.00     0.229 C 
HETATM   20  O5  UNL     1      15.681 -13.025  20.699  1.00  0.00    -0.273 OA
ATOM     21  H3  UNL     1      13.419 -15.211  21.255  1.00  0.00     0.165 HD
BRANCH  19  22
HETATM   22  C15 UNL     1      13.405 -12.562  21.018  1.00  0.00     0.147 C 
HETATM   23  C16 UNL     1      13.456 -11.436  20.036  1.00  0.00     0.158 C 
HETATM   24  C17 UNL     1      12.322 -10.488  20.214  1.00  0.00     0.211 C 
HETATM   25  O7  UNL     1      11.483 -10.759  21.310  1.00  0.00    -0.317 OA
HETATM   26  C18 UNL     1      11.970 -11.324  22.478  1.00  0.00     0.288 C 
HETATM   27  O8  UNL     1      11.343 -11.355  23.562  1.00  0.00    -0.262 OA
HETATM   28  C19 UNL     1      13.326 -11.928  22.415  1.00  0.00     0.233 C 
BRANCH  23  29
HETATM   29  O6  UNL     1      13.429 -11.931  18.725  1.00  0.00    -0.392 OA
ATOM     30  H6  UNL     1      13.681 -12.847  18.711  1.00  0.00     0.210 HD
ENDBRANCH  23  29
BRANCH  28  31
HETATM   31  O9  UNL     1      14.219 -10.837  22.457  1.00  0.00    -0.385 OA
ATOM     32  H9  UNL     1      14.893 -10.978  21.802  1.00  0.00     0.210 HD
ENDBRANCH  28  31
ENDBRANCH  19  22
ENDBRANCH  15  18
BRANCH   1  33
HETATM   33  C3  UNL     1      19.352 -14.918  22.038  1.00  0.00     0.292 C 
HETATM   34  O2  UNL     1      18.694 -13.859  21.992  1.00  0.00    -0.259 OA
BRANCH  33  35
HETATM   35  O1  UNL     1      20.189 -15.108  20.934  1.00  0.00    -0.318 OA
BRANCH  35  36
HETATM   36  C2  UNL     1      19.735 -15.739  19.752  1.00  0.00     0.174 C 
HETATM   37  C1  UNL     1      19.773 -14.815  18.578  1.00  0.00     0.034 C 
ENDBRANCH  35  36
ENDBRANCH  33  35
ENDBRANCH   1  33
BRANCH   2  38
HETATM   38  C6  UNL     1      20.574 -14.392  24.641  1.00  0.00     0.061 C 
HETATM   39  C7  UNL     1      20.889 -14.253  26.124  1.00  0.00     0.012 C 
ENDBRANCH   2  38
TORSDOF 8
ENDMDL
