MODEL 1
REMARK VINA RESULT: -8.416620633      0.000      0.000
REMARK  12 active torsions:
REMARK  status: ('A' for Active; 'I' for Inactive)
REMARK    1  A    between atoms: C1_2  and  C2_4 
REMARK    2  A    between atoms: C2_4  and  O2_5 
REMARK    3  A    between atoms: C2_4  and  C12_18 
REMARK    4  A    between atoms: O2_5  and  C3_6 
REMARK    5  A    between atoms: C8_11  and  O3_12 
REMARK    6  A    between atoms: C13_21  and  C14_22 
REMARK    7  A    between atoms: C14_22  and  O5_23 
REMARK    8  A    between atoms: C16_27  and  C17_28 
REMARK    9  A    between atoms: C17_28  and  O6_29 
REMARK   10  A    between atoms: C18_31  and  C19_32 
REMARK   11  A    between atoms: C19_32  and  O7_33 
REMARK   12  A    between atoms: C20_35  and  O8_36 
ROOT
HETATM    1  C12 UNL     1      14.805 -16.130  20.305  1.00  0.00     0.187 A 
HETATM    2  N2  UNL     1      14.871 -14.982  20.949  1.00  0.00    -0.322 N 
ATOM      3  H2  UNL     1      15.640 -14.698  21.554  1.00  0.00     0.169 HD
HETATM    4  C13 UNL     1      13.783 -14.241  20.696  1.00  0.00     0.142 A 
HETATM    5  N3  UNL     1      13.031 -15.027  19.837  1.00  0.00    -0.244 N 
ATOM      6  H3  UNL     1      12.127 -14.771  19.437  1.00  0.00     0.196 HD
HETATM    7  O9  UNL     1      13.652 -16.126  19.627  1.00  0.00    -0.219 OA
ENDROOT
BRANCH   1   8
HETATM    8  C2  UNL     1      15.767 -17.263  20.263  1.00  0.00     0.294 C 
BRANCH   8   9
HETATM    9  C1  UNL     1      15.252 -18.266  21.303  1.00  0.00     0.268 C 
HETATM   10  N1  UNL     1      14.386 -17.840  22.314  1.00  0.00    -0.059 NA
HETATM   11  O1  UNL     1      15.635 -19.432  21.187  1.00  0.00    -0.273 OA
ENDBRANCH   8   9
BRANCH   8  12
HETATM   12  O2  UNL     1      16.994 -16.738  20.698  1.00  0.00    -0.326 OA
BRANCH  12  13
HETATM   13  C3  UNL     1      17.819 -15.880  20.031  1.00  0.00     0.106 A 
HETATM   14  C4  UNL     1      17.480 -15.343  18.820  1.00  0.00     0.077 A 
HETATM   15  C5  UNL     1      18.326 -14.479  18.149  1.00  0.00     0.077 A 
HETATM   16  C6  UNL     1      19.555 -14.125  18.676  1.00  0.00    -0.022 A 
HETATM   17  O4  UNL     1      17.917 -13.978  16.933  1.00  0.00    -0.350 OA
HETATM   18  C7  UNL     1      19.889 -14.667  19.895  1.00  0.00     0.049 A 
HETATM   19  C9  UNL     1      20.514 -13.246  17.917  1.00  0.00     0.043 C 
HETATM   20  C8  UNL     1      19.061 -15.524  20.578  1.00  0.00     0.099 A 
HETATM   21  C10 UNL     1      20.161 -13.461  16.440  1.00  0.00     0.031 C 
HETATM   22  C11 UNL     1      18.717 -13.021  16.270  1.00  0.00     0.176 C 
BRANCH  20  23
HETATM   23  O3  UNL     1      19.403 -16.059  21.800  1.00  0.00    -0.358 OA
ATOM     24  H3  UNL     1      20.327 -16.130  22.009  1.00  0.00     0.217 HD
ENDBRANCH  20  23
ENDBRANCH  12  13
ENDBRANCH   8  12
ENDBRANCH   1   8
BRANCH   4  25
HETATM   25  C14 UNL     1      13.331 -12.886  21.129  1.00  0.00     0.152 C 
HETATM   26  C15 UNL     1      14.481 -11.993  21.439  1.00  0.00     0.123 C 
HETATM   27  S1  UNL     1      13.734 -10.316  21.651  1.00  0.00    -0.158 SA
HETATM   28  C16 UNL     1      12.226 -10.591  22.625  1.00  0.00     0.079 C 
HETATM   29  C18 UNL     1      12.275 -11.951  23.228  1.00  0.00     0.057 C 
HETATM   30  C20 UNL     1      12.357 -13.067  22.268  1.00  0.00     0.168 C 
BRANCH  25  31
HETATM   31  O5  UNL     1      12.572 -12.342  20.067  1.00  0.00    -0.378 OA
ATOM     32  H5  UNL     1      11.657 -12.485  20.276  1.00  0.00     0.211 HD
ENDBRANCH  25  31
BRANCH  28  33
HETATM   33  C17 UNL     1      12.271  -9.575  23.773  1.00  0.00     0.179 C 
BRANCH  33  34
HETATM   34  O6  UNL     1      13.575  -9.087  23.839  1.00  0.00    -0.400 OA
ATOM     35  H6  UNL     1      13.662  -8.634  24.670  1.00  0.00     0.209 HD
ENDBRANCH  33  34
ENDBRANCH  28  33
BRANCH  29  36
HETATM   36  C19 UNL     1      11.027 -12.177  24.080  1.00  0.00     0.172 C 
BRANCH  36  37
HETATM   37  O7  UNL     1      10.205 -13.162  23.584  1.00  0.00    -0.400 OA
ATOM     38  H7  UNL     1       9.548 -13.449  24.207  1.00  0.00     0.209 HD
ENDBRANCH  36  37
ENDBRANCH  29  36
BRANCH  30  39
HETATM   39  O8  UNL     1      12.790 -14.207  22.990  1.00  0.00    -0.392 OA
ATOM     40  H8  UNL     1      12.005 -14.637  23.309  1.00  0.00     0.210 HD
ENDBRANCH  30  39
ENDBRANCH   4  25
TORSDOF 12
ENDMDL
MODEL 2
REMARK VINA RESULT: -8.239555278      2.883      6.289
REMARK  12 active torsions:
REMARK  status: ('A' for Active; 'I' for Inactive)
REMARK    1  A    between atoms: C1_2  and  C2_4 
REMARK    2  A    between atoms: C2_4  and  O2_5 
REMARK    3  A    between atoms: C2_4  and  C12_18 
REMARK    4  A    between atoms: O2_5  and  C3_6 
REMARK    5  A    between atoms: C8_11  and  O3_12 
REMARK    6  A    between atoms: C13_21  and  C14_22 
REMARK    7  A    between atoms: C14_22  and  O5_23 
REMARK    8  A    between atoms: C16_27  and  C17_28 
REMARK    9  A    between atoms: C17_28  and  O6_29 
REMARK   10  A    between atoms: C18_31  and  C19_32 
REMARK   11  A    between atoms: C19_32  and  O7_33 
REMARK   12  A    between atoms: C20_35  and  O8_36 
ROOT
HETATM    1  C12 UNL     1      13.260 -14.042  21.210  1.00  0.00     0.187 A 
HETATM    2  N2  UNL     1      13.585 -15.292  21.471  1.00  0.00    -0.322 N 
ATOM      3  H2  UNL     1      14.159 -15.591  22.259  1.00  0.00     0.169 HD
HETATM    4  C13 UNL     1      13.056 -16.115  20.556  1.00  0.00     0.142 A 
HETATM    5  N3  UNL     1      12.370 -15.269  19.697  1.00  0.00    -0.244 N 
ATOM      6  H3  UNL     1      11.841 -15.561  18.875  1.00  0.00     0.196 HD
HETATM    7  O9  UNL     1      12.507 -14.064  20.104  1.00  0.00    -0.219 OA
ENDROOT
BRANCH   1   8
HETATM    8  C2  UNL     1      13.596 -12.791  21.939  1.00  0.00     0.294 C 
BRANCH   8   9
HETATM    9  C1  UNL     1      12.275 -12.016  22.034  1.00  0.00     0.268 C 
HETATM   10  N1  UNL     1      12.060 -10.900  21.220  1.00  0.00    -0.059 NA
HETATM   11  O1  UNL     1      11.444 -12.432  22.844  1.00  0.00    -0.273 OA
ENDBRANCH   8   9
BRANCH   8  12
HETATM   12  O2  UNL     1      14.480 -12.090  21.105  1.00  0.00    -0.326 OA
BRANCH  12  13
HETATM   13  C3  UNL     1      15.607 -12.563  20.498  1.00  0.00     0.106 A 
HETATM   14  C4  UNL     1      16.747 -12.840  21.201  1.00  0.00     0.077 A 
HETATM   15  C5  UNL     1      17.886 -13.312  20.576  1.00  0.00     0.077 A 
HETATM   16  C6  UNL     1      17.920 -13.523  19.209  1.00  0.00    -0.022 A 
HETATM   17  O4  UNL     1      18.998 -13.569  21.349  1.00  0.00    -0.350 OA
HETATM   18  C7  UNL     1      16.770 -13.245  18.509  1.00  0.00     0.049 A 
HETATM   19  C9  UNL     1      19.179 -13.964  18.510  1.00  0.00     0.043 C 
HETATM   20  C8  UNL     1      15.628 -12.776  19.112  1.00  0.00     0.099 A 
HETATM   21  C10 UNL     1      20.321 -13.467  19.404  1.00  0.00     0.031 C 
HETATM   22  C11 UNL     1      20.142 -14.141  20.754  1.00  0.00     0.176 C 
BRANCH  20  23
HETATM   23  O3  UNL     1      14.480 -12.504  18.401  1.00  0.00    -0.358 OA
ATOM     24  H3  UNL     1      14.116 -11.630  18.465  1.00  0.00     0.217 HD
ENDBRANCH  20  23
ENDBRANCH  12  13
ENDBRANCH   8  12
ENDBRANCH   1   8
BRANCH   4  25
HETATM   25  C14 UNL     1      13.081 -17.595  20.356  1.00  0.00     0.152 C 
HETATM   26  C15 UNL     1      11.717 -18.184  20.432  1.00  0.00     0.123 C 
HETATM   27  S1  UNL     1      11.924 -19.931  19.867  1.00  0.00    -0.158 SA
HETATM   28  C16 UNL     1      13.448 -20.508  20.668  1.00  0.00     0.079 C 
HETATM   29  C18 UNL     1      13.814 -19.565  21.760  1.00  0.00     0.057 C 
HETATM   30  C20 UNL     1      14.068 -18.176  21.338  1.00  0.00     0.168 C 
BRANCH  25  31
HETATM   31  O5  UNL     1      13.636 -17.832  19.077  1.00  0.00    -0.378 OA
ATOM     32  H5  UNL     1      13.167 -18.567  18.702  1.00  0.00     0.211 HD
ENDBRANCH  25  31
BRANCH  28  33
HETATM   33  C17 UNL     1      13.104 -21.855  21.316  1.00  0.00     0.179 C 
BRANCH  33  34
HETATM   34  O6  UNL     1      11.967 -21.656  22.097  1.00  0.00    -0.400 OA
ATOM     35  H6  UNL     1      11.214 -21.765  21.528  1.00  0.00     0.209 HD
ENDBRANCH  33  34
ENDBRANCH  28  33
BRANCH  29  36
HETATM   36  C19 UNL     1      15.076 -20.063  22.463  1.00  0.00     0.172 C 
BRANCH  36  37
HETATM   37  O7  UNL     1      15.117 -19.733  23.797  1.00  0.00    -0.400 OA
ATOM     38  H7  UNL     1      15.851 -20.126  24.256  1.00  0.00     0.209 HD
ENDBRANCH  36  37
ENDBRANCH  29  36
BRANCH  30  39
HETATM   39  O8  UNL     1      14.002 -17.369  22.500  1.00  0.00    -0.392 OA
ATOM     40  H8  UNL     1      14.329 -17.900  23.217  1.00  0.00     0.210 HD
ENDBRANCH  30  39
ENDBRANCH   4  25
TORSDOF 12
ENDMDL
MODEL 3
REMARK VINA RESULT: -8.150075063      2.765      6.995
REMARK  12 active torsions:
REMARK  status: ('A' for Active; 'I' for Inactive)
REMARK    1  A    between atoms: C1_2  and  C2_4 
REMARK    2  A    between atoms: C2_4  and  O2_5 
REMARK    3  A    between atoms: C2_4  and  C12_18 
REMARK    4  A    between atoms: O2_5  and  C3_6 
REMARK    5  A    between atoms: C8_11  and  O3_12 
REMARK    6  A    between atoms: C13_21  and  C14_22 
REMARK    7  A    between atoms: C14_22  and  O5_23 
REMARK    8  A    between atoms: C16_27  and  C17_28 
REMARK    9  A    between atoms: C17_28  and  O6_29 
REMARK   10  A    between atoms: C18_31  and  C19_32 
REMARK   11  A    between atoms: C19_32  and  O7_33 
REMARK   12  A    between atoms: C20_35  and  O8_36 
ROOT
HETATM    1  C12 UNL     1      13.459 -16.657  20.925  1.00  0.00     0.187 A 
HETATM    2  N2  UNL     1      14.653 -16.259  20.532  1.00  0.00    -0.322 N 
ATOM      3  H2  UNL     1      14.837 -15.722  19.686  1.00  0.00     0.169 HD
HETATM    4  C13 UNL     1      15.589 -16.659  21.403  1.00  0.00     0.142 A 
HETATM    5  N3  UNL     1      14.877 -17.343  22.376  1.00  0.00    -0.244 N 
ATOM      6  H3  UNL     1      15.278 -17.788  23.202  1.00  0.00     0.196 HD
HETATM    7  O9  UNL     1      13.634 -17.327  22.070  1.00  0.00    -0.219 OA
ENDROOT
BRANCH   1   8
HETATM    8  C2  UNL     1      12.125 -16.448  20.303  1.00  0.00     0.294 C 
BRANCH   8   9
HETATM    9  C1  UNL     1      12.083 -17.411  19.110  1.00  0.00     0.268 C 
HETATM   10  N1  UNL     1      11.004 -17.376  18.221  1.00  0.00    -0.059 NA
HETATM   11  O1  UNL     1      13.034 -18.185  18.988  1.00  0.00    -0.273 OA
ENDBRANCH   8   9
BRANCH   8  12
HETATM   12  O2  UNL     1      12.129 -15.128  19.828  1.00  0.00    -0.326 OA
BRANCH  12  13
HETATM   13  C3  UNL     1      12.375 -13.987  20.534  1.00  0.00     0.106 A 
HETATM   14  C4  UNL     1      11.725 -13.703  21.703  1.00  0.00     0.077 A 
HETATM   15  C5  UNL     1      11.977 -12.541  22.409  1.00  0.00     0.077 A 
HETATM   16  C6  UNL     1      12.899 -11.613  21.958  1.00  0.00    -0.022 A 
HETATM   17  O4  UNL     1      11.283 -12.322  23.578  1.00  0.00    -0.350 OA
HETATM   18  C7  UNL     1      13.551 -11.906  20.783  1.00  0.00     0.049 A 
HETATM   19  C9  UNL     1      13.125 -10.311  22.678  1.00  0.00     0.043 C 
HETATM   20  C8  UNL     1      13.316 -13.056  20.069  1.00  0.00     0.099 A 
HETATM   21  C10 UNL     1      11.806 -10.033  23.411  1.00  0.00     0.031 C 
HETATM   22  C11 UNL     1      11.587 -11.192  24.368  1.00  0.00     0.176 C 
BRANCH  20  23
HETATM   23  O3  UNL     1      13.978 -13.341  18.896  1.00  0.00    -0.358 OA
ATOM     24  H3  UNL     1      13.586 -13.045  18.083  1.00  0.00     0.217 HD
ENDBRANCH  20  23
ENDBRANCH  12  13
ENDBRANCH   8  12
ENDBRANCH   1   8
BRANCH   4  25
HETATM   25  C14 UNL     1      17.071 -16.492  21.479  1.00  0.00     0.152 C 
HETATM   26  C15 UNL     1      17.608 -16.929  22.796  1.00  0.00     0.123 C 
HETATM   27  S1  UNL     1      19.443 -16.932  22.580  1.00  0.00    -0.158 SA
HETATM   28  C16 UNL     1      19.813 -15.411  21.661  1.00  0.00     0.079 C 
HETATM   29  C18 UNL     1      18.627 -14.512  21.705  1.00  0.00     0.057 C 
HETATM   30  C20 UNL     1      17.393 -15.064  21.116  1.00  0.00     0.168 C 
BRANCH  25  31
HETATM   31  O5  UNL     1      17.631 -17.280  20.446  1.00  0.00    -0.378 OA
ATOM     32  H5  UNL     1      17.996 -18.056  20.854  1.00  0.00     0.211 HD
ENDBRANCH  25  31
BRANCH  28  33
HETATM   33  C17 UNL     1      20.947 -14.717  22.425  1.00  0.00     0.179 C 
BRANCH  33  34
HETATM   34  O6  UNL     1      21.563 -15.686  23.215  1.00  0.00    -0.400 OA
ATOM     35  H6  UNL     1      20.930 -15.957  23.870  1.00  0.00     0.209 HD
ENDBRANCH  33  34
ENDBRANCH  28  33
BRANCH  29  36
HETATM   36  C19 UNL     1      18.942 -13.214  20.964  1.00  0.00     0.172 C 
BRANCH  36  37
HETATM   37  O7  UNL     1      18.038 -12.212  21.221  1.00  0.00    -0.400 OA
ATOM     38  H7  UNL     1      17.783 -11.729  20.443  1.00  0.00     0.209 HD
ENDBRANCH  36  37
ENDBRANCH  29  36
BRANCH  30  39
HETATM   39  O8  UNL     1      16.317 -14.275  21.591  1.00  0.00    -0.392 OA
ATOM     40  H8  UNL     1      15.729 -14.150  20.855  1.00  0.00     0.210 HD
ENDBRANCH  30  39
ENDBRANCH   4  25
TORSDOF 12
ENDMDL
MODEL 4
REMARK VINA RESULT: -8.079449137      3.005      6.189
REMARK  12 active torsions:
REMARK  status: ('A' for Active; 'I' for Inactive)
REMARK    1  A    between atoms: C1_2  and  C2_4 
REMARK    2  A    between atoms: C2_4  and  O2_5 
REMARK    3  A    between atoms: C2_4  and  C12_18 
REMARK    4  A    between atoms: O2_5  and  C3_6 
REMARK    5  A    between atoms: C8_11  and  O3_12 
REMARK    6  A    between atoms: C13_21  and  C14_22 
REMARK    7  A    between atoms: C14_22  and  O5_23 
REMARK    8  A    between atoms: C16_27  and  C17_28 
REMARK    9  A    between atoms: C17_28  and  O6_29 
REMARK   10  A    between atoms: C18_31  and  C19_32 
REMARK   11  A    between atoms: C19_32  and  O7_33 
REMARK   12  A    between atoms: C20_35  and  O8_36 
ROOT
HETATM    1  C12 UNL     1      13.727 -13.181  21.436  1.00  0.00     0.187 A 
HETATM    2  N2  UNL     1      13.961 -14.195  20.627  1.00  0.00    -0.322 N 
ATOM      3  H2  UNL     1      14.475 -14.133  19.749  1.00  0.00     0.169 HD
HETATM    4  C13 UNL     1      13.427 -15.320  21.121  1.00  0.00     0.142 A 
HETATM    5  N3  UNL     1      12.838 -14.921  22.311  1.00  0.00    -0.244 N 
ATOM      6  H3  UNL     1      12.334 -15.530  22.957  1.00  0.00     0.196 HD
HETATM    7  O9  UNL     1      13.029 -13.665  22.469  1.00  0.00    -0.219 OA
ENDROOT
BRANCH   1   8
HETATM    8  C2  UNL     1      14.125 -11.753  21.323  1.00  0.00     0.294 C 
BRANCH   8   9
HETATM    9  C1  UNL     1      12.872 -11.026  20.820  1.00  0.00     0.268 C 
HETATM   10  N1  UNL     1      11.695 -11.058  21.574  1.00  0.00    -0.059 NA
HETATM   11  O1  UNL     1      12.970 -10.428  19.747  1.00  0.00    -0.273 OA
ENDBRANCH   8   9
BRANCH   8  12
HETATM   12  O2  UNL     1      15.113 -11.709  20.328  1.00  0.00    -0.326 OA
BRANCH  12  13
HETATM   13  C3  UNL     1      16.247 -12.462  20.244  1.00  0.00     0.106 A 
HETATM   14  C4  UNL     1      16.913 -12.897  21.356  1.00  0.00     0.077 A 
HETATM   15  C5  UNL     1      18.066 -13.655  21.260  1.00  0.00     0.077 A 
HETATM   16  C6  UNL     1      18.596 -14.003  20.031  1.00  0.00    -0.022 A 
HETATM   17  O4  UNL     1      18.683 -14.057  22.425  1.00  0.00    -0.350 OA
HETATM   18  C7  UNL     1      17.921 -13.564  18.917  1.00  0.00     0.049 A 
HETATM   19  C9  UNL     1      19.892 -14.761  19.917  1.00  0.00     0.043 C 
HETATM   20  C8  UNL     1      16.773 -12.812  18.991  1.00  0.00     0.099 A 
HETATM   21  C10 UNL     1      20.660 -14.424  21.201  1.00  0.00     0.031 C 
HETATM   22  C11 UNL     1      19.806 -14.910  22.360  1.00  0.00     0.176 C 
BRANCH  20  23
HETATM   23  O3  UNL     1      16.103 -12.381  17.868  1.00  0.00    -0.358 OA
ATOM     24  H3  UNL     1      16.605 -12.260  17.071  1.00  0.00     0.217 HD
ENDBRANCH  20  23
ENDBRANCH  12  13
ENDBRANCH   8  12
ENDBRANCH   1   8
BRANCH   4  25
HETATM   25  C14 UNL     1      13.387 -16.739  20.656  1.00  0.00     0.152 C 
HETATM   26  C15 UNL     1      14.598 -17.094  19.868  1.00  0.00     0.123 C 
HETATM   27  S1  UNL     1      14.501 -18.928  19.654  1.00  0.00    -0.158 SA
HETATM   28  C16 UNL     1      12.760 -19.265  19.261  1.00  0.00     0.079 C 
HETATM   29  C18 UNL     1      12.088 -17.991  18.885  1.00  0.00     0.057 C 
HETATM   30  C20 UNL     1      12.083 -16.947  19.925  1.00  0.00     0.168 C 
BRANCH  25  31
HETATM   31  O5  UNL     1      13.307 -17.553  21.809  1.00  0.00    -0.378 OA
ATOM     32  H5  UNL     1      14.172 -17.919  21.952  1.00  0.00     0.211 HD
ENDBRANCH  25  31
BRANCH  28  33
HETATM   33  C17 UNL     1      12.772 -20.166  18.019  1.00  0.00     0.179 C 
BRANCH  33  34
HETATM   34  O6  UNL     1      13.588 -19.549  17.073  1.00  0.00    -0.400 OA
ATOM     35  H6  UNL     1      13.333 -19.886  16.222  1.00  0.00     0.209 HD
ENDBRANCH  33  34
ENDBRANCH  28  33
BRANCH  29  36
HETATM   36  C19 UNL     1      10.632 -18.272  18.517  1.00  0.00     0.172 C 
BRANCH  36  37
HETATM   37  O7  UNL     1      10.210 -17.576  17.409  1.00  0.00    -0.400 OA
ATOM     38  H7  UNL     1       9.596 -18.063  16.874  1.00  0.00     0.209 HD
ENDBRANCH  36  37
ENDBRANCH  29  36
BRANCH  30  39
HETATM   39  O8  UNL     1      11.781 -15.721  19.283  1.00  0.00    -0.392 OA
ATOM     40  H8  UNL     1      11.891 -15.040  19.937  1.00  0.00     0.210 HD
ENDBRANCH  30  39
ENDBRANCH   4  25
TORSDOF 12
ENDMDL
MODEL 5
REMARK VINA RESULT: -8.067625564      2.356      4.711
REMARK  12 active torsions:
REMARK  status: ('A' for Active; 'I' for Inactive)
REMARK    1  A    between atoms: C1_2  and  C2_4 
REMARK    2  A    between atoms: C2_4  and  O2_5 
REMARK    3  A    between atoms: C2_4  and  C12_18 
REMARK    4  A    between atoms: O2_5  and  C3_6 
REMARK    5  A    between atoms: C8_11  and  O3_12 
REMARK    6  A    between atoms: C13_21  and  C14_22 
REMARK    7  A    between atoms: C14_22  and  O5_23 
REMARK    8  A    between atoms: C16_27  and  C17_28 
REMARK    9  A    between atoms: C17_28  and  O6_29 
REMARK   10  A    between atoms: C18_31  and  C19_32 
REMARK   11  A    between atoms: C19_32  and  O7_33 
REMARK   12  A    between atoms: C20_35  and  O8_36 
ROOT
HETATM    1  C12 UNL     1      17.545 -12.774  18.871  1.00  0.00     0.187 A 
HETATM    2  N2  UNL     1      16.231 -12.875  18.871  1.00  0.00    -0.322 N 
ATOM      3  H2  UNL     1      15.677 -13.262  18.107  1.00  0.00     0.169 HD
HETATM    4  C13 UNL     1      15.725 -12.399  20.016  1.00  0.00     0.142 A 
HETATM    5  N3  UNL     1      16.838 -11.990  20.734  1.00  0.00    -0.244 N 
ATOM      6  H3  UNL     1      16.823 -11.573  21.665  1.00  0.00     0.196 HD
HETATM    7  O9  UNL     1      17.888 -12.221  20.040  1.00  0.00    -0.219 OA
ENDROOT
BRANCH   1   8
HETATM    8  C2  UNL     1      18.538 -13.175  17.840  1.00  0.00     0.294 C 
BRANCH   8   9
HETATM    9  C1  UNL     1      17.907 -12.777  16.500  1.00  0.00     0.268 C 
HETATM   10  N1  UNL     1      17.126 -11.622  16.411  1.00  0.00    -0.059 NA
HETATM   11  O1  UNL     1      18.134 -13.516  15.539  1.00  0.00    -0.273 OA
ENDBRANCH   8   9
BRANCH   8  12
HETATM   12  O2  UNL     1      18.621 -14.574  17.913  1.00  0.00    -0.326 OA
BRANCH  12  13
HETATM   13  C3  UNL     1      18.570 -15.356  19.029  1.00  0.00     0.106 A 
HETATM   14  C4  UNL     1      19.647 -15.508  19.858  1.00  0.00     0.077 A 
HETATM   15  C5  UNL     1      19.587 -16.309  20.984  1.00  0.00     0.077 A 
HETATM   16  C6  UNL     1      18.432 -16.993  21.318  1.00  0.00    -0.022 A 
HETATM   17  O4  UNL     1      20.712 -16.414  21.772  1.00  0.00    -0.350 OA
HETATM   18  C7  UNL     1      17.352 -16.834  20.481  1.00  0.00     0.049 A 
HETATM   19  C9  UNL     1      18.381 -17.926  22.498  1.00  0.00     0.043 C 
HETATM   20  C8  UNL     1      17.391 -16.042  19.359  1.00  0.00     0.099 A 
HETATM   21  C10 UNL     1      19.829 -18.392  22.694  1.00  0.00     0.031 C 
HETATM   22  C11 UNL     1      20.652 -17.147  22.977  1.00  0.00     0.176 C 
BRANCH  20  23
HETATM   23  O3  UNL     1      16.302 -15.887  18.531  1.00  0.00    -0.358 OA
ATOM     24  H3  UNL     1      16.458 -15.573  17.648  1.00  0.00     0.217 HD
ENDBRANCH  20  23
ENDBRANCH  12  13
ENDBRANCH   8  12
ENDBRANCH   1   8
BRANCH   4  25
HETATM   25  C14 UNL     1      14.341 -12.271  20.563  1.00  0.00     0.152 C 
HETATM   26  C15 UNL     1      14.274 -11.275  21.666  1.00  0.00     0.123 C 
HETATM   27  S1  UNL     1      12.468 -11.046  21.987  1.00  0.00    -0.158 SA
HETATM   28  C16 UNL     1      11.764 -12.719  21.934  1.00  0.00     0.079 C 
HETATM   29  C18 UNL     1      12.866 -13.717  22.021  1.00  0.00     0.057 C 
HETATM   30  C20 UNL     1      13.865 -13.652  20.939  1.00  0.00     0.168 C 
BRANCH  25  31
HETATM   31  O5  UNL     1      13.508 -11.863  19.495  1.00  0.00    -0.378 OA
ATOM     32  H5  UNL     1      12.679 -11.597  19.874  1.00  0.00     0.211 HD
ENDBRANCH  25  31
BRANCH  28  33
HETATM   33  C17 UNL     1      10.911 -12.862  23.201  1.00  0.00     0.179 C 
BRANCH  33  34
HETATM   34  O6  UNL     1      10.798 -11.592  23.765  1.00  0.00    -0.400 OA
ATOM     35  H6  UNL     1      11.569 -11.456  24.304  1.00  0.00     0.209 HD
ENDBRANCH  33  34
ENDBRANCH  28  33
BRANCH  29  36
HETATM   36  C19 UNL     1      12.279 -15.127  22.014  1.00  0.00     0.172 C 
BRANCH  36  37
HETATM   37  O7  UNL     1      13.189 -16.092  22.377  1.00  0.00    -0.400 OA
ATOM     38  H7  UNL     1      14.082 -15.770  22.412  1.00  0.00     0.209 HD
ENDBRANCH  36  37
ENDBRANCH  29  36
BRANCH  30  39
HETATM   39  O8  UNL     1      15.006 -14.365  21.383  1.00  0.00    -0.392 OA
ATOM     40  H8  UNL     1      14.748 -14.820  22.176  1.00  0.00     0.210 HD
ENDBRANCH  30  39
ENDBRANCH   4  25
TORSDOF 12
ENDMDL
