MODEL 1
REMARK VINA RESULT: -8.024976298      0.000      0.000
REMARK  12 active torsions:
REMARK  status: ('A' for Active; 'I' for Inactive)
REMARK    1  A    between atoms: O1_2  and  C2_3 
REMARK    2  A    between atoms: C2_3  and  C3_5 
REMARK    3  A    between atoms: C3_5  and  O3_6 
REMARK    4  A    between atoms: O3_6  and  C4_7 
REMARK    5  A    between atoms: C4_7  and  C5_9 
REMARK    6  A    between atoms: C7_11  and  C8_12 
REMARK    7  A    between atoms: C12_19  and  C13_20 
REMARK    8  A    between atoms: C14_23  and  O9_24 
REMARK    9  A    between atoms: C16_29  and  C17_30 
REMARK   10  A    between atoms: C17_30  and  C18_31 
REMARK   11  A    between atoms: C18_31  and  C19_33 
REMARK   12  A    between atoms: C19_33  and  N3_35 
ROOT
HETATM    1  C5  UNL     1      15.276 -13.657  20.638  1.00  0.00     0.075 C 
HETATM    2  C6  UNL     1      15.310 -14.973  20.677  1.00  0.00     0.002 C 
HETATM    3  C7  UNL     1      16.192 -15.982  20.186  1.00  0.00     0.013 C 
HETATM    4  S1  UNL     1      15.510 -17.448  19.474  1.00  0.00    -0.111 SA
HETATM    5  C12 UNL     1      14.078 -17.870  20.591  1.00  0.00     0.184 C 
HETATM    6  C14 UNL     1      14.010 -16.816  21.629  1.00  0.00     0.169 C 
HETATM    7  C15 UNL     1      13.950 -15.399  21.188  1.00  0.00     0.148 C 
HETATM    8  N1  UNL     1      13.681 -14.392  22.115  1.00  0.00    -0.378 N 
ATOM      9  H1  UNL     1      13.209 -14.500  23.013  1.00  0.00     0.160 HD
HETATM   10  C16 UNL     1      14.207 -13.157  21.550  1.00  0.00     0.047 C 
ENDROOT
BRANCH   1  11
HETATM   11  C4  UNL     1      16.309 -12.867  19.946  1.00  0.00     0.296 C 
HETATM   12  O4  UNL     1      17.256 -12.224  20.325  1.00  0.00    -0.259 OA
BRANCH  11  13
HETATM   13  O3  UNL     1      16.199 -12.846  18.486  1.00  0.00    -0.307 OA
BRANCH  13  14
HETATM   14  C3  UNL     1      17.346 -13.329  17.784  1.00  0.00     0.290 C 
BRANCH  14  15
HETATM   15  C2  UNL     1      17.755 -12.438  16.696  1.00  0.00     0.282 C 
HETATM   16  O2  UNL     1      16.929 -11.480  16.427  1.00  0.00    -0.263 OA
BRANCH  15  17
HETATM   17  O1  UNL     1      18.875 -12.465  15.921  1.00  0.00    -0.325 OA
HETATM   18  C1  UNL     1      20.120 -13.002  16.314  1.00  0.00     0.213 C 
ENDBRANCH  15  17
ENDBRANCH  14  15
ENDBRANCH  13  14
ENDBRANCH  11  13
ENDBRANCH   1  11
BRANCH  10  19
HETATM   19  C17 UNL     1      13.860 -11.937  21.847  1.00  0.00     0.058 C 
BRANCH  19  20
HETATM   20  C18 UNL     1      12.478 -11.589  22.028  1.00  0.00     0.070 C 
HETATM   21  N2  UNL     1      11.785 -10.747  21.040  1.00  0.00    -0.100 NA
BRANCH  20  22
HETATM   22  C19 UNL     1      11.732 -11.784  23.085  1.00  0.00     0.023 C 
HETATM   23  C20 UNL     1      11.754 -10.726  24.172  1.00  0.00     0.069 C 
BRANCH  22  24
HETATM   24  N3  UNL     1      10.884 -12.843  23.300  1.00  0.00    -0.401 N 
ATOM     25  H32 UNL     1      10.648 -13.396  22.476  1.00  0.00     0.156 HD
ATOM     26  H31 UNL     1      10.502 -13.139  24.199  1.00  0.00     0.156 HD
ENDBRANCH  22  24
ENDBRANCH  20  22
ENDBRANCH  19  20
ENDBRANCH  10  19
BRANCH   3  27
HETATM   27  C8  UNL     1      17.544 -15.888  20.331  1.00  0.00     0.053 C 
HETATM   28  C9  UNL     1      17.999 -15.805  21.627  1.00  0.00     0.074 C 
HETATM   29  C10 UNL     1      19.544 -15.721  21.552  1.00  0.00     0.235 C 
HETATM   30  O6  UNL     1      18.042 -15.741  22.958  1.00  0.00    -0.328 OA
HETATM   31  O5  UNL     1      20.086 -15.636  22.781  1.00  0.00    -0.360 OA
HETATM   32  C11 UNL     1      19.028 -14.992  23.564  1.00  0.00     0.345 C 
ENDBRANCH   3  27
BRANCH   6  33
HETATM   33  O9  UNL     1      15.183 -16.962  22.394  1.00  0.00    -0.391 OA
ATOM     34  H9  UNL     1      15.006 -16.527  23.219  1.00  0.00     0.210 HD
ENDBRANCH   6  33
BRANCH   5  35
HETATM   35  C13 UNL     1      12.869 -17.897  19.777  1.00  0.00     0.190 C 
HETATM   36  O7  UNL     1      12.901 -18.173  18.547  1.00  0.00    -0.647 OA
HETATM   37  O8  UNL     1      11.616 -17.624  20.302  1.00  0.00    -0.647 OA
ENDBRANCH   5  35
TORSDOF 12
ENDMDL
MODEL 2
REMARK VINA RESULT: -7.988121521      1.129      1.391
REMARK  12 active torsions:
REMARK  status: ('A' for Active; 'I' for Inactive)
REMARK    1  A    between atoms: O1_2  and  C2_3 
REMARK    2  A    between atoms: C2_3  and  C3_5 
REMARK    3  A    between atoms: C3_5  and  O3_6 
REMARK    4  A    between atoms: O3_6  and  C4_7 
REMARK    5  A    between atoms: C4_7  and  C5_9 
REMARK    6  A    between atoms: C7_11  and  C8_12 
REMARK    7  A    between atoms: C12_19  and  C13_20 
REMARK    8  A    between atoms: C14_23  and  O9_24 
REMARK    9  A    between atoms: C16_29  and  C17_30 
REMARK   10  A    between atoms: C17_30  and  C18_31 
REMARK   11  A    between atoms: C18_31  and  C19_33 
REMARK   12  A    between atoms: C19_33  and  N3_35 
ROOT
HETATM    1  C5  UNL     1      14.232 -13.837  20.507  1.00  0.00     0.075 C 
HETATM    2  C6  UNL     1      14.530 -15.109  20.677  1.00  0.00     0.002 C 
HETATM    3  C7  UNL     1      15.713 -15.900  20.555  1.00  0.00     0.013 C 
HETATM    4  S1  UNL     1      15.604 -17.501  19.818  1.00  0.00    -0.111 SA
HETATM    5  C12 UNL     1      14.026 -18.213  20.512  1.00  0.00     0.184 C 
HETATM    6  C14 UNL     1      13.428 -17.176  21.385  1.00  0.00     0.169 C 
HETATM    7  C15 UNL     1      13.203 -15.823  20.814  1.00  0.00     0.148 C 
HETATM    8  N1  UNL     1      12.461 -14.882  21.528  1.00  0.00    -0.378 N 
ATOM      9  H1  UNL     1      11.776 -15.073  22.259  1.00  0.00     0.160 HD
HETATM   10  C16 UNL     1      12.857 -13.575  21.025  1.00  0.00     0.047 C 
ENDROOT
BRANCH   1  11
HETATM   11  C4  UNL     1      15.232 -12.849  20.070  1.00  0.00     0.296 C 
HETATM   12  O4  UNL     1      15.848 -11.982  20.639  1.00  0.00    -0.259 OA
BRANCH  11  13
HETATM   13  O3  UNL     1      15.584 -12.909  18.650  1.00  0.00    -0.307 OA
BRANCH  13  14
HETATM   14  C3  UNL     1      16.980 -13.040  18.377  1.00  0.00     0.290 C 
BRANCH  14  15
HETATM   15  C2  UNL     1      17.345 -12.522  17.056  1.00  0.00     0.282 C 
HETATM   16  O2  UNL     1      18.156 -13.267  16.375  1.00  0.00    -0.263 OA
BRANCH  15  17
HETATM   17  O1  UNL     1      16.962 -11.373  16.433  1.00  0.00    -0.325 OA
HETATM   18  C1  UNL     1      16.632 -11.264  15.065  1.00  0.00     0.213 C 
ENDBRANCH  15  17
ENDBRANCH  14  15
ENDBRANCH  13  14
ENDBRANCH  11  13
ENDBRANCH   1  11
BRANCH  10  19
HETATM   19  C17 UNL     1      12.186 -12.460  21.095  1.00  0.00     0.058 C 
BRANCH  19  20
HETATM   20  C18 UNL     1      12.296 -11.607  22.246  1.00  0.00     0.070 C 
HETATM   21  N2  UNL     1      13.382 -10.619  22.342  1.00  0.00    -0.100 NA
BRANCH  20  22
HETATM   22  C19 UNL     1      11.630 -11.684  23.370  1.00  0.00     0.023 C 
HETATM   23  C20 UNL     1      11.628 -10.469  24.277  1.00  0.00     0.069 C 
BRANCH  22  24
HETATM   24  N3  UNL     1      10.886 -12.755  23.805  1.00  0.00    -0.401 N 
ATOM     25  H32 UNL     1      10.965 -13.605  23.246  1.00  0.00     0.156 HD
ATOM     26  H31 UNL     1      10.297 -12.784  24.637  1.00  0.00     0.156 HD
ENDBRANCH  22  24
ENDBRANCH  20  22
ENDBRANCH  19  20
ENDBRANCH  10  19
BRANCH   3  27
HETATM   27  C8  UNL     1      16.907 -15.492  21.072  1.00  0.00     0.053 C 
HETATM   28  C9  UNL     1      17.348 -16.190  22.173  1.00  0.00     0.074 C 
HETATM   29  C10 UNL     1      18.710 -15.573  22.575  1.00  0.00     0.235 C 
HETATM   30  O6  UNL     1      17.425 -17.062  23.179  1.00  0.00    -0.328 OA
HETATM   31  O5  UNL     1      19.227 -16.193  23.652  1.00  0.00    -0.360 OA
HETATM   32  C11 UNL     1      18.035 -16.680  24.354  1.00  0.00     0.345 C 
ENDBRANCH   3  27
BRANCH   6  33
HETATM   33  O9  UNL     1      14.321 -17.028  22.463  1.00  0.00    -0.391 OA
ATOM     34  H9  UNL     1      14.403 -16.092  22.600  1.00  0.00     0.210 HD
ENDBRANCH   6  33
BRANCH   5  35
HETATM   35  C13 UNL     1      13.152 -18.539  19.392  1.00  0.00     0.190 C 
HETATM   36  O7  UNL     1      13.607 -18.780  18.241  1.00  0.00    -0.647 OA
HETATM   37  O8  UNL     1      11.775 -18.605  19.522  1.00  0.00    -0.647 OA
ENDBRANCH   5  35
TORSDOF 12
ENDMDL
MODEL 3
REMARK VINA RESULT: -7.938653212      1.156      1.345
REMARK  12 active torsions:
REMARK  status: ('A' for Active; 'I' for Inactive)
REMARK    1  A    between atoms: O1_2  and  C2_3 
REMARK    2  A    between atoms: C2_3  and  C3_5 
REMARK    3  A    between atoms: C3_5  and  O3_6 
REMARK    4  A    between atoms: O3_6  and  C4_7 
REMARK    5  A    between atoms: C4_7  and  C5_9 
REMARK    6  A    between atoms: C7_11  and  C8_12 
REMARK    7  A    between atoms: C12_19  and  C13_20 
REMARK    8  A    between atoms: C14_23  and  O9_24 
REMARK    9  A    between atoms: C16_29  and  C17_30 
REMARK   10  A    between atoms: C17_30  and  C18_31 
REMARK   11  A    between atoms: C18_31  and  C19_33 
REMARK   12  A    between atoms: C19_33  and  N3_35 
ROOT
HETATM    1  C5  UNL     1      14.320 -13.955  20.682  1.00  0.00     0.075 C 
HETATM    2  C6  UNL     1      14.539 -15.244  20.844  1.00  0.00     0.002 C 
HETATM    3  C7  UNL     1      15.693 -16.084  20.871  1.00  0.00     0.013 C 
HETATM    4  S1  UNL     1      15.636 -17.653  20.063  1.00  0.00    -0.111 SA
HETATM    5  C12 UNL     1      13.943 -18.315  20.480  1.00  0.00     0.184 C 
HETATM    6  C14 UNL     1      13.260 -17.282  21.293  1.00  0.00     0.169 C 
HETATM    7  C15 UNL     1      13.179 -15.902  20.749  1.00  0.00     0.148 C 
HETATM    8  N1  UNL     1      12.374 -14.952  21.379  1.00  0.00    -0.378 N 
ATOM      9  H1  UNL     1      11.578 -15.136  21.989  1.00  0.00     0.160 HD
HETATM   10  C16 UNL     1      12.894 -13.648  20.994  1.00  0.00     0.047 C 
ENDROOT
BRANCH   1  11
HETATM   11  C4  UNL     1      15.415 -13.000  20.441  1.00  0.00     0.296 C 
HETATM   12  O4  UNL     1      16.127 -12.352  21.167  1.00  0.00    -0.259 OA
BRANCH  11  13
HETATM   13  O3  UNL     1      15.740 -12.771  19.032  1.00  0.00    -0.307 OA
BRANCH  13  14
HETATM   14  C3  UNL     1      16.995 -13.304  18.605  1.00  0.00     0.290 C 
BRANCH  14  15
HETATM   15  C2  UNL     1      17.393 -12.813  17.283  1.00  0.00     0.282 C 
HETATM   16  O2  UNL     1      16.816 -11.719  16.903  1.00  0.00    -0.263 OA
BRANCH  15  17
HETATM   17  O1  UNL     1      18.279 -13.335  16.390  1.00  0.00    -0.325 OA
HETATM   18  C1  UNL     1      19.684 -13.238  16.491  1.00  0.00     0.213 C 
ENDBRANCH  15  17
ENDBRANCH  14  15
ENDBRANCH  13  14
ENDBRANCH  11  13
ENDBRANCH   1  11
BRANCH  10  19
HETATM   19  C17 UNL     1      12.266 -12.507  21.006  1.00  0.00     0.058 C 
BRANCH  19  20
HETATM   20  C18 UNL     1      12.324 -11.648  22.156  1.00  0.00     0.070 C 
HETATM   21  N2  UNL     1      13.393 -10.644  22.284  1.00  0.00    -0.100 NA
BRANCH  20  22
HETATM   22  C19 UNL     1      11.621 -11.729  23.257  1.00  0.00     0.023 C 
HETATM   23  C20 UNL     1      11.662 -10.551  24.211  1.00  0.00     0.069 C 
BRANCH  22  24
HETATM   24  N3  UNL     1      10.804 -12.769  23.627  1.00  0.00    -0.401 N 
ATOM     25  H32 UNL     1      11.181 -13.705  23.475  1.00  0.00     0.156 HD
ATOM     26  H31 UNL     1       9.883 -12.691  24.060  1.00  0.00     0.156 HD
ENDBRANCH  22  24
ENDBRANCH  20  22
ENDBRANCH  19  20
ENDBRANCH  10  19
BRANCH   3  27
HETATM   27  C8  UNL     1      16.809 -15.748  21.580  1.00  0.00     0.053 C 
HETATM   28  C9  UNL     1      18.008 -15.960  20.937  1.00  0.00     0.074 C 
HETATM   29  C10 UNL     1      19.122 -15.501  21.911  1.00  0.00     0.235 C 
HETATM   30  O6  UNL     1      18.919 -16.300  20.025  1.00  0.00    -0.328 OA
HETATM   31  O5  UNL     1      20.342 -15.671  21.368  1.00  0.00    -0.360 OA
HETATM   32  C11 UNL     1      20.138 -16.789  20.443  1.00  0.00     0.345 C 
ENDBRANCH   3  27
BRANCH   6  33
HETATM   33  O9  UNL     1      13.982 -17.211  22.499  1.00  0.00    -0.391 OA
ATOM     34  H9  UNL     1      14.461 -18.028  22.560  1.00  0.00     0.210 HD
ENDBRANCH   6  33
BRANCH   5  35
HETATM   35  C13 UNL     1      13.239 -18.564  19.229  1.00  0.00     0.190 C 
HETATM   36  O7  UNL     1      13.854 -18.806  18.155  1.00  0.00    -0.647 OA
HETATM   37  O8  UNL     1      11.857 -18.550  19.141  1.00  0.00    -0.647 OA
ENDBRANCH   5  35
TORSDOF 12
ENDMDL
MODEL 4
REMARK VINA RESULT: -7.743508271      0.813      1.215
REMARK  12 active torsions:
REMARK  status: ('A' for Active; 'I' for Inactive)
REMARK    1  A    between atoms: O1_2  and  C2_3 
REMARK    2  A    between atoms: C2_3  and  C3_5 
REMARK    3  A    between atoms: C3_5  and  O3_6 
REMARK    4  A    between atoms: O3_6  and  C4_7 
REMARK    5  A    between atoms: C4_7  and  C5_9 
REMARK    6  A    between atoms: C7_11  and  C8_12 
REMARK    7  A    between atoms: C12_19  and  C13_20 
REMARK    8  A    between atoms: C14_23  and  O9_24 
REMARK    9  A    between atoms: C16_29  and  C17_30 
REMARK   10  A    between atoms: C17_30  and  C18_31 
REMARK   11  A    between atoms: C18_31  and  C19_33 
REMARK   12  A    between atoms: C19_33  and  N3_35 
ROOT
HETATM    1  C5  UNL     1      15.324 -13.783  20.596  1.00  0.00     0.075 C 
HETATM    2  C6  UNL     1      15.518 -15.085  20.659  1.00  0.00     0.002 C 
HETATM    3  C7  UNL     1      16.522 -15.986  20.192  1.00  0.00     0.013 C 
HETATM    4  S1  UNL     1      16.032 -17.536  19.502  1.00  0.00    -0.111 SA
HETATM    5  C12 UNL     1      14.652 -18.112  20.617  1.00  0.00     0.184 C 
HETATM    6  C14 UNL     1      14.447 -17.057  21.635  1.00  0.00     0.169 C 
HETATM    7  C15 UNL     1      14.217 -15.665  21.168  1.00  0.00     0.148 C 
HETATM    8  N1  UNL     1      13.818 -14.684  22.076  1.00  0.00    -0.378 N 
ATOM      9  H1  UNL     1      13.355 -14.834  22.972  1.00  0.00     0.160 HD
HETATM   10  C16 UNL     1      14.193 -13.404  21.492  1.00  0.00     0.047 C 
ENDROOT
BRANCH   1  11
HETATM   11  C4  UNL     1      16.258 -12.885  19.897  1.00  0.00     0.296 C 
HETATM   12  O4  UNL     1      17.123 -12.132  20.270  1.00  0.00    -0.259 OA
BRANCH  11  13
HETATM   13  O3  UNL     1      16.147 -12.889  18.437  1.00  0.00    -0.307 OA
BRANCH  13  14
HETATM   14  C3  UNL     1      17.357 -13.186  17.738  1.00  0.00     0.290 C 
BRANCH  14  15
HETATM   15  C2  UNL     1      17.579 -12.296  16.595  1.00  0.00     0.282 C 
HETATM   16  O2  UNL     1      18.601 -12.589  15.857  1.00  0.00    -0.263 OA
BRANCH  15  17
HETATM   17  O1  UNL     1      16.875 -11.203  16.191  1.00  0.00    -0.325 OA
HETATM   18  C1  UNL     1      16.180 -11.094  14.968  1.00  0.00     0.213 C 
ENDBRANCH  15  17
ENDBRANCH  14  15
ENDBRANCH  13  14
ENDBRANCH  11  13
ENDBRANCH   1  11
BRANCH  10  19
HETATM   19  C17 UNL     1      13.697 -12.231  21.765  1.00  0.00     0.058 C 
BRANCH  19  20
HETATM   20  C18 UNL     1      12.424 -12.105  22.419  1.00  0.00     0.070 C 
HETATM   21  N2  UNL     1      11.311 -12.999  22.065  1.00  0.00    -0.100 NA
BRANCH  20  22
HETATM   22  C19 UNL     1      12.025 -11.152  23.223  1.00  0.00     0.023 C 
HETATM   23  C20 UNL     1      12.860  -9.889  23.294  1.00  0.00     0.069 C 
BRANCH  22  24
HETATM   24  N3  UNL     1      10.885 -11.158  23.990  1.00  0.00    -0.401 N 
ATOM     25  H32 UNL     1      10.272 -11.965  23.868  1.00  0.00     0.156 HD
ATOM     26  H31 UNL     1      10.617 -10.457  24.681  1.00  0.00     0.156 HD
ENDBRANCH  22  24
ENDBRANCH  20  22
ENDBRANCH  19  20
ENDBRANCH  10  19
BRANCH   3  27
HETATM   27  C8  UNL     1      17.851 -15.724  20.344  1.00  0.00     0.053 C 
HETATM   28  C9  UNL     1      18.303 -15.675  21.643  1.00  0.00     0.074 C 
HETATM   29  C10 UNL     1      19.823 -15.382  21.575  1.00  0.00     0.235 C 
HETATM   30  O6  UNL     1      18.349 -15.704  22.975  1.00  0.00    -0.328 OA
HETATM   31  O5  UNL     1      20.361 -15.315  22.806  1.00  0.00    -0.360 OA
HETATM   32  C11 UNL     1      19.233 -14.877  23.634  1.00  0.00     0.345 C 
ENDBRANCH   3  27
BRANCH   6  33
HETATM   33  O9  UNL     1      15.623 -17.045  22.410  1.00  0.00    -0.391 OA
ATOM     34  H9  UNL     1      15.523 -16.319  23.015  1.00  0.00     0.210 HD
ENDBRANCH   6  33
BRANCH   5  35
HETATM   35  C13 UNL     1      13.463 -18.302  19.796  1.00  0.00     0.190 C 
HETATM   36  O7  UNL     1      13.537 -18.488  18.551  1.00  0.00    -0.647 OA
HETATM   37  O8  UNL     1      12.185 -18.289  20.329  1.00  0.00    -0.647 OA
ENDBRANCH   5  35
TORSDOF 12
ENDMDL
MODEL 5
REMARK VINA RESULT: -7.678271873      1.534      1.694
REMARK  12 active torsions:
REMARK  status: ('A' for Active; 'I' for Inactive)
REMARK    1  A    between atoms: O1_2  and  C2_3 
REMARK    2  A    between atoms: C2_3  and  C3_5 
REMARK    3  A    between atoms: C3_5  and  O3_6 
REMARK    4  A    between atoms: O3_6  and  C4_7 
REMARK    5  A    between atoms: C4_7  and  C5_9 
REMARK    6  A    between atoms: C7_11  and  C8_12 
REMARK    7  A    between atoms: C12_19  and  C13_20 
REMARK    8  A    between atoms: C14_23  and  O9_24 
REMARK    9  A    between atoms: C16_29  and  C17_30 
REMARK   10  A    between atoms: C17_30  and  C18_31 
REMARK   11  A    between atoms: C18_31  and  C19_33 
REMARK   12  A    between atoms: C19_33  and  N3_35 
ROOT
HETATM    1  C5  UNL     1      14.429 -14.187  20.653  1.00  0.00     0.075 C 
HETATM    2  C6  UNL     1      14.753 -15.445  20.867  1.00  0.00     0.002 C 
HETATM    3  C7  UNL     1      15.968 -16.195  20.873  1.00  0.00     0.013 C 
HETATM    4  S1  UNL     1      15.987 -17.806  20.148  1.00  0.00    -0.111 SA
HETATM    5  C12 UNL     1      14.373 -18.567  20.693  1.00  0.00     0.184 C 
HETATM    6  C14 UNL     1      13.657 -17.544  21.489  1.00  0.00     0.169 C 
HETATM    7  C15 UNL     1      13.444 -16.205  20.882  1.00  0.00     0.148 C 
HETATM    8  N1  UNL     1      12.603 -15.284  21.507  1.00  0.00    -0.378 N 
ATOM      9  H1  UNL     1      11.856 -15.492  22.169  1.00  0.00     0.160 HD
HETATM   10  C16 UNL     1      13.002 -13.968  21.029  1.00  0.00     0.047 C 
ENDROOT
BRANCH   1  11
HETATM   11  C4  UNL     1      15.434 -13.168  20.303  1.00  0.00     0.296 C 
HETATM   12  O4  UNL     1      16.139 -12.439  20.956  1.00  0.00    -0.259 OA
BRANCH  11  13
HETATM   13  O3  UNL     1      15.656 -12.983  18.868  1.00  0.00    -0.307 OA
BRANCH  13  14
HETATM   14  C3  UNL     1      17.023 -12.822  18.482  1.00  0.00     0.290 C 
BRANCH  14  15
HETATM   15  C2  UNL     1      17.719 -14.103  18.335  1.00  0.00     0.282 C 
HETATM   16  O2  UNL     1      17.010 -15.062  17.830  1.00  0.00    -0.263 OA
BRANCH  15  17
HETATM   17  O1  UNL     1      18.999 -14.441  18.650  1.00  0.00    -0.325 OA
HETATM   18  C1  UNL     1      19.774 -13.828  19.659  1.00  0.00     0.213 C 
ENDBRANCH  15  17
ENDBRANCH  14  15
ENDBRANCH  13  14
ENDBRANCH  11  13
ENDBRANCH   1  11
BRANCH  10  19
HETATM   19  C17 UNL     1      12.290 -12.877  21.019  1.00  0.00     0.058 C 
BRANCH  19  20
HETATM   20  C18 UNL     1      12.339 -11.956  22.120  1.00  0.00     0.070 C 
HETATM   21  N2  UNL     1      13.408 -10.949  22.205  1.00  0.00    -0.100 NA
BRANCH  20  22
HETATM   22  C19 UNL     1      11.625 -11.977  23.217  1.00  0.00     0.023 C 
HETATM   23  C20 UNL     1      11.680 -10.761  24.121  1.00  0.00     0.069 C 
BRANCH  22  24
HETATM   24  N3  UNL     1      10.784 -12.985  23.623  1.00  0.00    -0.401 N 
ATOM     25  H32 UNL     1       9.945 -13.117  23.058  1.00  0.00     0.156 HD
ATOM     26  H31 UNL     1      10.937 -13.621  24.406  1.00  0.00     0.156 HD
ENDBRANCH  22  24
ENDBRANCH  20  22
ENDBRANCH  19  20
ENDBRANCH  10  19
BRANCH   3  27
HETATM   27  C8  UNL     1      17.090 -15.742  21.499  1.00  0.00     0.053 C 
HETATM   28  C9  UNL     1      17.447 -16.417  22.644  1.00  0.00     0.074 C 
HETATM   29  C10 UNL     1      18.741 -15.748  23.171  1.00  0.00     0.235 C 
HETATM   30  O6  UNL     1      17.457 -17.280  23.660  1.00  0.00    -0.328 OA
HETATM   31  O5  UNL     1      19.172 -16.343  24.298  1.00  0.00    -0.360 OA
HETATM   32  C11 UNL     1      17.936 -16.869  24.886  1.00  0.00     0.345 C 
ENDBRANCH   3  27
BRANCH   6  33
HETATM   33  O9  UNL     1      14.433 -17.354  22.649  1.00  0.00    -0.391 OA
ATOM     34  H9  UNL     1      13.994 -16.672  23.141  1.00  0.00     0.210 HD
ENDBRANCH   6  33
BRANCH   5  35
HETATM   35  C13 UNL     1      13.626 -18.934  19.497  1.00  0.00     0.190 C 
HETATM   36  O7  UNL     1      14.113 -18.803  18.341  1.00  0.00    -0.647 OA
HETATM   37  O8  UNL     1      12.341 -19.447  19.555  1.00  0.00    -0.647 OA
ENDBRANCH   5  35
TORSDOF 12
ENDMDL
