MODEL 1
REMARK VINA RESULT: -7.988753653      0.000      0.000
REMARK  9 active torsions:
REMARK  status: ('A' for Active; 'I' for Inactive)
REMARK    1  A    between atoms: C2_2  and  C3_3 
REMARK    2  A    between atoms: C3_3  and  O1_4 
REMARK    3  A    between atoms: O1_4  and  C4_5 
REMARK    4  A    between atoms: C4_5  and  C5_6 
REMARK    5  A    between atoms: C5_6  and  O2_7 
REMARK    6  A    between atoms: O2_7  and  C6_8 
REMARK    7  A    between atoms: C7_9  and  C8_10 
REMARK    8  A    between atoms: C8_10  and  C9_11 
REMARK    9  A    between atoms: C14_16  and  C15_17 
ROOT
HETATM    1  C6  UNL     1      19.041  38.725  19.086  1.00  0.00     0.081 A 
HETATM    2  C7  UNL     1      18.389  37.917  19.998  1.00  0.00    -0.024 A 
HETATM    3  C11 UNL     1      17.380  38.458  20.782  1.00  0.00     0.017 A 
HETATM    4  C12 UNL     1      17.021  39.776  20.668  1.00  0.00    -0.054 A 
HETATM    5  C13 UNL     1      15.941  40.328  21.519  1.00  0.00     0.049 C 
HETATM    6  C14 UNL     1      17.669  40.603  19.753  1.00  0.00    -0.044 A 
HETATM    7  C17 UNL     1      18.671  40.060  18.977  1.00  0.00    -0.021 A 
HETATM    8  C18 UNL     1      19.343  40.966  18.017  1.00  0.00     0.052 C 
ENDROOT
BRANCH   1   9
HETATM    9  O2  UNL     1      20.046  38.274  18.272  1.00  0.00    -0.348 OA
BRANCH   9  10
HETATM   10  C5  UNL     1      21.381  38.084  18.658  1.00  0.00     0.201 C 
BRANCH  10  11
HETATM   11  C4  UNL     1      22.259  38.646  17.559  1.00  0.00     0.194 C 
BRANCH  11  12
HETATM   12  O1  UNL     1      22.722  39.872  17.947  1.00  0.00    -0.389 OA
BRANCH  12  13
HETATM   13  C3  UNL     1      23.429  40.578  17.008  1.00  0.00     0.167 C 
BRANCH  13  14
HETATM   14  C2  UNL     1      22.695  41.811  16.524  1.00  0.00     0.022 C 
HETATM   15  C1  UNL     1      22.447  42.792  17.631  1.00  0.00     0.007 C 
ENDBRANCH  13  14
ENDBRANCH  12  13
ENDBRANCH  11  12
ENDBRANCH  10  11
ENDBRANCH   9  10
ENDBRANCH   1   9
BRANCH   2  16
HETATM   16  C8  UNL     1      18.755  36.501  20.147  1.00  0.00     0.041 C 
BRANCH  16  17
HETATM   17  C9  UNL     1      17.804  35.556  19.483  1.00  0.00     0.000 C 
HETATM   18  C10 UNL     1      18.333  35.205  18.114  1.00  0.00     0.005 C 
ENDBRANCH  16  17
ENDBRANCH   2  16
BRANCH   6  19
HETATM   19  C15 UNL     1      17.276  42.030  19.630  1.00  0.00     0.035 C 
HETATM   20  C16 UNL     1      18.041  42.907  20.593  1.00  0.00     0.010 C 
ENDBRANCH   6  19
TORSDOF 9
ENDMDL
MODEL 2
REMARK VINA RESULT: -7.981908008      1.375      5.279
REMARK  9 active torsions:
REMARK  status: ('A' for Active; 'I' for Inactive)
REMARK    1  A    between atoms: C2_2  and  C3_3 
REMARK    2  A    between atoms: C3_3  and  O1_4 
REMARK    3  A    between atoms: O1_4  and  C4_5 
REMARK    4  A    between atoms: C4_5  and  C5_6 
REMARK    5  A    between atoms: C5_6  and  O2_7 
REMARK    6  A    between atoms: O2_7  and  C6_8 
REMARK    7  A    between atoms: C7_9  and  C8_10 
REMARK    8  A    between atoms: C8_10  and  C9_11 
REMARK    9  A    between atoms: C14_16  and  C15_17 
ROOT
HETATM    1  C6  UNL     1      19.263  39.134  18.802  1.00  0.00     0.081 A 
HETATM    2  C7  UNL     1      19.892  40.312  18.446  1.00  0.00    -0.024 A 
HETATM    3  C11 UNL     1      19.437  41.510  18.978  1.00  0.00     0.017 A 
HETATM    4  C12 UNL     1      18.376  41.545  19.846  1.00  0.00    -0.054 A 
HETATM    5  C13 UNL     1      17.911  42.839  20.398  1.00  0.00     0.049 C 
HETATM    6  C14 UNL     1      17.732  40.365  20.214  1.00  0.00    -0.044 A 
HETATM    7  C17 UNL     1      18.189  39.178  19.683  1.00  0.00    -0.021 A 
HETATM    8  C18 UNL     1      17.480  37.943  20.091  1.00  0.00     0.052 C 
ENDROOT
BRANCH   1   9
HETATM    9  O2  UNL     1      19.646  37.908  18.327  1.00  0.00    -0.348 OA
BRANCH   9  10
HETATM   10  C5  UNL     1      20.586  37.060  18.931  1.00  0.00     0.201 C 
BRANCH  10  11
HETATM   11  C4  UNL     1      20.124  35.635  18.709  1.00  0.00     0.194 C 
BRANCH  11  12
HETATM   12  O1  UNL     1      19.017  35.649  17.908  1.00  0.00    -0.389 OA
BRANCH  12  13
HETATM   13  C3  UNL     1      18.243  34.517  17.922  1.00  0.00     0.167 C 
BRANCH  13  14
HETATM   14  C2  UNL     1      17.237  34.508  19.055  1.00  0.00     0.022 C 
HETATM   15  C1  UNL     1      16.400  33.264  19.056  1.00  0.00     0.007 C 
ENDBRANCH  13  14
ENDBRANCH  12  13
ENDBRANCH  11  12
ENDBRANCH  10  11
ENDBRANCH   9  10
ENDBRANCH   1   9
BRANCH   2  16
HETATM   16  C8  UNL     1      21.028  40.308  17.513  1.00  0.00     0.041 C 
BRANCH  16  17
HETATM   17  C9  UNL     1      21.821  41.576  17.519  1.00  0.00     0.000 C 
HETATM   18  C10 UNL     1      23.222  41.285  17.039  1.00  0.00     0.005 C 
ENDBRANCH  16  17
ENDBRANCH   2  16
BRANCH   6  19
HETATM   19  C15 UNL     1      16.586  40.406  21.158  1.00  0.00     0.035 C 
HETATM   20  C16 UNL     1      15.309  40.827  20.469  1.00  0.00     0.010 C 
ENDBRANCH   6  19
TORSDOF 9
ENDMDL
MODEL 3
REMARK VINA RESULT: -7.773516554      1.554      5.999
REMARK  9 active torsions:
REMARK  status: ('A' for Active; 'I' for Inactive)
REMARK    1  A    between atoms: C2_2  and  C3_3 
REMARK    2  A    between atoms: C3_3  and  O1_4 
REMARK    3  A    between atoms: O1_4  and  C4_5 
REMARK    4  A    between atoms: C4_5  and  C5_6 
REMARK    5  A    between atoms: C5_6  and  O2_7 
REMARK    6  A    between atoms: O2_7  and  C6_8 
REMARK    7  A    between atoms: C7_9  and  C8_10 
REMARK    8  A    between atoms: C8_10  and  C9_11 
REMARK    9  A    between atoms: C14_16  and  C15_17 
ROOT
HETATM    1  C6  UNL     1      20.444  39.312  18.351  1.00  0.00     0.081 A 
HETATM    2  C7  UNL     1      19.753  40.477  18.622  1.00  0.00    -0.024 A 
HETATM    3  C11 UNL     1      20.370  41.700  18.394  1.00  0.00     0.017 A 
HETATM    4  C12 UNL     1      21.650  41.770  17.907  1.00  0.00    -0.054 A 
HETATM    5  C13 UNL     1      22.284  43.088  17.673  1.00  0.00     0.049 C 
HETATM    6  C14 UNL     1      22.359  40.603  17.628  1.00  0.00    -0.044 A 
HETATM    7  C17 UNL     1      21.741  39.392  17.858  1.00  0.00    -0.021 A 
HETATM    8  C18 UNL     1      22.524  38.171  17.556  1.00  0.00     0.052 C 
ENDROOT
BRANCH   1   9
HETATM    9  O2  UNL     1      19.913  38.065  18.545  1.00  0.00    -0.348 OA
BRANCH   9  10
HETATM   10  C5  UNL     1      20.010  37.315  19.727  1.00  0.00     0.201 C 
BRANCH  10  11
HETATM   11  C4  UNL     1      19.880  35.853  19.353  1.00  0.00     0.194 C 
BRANCH  11  12
HETATM   12  O1  UNL     1      19.412  35.766  18.072  1.00  0.00    -0.389 OA
BRANCH  12  13
HETATM   13  C3  UNL     1      18.345  34.928  17.873  1.00  0.00     0.167 C 
BRANCH  13  14
HETATM   14  C2  UNL     1      17.396  34.894  19.054  1.00  0.00     0.022 C 
HETATM   15  C1  UNL     1      16.599  33.625  19.101  1.00  0.00     0.007 C 
ENDBRANCH  13  14
ENDBRANCH  12  13
ENDBRANCH  11  12
ENDBRANCH  10  11
ENDBRANCH   9  10
ENDBRANCH   1   9
BRANCH   2  16
HETATM   16  C8  UNL     1      18.382  40.435  19.150  1.00  0.00     0.041 C 
BRANCH  16  17
HETATM   17  C9  UNL     1      17.936  41.715  19.783  1.00  0.00     0.000 C 
HETATM   18  C10 UNL     1      16.428  41.737  19.845  1.00  0.00     0.005 C 
ENDBRANCH  16  17
ENDBRANCH   2  16
BRANCH   6  19
HETATM   19  C15 UNL     1      23.744  40.683  17.098  1.00  0.00     0.035 C 
HETATM   20  C16 UNL     1      23.926  39.813  15.876  1.00  0.00     0.010 C 
ENDBRANCH   6  19
TORSDOF 9
ENDMDL
MODEL 4
REMARK VINA RESULT: -7.720774956      1.498      6.197
REMARK  9 active torsions:
REMARK  status: ('A' for Active; 'I' for Inactive)
REMARK    1  A    between atoms: C2_2  and  C3_3 
REMARK    2  A    between atoms: C3_3  and  O1_4 
REMARK    3  A    between atoms: O1_4  and  C4_5 
REMARK    4  A    between atoms: C4_5  and  C5_6 
REMARK    5  A    between atoms: C5_6  and  O2_7 
REMARK    6  A    between atoms: O2_7  and  C6_8 
REMARK    7  A    between atoms: C7_9  and  C8_10 
REMARK    8  A    between atoms: C8_10  and  C9_11 
REMARK    9  A    between atoms: C14_16  and  C15_17 
ROOT
HETATM    1  C6  UNL     1      19.510  39.143  18.593  1.00  0.00     0.081 A 
HETATM    2  C7  UNL     1      19.174  40.483  18.574  1.00  0.00    -0.024 A 
HETATM    3  C11 UNL     1      20.138  41.419  18.228  1.00  0.00     0.017 A 
HETATM    4  C12 UNL     1      21.416  41.038  17.907  1.00  0.00    -0.054 A 
HETATM    5  C13 UNL     1      22.426  42.058  17.541  1.00  0.00     0.049 C 
HETATM    6  C14 UNL     1      21.770  39.690  17.921  1.00  0.00    -0.044 A 
HETATM    7  C17 UNL     1      20.807  38.765  18.266  1.00  0.00    -0.021 A 
HETATM    8  C18 UNL     1      21.217  37.342  18.277  1.00  0.00     0.052 C 
ENDROOT
BRANCH   1   9
HETATM    9  O2  UNL     1      18.622  38.154  18.921  1.00  0.00    -0.348 OA
BRANCH   9  10
HETATM   10  C5  UNL     1      18.311  37.741  20.225  1.00  0.00     0.201 C 
BRANCH  10  11
HETATM   11  C4  UNL     1      18.367  36.228  20.250  1.00  0.00     0.194 C 
BRANCH  11  12
HETATM   12  O1  UNL     1      17.623  35.740  19.213  1.00  0.00    -0.389 OA
BRANCH  12  13
HETATM   13  C3  UNL     1      18.152  34.672  18.537  1.00  0.00     0.167 C 
BRANCH  13  14
HETATM   14  C2  UNL     1      17.130  33.589  18.257  1.00  0.00     0.022 C 
HETATM   15  C1  UNL     1      16.182  33.398  19.403  1.00  0.00     0.007 C 
ENDBRANCH  13  14
ENDBRANCH  12  13
ENDBRANCH  11  12
ENDBRANCH  10  11
ENDBRANCH   9  10
ENDBRANCH   1   9
BRANCH   2  16
HETATM   16  C8  UNL     1      17.814  40.925  18.918  1.00  0.00     0.041 C 
BRANCH  16  17
HETATM   17  C9  UNL     1      17.755  41.841  20.099  1.00  0.00     0.000 C 
HETATM   18  C10 UNL     1      17.080  41.128  21.245  1.00  0.00     0.005 C 
ENDBRANCH  16  17
ENDBRANCH   2  16
BRANCH   6  19
HETATM   19  C15 UNL     1      23.153  39.280  17.570  1.00  0.00     0.035 C 
HETATM   20  C16 UNL     1      23.371  39.268  16.075  1.00  0.00     0.010 C 
ENDBRANCH   6  19
TORSDOF 9
ENDMDL
MODEL 5
REMARK VINA RESULT: -7.651717050      1.435      5.864
REMARK  9 active torsions:
REMARK  status: ('A' for Active; 'I' for Inactive)
REMARK    1  A    between atoms: C2_2  and  C3_3 
REMARK    2  A    between atoms: C3_3  and  O1_4 
REMARK    3  A    between atoms: O1_4  and  C4_5 
REMARK    4  A    between atoms: C4_5  and  C5_6 
REMARK    5  A    between atoms: C5_6  and  O2_7 
REMARK    6  A    between atoms: O2_7  and  C6_8 
REMARK    7  A    between atoms: C7_9  and  C8_10 
REMARK    8  A    between atoms: C8_10  and  C9_11 
REMARK    9  A    between atoms: C14_16  and  C15_17 
ROOT
HETATM    1  C6  UNL     1      19.533  39.124  18.545  1.00  0.00     0.081 A 
HETATM    2  C7  UNL     1      19.160  40.455  18.538  1.00  0.00    -0.024 A 
HETATM    3  C11 UNL     1      20.104  41.421  18.216  1.00  0.00     0.017 A 
HETATM    4  C12 UNL     1      21.395  41.079  17.908  1.00  0.00    -0.054 A 
HETATM    5  C13 UNL     1      22.382  42.131  17.569  1.00  0.00     0.049 C 
HETATM    6  C14 UNL     1      21.786  39.741  17.912  1.00  0.00    -0.044 A 
HETATM    7  C17 UNL     1      20.844  38.786  18.232  1.00  0.00    -0.021 A 
HETATM    8  C18 UNL     1      21.293  37.374  18.231  1.00  0.00     0.052 C 
ENDROOT
BRANCH   1   9
HETATM    9  O2  UNL     1      18.669  38.107  18.849  1.00  0.00    -0.348 OA
BRANCH   9  10
HETATM   10  C5  UNL     1      18.358  37.664  20.143  1.00  0.00     0.201 C 
BRANCH  10  11
HETATM   11  C4  UNL     1      18.404  36.150  20.131  1.00  0.00     0.194 C 
BRANCH  11  12
HETATM   12  O1  UNL     1      17.480  35.687  19.237  1.00  0.00    -0.389 OA
BRANCH  12  13
HETATM   13  C3  UNL     1      17.816  34.550  18.551  1.00  0.00     0.167 C 
BRANCH  13  14
HETATM   14  C2  UNL     1      18.737  34.821  17.379  1.00  0.00     0.022 C 
HETATM   15  C1  UNL     1      19.970  33.969  17.420  1.00  0.00     0.007 C 
ENDBRANCH  13  14
ENDBRANCH  12  13
ENDBRANCH  11  12
ENDBRANCH  10  11
ENDBRANCH   9  10
ENDBRANCH   1   9
BRANCH   2  16
HETATM   16  C8  UNL     1      17.785  40.855  18.869  1.00  0.00     0.041 C 
BRANCH  16  17
HETATM   17  C9  UNL     1      17.687  41.774  20.044  1.00  0.00     0.000 C 
HETATM   18  C10 UNL     1      17.098  41.022  21.213  1.00  0.00     0.005 C 
ENDBRANCH  16  17
ENDBRANCH   2  16
BRANCH   6  19
HETATM   19  C15 UNL     1      23.185  39.373  17.574  1.00  0.00     0.035 C 
HETATM   20  C16 UNL     1      23.388  39.254  16.082  1.00  0.00     0.010 C 
ENDBRANCH   6  19
TORSDOF 9
ENDMDL
