MODEL 1
REMARK VINA RESULT: -8.916512654      0.000      0.000
REMARK  9 active torsions:
REMARK  status: ('A' for Active; 'I' for Inactive)
REMARK    1  A    between atoms: C2_2  and  C4_4 
REMARK    2  A    between atoms: C4_4  and  O1_5 
REMARK    3  A    between atoms: O1_5  and  C5_6 
REMARK    4  A    between atoms: C6_7  and  C7_8 
REMARK    5  A    between atoms: C7_8  and  O2_9 
REMARK    6  A    between atoms: C9_12  and  C10_13 
REMARK    7  A    between atoms: C14_17  and  C15_18 
REMARK    8  A    between atoms: C15_18  and  C16_19 
REMARK    9  A    between atoms: C16_19  and  C17_20 
ROOT
HETATM    1  C5  UNL     1      19.321  39.168  19.018  1.00  0.00     0.084 A 
HETATM    2  C6  UNL     1      20.501  38.573  18.491  1.00  0.00    -0.000 A 
HETATM    3  C8  UNL     1      21.403  39.393  17.854  1.00  0.00     0.019 A 
HETATM    4  C9  UNL     1      21.188  40.736  17.732  1.00  0.00    -0.053 A 
HETATM    5  C13 UNL     1      20.058  41.283  18.243  1.00  0.00     0.017 A 
HETATM    6  C14 UNL     1      19.081  40.447  18.925  1.00  0.00    -0.024 A 
ENDROOT
BRANCH   1   7
HETATM    7  O1  UNL     1      18.540  38.186  19.631  1.00  0.00    -0.346 OA
BRANCH   7   8
HETATM    8  C4  UNL     1      18.693  38.089  21.064  1.00  0.00     0.209 C 
BRANCH   8   9
HETATM    9  C2  UNL     1      18.482  36.704  21.555  1.00  0.00    -0.069 C 
HETATM   10  C1  UNL     1      18.622  36.404  22.835  1.00  0.00     0.016 C 
HETATM   11  C3  UNL     1      18.085  35.630  20.619  1.00  0.00     0.044 C 
ENDBRANCH   8   9
ENDBRANCH   7   8
ENDBRANCH   1   7
BRANCH   2  12
HETATM   12  C7  UNL     1      20.722  37.112  18.487  1.00  0.00     0.205 C 
BRANCH  12  13
HETATM   13  O2  UNL     1      19.629  36.489  17.798  1.00  0.00    -0.396 OA
ATOM     14  H2  UNL     1      19.280  35.799  18.350  1.00  0.00     0.209 HD
ENDBRANCH  12  13
ENDBRANCH   2  12
BRANCH   6  15
HETATM   15  C15 UNL     1      18.075  41.335  19.641  1.00  0.00     0.041 C 
BRANCH  15  16
HETATM   16  C16 UNL     1      16.708  41.079  19.022  1.00  0.00     0.004 C 
BRANCH  16  17
HETATM   17  C17 UNL     1      15.681  40.530  19.918  1.00  0.00    -0.004 C 
HETATM   18  C18 UNL     1      15.655  40.876  21.360  1.00  0.00     0.005 C 
ENDBRANCH  16  17
ENDBRANCH  15  16
ENDBRANCH   6  15
BRANCH   4  19
HETATM   19  C10 UNL     1      22.210  41.597  17.013  1.00  0.00     0.010 C 
HETATM   20  C11 UNL     1      23.554  40.917  17.094  1.00  0.00     0.015 C 
HETATM   21  C12 UNL     1      22.363  42.896  17.773  1.00  0.00     0.015 C 
ENDBRANCH   4  19
TORSDOF 9
ENDMDL
MODEL 2
REMARK VINA RESULT: -8.898930541      1.536      5.189
REMARK  9 active torsions:
REMARK  status: ('A' for Active; 'I' for Inactive)
REMARK    1  A    between atoms: C2_2  and  C4_4 
REMARK    2  A    between atoms: C4_4  and  O1_5 
REMARK    3  A    between atoms: O1_5  and  C5_6 
REMARK    4  A    between atoms: C6_7  and  C7_8 
REMARK    5  A    between atoms: C7_8  and  O2_9 
REMARK    6  A    between atoms: C9_12  and  C10_13 
REMARK    7  A    between atoms: C14_17  and  C15_18 
REMARK    8  A    between atoms: C15_18  and  C16_19 
REMARK    9  A    between atoms: C16_19  and  C17_20 
ROOT
HETATM    1  C5  UNL     1      20.111  39.456  18.355  1.00  0.00     0.084 A 
HETATM    2  C6  UNL     1      20.860  38.250  18.271  1.00  0.00    -0.000 A 
HETATM    3  C8  UNL     1      20.448  37.184  19.036  1.00  0.00     0.019 A 
HETATM    4  C9  UNL     1      19.355  37.267  19.848  1.00  0.00    -0.053 A 
HETATM    5  C13 UNL     1      18.653  38.425  19.913  1.00  0.00     0.017 A 
HETATM    6  C14 UNL     1      19.058  39.573  19.117  1.00  0.00    -0.024 A 
ENDROOT
BRANCH   1   7
HETATM    7  O1  UNL     1      20.672  40.412  17.505  1.00  0.00    -0.346 OA
BRANCH   7   8
HETATM    8  C4  UNL     1      21.057  41.649  18.145  1.00  0.00     0.209 C 
BRANCH   8   9
HETATM    9  C2  UNL     1      22.215  42.287  17.472  1.00  0.00    -0.069 C 
HETATM   10  C1  UNL     1      22.598  43.513  17.789  1.00  0.00     0.016 C 
HETATM   11  C3  UNL     1      22.983  41.553  16.443  1.00  0.00     0.044 C 
ENDBRANCH   8   9
ENDBRANCH   7   8
ENDBRANCH   1   7
BRANCH   2  12
HETATM   12  C7  UNL     1      22.119  38.147  17.504  1.00  0.00     0.205 C 
BRANCH  12  13
HETATM   13  O2  UNL     1      23.155  38.814  18.240  1.00  0.00    -0.396 OA
ATOM     14  H2  UNL     1      23.962  38.757  17.742  1.00  0.00     0.209 HD
ENDBRANCH  12  13
ENDBRANCH   2  12
BRANCH   6  15
HETATM   15  C15 UNL     1      17.957  40.622  19.153  1.00  0.00     0.041 C 
BRANCH  15  16
HETATM   16  C16 UNL     1      16.656  39.916  19.506  1.00  0.00     0.004 C 
BRANCH  16  17
HETATM   17  C17 UNL     1      15.634  40.732  20.174  1.00  0.00    -0.004 C 
HETATM   18  C18 UNL     1      15.678  40.974  21.636  1.00  0.00     0.005 C 
ENDBRANCH  16  17
ENDBRANCH  15  16
ENDBRANCH   6  15
BRANCH   4  19
HETATM   19  C10 UNL     1      18.945  36.065  20.680  1.00  0.00     0.010 C 
HETATM   20  C11 UNL     1      17.857  35.320  19.947  1.00  0.00     0.015 C 
HETATM   21  C12 UNL     1      18.310  36.560  21.960  1.00  0.00     0.015 C 
ENDBRANCH   4  19
TORSDOF 9
ENDMDL
MODEL 3
REMARK VINA RESULT: -8.445137326      1.534      4.811
REMARK  9 active torsions:
REMARK  status: ('A' for Active; 'I' for Inactive)
REMARK    1  A    between atoms: C2_2  and  C4_4 
REMARK    2  A    between atoms: C4_4  and  O1_5 
REMARK    3  A    between atoms: O1_5  and  C5_6 
REMARK    4  A    between atoms: C6_7  and  C7_8 
REMARK    5  A    between atoms: C7_8  and  O2_9 
REMARK    6  A    between atoms: C9_12  and  C10_13 
REMARK    7  A    between atoms: C14_17  and  C15_18 
REMARK    8  A    between atoms: C15_18  and  C16_19 
REMARK    9  A    between atoms: C16_19  and  C17_20 
ROOT
HETATM    1  C5  UNL     1      19.636  38.139  19.591  1.00  0.00     0.084 A 
HETATM    2  C6  UNL     1      18.466  37.951  20.377  1.00  0.00    -0.000 A 
HETATM    3  C8  UNL     1      17.586  39.002  20.481  1.00  0.00     0.019 A 
HETATM    4  C9  UNL     1      17.813  40.191  19.850  1.00  0.00    -0.053 A 
HETATM    5  C13 UNL     1      18.933  40.350  19.103  1.00  0.00     0.017 A 
HETATM    6  C14 UNL     1      19.887  39.259  18.969  1.00  0.00    -0.024 A 
ENDROOT
BRANCH   1   7
HETATM    7  O1  UNL     1      20.395  36.967  19.597  1.00  0.00    -0.346 OA
BRANCH   7   8
HETATM    8  C4  UNL     1      20.765  36.472  18.291  1.00  0.00     0.209 C 
BRANCH   8   9
HETATM    9  C2  UNL     1      20.019  35.240  17.930  1.00  0.00    -0.069 C 
HETATM   10  C1  UNL     1      20.653  34.112  17.661  1.00  0.00     0.016 C 
HETATM   11  C3  UNL     1      18.541  35.245  17.887  1.00  0.00     0.044 C 
ENDBRANCH   8   9
ENDBRANCH   7   8
ENDBRANCH   1   7
BRANCH   2  12
HETATM   12  C7  UNL     1      18.234  36.731  21.178  1.00  0.00     0.205 C 
BRANCH  12  13
HETATM   13  O2  UNL     1      18.941  36.862  22.420  1.00  0.00    -0.396 OA
ATOM     14  H2  UNL     1      19.514  37.618  22.362  1.00  0.00     0.209 HD
ENDBRANCH  12  13
ENDBRANCH   2  12
BRANCH   6  15
HETATM   15  C15 UNL     1      20.881  39.595  17.868  1.00  0.00     0.041 C 
BRANCH  15  16
HETATM   16  C16 UNL     1      20.883  41.106  17.689  1.00  0.00     0.004 C 
BRANCH  16  17
HETATM   17  C17 UNL     1      22.194  41.735  17.481  1.00  0.00    -0.004 C 
HETATM   18  C18 UNL     1      22.406  43.177  17.753  1.00  0.00     0.005 C 
ENDBRANCH  16  17
ENDBRANCH  15  16
ENDBRANCH   6  15
BRANCH   4  19
HETATM   19  C10 UNL     1      16.815  41.324  20.002  1.00  0.00     0.010 C 
HETATM   20  C11 UNL     1      17.530  42.520  20.581  1.00  0.00     0.015 C 
HETATM   21  C12 UNL     1      15.787  40.922  21.037  1.00  0.00     0.015 C 
ENDBRANCH   4  19
TORSDOF 9
ENDMDL
MODEL 4
REMARK VINA RESULT: -8.275933156      1.700      5.564
REMARK  9 active torsions:
REMARK  status: ('A' for Active; 'I' for Inactive)
REMARK    1  A    between atoms: C2_2  and  C4_4 
REMARK    2  A    between atoms: C4_4  and  O1_5 
REMARK    3  A    between atoms: O1_5  and  C5_6 
REMARK    4  A    between atoms: C6_7  and  C7_8 
REMARK    5  A    between atoms: C7_8  and  O2_9 
REMARK    6  A    between atoms: C9_12  and  C10_13 
REMARK    7  A    between atoms: C14_17  and  C15_18 
REMARK    8  A    between atoms: C15_18  and  C16_19 
REMARK    9  A    between atoms: C16_19  and  C17_20 
ROOT
HETATM    1  C5  UNL     1      19.574  38.909  18.714  1.00  0.00     0.084 A 
HETATM    2  C6  UNL     1      19.167  40.267  18.597  1.00  0.00    -0.000 A 
HETATM    3  C8  UNL     1      18.182  40.717  19.443  1.00  0.00     0.019 A 
HETATM    4  C9  UNL     1      17.610  39.899  20.375  1.00  0.00    -0.053 A 
HETATM    5  C13 UNL     1      18.013  38.609  20.472  1.00  0.00     0.017 A 
HETATM    6  C14 UNL     1      19.054  38.097  19.593  1.00  0.00    -0.024 A 
ENDROOT
BRANCH   1   7
HETATM    7  O1  UNL     1      20.583  38.644  17.785  1.00  0.00    -0.346 OA
BRANCH   7   8
HETATM    8  C4  UNL     1      21.929  38.742  18.300  1.00  0.00     0.209 C 
BRANCH   8   9
HETATM    9  C2  UNL     1      22.878  39.262  17.284  1.00  0.00    -0.069 C 
HETATM   10  C1  UNL     1      23.519  38.443  16.466  1.00  0.00     0.016 C 
HETATM   11  C3  UNL     1      23.108  40.716  17.148  1.00  0.00     0.044 C 
ENDBRANCH   8   9
ENDBRANCH   7   8
ENDBRANCH   1   7
BRANCH   2  12
HETATM   12  C7  UNL     1      19.665  41.157  17.527  1.00  0.00     0.205 C 
BRANCH  12  13
HETATM   13  O2  UNL     1      19.403  40.536  16.261  1.00  0.00    -0.396 OA
ATOM     14  H2  UNL     1      20.192  40.583  15.733  1.00  0.00     0.209 HD
ENDBRANCH  12  13
ENDBRANCH   2  12
BRANCH   6  15
HETATM   15  C15 UNL     1      19.511  36.736  20.097  1.00  0.00     0.041 C 
BRANCH  15  16
HETATM   16  C16 UNL     1      18.275  35.863  20.258  1.00  0.00     0.004 C 
BRANCH  16  17
HETATM   17  C17 UNL     1      17.824  35.146  19.058  1.00  0.00    -0.004 C 
HETATM   18  C18 UNL     1      16.758  34.118  19.133  1.00  0.00     0.005 C 
ENDBRANCH  16  17
ENDBRANCH  15  16
ENDBRANCH   6  15
BRANCH   4  19
HETATM   19  C10 UNL     1      16.520  40.441  21.281  1.00  0.00     0.010 C 
HETATM   20  C11 UNL     1      15.571  41.270  20.450  1.00  0.00     0.015 C 
HETATM   21  C12 UNL     1      17.148  41.403  22.265  1.00  0.00     0.015 C 
ENDBRANCH   4  19
TORSDOF 9
ENDMDL
MODEL 5
REMARK VINA RESULT: -8.273735935      1.685      3.863
REMARK  9 active torsions:
REMARK  status: ('A' for Active; 'I' for Inactive)
REMARK    1  A    between atoms: C2_2  and  C4_4 
REMARK    2  A    between atoms: C4_4  and  O1_5 
REMARK    3  A    between atoms: O1_5  and  C5_6 
REMARK    4  A    between atoms: C6_7  and  C7_8 
REMARK    5  A    between atoms: C7_8  and  O2_9 
REMARK    6  A    between atoms: C9_12  and  C10_13 
REMARK    7  A    between atoms: C14_17  and  C15_18 
REMARK    8  A    between atoms: C15_18  and  C16_19 
REMARK    9  A    between atoms: C16_19  and  C17_20 
ROOT
HETATM    1  C5  UNL     1      18.732  39.339  18.753  1.00  0.00     0.084 A 
HETATM    2  C6  UNL     1      18.615  40.428  17.846  1.00  0.00    -0.000 A 
HETATM    3  C8  UNL     1      19.758  40.865  17.219  1.00  0.00     0.019 A 
HETATM    4  C9  UNL     1      20.969  40.278  17.446  1.00  0.00    -0.053 A 
HETATM    5  C13 UNL     1      21.058  39.240  18.313  1.00  0.00     0.017 A 
HETATM    6  C14 UNL     1      19.871  38.748  18.995  1.00  0.00    -0.024 A 
ENDROOT
BRANCH   1   7
HETATM    7  O1  UNL     1      17.474  39.034  19.278  1.00  0.00    -0.346 OA
BRANCH   7   8
HETATM    8  C4  UNL     1      17.360  39.168  20.712  1.00  0.00     0.209 C 
BRANCH   8   9
HETATM    9  C2  UNL     1      16.668  40.421  21.101  1.00  0.00    -0.069 C 
HETATM   10  C1  UNL     1      17.220  41.271  21.950  1.00  0.00     0.016 C 
HETATM   11  C3  UNL     1      15.348  40.759  20.525  1.00  0.00     0.044 C 
ENDBRANCH   8   9
ENDBRANCH   7   8
ENDBRANCH   1   7
BRANCH   2  12
HETATM   12  C7  UNL     1      17.355  41.176  17.658  1.00  0.00     0.205 C 
BRANCH  12  13
HETATM   13  O2  UNL     1      17.186  41.437  16.258  1.00  0.00    -0.396 OA
ATOM     14  H2  UNL     1      16.437  42.011  16.147  1.00  0.00     0.209 HD
ENDBRANCH  12  13
ENDBRANCH   2  12
BRANCH   6  15
HETATM   15  C15 UNL     1      20.191  37.423  19.669  1.00  0.00     0.041 C 
BRANCH  15  16
HETATM   16  C16 UNL     1      20.254  36.355  18.586  1.00  0.00     0.004 C 
BRANCH  16  17
HETATM   17  C17 UNL     1      18.978  35.725  18.220  1.00  0.00    -0.004 C 
HETATM   18  C18 UNL     1      17.894  35.551  19.216  1.00  0.00     0.005 C 
ENDBRANCH  16  17
ENDBRANCH  15  16
ENDBRANCH   6  15
BRANCH   4  19
HETATM   19  C10 UNL     1      22.203  40.803  16.735  1.00  0.00     0.010 C 
HETATM   20  C11 UNL     1      23.345  39.850  16.986  1.00  0.00     0.015 C 
HETATM   21  C12 UNL     1      22.610  42.109  17.383  1.00  0.00     0.015 C 
ENDBRANCH   4  19
TORSDOF 9
ENDMDL
