MODEL 1
REMARK VINA RESULT: -8.350593598      0.000      0.000
REMARK  11 active torsions:
REMARK  status: ('A' for Active; 'I' for Inactive)
REMARK    1  A    between atoms: C2_2  and  C3_3 
REMARK    2  A    between atoms: C3_3  and  C4_4 
REMARK    3  A    between atoms: C4_4  and  C5_5 
REMARK    4  A    between atoms: C5_5  and  C6_6 
REMARK    5  A    between atoms: C6_6  and  O1_7 
REMARK    6  A    between atoms: O1_7  and  C7_8 
REMARK    7  A    between atoms: C11_12  and  C12_13 
REMARK    8  A    between atoms: C12_13  and  C13_14 
REMARK    9  A    between atoms: C13_14  and  C14_15 
REMARK   10  A    between atoms: C14_15  and  C15_16 
REMARK   11  A    between atoms: C15_16  and  O2_17 
ROOT
HETATM    1  C7  UNL     1      19.116  38.803  19.032  1.00  0.00     0.080 A 
HETATM    2  C8  UNL     1      20.363  38.499  18.531  1.00  0.00    -0.028 A 
HETATM    3  C9  UNL     1      20.769  37.074  18.451  1.00  0.00     0.051 C 
HETATM    4  C10 UNL     1      21.215  39.499  18.114  1.00  0.00     0.016 A 
HETATM    5  C11 UNL     1      20.867  40.836  18.176  1.00  0.00    -0.057 A 
HETATM    6  C16 UNL     1      19.622  41.143  18.675  1.00  0.00     0.016 A 
HETATM    7  C17 UNL     1      18.765  40.136  19.094  1.00  0.00    -0.028 A 
HETATM    8  C18 UNL     1      17.422  40.483  19.632  1.00  0.00     0.051 C 
ENDROOT
BRANCH   1   9
HETATM    9  O1  UNL     1      18.229  37.831  19.462  1.00  0.00    -0.350 OA
BRANCH   9  10
HETATM   10  C6  UNL     1      18.267  37.245  20.746  1.00  0.00     0.175 C 
BRANCH  10  11
HETATM   11  C5  UNL     1      18.222  35.725  20.515  1.00  0.00     0.027 C 
BRANCH  11  12
HETATM   12  C4  UNL     1      17.521  35.455  19.227  1.00  0.00     0.006 C 
BRANCH  12  13
HETATM   13  C3  UNL     1      17.707  34.113  18.640  1.00  0.00     0.026 C 
BRANCH  13  14
HETATM   14  C2  UNL     1      16.621  33.147  18.773  1.00  0.00    -0.037 C 
HETATM   15  C1  UNL     1      15.675  33.070  19.657  1.00  0.00     0.007 C 
ENDBRANCH  13  14
ENDBRANCH  12  13
ENDBRANCH  11  12
ENDBRANCH  10  11
ENDBRANCH   9  10
ENDBRANCH   1   9
BRANCH   5  16
HETATM   16  C12 UNL     1      21.832  41.896  17.708  1.00  0.00     0.038 C 
BRANCH  16  17
HETATM   17  C13 UNL     1      22.607  41.428  16.515  1.00  0.00     0.007 C 
BRANCH  17  18
HETATM   18  C14 UNL     1      23.969  40.923  16.910  1.00  0.00     0.026 C 
BRANCH  18  19
HETATM   19  C15 UNL     1      24.325  39.727  16.073  1.00  0.00     0.164 C 
BRANCH  19  20
HETATM   20  O2  UNL     1      24.028  38.543  16.761  1.00  0.00    -0.401 OA
ATOM     21  H2  UNL     1      24.478  37.807  16.363  1.00  0.00     0.209 HD
ENDBRANCH  19  20
ENDBRANCH  18  19
ENDBRANCH  17  18
ENDBRANCH  16  17
ENDBRANCH   5  16
TORSDOF 11
ENDMDL
MODEL 2
REMARK VINA RESULT: -8.315948153      0.044      1.880
REMARK  11 active torsions:
REMARK  status: ('A' for Active; 'I' for Inactive)
REMARK    1  A    between atoms: C2_2  and  C3_3 
REMARK    2  A    between atoms: C3_3  and  C4_4 
REMARK    3  A    between atoms: C4_4  and  C5_5 
REMARK    4  A    between atoms: C5_5  and  C6_6 
REMARK    5  A    between atoms: C6_6  and  O1_7 
REMARK    6  A    between atoms: O1_7  and  C7_8 
REMARK    7  A    between atoms: C11_12  and  C12_13 
REMARK    8  A    between atoms: C12_13  and  C13_14 
REMARK    9  A    between atoms: C13_14  and  C14_15 
REMARK   10  A    between atoms: C14_15  and  C15_16 
REMARK   11  A    between atoms: C15_16  and  O2_17 
ROOT
HETATM    1  C7  UNL     1      19.110  38.821  19.013  1.00  0.00     0.080 A 
HETATM    2  C8  UNL     1      18.767  40.154  19.069  1.00  0.00    -0.028 A 
HETATM    3  C9  UNL     1      17.427  40.522  19.593  1.00  0.00     0.051 C 
HETATM    4  C10 UNL     1      19.650  41.124  18.648  1.00  0.00     0.016 A 
HETATM    5  C11 UNL     1      20.905  40.815  18.155  1.00  0.00    -0.057 A 
HETATM    6  C16 UNL     1      21.250  39.484  18.098  1.00  0.00     0.016 A 
HETATM    7  C17 UNL     1      20.361  38.508  18.522  1.00  0.00    -0.028 A 
HETATM    8  C18 UNL     1      20.748  37.073  18.455  1.00  0.00     0.051 C 
ENDROOT
BRANCH   1   9
HETATM    9  O1  UNL     1      18.254  37.813  19.426  1.00  0.00    -0.350 OA
BRANCH   9  10
HETATM   10  C6  UNL     1      18.278  37.242  20.717  1.00  0.00     0.175 C 
BRANCH  10  11
HETATM   11  C5  UNL     1      18.234  35.720  20.502  1.00  0.00     0.027 C 
BRANCH  11  12
HETATM   12  C4  UNL     1      17.535  35.436  19.217  1.00  0.00     0.006 C 
BRANCH  12  13
HETATM   13  C3  UNL     1      17.706  34.080  18.655  1.00  0.00     0.026 C 
BRANCH  13  14
HETATM   14  C2  UNL     1      16.604  33.132  18.798  1.00  0.00    -0.037 C 
HETATM   15  C1  UNL     1      15.657  33.081  19.682  1.00  0.00     0.007 C 
ENDBRANCH  13  14
ENDBRANCH  12  13
ENDBRANCH  11  12
ENDBRANCH  10  11
ENDBRANCH   9  10
ENDBRANCH   1   9
BRANCH   5  16
HETATM   16  C12 UNL     1      21.838  41.911  17.705  1.00  0.00     0.038 C 
BRANCH  16  17
HETATM   17  C13 UNL     1      22.654  41.471  16.529  1.00  0.00     0.007 C 
BRANCH  17  18
HETATM   18  C14 UNL     1      23.980  40.906  16.963  1.00  0.00     0.026 C 
BRANCH  18  19
HETATM   19  C15 UNL     1      24.358  39.762  16.067  1.00  0.00     0.164 C 
BRANCH  19  20
HETATM   20  O2  UNL     1      24.100  38.538  16.700  1.00  0.00    -0.401 OA
ATOM     21  H2  UNL     1      24.505  38.517  17.559  1.00  0.00     0.209 HD
ENDBRANCH  19  20
ENDBRANCH  18  19
ENDBRANCH  17  18
ENDBRANCH  16  17
ENDBRANCH   5  16
TORSDOF 11
ENDMDL
MODEL 3
REMARK VINA RESULT: -8.272741055      2.271      4.788
REMARK  11 active torsions:
REMARK  status: ('A' for Active; 'I' for Inactive)
REMARK    1  A    between atoms: C2_2  and  C3_3 
REMARK    2  A    between atoms: C3_3  and  C4_4 
REMARK    3  A    between atoms: C4_4  and  C5_5 
REMARK    4  A    between atoms: C5_5  and  C6_6 
REMARK    5  A    between atoms: C6_6  and  O1_7 
REMARK    6  A    between atoms: O1_7  and  C7_8 
REMARK    7  A    between atoms: C11_12  and  C12_13 
REMARK    8  A    between atoms: C12_13  and  C13_14 
REMARK    9  A    between atoms: C13_14  and  C14_15 
REMARK   10  A    between atoms: C14_15  and  C15_16 
REMARK   11  A    between atoms: C15_16  and  O2_17 
ROOT
HETATM    1  C7  UNL     1      19.949  37.440  19.598  1.00  0.00     0.080 A 
HETATM    2  C8  UNL     1      18.864  37.789  20.372  1.00  0.00    -0.028 A 
HETATM    3  C9  UNL     1      18.312  36.786  21.316  1.00  0.00     0.051 C 
HETATM    4  C10 UNL     1      18.303  39.044  20.269  1.00  0.00     0.016 A 
HETATM    5  C11 UNL     1      18.794  40.001  19.399  1.00  0.00    -0.057 A 
HETATM    6  C16 UNL     1      19.878  39.655  18.625  1.00  0.00     0.016 A 
HETATM    7  C17 UNL     1      20.441  38.392  18.729  1.00  0.00    -0.028 A 
HETATM    8  C18 UNL     1      21.614  38.032  17.886  1.00  0.00     0.051 C 
ENDROOT
BRANCH   1   9
HETATM    9  O1  UNL     1      20.543  36.191  19.669  1.00  0.00    -0.350 OA
BRANCH   9  10
HETATM   10  C6  UNL     1      19.907  34.994  19.272  1.00  0.00     0.175 C 
BRANCH  10  11
HETATM   11  C5  UNL     1      19.245  35.301  17.918  1.00  0.00     0.027 C 
BRANCH  11  12
HETATM   12  C4  UNL     1      17.989  34.506  17.807  1.00  0.00     0.006 C 
BRANCH  12  13
HETATM   13  C3  UNL     1      17.195  34.344  19.042  1.00  0.00     0.026 C 
BRANCH  13  14
HETATM   14  C2  UNL     1      16.382  33.140  19.185  1.00  0.00    -0.037 C 
HETATM   15  C1  UNL     1      15.328  32.926  19.910  1.00  0.00     0.007 C 
ENDBRANCH  13  14
ENDBRANCH  12  13
ENDBRANCH  11  12
ENDBRANCH  10  11
ENDBRANCH   9  10
ENDBRANCH   1   9
BRANCH   5  16
HETATM   16  C12 UNL     1      18.148  41.361  19.321  1.00  0.00     0.038 C 
BRANCH  16  17
HETATM   17  C13 UNL     1      16.678  41.243  19.064  1.00  0.00     0.007 C 
BRANCH  17  18
HETATM   18  C14 UNL     1      15.879  41.981  20.105  1.00  0.00     0.026 C 
BRANCH  18  19
HETATM   19  C15 UNL     1      15.491  41.037  21.207  1.00  0.00     0.164 C 
BRANCH  19  20
HETATM   20  O2  UNL     1      15.807  41.589  22.457  1.00  0.00    -0.401 OA
ATOM     21  H2  UNL     1      16.733  41.490  22.638  1.00  0.00     0.209 HD
ENDBRANCH  19  20
ENDBRANCH  18  19
ENDBRANCH  17  18
ENDBRANCH  16  17
ENDBRANCH   5  16
TORSDOF 11
ENDMDL
MODEL 4
REMARK VINA RESULT: -8.271200893      2.330      4.645
REMARK  11 active torsions:
REMARK  status: ('A' for Active; 'I' for Inactive)
REMARK    1  A    between atoms: C2_2  and  C3_3 
REMARK    2  A    between atoms: C3_3  and  C4_4 
REMARK    3  A    between atoms: C4_4  and  C5_5 
REMARK    4  A    between atoms: C5_5  and  C6_6 
REMARK    5  A    between atoms: C6_6  and  O1_7 
REMARK    6  A    between atoms: O1_7  and  C7_8 
REMARK    7  A    between atoms: C11_12  and  C12_13 
REMARK    8  A    between atoms: C12_13  and  C13_14 
REMARK    9  A    between atoms: C13_14  and  C14_15 
REMARK   10  A    between atoms: C14_15  and  C15_16 
REMARK   11  A    between atoms: C15_16  and  O2_17 
ROOT
HETATM    1  C7  UNL     1      19.896  37.331  19.589  1.00  0.00     0.080 A 
HETATM    2  C8  UNL     1      20.400  38.293  18.741  1.00  0.00    -0.028 A 
HETATM    3  C9  UNL     1      21.556  37.944  17.877  1.00  0.00     0.051 C 
HETATM    4  C10 UNL     1      19.843  39.552  18.698  1.00  0.00     0.016 A 
HETATM    5  C11 UNL     1      18.766  39.909  19.489  1.00  0.00    -0.057 A 
HETATM    6  C16 UNL     1      18.260  38.950  20.337  1.00  0.00     0.016 A 
HETATM    7  C17 UNL     1      18.822  37.683  20.380  1.00  0.00    -0.028 A 
HETATM    8  C18 UNL     1      18.264  36.656  21.301  1.00  0.00     0.051 C 
ENDROOT
BRANCH   1   9
HETATM    9  O1  UNL     1      20.426  36.053  19.665  1.00  0.00    -0.350 OA
BRANCH   9  10
HETATM   10  C6  UNL     1      20.182  35.044  18.708  1.00  0.00     0.175 C 
BRANCH  10  11
HETATM   11  C5  UNL     1      18.823  35.385  18.076  1.00  0.00     0.027 C 
BRANCH  11  12
HETATM   12  C4  UNL     1      17.951  34.177  18.131  1.00  0.00     0.006 C 
BRANCH  12  13
HETATM   13  C3  UNL     1      16.830  34.212  19.093  1.00  0.00     0.026 C 
BRANCH  13  14
HETATM   14  C2  UNL     1      16.080  32.981  19.322  1.00  0.00    -0.037 C 
HETATM   15  C1  UNL     1      15.074  32.750  20.106  1.00  0.00     0.007 C 
ENDBRANCH  13  14
ENDBRANCH  12  13
ENDBRANCH  11  12
ENDBRANCH  10  11
ENDBRANCH   9  10
ENDBRANCH   1   9
BRANCH   5  16
HETATM   16  C12 UNL     1      18.188  41.299  19.407  1.00  0.00     0.038 C 
BRANCH  16  17
HETATM   17  C13 UNL     1      16.729  41.256  19.073  1.00  0.00     0.007 C 
BRANCH  17  18
HETATM   18  C14 UNL     1      15.910  41.993  20.100  1.00  0.00     0.026 C 
BRANCH  18  19
HETATM   19  C15 UNL     1      15.474  41.040  21.176  1.00  0.00     0.164 C 
BRANCH  19  20
HETATM   20  O2  UNL     1      15.764  41.567  22.442  1.00  0.00    -0.401 OA
ATOM     21  H2  UNL     1      15.096  42.189  22.703  1.00  0.00     0.209 HD
ENDBRANCH  19  20
ENDBRANCH  18  19
ENDBRANCH  17  18
ENDBRANCH  16  17
ENDBRANCH   5  16
TORSDOF 11
ENDMDL
MODEL 5
REMARK VINA RESULT: -8.131247364      0.740      1.264
REMARK  11 active torsions:
REMARK  status: ('A' for Active; 'I' for Inactive)
REMARK    1  A    between atoms: C2_2  and  C3_3 
REMARK    2  A    between atoms: C3_3  and  C4_4 
REMARK    3  A    between atoms: C4_4  and  C5_5 
REMARK    4  A    between atoms: C5_5  and  C6_6 
REMARK    5  A    between atoms: C6_6  and  O1_7 
REMARK    6  A    between atoms: O1_7  and  C7_8 
REMARK    7  A    between atoms: C11_12  and  C12_13 
REMARK    8  A    between atoms: C12_13  and  C13_14 
REMARK    9  A    between atoms: C13_14  and  C14_15 
REMARK   10  A    between atoms: C14_15  and  C15_16 
REMARK   11  A    between atoms: C15_16  and  O2_17 
ROOT
HETATM    1  C7  UNL     1      19.198  38.980  19.085  1.00  0.00     0.080 A 
HETATM    2  C8  UNL     1      20.429  38.655  18.559  1.00  0.00    -0.028 A 
HETATM    3  C9  UNL     1      20.819  37.224  18.493  1.00  0.00     0.051 C 
HETATM    4  C10 UNL     1      21.280  39.639  18.105  1.00  0.00     0.016 A 
HETATM    5  C11 UNL     1      20.947  40.981  18.152  1.00  0.00    -0.057 A 
HETATM    6  C16 UNL     1      19.718  41.308  18.677  1.00  0.00     0.016 A 
HETATM    7  C17 UNL     1      18.862  40.317  19.134  1.00  0.00    -0.028 A 
HETATM    8  C18 UNL     1      17.535  40.686  19.699  1.00  0.00     0.051 C 
ENDROOT
BRANCH   1   9
HETATM    9  O1  UNL     1      18.312  38.024  19.553  1.00  0.00    -0.350 OA
BRANCH   9  10
HETATM   10  C6  UNL     1      18.375  37.461  20.847  1.00  0.00     0.175 C 
BRANCH  10  11
HETATM   11  C5  UNL     1      18.309  35.938  20.645  1.00  0.00     0.027 C 
BRANCH  11  12
HETATM   12  C4  UNL     1      17.518  35.650  19.415  1.00  0.00     0.006 C 
BRANCH  12  13
HETATM   13  C3  UNL     1      17.825  34.389  18.709  1.00  0.00     0.026 C 
BRANCH  13  14
HETATM   14  C2  UNL     1      18.703  34.449  17.544  1.00  0.00    -0.037 C 
HETATM   15  C1  UNL     1      19.881  33.940  17.360  1.00  0.00     0.007 C 
ENDBRANCH  13  14
ENDBRANCH  12  13
ENDBRANCH  11  12
ENDBRANCH  10  11
ENDBRANCH   9  10
ENDBRANCH   1   9
BRANCH   5  16
HETATM   16  C12 UNL     1      21.910  42.023  17.643  1.00  0.00     0.038 C 
BRANCH  16  17
HETATM   17  C13 UNL     1      22.701  41.502  16.483  1.00  0.00     0.007 C 
BRANCH  17  18
HETATM   18  C14 UNL     1      24.011  40.911  16.934  1.00  0.00     0.026 C 
BRANCH  18  19
HETATM   19  C15 UNL     1      24.359  39.737  16.064  1.00  0.00     0.164 C 
BRANCH  19  20
HETATM   20  O2  UNL     1      24.026  38.536  16.707  1.00  0.00    -0.401 OA
ATOM     21  H2  UNL     1      24.458  37.804  16.285  1.00  0.00     0.209 HD
ENDBRANCH  19  20
ENDBRANCH  18  19
ENDBRANCH  17  18
ENDBRANCH  16  17
ENDBRANCH   5  16
TORSDOF 11
ENDMDL
