MODEL 1
REMARK VINA RESULT: -8.569402648      0.000      0.000
REMARK  13 active torsions:
REMARK  status: ('A' for Active; 'I' for Inactive)
REMARK       I    between atoms: N1_2  and  C2_4 
REMARK    1  A    between atoms: C2_4  and  C3_6 
REMARK    2  A    between atoms: C3_6  and  C4_7 
REMARK    3  A    between atoms: C4_7  and  C5_8 
REMARK    4  A    between atoms: C4_7  and  C24_32 
REMARK    5  A    between atoms: C5_8  and  C6_9 
REMARK    6  A    between atoms: C6_9  and  C7_10 
REMARK    7  A    between atoms: C6_9  and  C12_16 
REMARK    8  A    between atoms: C7_10  and  C8_11 
REMARK    9  A    between atoms: C10_13  and  C11_14 
REMARK   10  A    between atoms: C12_16  and  C13_17 
REMARK   11  A    between atoms: C16_22  and  C17_23 
REMARK   12  A    between atoms: C17_23  and  O4_25 
REMARK       I    between atoms: C24_32  and  N3_34 
REMARK   13  A    between atoms: N3_34  and  C25_36 
ROOT
HETATM    1  C6  UNL     1      18.166  63.986  26.463  1.00  0.00    -0.004 C 
ENDROOT
BRANCH   1   2
HETATM    2  C5  UNL     1      18.219  64.362  25.032  1.00  0.00     0.020 C 
BRANCH   2   3
HETATM    3  C4  UNL     1      18.048  63.311  24.000  1.00  0.00     0.087 C 
BRANCH   3   4
HETATM    4  C3  UNL     1      17.347  62.140  24.711  1.00  0.00     0.117 C 
BRANCH   4   5
HETATM    5  C2  UNL     1      18.110  60.889  24.572  1.00  0.00     0.217 C 
HETATM    6  N1  UNL     1      18.035  60.173  23.354  1.00  0.00    -0.365 N 
HETATM    7  C1  UNL     1      18.775  58.952  23.207  1.00  0.00     0.149 C 
ATOM      8  H1  UNL     1      17.460  60.523  22.587  1.00  0.00     0.161 HD
HETATM    9  O1  UNL     1      18.807  60.470  25.514  1.00  0.00    -0.274 OA
ENDBRANCH   4   5
ENDBRANCH   3   4
BRANCH   3  10
HETATM   10  C24 UNL     1      17.015  63.702  22.940  1.00  0.00     0.226 C 
HETATM   11  O5  UNL     1      16.157  62.833  22.635  1.00  0.00    -0.273 OA
HETATM   12  N3  UNL     1      17.063  64.956  22.377  1.00  0.00    -0.327 N 
ATOM     13  H3  UNL     1      17.803  65.577  22.704  1.00  0.00     0.169 HD
BRANCH  12  14
HETATM   14  C25 UNL     1      16.197  65.469  21.398  1.00  0.00     0.034 A 
HETATM   15  C26 UNL     1      15.030  66.156  21.648  1.00  0.00     0.030 A 
HETATM   16  C27 UNL     1      14.229  66.650  20.606  1.00  0.00     0.009 A 
HETATM   17  C28 UNL     1      14.565  66.475  19.290  1.00  0.00    -0.062 A 
HETATM   18  C29 UNL     1      13.756  66.977  18.163  1.00  0.00     0.048 C 
HETATM   19  C30 UNL     1      15.735  65.786  19.030  1.00  0.00     0.009 A 
HETATM   20  C31 UNL     1      16.522  65.301  20.036  1.00  0.00     0.030 A 
ENDBRANCH  12  14
ENDBRANCH   3  10
ENDBRANCH   2   3
ENDBRANCH   1   2
BRANCH   1  21
HETATM   21  C7  UNL     1      19.492  63.738  27.089  1.00  0.00     0.039 C 
BRANCH  21  22
HETATM   22  C8  UNL     1      20.427  64.883  26.916  1.00  0.00    -0.081 C 
HETATM   23  C9  UNL     1      20.072  66.206  27.455  1.00  0.00     0.043 C 
HETATM   24  C10 UNL     1      21.557  64.696  26.284  1.00  0.00     0.043 C 
BRANCH  24  25
HETATM   25  C11 UNL     1      22.537  65.755  26.065  1.00  0.00     0.259 C 
HETATM   26  O2  UNL     1      23.765  65.493  26.077  1.00  0.00    -0.302 OA
ENDBRANCH  24  25
ENDBRANCH  21  22
ENDBRANCH   1  21
BRANCH   1  27
HETATM   27  C12 UNL     1      17.225  64.709  27.331  1.00  0.00     0.062 C 
BRANCH  27  28
HETATM   28  C13 UNL     1      15.884  64.107  27.529  1.00  0.00     0.017 A 
HETATM   29  N2  UNL     1      15.556  63.424  28.665  1.00  0.00    -0.358 N 
HETATM   30  C14 UNL     1      14.281  63.013  28.630  1.00  0.00     0.044 A 
ATOM     31  H2  UNL     1      16.197  63.248  29.439  1.00  0.00     0.166 HD
HETATM   32  C15 UNL     1      13.485  62.296  29.523  1.00  0.00     0.048 A 
HETATM   33  C21 UNL     1      13.784  63.454  27.423  1.00  0.00    -0.002 A 
HETATM   34  C16 UNL     1      12.183  62.025  29.195  1.00  0.00     0.041 A 
HETATM   35  C19 UNL     1      11.702  62.478  27.975  1.00  0.00     0.018 A 
HETATM   36  C20 UNL     1      12.473  63.188  27.079  1.00  0.00     0.015 A 
HETATM   37  C22 UNL     1      14.760  64.127  26.739  1.00  0.00    -0.027 A 
HETATM   38  C23 UNL     1      14.654  64.736  25.369  1.00  0.00     0.051 C 
BRANCH  34  39
HETATM   39  C17 UNL     1      11.295  61.275  30.097  1.00  0.00     0.293 C 
HETATM   40  O3  UNL     1      10.696  60.264  29.656  1.00  0.00    -0.259 OA
BRANCH  39  41
HETATM   41  O4  UNL     1      11.087  61.631  31.416  1.00  0.00    -0.323 OA
HETATM   42  C18 UNL     1      10.351  62.799  31.771  1.00  0.00     0.213 C 
ENDBRANCH  39  41
ENDBRANCH  34  39
ENDBRANCH  27  28
ENDBRANCH   1  27
TORSDOF 13
ENDMDL
MODEL 2
REMARK VINA RESULT: -8.406376704      2.096      5.191
REMARK  13 active torsions:
REMARK  status: ('A' for Active; 'I' for Inactive)
REMARK       I    between atoms: N1_2  and  C2_4 
REMARK    1  A    between atoms: C2_4  and  C3_6 
REMARK    2  A    between atoms: C3_6  and  C4_7 
REMARK    3  A    between atoms: C4_7  and  C5_8 
REMARK    4  A    between atoms: C4_7  and  C24_32 
REMARK    5  A    between atoms: C5_8  and  C6_9 
REMARK    6  A    between atoms: C6_9  and  C7_10 
REMARK    7  A    between atoms: C6_9  and  C12_16 
REMARK    8  A    between atoms: C7_10  and  C8_11 
REMARK    9  A    between atoms: C10_13  and  C11_14 
REMARK   10  A    between atoms: C12_16  and  C13_17 
REMARK   11  A    between atoms: C16_22  and  C17_23 
REMARK   12  A    between atoms: C17_23  and  O4_25 
REMARK       I    between atoms: C24_32  and  N3_34 
REMARK   13  A    between atoms: N3_34  and  C25_36 
ROOT
HETATM    1  C6  UNL     1      16.349  65.478  24.858  1.00  0.00    -0.004 C 
ENDROOT
BRANCH   1   2
HETATM    2  C5  UNL     1      16.694  65.377  23.422  1.00  0.00     0.020 C 
BRANCH   2   3
HETATM    3  C4  UNL     1      16.466  64.095  22.711  1.00  0.00     0.087 C 
BRANCH   3   4
HETATM    4  C3  UNL     1      17.500  64.061  21.572  1.00  0.00     0.117 C 
BRANCH   4   5
HETATM    5  C2  UNL     1      16.983  64.708  20.354  1.00  0.00     0.217 C 
HETATM    6  N1  UNL     1      17.722  65.764  19.774  1.00  0.00    -0.365 N 
HETATM    7  C1  UNL     1      17.228  66.402  18.586  1.00  0.00     0.149 C 
ATOM      8  H1  UNL     1      18.599  66.071  20.196  1.00  0.00     0.161 HD
HETATM    9  O1  UNL     1      15.912  64.328  19.848  1.00  0.00    -0.274 OA
ENDBRANCH   4   5
ENDBRANCH   3   4
BRANCH   3  10
HETATM   10  C24 UNL     1      16.882  62.886  23.552  1.00  0.00     0.226 C 
HETATM   11  O5  UNL     1      16.073  62.506  24.440  1.00  0.00    -0.273 OA
HETATM   12  N3  UNL     1      18.091  62.276  23.313  1.00  0.00    -0.327 N 
ATOM     13  H3  UNL     1      18.664  62.671  22.567  1.00  0.00     0.169 HD
BRANCH  12  14
HETATM   14  C25 UNL     1      18.618  61.165  23.991  1.00  0.00     0.034 A 
HETATM   15  C26 UNL     1      19.276  61.208  25.199  1.00  0.00     0.030 A 
HETATM   16  C27 UNL     1      19.758  60.043  25.817  1.00  0.00     0.009 A 
HETATM   17  C28 UNL     1      19.600  58.806  25.252  1.00  0.00    -0.062 A 
HETATM   18  C29 UNL     1      20.088  57.556  25.865  1.00  0.00     0.048 C 
HETATM   19  C30 UNL     1      18.940  58.754  24.038  1.00  0.00     0.009 A 
HETATM   20  C31 UNL     1      18.467  59.880  23.428  1.00  0.00     0.030 A 
ENDBRANCH  12  14
ENDBRANCH   3  10
ENDBRANCH   2   3
ENDBRANCH   1   2
BRANCH   1  21
HETATM   21  C7  UNL     1      17.397  66.108  25.705  1.00  0.00     0.039 C 
BRANCH  21  22
HETATM   22  C8  UNL     1      18.363  65.116  26.249  1.00  0.00    -0.081 C 
HETATM   23  C9  UNL     1      19.659  64.913  25.580  1.00  0.00     0.043 C 
HETATM   24  C10 UNL     1      18.046  64.434  27.319  1.00  0.00     0.043 C 
BRANCH  24  25
HETATM   25  C11 UNL     1      18.925  63.441  27.926  1.00  0.00     0.259 C 
HETATM   26  O2  UNL     1      19.408  63.637  29.069  1.00  0.00    -0.302 OA
ENDBRANCH  24  25
ENDBRANCH  21  22
ENDBRANCH   1  21
BRANCH   1  27
HETATM   27  C12 UNL     1      14.980  65.878  25.212  1.00  0.00     0.062 C 
BRANCH  27  28
HETATM   28  C13 UNL     1      14.308  65.119  26.294  1.00  0.00     0.017 A 
HETATM   29  N2  UNL     1      13.508  64.042  26.037  1.00  0.00    -0.358 N 
HETATM   30  C14 UNL     1      13.051  63.499  27.174  1.00  0.00     0.044 A 
ATOM     31  H2  UNL     1      13.287  63.697  25.104  1.00  0.00     0.166 HD
HETATM   32  C15 UNL     1      12.221  62.411  27.444  1.00  0.00     0.048 A 
HETATM   33  C21 UNL     1      13.583  64.264  28.189  1.00  0.00    -0.002 A 
HETATM   34  C16 UNL     1      11.929  62.095  28.745  1.00  0.00     0.041 A 
HETATM   35  C19 UNL     1      12.475  62.878  29.753  1.00  0.00     0.018 A 
HETATM   36  C20 UNL     1      13.297  63.957  29.505  1.00  0.00     0.015 A 
HETATM   37  C22 UNL     1      14.355  65.262  27.660  1.00  0.00    -0.027 A 
HETATM   38  C23 UNL     1      15.085  66.340  28.411  1.00  0.00     0.051 C 
BRANCH  34  39
HETATM   39  C17 UNL     1      11.062  60.958  29.092  1.00  0.00     0.293 C 
HETATM   40  O3  UNL     1      10.521  60.304  28.167  1.00  0.00    -0.259 OA
BRANCH  39  41
HETATM   41  O4  UNL     1      10.811  60.572  30.395  1.00  0.00    -0.323 OA
HETATM   42  C18 UNL     1       9.528  60.104  30.805  1.00  0.00     0.213 C 
ENDBRANCH  39  41
ENDBRANCH  34  39
ENDBRANCH  27  28
ENDBRANCH   1  27
TORSDOF 13
ENDMDL
MODEL 3
REMARK VINA RESULT: -8.404206778      0.968      1.318
REMARK  13 active torsions:
REMARK  status: ('A' for Active; 'I' for Inactive)
REMARK       I    between atoms: N1_2  and  C2_4 
REMARK    1  A    between atoms: C2_4  and  C3_6 
REMARK    2  A    between atoms: C3_6  and  C4_7 
REMARK    3  A    between atoms: C4_7  and  C5_8 
REMARK    4  A    between atoms: C4_7  and  C24_32 
REMARK    5  A    between atoms: C5_8  and  C6_9 
REMARK    6  A    between atoms: C6_9  and  C7_10 
REMARK    7  A    between atoms: C6_9  and  C12_16 
REMARK    8  A    between atoms: C7_10  and  C8_11 
REMARK    9  A    between atoms: C10_13  and  C11_14 
REMARK   10  A    between atoms: C12_16  and  C13_17 
REMARK   11  A    between atoms: C16_22  and  C17_23 
REMARK   12  A    between atoms: C17_23  and  O4_25 
REMARK       I    between atoms: C24_32  and  N3_34 
REMARK   13  A    between atoms: N3_34  and  C25_36 
ROOT
HETATM    1  C6  UNL     1      17.647  63.981  26.693  1.00  0.00    -0.004 C 
ENDROOT
BRANCH   1   2
HETATM    2  C5  UNL     1      17.789  64.424  25.288  1.00  0.00     0.020 C 
BRANCH   2   3
HETATM    3  C4  UNL     1      17.877  63.406  24.214  1.00  0.00     0.087 C 
BRANCH   3   4
HETATM    4  C3  UNL     1      17.227  62.136  24.789  1.00  0.00     0.117 C 
BRANCH   4   5
HETATM    5  C2  UNL     1      18.122  60.971  24.675  1.00  0.00     0.217 C 
HETATM    6  N1  UNL     1      18.190  60.279  23.443  1.00  0.00    -0.365 N 
HETATM    7  C1  UNL     1      19.059  59.143  23.320  1.00  0.00     0.149 C 
ATOM      8  H1  UNL     1      17.627  60.585  22.649  1.00  0.00     0.161 HD
HETATM    9  O1  UNL     1      18.803  60.605  25.648  1.00  0.00    -0.274 OA
ENDBRANCH   4   5
ENDBRANCH   3   4
BRANCH   3  10
HETATM   10  C24 UNL     1      16.957  63.727  23.034  1.00  0.00     0.226 C 
HETATM   11  O5  UNL     1      16.211  62.798  22.626  1.00  0.00    -0.273 OA
HETATM   12  N3  UNL     1      16.979  64.985  22.478  1.00  0.00    -0.327 N 
ATOM     13  H3  UNL     1      17.624  65.658  22.893  1.00  0.00     0.169 HD
BRANCH  12  14
HETATM   14  C25 UNL     1      16.204  65.439  21.399  1.00  0.00     0.034 A 
HETATM   15  C26 UNL     1      15.053  66.187  21.505  1.00  0.00     0.030 A 
HETATM   16  C27 UNL     1      14.346  66.614  20.369  1.00  0.00     0.009 A 
HETATM   17  C28 UNL     1      14.763  66.311  19.101  1.00  0.00    -0.062 A 
HETATM   18  C29 UNL     1      14.054  66.739  17.880  1.00  0.00     0.048 C 
HETATM   19  C30 UNL     1      15.918  65.560  18.986  1.00  0.00     0.009 A 
HETATM   20  C31 UNL     1      16.614  65.139  20.084  1.00  0.00     0.030 A 
ENDBRANCH  12  14
ENDBRANCH   3  10
ENDBRANCH   2   3
ENDBRANCH   1   2
BRANCH   1  21
HETATM   21  C7  UNL     1      18.933  63.724  27.395  1.00  0.00     0.039 C 
BRANCH  21  22
HETATM   22  C8  UNL     1      19.954  64.772  27.117  1.00  0.00    -0.081 C 
HETATM   23  C9  UNL     1      21.130  64.447  26.294  1.00  0.00     0.043 C 
HETATM   24  C10 UNL     1      19.791  65.971  27.612  1.00  0.00     0.043 C 
BRANCH  24  25
HETATM   25  C11 UNL     1      20.735  67.062  27.396  1.00  0.00     0.259 C 
HETATM   26  O2  UNL     1      21.088  67.793  28.355  1.00  0.00    -0.302 OA
ENDBRANCH  24  25
ENDBRANCH  21  22
ENDBRANCH   1  21
BRANCH   1  27
HETATM   27  C12 UNL     1      16.638  64.648  27.528  1.00  0.00     0.062 C 
BRANCH  27  28
HETATM   28  C13 UNL     1      15.361  63.929  27.756  1.00  0.00     0.017 A 
HETATM   29  N2  UNL     1      14.997  63.467  28.989  1.00  0.00    -0.358 N 
HETATM   30  C14 UNL     1      13.788  62.892  28.950  1.00  0.00     0.044 A 
ATOM     31  H2  UNL     1      15.571  63.549  29.828  1.00  0.00     0.166 HD
HETATM   32  C15 UNL     1      12.991  62.283  29.920  1.00  0.00     0.048 A 
HETATM   33  C21 UNL     1      13.372  62.993  27.642  1.00  0.00    -0.002 A 
HETATM   34  C16 UNL     1      11.769  61.776  29.564  1.00  0.00     0.041 A 
HETATM   35  C19 UNL     1      11.368  61.888  28.240  1.00  0.00     0.018 A 
HETATM   36  C20 UNL     1      12.142  62.486  27.269  1.00  0.00     0.015 A 
HETATM   37  C22 UNL     1      14.330  63.628  26.899  1.00  0.00    -0.027 A 
HETATM   38  C23 UNL     1      14.297  63.909  25.423  1.00  0.00     0.051 C 
BRANCH  34  39
HETATM   39  C17 UNL     1      10.885  61.124  30.543  1.00  0.00     0.293 C 
HETATM   40  O3  UNL     1      10.709  61.670  31.659  1.00  0.00    -0.259 OA
BRANCH  39  41
HETATM   41  O4  UNL     1      10.233  59.932  30.292  1.00  0.00    -0.323 OA
HETATM   42  C18 UNL     1       8.938  59.658  30.823  1.00  0.00     0.213 C 
ENDBRANCH  39  41
ENDBRANCH  34  39
ENDBRANCH  27  28
ENDBRANCH   1  27
TORSDOF 13
ENDMDL
MODEL 4
REMARK VINA RESULT: -8.320084652      2.139      5.251
REMARK  13 active torsions:
REMARK  status: ('A' for Active; 'I' for Inactive)
REMARK       I    between atoms: N1_2  and  C2_4 
REMARK    1  A    between atoms: C2_4  and  C3_6 
REMARK    2  A    between atoms: C3_6  and  C4_7 
REMARK    3  A    between atoms: C4_7  and  C5_8 
REMARK    4  A    between atoms: C4_7  and  C24_32 
REMARK    5  A    between atoms: C5_8  and  C6_9 
REMARK    6  A    between atoms: C6_9  and  C7_10 
REMARK    7  A    between atoms: C6_9  and  C12_16 
REMARK    8  A    between atoms: C7_10  and  C8_11 
REMARK    9  A    between atoms: C10_13  and  C11_14 
REMARK   10  A    between atoms: C12_16  and  C13_17 
REMARK   11  A    between atoms: C16_22  and  C17_23 
REMARK   12  A    between atoms: C17_23  and  O4_25 
REMARK       I    between atoms: C24_32  and  N3_34 
REMARK   13  A    between atoms: N3_34  and  C25_36 
ROOT
HETATM    1  C6  UNL     1      15.955  63.785  25.039  1.00  0.00    -0.004 C 
ENDROOT
BRANCH   1   2
HETATM    2  C5  UNL     1      16.497  62.458  25.409  1.00  0.00     0.020 C 
BRANCH   2   3
HETATM    3  C4  UNL     1      17.955  62.213  25.287  1.00  0.00     0.087 C 
BRANCH   3   4
HETATM    4  C3  UNL     1      18.178  61.735  23.842  1.00  0.00     0.117 C 
BRANCH   4   5
HETATM    5  C2  UNL     1      18.494  60.298  23.790  1.00  0.00     0.217 C 
HETATM    6  N1  UNL     1      19.223  59.719  24.854  1.00  0.00    -0.365 N 
HETATM    7  C1  UNL     1      19.537  58.318  24.815  1.00  0.00     0.149 C 
ATOM      8  H1  UNL     1      19.524  60.292  25.643  1.00  0.00     0.161 HD
HETATM    9  O1  UNL     1      18.124  59.608  22.824  1.00  0.00    -0.274 OA
ENDBRANCH   4   5
ENDBRANCH   3   4
BRANCH   3  10
HETATM   10  C24 UNL     1      18.765  63.511  25.322  1.00  0.00     0.226 C 
HETATM   11  O5  UNL     1      18.837  64.164  24.248  1.00  0.00    -0.273 OA
HETATM   12  N3  UNL     1      19.369  63.903  26.494  1.00  0.00    -0.327 N 
ATOM     13  H3  UNL     1      19.241  63.293  27.301  1.00  0.00     0.169 HD
BRANCH  12  14
HETATM   14  C25 UNL     1      20.143  65.058  26.692  1.00  0.00     0.034 A 
HETATM   15  C26 UNL     1      21.449  65.219  26.289  1.00  0.00     0.030 A 
HETATM   16  C27 UNL     1      22.146  66.418  26.514  1.00  0.00     0.009 A 
HETATM   17  C28 UNL     1      21.564  67.485  27.145  1.00  0.00    -0.062 A 
HETATM   18  C29 UNL     1      22.257  68.762  27.401  1.00  0.00     0.048 C 
HETATM   19  C30 UNL     1      20.253  67.330  27.553  1.00  0.00     0.009 A 
HETATM   20  C31 UNL     1      19.565  66.170  27.339  1.00  0.00     0.030 A 
ENDBRANCH  12  14
ENDBRANCH   3  10
ENDBRANCH   2   3
ENDBRANCH   1   2
BRANCH   1  21
HETATM   21  C7  UNL     1      15.211  63.814  23.751  1.00  0.00     0.039 C 
BRANCH  21  22
HETATM   22  C8  UNL     1      15.867  64.678  22.732  1.00  0.00    -0.081 C 
HETATM   23  C9  UNL     1      15.833  66.142  22.882  1.00  0.00     0.043 C 
HETATM   24  C10 UNL     1      16.468  64.121  21.712  1.00  0.00     0.043 C 
BRANCH  24  25
HETATM   25  C11 UNL     1      17.138  64.883  20.663  1.00  0.00     0.259 C 
HETATM   26  O2  UNL     1      18.368  64.733  20.460  1.00  0.00    -0.302 OA
ENDBRANCH  24  25
ENDBRANCH  21  22
ENDBRANCH   1  21
BRANCH   1  27
HETATM   27  C12 UNL     1      15.341  64.598  26.098  1.00  0.00     0.062 C 
BRANCH  27  28
HETATM   28  C13 UNL     1      14.514  63.891  27.105  1.00  0.00     0.017 A 
HETATM   29  N2  UNL     1      13.357  63.246  26.772  1.00  0.00    -0.358 N 
HETATM   30  C14 UNL     1      12.813  62.648  27.841  1.00  0.00     0.044 A 
ATOM     31  H2  UNL     1      12.959  63.223  25.833  1.00  0.00     0.166 HD
HETATM   32  C15 UNL     1      11.661  61.882  28.020  1.00  0.00     0.048 A 
HETATM   33  C21 UNL     1      13.659  62.927  28.890  1.00  0.00    -0.002 A 
HETATM   34  C16 UNL     1      11.366  61.396  29.267  1.00  0.00     0.041 A 
HETATM   35  C19 UNL     1      12.231  61.689  30.312  1.00  0.00     0.018 A 
HETATM   36  C20 UNL     1      13.373  62.444  30.153  1.00  0.00     0.015 A 
HETATM   37  C22 UNL     1      14.707  63.690  28.451  1.00  0.00    -0.027 A 
HETATM   38  C23 UNL     1      15.834  64.247  29.274  1.00  0.00     0.051 C 
BRANCH  34  39
HETATM   39  C17 UNL     1      10.167  60.581  29.518  1.00  0.00     0.293 C 
HETATM   40  O3  UNL     1       9.981  59.548  28.831  1.00  0.00    -0.259 OA
BRANCH  39  41
HETATM   41  O4  UNL     1       9.227  60.901  30.480  1.00  0.00    -0.323 OA
HETATM   42  C18 UNL     1       8.432  59.901  31.114  1.00  0.00     0.213 C 
ENDBRANCH  39  41
ENDBRANCH  34  39
ENDBRANCH  27  28
ENDBRANCH   1  27
TORSDOF 13
ENDMDL
MODEL 5
REMARK VINA RESULT: -8.192270034      2.594      6.314
REMARK  13 active torsions:
REMARK  status: ('A' for Active; 'I' for Inactive)
REMARK       I    between atoms: N1_2  and  C2_4 
REMARK    1  A    between atoms: C2_4  and  C3_6 
REMARK    2  A    between atoms: C3_6  and  C4_7 
REMARK    3  A    between atoms: C4_7  and  C5_8 
REMARK    4  A    between atoms: C4_7  and  C24_32 
REMARK    5  A    between atoms: C5_8  and  C6_9 
REMARK    6  A    between atoms: C6_9  and  C7_10 
REMARK    7  A    between atoms: C6_9  and  C12_16 
REMARK    8  A    between atoms: C7_10  and  C8_11 
REMARK    9  A    between atoms: C10_13  and  C11_14 
REMARK   10  A    between atoms: C12_16  and  C13_17 
REMARK   11  A    between atoms: C16_22  and  C17_23 
REMARK   12  A    between atoms: C17_23  and  O4_25 
REMARK       I    between atoms: C24_32  and  N3_34 
REMARK   13  A    between atoms: N3_34  and  C25_36 
ROOT
HETATM    1  C6  UNL     1      15.159  65.899  23.868  1.00  0.00    -0.004 C 
ENDROOT
BRANCH   1   2
HETATM    2  C5  UNL     1      16.433  65.280  23.436  1.00  0.00     0.020 C 
BRANCH   2   3
HETATM    3  C4  UNL     1      16.397  64.023  22.652  1.00  0.00     0.087 C 
BRANCH   3   4
HETATM    4  C3  UNL     1      17.550  64.130  21.639  1.00  0.00     0.117 C 
BRANCH   4   5
HETATM    5  C2  UNL     1      17.087  64.666  20.348  1.00  0.00     0.217 C 
HETATM    6  N1  UNL     1      17.695  65.835  19.835  1.00  0.00    -0.365 N 
HETATM    7  C1  UNL     1      17.252  66.367  18.577  1.00  0.00     0.149 C 
ATOM      8  H1  UNL     1      18.442  66.297  20.355  1.00  0.00     0.161 HD
HETATM    9  O1  UNL     1      16.174  64.098  19.722  1.00  0.00    -0.274 OA
ENDBRANCH   4   5
ENDBRANCH   3   4
BRANCH   3  10
HETATM   10  C24 UNL     1      16.818  62.809  23.484  1.00  0.00     0.226 C 
HETATM   11  O5  UNL     1      15.973  62.360  24.302  1.00  0.00    -0.273 OA
HETATM   12  N3  UNL     1      18.071  62.269  23.311  1.00  0.00    -0.327 N 
ATOM     13  H3  UNL     1      18.671  62.716  22.618  1.00  0.00     0.169 HD
BRANCH  12  14
HETATM   14  C25 UNL     1      18.610  61.165  23.991  1.00  0.00     0.034 A 
HETATM   15  C26 UNL     1      19.272  61.218  25.197  1.00  0.00     0.030 A 
HETATM   16  C27 UNL     1      19.765  60.058  25.817  1.00  0.00     0.009 A 
HETATM   17  C28 UNL     1      19.614  58.818  25.257  1.00  0.00    -0.062 A 
HETATM   18  C29 UNL     1      20.115  57.574  25.872  1.00  0.00     0.048 C 
HETATM   19  C30 UNL     1      18.951  58.757  24.045  1.00  0.00     0.009 A 
HETATM   20  C31 UNL     1      18.466  59.877  23.433  1.00  0.00     0.030 A 
ENDBRANCH  12  14
ENDBRANCH   3  10
ENDBRANCH   2   3
ENDBRANCH   1   2
BRANCH   1  21
HETATM   21  C7  UNL     1      13.941  65.293  23.268  1.00  0.00     0.039 C 
BRANCH  21  22
HETATM   22  C8  UNL     1      13.039  66.310  22.659  1.00  0.00    -0.081 C 
HETATM   23  C9  UNL     1      11.807  66.709  23.359  1.00  0.00     0.043 C 
HETATM   24  C10 UNL     1      13.356  66.835  21.504  1.00  0.00     0.043 C 
BRANCH  24  25
HETATM   25  C11 UNL     1      12.537  67.837  20.829  1.00  0.00     0.259 C 
HETATM   26  O2  UNL     1      12.919  69.031  20.770  1.00  0.00    -0.302 OA
ENDBRANCH  24  25
ENDBRANCH  21  22
ENDBRANCH   1  21
BRANCH   1  27
HETATM   27  C12 UNL     1      15.010  66.250  25.288  1.00  0.00     0.062 C 
BRANCH  27  28
HETATM   28  C13 UNL     1      14.490  65.200  26.197  1.00  0.00     0.017 A 
HETATM   29  N2  UNL     1      13.155  64.944  26.322  1.00  0.00    -0.358 N 
HETATM   30  C14 UNL     1      12.936  63.927  27.167  1.00  0.00     0.044 A 
ATOM     31  H2  UNL     1      12.420  65.459  25.837  1.00  0.00     0.166 HD
HETATM   32  C15 UNL     1      11.777  63.296  27.620  1.00  0.00     0.048 A 
HETATM   33  C21 UNL     1      14.183  63.526  27.592  1.00  0.00    -0.002 A 
HETATM   34  C16 UNL     1      11.881  62.255  28.505  1.00  0.00     0.041 A 
HETATM   35  C19 UNL     1      13.146  61.867  28.922  1.00  0.00     0.018 A 
HETATM   36  C20 UNL     1      14.302  62.478  28.485  1.00  0.00     0.015 A 
HETATM   37  C22 UNL     1      15.145  64.301  27.004  1.00  0.00    -0.027 A 
HETATM   38  C23 UNL     1      16.630  64.226  27.221  1.00  0.00     0.051 C 
BRANCH  34  39
HETATM   39  C17 UNL     1      10.695  61.551  29.016  1.00  0.00     0.293 C 
HETATM   40  O3  UNL     1      10.405  60.427  28.540  1.00  0.00    -0.259 OA
BRANCH  39  41
HETATM   41  O4  UNL     1       9.877  62.071  30.002  1.00  0.00    -0.323 OA
HETATM   42  C18 UNL     1       9.680  61.399  31.244  1.00  0.00     0.213 C 
ENDBRANCH  39  41
ENDBRANCH  34  39
ENDBRANCH  27  28
ENDBRANCH   1  27
TORSDOF 13
ENDMDL
