MODEL 1
REMARK VINA RESULT: -8.774063428      0.000      0.000
REMARK  10 active torsions:
REMARK  status: ('A' for Active; 'I' for Inactive)
REMARK    1  A    between atoms: C5_5  and  N1_6 
REMARK    2  A    between atoms: N1_6  and  C6_7 
REMARK       I    between atoms: N1_6  and  C9_12 
REMARK    3  A    between atoms: C6_7  and  C7_8 
REMARK    4  A    between atoms: C7_8  and  C8_9 
REMARK    5  A    between atoms: C9_12  and  C10_14 
REMARK    6  A    between atoms: C10_14  and  C11_15 
REMARK    7  A    between atoms: C11_15  and  O3_16 
REMARK    8  A    between atoms: O3_16  and  C12_17 
REMARK    9  A    between atoms: C17_22  and  N3_23 
REMARK       I    between atoms: N3_23  and  C18_25 
REMARK       I    between atoms: C18_25  and  N4_27 
REMARK   10  A    between atoms: N4_27  and  C19_29 
ROOT
HETATM    1  C12 UNL     1      15.527  65.561  23.027  1.00  0.00     0.070 A 
HETATM    2  C13 UNL     1      14.539  66.226  22.263  1.00  0.00     0.037 A 
HETATM    3  C14 UNL     1      13.330  66.540  22.813  1.00  0.00     0.012 A 
HETATM    4  C15 UNL     1      12.990  66.247  24.113  1.00  0.00    -0.035 A 
HETATM    5  C16 UNL     1      11.656  66.629  24.657  1.00  0.00     0.050 C 
HETATM    6  C17 UNL     1      13.947  65.594  24.900  1.00  0.00     0.044 A 
HETATM    7  C29 UNL     1      15.163  65.278  24.334  1.00  0.00     0.066 A 
ENDROOT
BRANCH   1   8
HETATM    8  O3  UNL     1      16.724  65.262  22.445  1.00  0.00    -0.351 OA
BRANCH   8   9
HETATM    9  C11 UNL     1      17.344  64.036  22.255  1.00  0.00     0.185 C 
BRANCH   9  10
HETATM   10  C10 UNL     1      18.338  63.806  23.368  1.00  0.00     0.130 C 
BRANCH  10  11
HETATM   11  C9  UNL     1      18.473  62.381  23.736  1.00  0.00     0.226 C 
HETATM   12  N1  UNL     1      18.663  62.042  25.117  1.00  0.00    -0.318 N 
HETATM   13  O2  UNL     1      18.426  61.440  22.914  1.00  0.00    -0.273 OA
BRANCH  12  14
HETATM   14  C5  UNL     1      18.848  63.076  26.095  1.00  0.00     0.037 A 
HETATM   15  C4  UNL     1      17.791  63.496  26.865  1.00  0.00     0.030 A 
HETATM   16  C3  UNL     1      18.015  64.516  27.803  1.00  0.00     0.009 A 
HETATM   17  C2  UNL     1      19.244  65.086  27.957  1.00  0.00    -0.062 A 
HETATM   18  C1  UNL     1      19.432  66.161  28.959  1.00  0.00     0.048 C 
HETATM   19  C31 UNL     1      20.280  64.632  27.159  1.00  0.00     0.009 A 
HETATM   20  C30 UNL     1      20.088  63.637  26.235  1.00  0.00     0.030 A 
ENDBRANCH  12  14
BRANCH  12  21
HETATM   21  C6  UNL     1      18.630  60.693  25.587  1.00  0.00     0.141 C 
BRANCH  21  22
HETATM   22  C7  UNL     1      19.963  60.032  25.633  1.00  0.00     0.119 C 
BRANCH  22  23
HETATM   23  C8  UNL     1      19.767  58.596  25.231  1.00  0.00     0.232 C 
HETATM   24  N2  UNL     1      19.327  58.343  23.913  1.00  0.00    -0.062 NA
HETATM   25  O1  UNL     1      19.990  57.696  26.052  1.00  0.00    -0.277 OA
ENDBRANCH  22  23
ENDBRANCH  21  22
ENDBRANCH  12  21
ENDBRANCH  10  11
ENDBRANCH   9  10
ENDBRANCH   8   9
ENDBRANCH   1   8
BRANCH   6  26
HETATM   26  N3  UNL     1      13.578  65.257  26.221  1.00  0.00    -0.308 N 
HETATM   27  C18 UNL     1      13.464  63.990  26.801  1.00  0.00     0.321 C 
HETATM   28  O4  UNL     1      13.746  62.955  26.168  1.00  0.00    -0.247 OA
HETATM   29  N4  UNL     1      13.024  63.803  28.155  1.00  0.00    -0.337 N 
ATOM     30  H4  UNL     1      12.760  64.620  28.706  1.00  0.00     0.164 HD
ATOM     31  H3  UNL     1      13.367  66.045  26.835  1.00  0.00     0.170 HD
BRANCH  29  32
HETATM   32  C19 UNL     1      12.940  62.480  28.770  1.00  0.00     0.094 C 
HETATM   33  C20 UNL     1      14.001  62.251  29.778  1.00  0.00     0.030 C 
HETATM   34  C21 UNL     1      13.614  62.174  31.201  1.00  0.00    -0.016 C 
HETATM   35  C22 UNL     1      14.371  63.107  32.119  1.00  0.00     0.010 C 
HETATM   36  C23 UNL     1      12.125  62.340  31.464  1.00  0.00     0.009 C 
HETATM   37  C24 UNL     1      11.465  61.383  30.494  1.00  0.00    -0.009 C 
HETATM   38  C25 UNL     1      10.057  61.052  30.829  1.00  0.00     0.011 C 
HETATM   39  C26 UNL     1      11.554  62.067  29.141  1.00  0.00    -0.024 C 
HETATM   40  C27 UNL     1      10.642  63.258  29.137  1.00  0.00     0.017 C 
HETATM   41  C28 UNL     1      10.968  61.040  28.153  1.00  0.00     0.017 C 
ENDBRANCH  29  32
ENDBRANCH   6  26
TORSDOF 10
ENDMDL
MODEL 2
REMARK VINA RESULT: -8.597516934      3.310      8.072
REMARK  10 active torsions:
REMARK  status: ('A' for Active; 'I' for Inactive)
REMARK    1  A    between atoms: C5_5  and  N1_6 
REMARK    2  A    between atoms: N1_6  and  C6_7 
REMARK       I    between atoms: N1_6  and  C9_12 
REMARK    3  A    between atoms: C6_7  and  C7_8 
REMARK    4  A    between atoms: C7_8  and  C8_9 
REMARK    5  A    between atoms: C9_12  and  C10_14 
REMARK    6  A    between atoms: C10_14  and  C11_15 
REMARK    7  A    between atoms: C11_15  and  O3_16 
REMARK    8  A    between atoms: O3_16  and  C12_17 
REMARK    9  A    between atoms: C17_22  and  N3_23 
REMARK       I    between atoms: N3_23  and  C18_25 
REMARK       I    between atoms: C18_25  and  N4_27 
REMARK   10  A    between atoms: N4_27  and  C19_29 
ROOT
HETATM    1  C12 UNL     1      17.069  66.930  26.112  1.00  0.00     0.070 A 
HETATM    2  C13 UNL     1      16.132  66.545  27.101  1.00  0.00     0.037 A 
HETATM    3  C14 UNL     1      14.793  66.576  26.838  1.00  0.00     0.012 A 
HETATM    4  C15 UNL     1      14.267  66.966  25.629  1.00  0.00    -0.035 A 
HETATM    5  C16 UNL     1      12.794  66.965  25.402  1.00  0.00     0.050 C 
HETATM    6  C17 UNL     1      15.167  67.348  24.626  1.00  0.00     0.044 A 
HETATM    7  C29 UNL     1      16.516  67.317  24.903  1.00  0.00     0.066 A 
ENDROOT
BRANCH   1   8
HETATM    8  O3  UNL     1      18.400  66.887  26.410  1.00  0.00    -0.351 OA
BRANCH   8   9
HETATM    9  C11 UNL     1      19.359  65.941  26.082  1.00  0.00     0.185 C 
BRANCH   9  10
HETATM   10  C10 UNL     1      18.941  64.600  26.637  1.00  0.00     0.130 C 
BRANCH  10  11
HETATM   11  C9  UNL     1      19.304  63.472  25.754  1.00  0.00     0.226 C 
HETATM   12  N1  UNL     1      18.257  62.632  25.247  1.00  0.00    -0.318 N 
HETATM   13  O2  UNL     1      20.475  63.201  25.412  1.00  0.00    -0.273 OA
BRANCH  12  14
HETATM   14  C5  UNL     1      16.905  62.811  25.697  1.00  0.00     0.037 A 
HETATM   15  C4  UNL     1      16.586  62.619  27.019  1.00  0.00     0.030 A 
HETATM   16  C3  UNL     1      15.250  62.797  27.413  1.00  0.00     0.009 A 
HETATM   17  C2  UNL     1      14.284  63.149  26.518  1.00  0.00    -0.062 A 
HETATM   18  C1  UNL     1      12.887  63.323  26.981  1.00  0.00     0.048 C 
HETATM   19  C31 UNL     1      14.651  63.331  25.196  1.00  0.00     0.009 A 
HETATM   20  C30 UNL     1      15.949  63.164  24.785  1.00  0.00     0.030 A 
ENDBRANCH  12  14
BRANCH  12  21
HETATM   21  C6  UNL     1      18.490  61.630  24.255  1.00  0.00     0.141 C 
BRANCH  21  22
HETATM   22  C7  UNL     1      18.955  60.327  24.804  1.00  0.00     0.119 C 
BRANCH  22  23
HETATM   23  C8  UNL     1      18.753  59.289  23.734  1.00  0.00     0.232 C 
HETATM   24  N2  UNL     1      19.172  57.971  24.017  1.00  0.00    -0.062 NA
HETATM   25  O1  UNL     1      18.238  59.616  22.656  1.00  0.00    -0.277 OA
ENDBRANCH  22  23
ENDBRANCH  21  22
ENDBRANCH  12  21
ENDBRANCH  10  11
ENDBRANCH   9  10
ENDBRANCH   8   9
ENDBRANCH   1   8
BRANCH   6  26
HETATM   26  N3  UNL     1      14.621  67.789  23.400  1.00  0.00    -0.308 N 
HETATM   27  C18 UNL     1      15.068  67.530  22.101  1.00  0.00     0.321 C 
HETATM   28  O4  UNL     1      16.043  66.787  21.883  1.00  0.00    -0.247 OA
HETATM   29  N4  UNL     1      14.434  68.097  20.944  1.00  0.00    -0.337 N 
ATOM     30  H4  UNL     1      13.645  68.731  21.075  1.00  0.00     0.164 HD
ATOM     31  H3  UNL     1      13.789  68.375  23.472  1.00  0.00     0.170 HD
BRANCH  29  32
HETATM   32  C19 UNL     1      14.882  67.796  19.586  1.00  0.00     0.094 C 
HETATM   33  C20 UNL     1      13.782  67.321  18.715  1.00  0.00     0.030 C 
HETATM   34  C21 UNL     1      13.318  68.202  17.624  1.00  0.00    -0.016 C 
HETATM   35  C22 UNL     1      11.831  68.474  17.613  1.00  0.00     0.010 C 
HETATM   36  C23 UNL     1      14.053  69.529  17.523  1.00  0.00     0.009 C 
HETATM   37  C24 UNL     1      15.519  69.149  17.556  1.00  0.00    -0.009 C 
HETATM   38  C25 UNL     1      16.434  70.208  17.063  1.00  0.00     0.011 C 
HETATM   39  C26 UNL     1      15.808  68.816  19.009  1.00  0.00    -0.024 C 
HETATM   40  C27 UNL     1      15.753  70.079  19.818  1.00  0.00     0.017 C 
HETATM   41  C28 UNL     1      17.273  68.338  19.009  1.00  0.00     0.017 C 
ENDBRANCH  29  32
ENDBRANCH   6  26
TORSDOF 10
ENDMDL
MODEL 3
REMARK VINA RESULT: -8.535766135      3.761      8.566
REMARK  10 active torsions:
REMARK  status: ('A' for Active; 'I' for Inactive)
REMARK    1  A    between atoms: C5_5  and  N1_6 
REMARK    2  A    between atoms: N1_6  and  C6_7 
REMARK       I    between atoms: N1_6  and  C9_12 
REMARK    3  A    between atoms: C6_7  and  C7_8 
REMARK    4  A    between atoms: C7_8  and  C8_9 
REMARK    5  A    between atoms: C9_12  and  C10_14 
REMARK    6  A    between atoms: C10_14  and  C11_15 
REMARK    7  A    between atoms: C11_15  and  O3_16 
REMARK    8  A    between atoms: O3_16  and  C12_17 
REMARK    9  A    between atoms: C17_22  and  N3_23 
REMARK       I    between atoms: N3_23  and  C18_25 
REMARK       I    between atoms: C18_25  and  N4_27 
REMARK   10  A    between atoms: N4_27  and  C19_29 
ROOT
HETATM    1  C12 UNL     1      16.436  62.684  23.572  1.00  0.00     0.070 A 
HETATM    2  C13 UNL     1      15.476  62.544  24.603  1.00  0.00     0.037 A 
HETATM    3  C14 UNL     1      14.511  63.491  24.787  1.00  0.00     0.012 A 
HETATM    4  C15 UNL     1      14.397  64.618  24.008  1.00  0.00    -0.035 A 
HETATM    5  C16 UNL     1      13.311  65.609  24.254  1.00  0.00     0.050 C 
HETATM    6  C17 UNL     1      15.327  64.787  22.975  1.00  0.00     0.044 A 
HETATM    7  C29 UNL     1      16.300  63.826  22.800  1.00  0.00     0.066 A 
ENDROOT
BRANCH   1   8
HETATM    8  O3  UNL     1      17.387  61.718  23.417  1.00  0.00    -0.351 OA
BRANCH   8   9
HETATM    9  C11 UNL     1      18.093  61.000  24.370  1.00  0.00     0.185 C 
BRANCH   9  10
HETATM   10  C10 UNL     1      18.149  61.798  25.651  1.00  0.00     0.130 C 
BRANCH  10  11
HETATM   11  C9  UNL     1      19.493  62.348  25.929  1.00  0.00     0.226 C 
HETATM   12  N1  UNL     1      19.593  63.658  26.506  1.00  0.00    -0.318 N 
HETATM   13  O2  UNL     1      20.559  61.739  25.697  1.00  0.00    -0.273 OA
BRANCH  12  14
HETATM   14  C5  UNL     1      18.416  64.461  26.684  1.00  0.00     0.037 A 
HETATM   15  C4  UNL     1      18.095  65.429  25.765  1.00  0.00     0.030 A 
HETATM   16  C3  UNL     1      16.940  66.197  25.984  1.00  0.00     0.009 A 
HETATM   17  C2  UNL     1      16.149  65.998  27.076  1.00  0.00    -0.062 A 
HETATM   18  C1  UNL     1      14.940  66.835  27.265  1.00  0.00     0.048 C 
HETATM   19  C31 UNL     1      16.511  65.011  27.976  1.00  0.00     0.009 A 
HETATM   20  C30 UNL     1      17.634  64.248  27.786  1.00  0.00     0.030 A 
ENDBRANCH  12  14
BRANCH  12  21
HETATM   21  C6  UNL     1      20.833  64.200  26.968  1.00  0.00     0.141 C 
BRANCH  21  22
HETATM   22  C7  UNL     1      21.707  64.726  25.884  1.00  0.00     0.119 C 
BRANCH  22  23
HETATM   23  C8  UNL     1      22.189  66.085  26.314  1.00  0.00     0.232 C 
HETATM   24  N2  UNL     1      23.578  66.332  26.255  1.00  0.00    -0.062 NA
HETATM   25  O1  UNL     1      21.370  66.928  26.704  1.00  0.00    -0.277 OA
ENDBRANCH  22  23
ENDBRANCH  21  22
ENDBRANCH  12  21
ENDBRANCH  10  11
ENDBRANCH   9  10
ENDBRANCH   8   9
ENDBRANCH   1   8
BRANCH   6  26
HETATM   26  N3  UNL     1      15.233  65.966  22.204  1.00  0.00    -0.308 N 
HETATM   27  C18 UNL     1      15.510  66.147  20.845  1.00  0.00     0.321 C 
HETATM   28  O4  UNL     1      15.850  65.196  20.117  1.00  0.00    -0.247 OA
HETATM   29  N4  UNL     1      15.417  67.430  20.208  1.00  0.00    -0.337 N 
ATOM     30  H4  UNL     1      15.165  68.244  20.770  1.00  0.00     0.164 HD
ATOM     31  H3  UNL     1      14.921  66.798  22.706  1.00  0.00     0.170 HD
BRANCH  29  32
HETATM   32  C19 UNL     1      15.673  67.610  18.780  1.00  0.00     0.094 C 
HETATM   33  C20 UNL     1      14.472  67.358  17.950  1.00  0.00     0.030 C 
HETATM   34  C21 UNL     1      13.833  68.506  17.273  1.00  0.00    -0.016 C 
HETATM   35  C22 UNL     1      12.353  68.660  17.541  1.00  0.00     0.010 C 
HETATM   36  C23 UNL     1      14.511  69.844  17.516  1.00  0.00     0.009 C 
HETATM   37  C24 UNL     1      15.975  69.579  17.237  1.00  0.00    -0.009 C 
HETATM   38  C25 UNL     1      16.782  70.803  17.001  1.00  0.00     0.011 C 
HETATM   39  C26 UNL     1      16.479  68.824  18.453  1.00  0.00    -0.024 C 
HETATM   40  C27 UNL     1      16.508  69.756  19.628  1.00  0.00     0.017 C 
HETATM   41  C28 UNL     1      17.941  68.477  18.111  1.00  0.00     0.017 C 
ENDBRANCH  29  32
ENDBRANCH   6  26
TORSDOF 10
ENDMDL
MODEL 4
REMARK VINA RESULT: -8.414368571      3.722      7.157
REMARK  10 active torsions:
REMARK  status: ('A' for Active; 'I' for Inactive)
REMARK    1  A    between atoms: C5_5  and  N1_6 
REMARK    2  A    between atoms: N1_6  and  C6_7 
REMARK       I    between atoms: N1_6  and  C9_12 
REMARK    3  A    between atoms: C6_7  and  C7_8 
REMARK    4  A    between atoms: C7_8  and  C8_9 
REMARK    5  A    between atoms: C9_12  and  C10_14 
REMARK    6  A    between atoms: C10_14  and  C11_15 
REMARK    7  A    between atoms: C11_15  and  O3_16 
REMARK    8  A    between atoms: O3_16  and  C12_17 
REMARK    9  A    between atoms: C17_22  and  N3_23 
REMARK       I    between atoms: N3_23  and  C18_25 
REMARK       I    between atoms: C18_25  and  N4_27 
REMARK   10  A    between atoms: N4_27  and  C19_29 
ROOT
HETATM    1  C12 UNL     1      16.879  63.555  23.070  1.00  0.00     0.070 A 
HETATM    2  C13 UNL     1      18.233  63.876  23.331  1.00  0.00     0.037 A 
HETATM    3  C14 UNL     1      18.762  63.695  24.576  1.00  0.00     0.012 A 
HETATM    4  C15 UNL     1      18.045  63.199  25.640  1.00  0.00    -0.035 A 
HETATM    5  C16 UNL     1      18.687  63.013  26.972  1.00  0.00     0.050 C 
HETATM    6  C17 UNL     1      16.703  62.866  25.415  1.00  0.00     0.044 A 
HETATM    7  C29 UNL     1      16.178  63.056  24.156  1.00  0.00     0.066 A 
ENDROOT
BRANCH   1   8
HETATM    8  O3  UNL     1      16.383  63.750  21.814  1.00  0.00    -0.351 OA
BRANCH   8   9
HETATM    9  C11 UNL     1      15.999  64.920  21.177  1.00  0.00     0.185 C 
BRANCH   9  10
HETATM   10  C10 UNL     1      16.459  64.874  19.739  1.00  0.00     0.130 C 
BRANCH  10  11
HETATM   11  C9  UNL     1      17.606  65.768  19.473  1.00  0.00     0.226 C 
HETATM   12  N1  UNL     1      17.346  67.105  19.022  1.00  0.00    -0.318 N 
HETATM   13  O2  UNL     1      18.801  65.433  19.621  1.00  0.00    -0.273 OA
BRANCH  12  14
HETATM   14  C5  UNL     1      16.005  67.515  18.715  1.00  0.00     0.037 A 
HETATM   15  C4  UNL     1      15.309  66.899  17.704  1.00  0.00     0.030 A 
HETATM   16  C3  UNL     1      14.003  67.338  17.432  1.00  0.00     0.009 A 
HETATM   17  C2  UNL     1      13.429  68.349  18.143  1.00  0.00    -0.062 A 
HETATM   18  C1  UNL     1      12.048  68.780  17.818  1.00  0.00     0.048 C 
HETATM   19  C31 UNL     1      14.168  68.941  19.153  1.00  0.00     0.009 A 
HETATM   20  C30 UNL     1      15.445  68.532  19.439  1.00  0.00     0.030 A 
ENDBRANCH  12  14
BRANCH  12  21
HETATM   21  C6  UNL     1      18.376  68.089  18.906  1.00  0.00     0.141 C 
BRANCH  21  22
HETATM   22  C7  UNL     1      19.086  68.074  17.598  1.00  0.00     0.119 C 
BRANCH  22  23
HETATM   23  C8  UNL     1      20.530  67.751  17.875  1.00  0.00     0.232 C 
HETATM   24  N2  UNL     1      21.137  68.381  18.983  1.00  0.00    -0.062 NA
HETATM   25  O1  UNL     1      21.132  66.960  17.135  1.00  0.00    -0.277 OA
ENDBRANCH  22  23
ENDBRANCH  21  22
ENDBRANCH  12  21
ENDBRANCH  10  11
ENDBRANCH   9  10
ENDBRANCH   8   9
ENDBRANCH   1   8
BRANCH   6  26
HETATM   26  N3  UNL     1      15.959  62.397  26.520  1.00  0.00    -0.308 N 
HETATM   27  C18 UNL     1      14.908  63.024  27.196  1.00  0.00     0.321 C 
HETATM   28  O4  UNL     1      14.461  64.126  26.827  1.00  0.00    -0.247 OA
HETATM   29  N4  UNL     1      14.278  62.440  28.347  1.00  0.00    -0.337 N 
ATOM     30  H4  UNL     1      14.626  61.547  28.699  1.00  0.00     0.164 HD
ATOM     31  H3  UNL     1      16.224  61.477  26.873  1.00  0.00     0.170 HD
BRANCH  29  32
HETATM   32  C19 UNL     1      13.156  63.081  29.029  1.00  0.00     0.094 C 
HETATM   33  C20 UNL     1      11.845  62.688  28.463  1.00  0.00     0.030 C 
HETATM   34  C21 UNL     1      10.954  61.836  29.278  1.00  0.00    -0.016 C 
HETATM   35  C22 UNL     1      10.471  60.579  28.591  1.00  0.00     0.010 C 
HETATM   36  C23 UNL     1      11.509  61.460  30.642  1.00  0.00     0.009 C 
HETATM   37  C24 UNL     1      11.974  62.774  31.234  1.00  0.00    -0.009 C 
HETATM   38  C25 UNL     1      12.172  62.744  32.705  1.00  0.00     0.011 C 
HETATM   39  C26 UNL     1      13.274  63.092  30.518  1.00  0.00    -0.024 C 
HETATM   40  C27 UNL     1      14.324  62.116  30.960  1.00  0.00     0.017 C 
HETATM   41  C28 UNL     1      13.682  64.476  31.059  1.00  0.00     0.017 C 
ENDBRANCH  29  32
ENDBRANCH   6  26
TORSDOF 10
ENDMDL
MODEL 5
REMARK VINA RESULT: -8.290560888      3.155      7.964
REMARK  10 active torsions:
REMARK  status: ('A' for Active; 'I' for Inactive)
REMARK    1  A    between atoms: C5_5  and  N1_6 
REMARK    2  A    between atoms: N1_6  and  C6_7 
REMARK       I    between atoms: N1_6  and  C9_12 
REMARK    3  A    between atoms: C6_7  and  C7_8 
REMARK    4  A    between atoms: C7_8  and  C8_9 
REMARK    5  A    between atoms: C9_12  and  C10_14 
REMARK    6  A    between atoms: C10_14  and  C11_15 
REMARK    7  A    between atoms: C11_15  and  O3_16 
REMARK    8  A    between atoms: O3_16  and  C12_17 
REMARK    9  A    between atoms: C17_22  and  N3_23 
REMARK       I    between atoms: N3_23  and  C18_25 
REMARK       I    between atoms: C18_25  and  N4_27 
REMARK   10  A    between atoms: N4_27  and  C19_29 
ROOT
HETATM    1  C12 UNL     1      13.527  64.460  26.809  1.00  0.00     0.070 A 
HETATM    2  C13 UNL     1      12.371  64.389  27.623  1.00  0.00     0.037 A 
HETATM    3  C14 UNL     1      11.299  65.198  27.379  1.00  0.00     0.012 A 
HETATM    4  C15 UNL     1      11.259  66.115  26.355  1.00  0.00    -0.035 A 
HETATM    5  C16 UNL     1      10.051  66.960  26.135  1.00  0.00     0.050 C 
HETATM    6  C17 UNL     1      12.384  66.208  25.526  1.00  0.00     0.044 A 
HETATM    7  C29 UNL     1      13.462  65.388  25.783  1.00  0.00     0.066 A 
ENDROOT
BRANCH   1   8
HETATM    8  O3  UNL     1      14.580  63.637  27.081  1.00  0.00    -0.351 OA
BRANCH   8   9
HETATM    9  C11 UNL     1      15.864  63.940  27.508  1.00  0.00     0.185 C 
BRANCH   9  10
HETATM   10  C10 UNL     1      16.860  63.236  26.617  1.00  0.00     0.130 C 
BRANCH  10  11
HETATM   11  C9  UNL     1      17.208  64.017  25.411  1.00  0.00     0.226 C 
HETATM   12  N1  UNL     1      17.912  63.360  24.347  1.00  0.00    -0.318 N 
HETATM   13  O2  UNL     1      16.921  65.223  25.253  1.00  0.00    -0.273 OA
BRANCH  12  14
HETATM   14  C5  UNL     1      18.379  62.013  24.513  1.00  0.00     0.037 A 
HETATM   15  C4  UNL     1      17.899  61.012  23.706  1.00  0.00     0.030 A 
HETATM   16  C3  UNL     1      18.377  59.707  23.910  1.00  0.00     0.009 A 
HETATM   17  C2  UNL     1      19.293  59.427  24.880  1.00  0.00    -0.062 A 
HETATM   18  C1  UNL     1      19.766  58.034  25.058  1.00  0.00     0.048 C 
HETATM   19  C31 UNL     1      19.748  60.468  25.670  1.00  0.00     0.009 A 
HETATM   20  C30 UNL     1      19.298  61.751  25.492  1.00  0.00     0.030 A 
ENDBRANCH  12  14
BRANCH  12  21
HETATM   21  C6  UNL     1      18.136  63.981  23.079  1.00  0.00     0.141 C 
BRANCH  21  22
HETATM   22  C7  UNL     1      16.893  64.249  22.305  1.00  0.00     0.119 C 
BRANCH  22  23
HETATM   23  C8  UNL     1      17.290  64.421  20.864  1.00  0.00     0.232 C 
HETATM   24  N2  UNL     1      16.279  64.275  19.888  1.00  0.00    -0.062 NA
HETATM   25  O1  UNL     1      18.468  64.678  20.581  1.00  0.00    -0.277 OA
ENDBRANCH  22  23
ENDBRANCH  21  22
ENDBRANCH  12  21
ENDBRANCH  10  11
ENDBRANCH   9  10
ENDBRANCH   8   9
ENDBRANCH   1   8
BRANCH   6  26
HETATM   26  N3  UNL     1      12.355  67.179  24.502  1.00  0.00    -0.308 N 
HETATM   27  C18 UNL     1      12.079  67.007  23.141  1.00  0.00     0.321 C 
HETATM   28  O4  UNL     1      11.761  65.897  22.676  1.00  0.00    -0.247 OA
HETATM   29  N4  UNL     1      12.140  68.092  22.203  1.00  0.00    -0.337 N 
ATOM     30  H4  UNL     1      12.419  69.016  22.535  1.00  0.00     0.164 HD
ATOM     31  H3  UNL     1      12.564  68.135  24.793  1.00  0.00     0.170 HD
BRANCH  29  32
HETATM   32  C19 UNL     1      11.816  67.917  20.789  1.00  0.00     0.094 C 
HETATM   33  C20 UNL     1      10.448  68.376  20.456  1.00  0.00     0.030 C 
HETATM   34  C21 UNL     1      10.297  69.590  19.627  1.00  0.00    -0.016 C 
HETATM   35  C22 UNL     1       9.403  70.657  20.217  1.00  0.00     0.010 C 
HETATM   36  C23 UNL     1      11.605  70.235  19.200  1.00  0.00     0.009 C 
HETATM   37  C24 UNL     1      12.424  69.089  18.642  1.00  0.00    -0.009 C 
HETATM   38  C25 UNL     1      13.563  69.513  17.789  1.00  0.00     0.011 C 
HETATM   39  C26 UNL     1      12.912  68.323  19.858  1.00  0.00    -0.024 C 
HETATM   40  C27 UNL     1      13.924  69.157  20.585  1.00  0.00     0.017 C 
HETATM   41  C28 UNL     1      13.658  67.109  19.272  1.00  0.00     0.017 C 
ENDBRANCH  29  32
ENDBRANCH   6  26
TORSDOF 10
ENDMDL
