MODEL 1
REMARK VINA RESULT: -7.184103844      0.000      0.000
REMARK  15 active torsions:
REMARK  status: ('A' for Active; 'I' for Inactive)
REMARK    1  A    between atoms: C2_2  and  C3_3 
REMARK    2  A    between atoms: C3_3  and  C4_4 
REMARK    3  A    between atoms: C4_4  and  O1_5 
REMARK    4  A    between atoms: O1_5  and  C5_6 
REMARK    5  A    between atoms: C10_11  and  N1_12 
REMARK    6  A    between atoms: N1_12  and  C11_14 
REMARK    7  A    between atoms: C11_14  and  O2_15 
REMARK    8  A    between atoms: C11_14  and  C12_17 
REMARK    9  A    between atoms: C13_18  and  N2_19 
REMARK       I    between atoms: N2_19  and  C14_21 
REMARK       I    between atoms: C14_21  and  N3_23 
REMARK   10  A    between atoms: C20_30  and  C21_31 
REMARK       I    between atoms: C21_31  and  N4_33 
REMARK   11  A    between atoms: N4_33  and  C22_35 
REMARK   12  A    between atoms: C22_35  and  C23_36 
REMARK   13  A    between atoms: C23_36  and  C24_37 
REMARK   14  A    between atoms: C24_37  and  C25_38 
REMARK   15  A    between atoms: C27_40  and  C28_41 
ROOT
HETATM    1  C12 UNL     1      15.327  63.532  25.857  1.00  0.00     0.024 C 
HETATM    2  C13 UNL     1      15.416  63.321  24.588  1.00  0.00     0.025 C 
HETATM    3  C16 UNL     1      15.133  64.339  23.527  1.00  0.00     0.067 C 
HETATM    4  C17 UNL     1      14.925  65.751  23.948  1.00  0.00    -0.029 C 
HETATM    5  C18 UNL     1      13.532  66.169  23.513  1.00  0.00     0.016 C 
HETATM    6  C19 UNL     1      15.868  66.629  23.147  1.00  0.00     0.016 C 
HETATM    7  C20 UNL     1      15.160  66.011  25.395  1.00  0.00     0.098 C 
HETATM    8  C27 UNL     1      14.806  64.871  26.281  1.00  0.00     0.061 C 
ENDROOT
BRANCH   1   9
HETATM    9  C11 UNL     1      15.634  62.666  26.956  1.00  0.00     0.149 C 
BRANCH   9  10
HETATM   10  N1  UNL     1      15.022  62.147  28.080  1.00  0.00    -0.334 N 
ATOM     11  H1  UNL     1      14.923  61.133  28.114  1.00  0.00     0.168 HD
BRANCH  10  12
HETATM   12  C10 UNL     1      14.503  62.884  29.220  1.00  0.00     0.067 A 
HETATM   13  C5  UNL     1      13.189  62.606  29.636  1.00  0.00     0.095 A 
HETATM   14  C6  UNL     1      12.674  63.241  30.717  1.00  0.00     0.039 A 
HETATM   15  C7  UNL     1      13.419  64.153  31.418  1.00  0.00     0.003 A 
HETATM   16  C8  UNL     1      14.703  64.458  31.056  1.00  0.00     0.002 A 
HETATM   17  C9  UNL     1      15.218  63.787  29.929  1.00  0.00     0.032 A 
BRANCH  13  18
HETATM   18  O1  UNL     1      12.460  61.713  28.949  1.00  0.00    -0.349 OA
BRANCH  18  19
HETATM   19  C4  UNL     1      11.256  61.670  28.329  1.00  0.00     0.179 C 
BRANCH  19  20
HETATM   20  C3  UNL     1      10.335  60.534  28.608  1.00  0.00     0.053 C 
BRANCH  20  21
HETATM   21  C2  UNL     1      10.315  60.312  30.101  1.00  0.00    -0.035 C 
HETATM   22  C1  UNL     1       9.306  59.760  30.733  1.00  0.00     0.007 C 
ENDBRANCH  20  21
ENDBRANCH  19  20
ENDBRANCH  18  19
ENDBRANCH  13  18
ENDBRANCH  10  12
ENDBRANCH   9  10
BRANCH   9  23
HETATM   23  O2  UNL     1      16.895  62.210  26.901  1.00  0.00    -0.346 OA
ATOM     24  H2  UNL     1      17.483  62.905  27.171  1.00  0.00     0.219 HD
ENDBRANCH   9  23
ENDBRANCH   1   9
BRANCH   2  25
HETATM   25  N2  UNL     1      15.865  62.084  24.097  1.00  0.00    -0.312 N 
HETATM   26  C14 UNL     1      17.239  61.751  23.937  1.00  0.00     0.320 C 
HETATM   27  O3  UNL     1      18.236  62.453  24.168  1.00  0.00    -0.247 OA
HETATM   28  N3  UNL     1      17.580  60.426  23.438  1.00  0.00    -0.347 N 
HETATM   29  C15 UNL     1      18.942  60.064  23.270  1.00  0.00     0.151 C 
ATOM     30  H3  UNL     1      16.842  59.760  23.211  1.00  0.00     0.163 HD
ATOM     31  H2  UNL     1      15.166  61.384  23.842  1.00  0.00     0.170 HD
ENDBRANCH   2  25
BRANCH   8  32
HETATM   32  C28 UNL     1      13.398  64.869  26.658  1.00  0.00    -0.014 C 
HETATM   33  C29 UNL     1      12.651  65.512  27.478  1.00  0.00    -0.091 C 
HETATM   34  C30 UNL     1      11.165  65.105  27.482  1.00  0.00     0.042 C 
HETATM   35  C31 UNL     1      12.945  66.568  28.456  1.00  0.00     0.042 C 
ENDBRANCH   8  32
BRANCH   7  36
HETATM   36  C21 UNL     1      16.560  66.414  25.661  1.00  0.00     0.223 C 
HETATM   37  O4  UNL     1      16.756  67.577  26.084  1.00  0.00    -0.273 OA
HETATM   38  N4  UNL     1      17.693  65.573  25.472  1.00  0.00    -0.357 N 
ATOM     39  H4  UNL     1      17.537  64.628  25.122  1.00  0.00     0.162 HD
BRANCH  38  40
HETATM   40  C22 UNL     1      19.033  65.974  25.742  1.00  0.00     0.149 C 
BRANCH  40  41
HETATM   41  C23 UNL     1      20.068  64.948  25.814  1.00  0.00    -0.011 C 
BRANCH  41  42
HETATM   42  C24 UNL     1      20.558  64.373  27.056  1.00  0.00    -0.029 C 
BRANCH  42  43
HETATM   43  C25 UNL     1      19.806  63.557  28.000  1.00  0.00     0.022 C 
HETATM   44  C26 UNL     1      18.931  64.232  28.974  1.00  0.00     0.009 C 
ENDBRANCH  42  43
ENDBRANCH  41  42
ENDBRANCH  40  41
ENDBRANCH  38  40
ENDBRANCH   7  36
TORSDOF 15
ENDMDL
MODEL 2
REMARK VINA RESULT: -6.925706377      3.003      7.824
REMARK  15 active torsions:
REMARK  status: ('A' for Active; 'I' for Inactive)
REMARK    1  A    between atoms: C2_2  and  C3_3 
REMARK    2  A    between atoms: C3_3  and  C4_4 
REMARK    3  A    between atoms: C4_4  and  O1_5 
REMARK    4  A    between atoms: O1_5  and  C5_6 
REMARK    5  A    between atoms: C10_11  and  N1_12 
REMARK    6  A    between atoms: N1_12  and  C11_14 
REMARK    7  A    between atoms: C11_14  and  O2_15 
REMARK    8  A    between atoms: C11_14  and  C12_17 
REMARK    9  A    between atoms: C13_18  and  N2_19 
REMARK       I    between atoms: N2_19  and  C14_21 
REMARK       I    between atoms: C14_21  and  N3_23 
REMARK   10  A    between atoms: C20_30  and  C21_31 
REMARK       I    between atoms: C21_31  and  N4_33 
REMARK   11  A    between atoms: N4_33  and  C22_35 
REMARK   12  A    between atoms: C22_35  and  C23_36 
REMARK   13  A    between atoms: C23_36  and  C24_37 
REMARK   14  A    between atoms: C24_37  and  C25_38 
REMARK   15  A    between atoms: C27_40  and  C28_41 
ROOT
HETATM    1  C12 UNL     1      16.743  64.824  24.187  1.00  0.00     0.024 C 
HETATM    2  C13 UNL     1      17.869  64.231  24.399  1.00  0.00     0.025 C 
HETATM    3  C16 UNL     1      18.801  64.539  25.529  1.00  0.00     0.067 C 
HETATM    4  C17 UNL     1      18.323  65.452  26.603  1.00  0.00    -0.029 C 
HETATM    5  C18 UNL     1      19.250  66.652  26.644  1.00  0.00     0.016 C 
HETATM    6  C19 UNL     1      18.520  64.757  27.937  1.00  0.00     0.016 C 
HETATM    7  C20 UNL     1      16.894  65.852  26.491  1.00  0.00     0.098 C 
HETATM    8  C27 UNL     1      16.406  65.969  25.092  1.00  0.00     0.061 C 
ENDROOT
BRANCH   1   9
HETATM    9  C11 UNL     1      15.746  64.573  23.190  1.00  0.00     0.149 C 
BRANCH   9  10
HETATM   10  N1  UNL     1      15.250  65.152  22.038  1.00  0.00    -0.334 N 
ATOM     11  H1  UNL     1      14.247  65.338  22.020  1.00  0.00     0.168 HD
BRANCH  10  12
HETATM   12  C10 UNL     1      15.997  65.526  20.849  1.00  0.00     0.067 A 
HETATM   13  C5  UNL     1      15.514  66.605  20.085  1.00  0.00     0.095 A 
HETATM   14  C6  UNL     1      16.196  67.015  18.989  1.00  0.00     0.039 A 
HETATM   15  C7  UNL     1      17.358  66.393  18.610  1.00  0.00     0.003 A 
HETATM   16  C8  UNL     1      17.870  65.341  19.319  1.00  0.00     0.002 A 
HETATM   17  C9  UNL     1      17.145  64.931  20.456  1.00  0.00     0.032 A 
BRANCH  13  18
HETATM   18  O1  UNL     1      14.376  67.213  20.457  1.00  0.00    -0.349 OA
BRANCH  18  19
HETATM   19  C4  UNL     1      13.138  67.414  19.947  1.00  0.00     0.179 C 
BRANCH  19  20
HETATM   20  C3  UNL     1      12.824  68.713  19.293  1.00  0.00     0.053 C 
BRANCH  20  21
HETATM   21  C2  UNL     1      12.644  68.455  17.816  1.00  0.00    -0.035 C 
HETATM   22  C1  UNL     1      13.623  68.534  16.947  1.00  0.00     0.007 C 
ENDBRANCH  20  21
ENDBRANCH  19  20
ENDBRANCH  18  19
ENDBRANCH  13  18
ENDBRANCH  10  12
ENDBRANCH   9  10
BRANCH   9  23
HETATM   23  O2  UNL     1      15.072  63.437  23.427  1.00  0.00    -0.346 OA
ATOM     24  H2  UNL     1      14.760  63.449  24.324  1.00  0.00     0.219 HD
ENDBRANCH   9  23
ENDBRANCH   1   9
BRANCH   2  25
HETATM   25  N2  UNL     1      18.282  63.167  23.581  1.00  0.00    -0.312 N 
HETATM   26  C14 UNL     1      18.223  61.801  23.975  1.00  0.00     0.320 C 
HETATM   27  O3  UNL     1      17.836  61.324  25.054  1.00  0.00    -0.247 OA
HETATM   28  N3  UNL     1      18.662  60.785  23.029  1.00  0.00    -0.347 N 
HETATM   29  C15 UNL     1      18.612  59.413  23.393  1.00  0.00     0.151 C 
ATOM     30  H3  UNL     1      19.004  61.058  22.108  1.00  0.00     0.163 HD
ATOM     31  H2  UNL     1      18.646  63.386  22.652  1.00  0.00     0.170 HD
ENDBRANCH   2  25
BRANCH   8  32
HETATM   32  C28 UNL     1      16.669  67.281  24.513  1.00  0.00    -0.014 C 
HETATM   33  C29 UNL     1      15.980  68.222  23.981  1.00  0.00    -0.091 C 
HETATM   34  C30 UNL     1      16.781  69.453  23.516  1.00  0.00     0.042 C 
HETATM   35  C31 UNL     1      14.543  68.349  23.696  1.00  0.00     0.042 C 
ENDBRANCH   8  32
BRANCH   7  36
HETATM   36  C21 UNL     1      16.005  64.934  27.238  1.00  0.00     0.223 C 
HETATM   37  O4  UNL     1      15.701  65.250  28.411  1.00  0.00    -0.273 OA
HETATM   38  N4  UNL     1      15.471  63.721  26.715  1.00  0.00    -0.357 N 
ATOM     39  H4  UNL     1      15.721  63.459  25.762  1.00  0.00     0.162 HD
BRANCH  38  40
HETATM   40  C22 UNL     1      14.609  62.853  27.444  1.00  0.00     0.149 C 
BRANCH  40  41
HETATM   41  C23 UNL     1      13.171  63.093  27.394  1.00  0.00    -0.011 C 
BRANCH  41  42
HETATM   42  C24 UNL     1      12.168  62.049  27.533  1.00  0.00    -0.029 C 
BRANCH  42  43
HETATM   43  C25 UNL     1      11.455  61.675  28.746  1.00  0.00     0.022 C 
HETATM   44  C26 UNL     1      10.376  60.676  28.650  1.00  0.00     0.009 C 
ENDBRANCH  42  43
ENDBRANCH  41  42
ENDBRANCH  40  41
ENDBRANCH  38  40
ENDBRANCH   7  36
TORSDOF 15
ENDMDL
MODEL 3
REMARK VINA RESULT: -6.879492851      2.688      7.618
REMARK  15 active torsions:
REMARK  status: ('A' for Active; 'I' for Inactive)
REMARK    1  A    between atoms: C2_2  and  C3_3 
REMARK    2  A    between atoms: C3_3  and  C4_4 
REMARK    3  A    between atoms: C4_4  and  O1_5 
REMARK    4  A    between atoms: O1_5  and  C5_6 
REMARK    5  A    between atoms: C10_11  and  N1_12 
REMARK    6  A    between atoms: N1_12  and  C11_14 
REMARK    7  A    between atoms: C11_14  and  O2_15 
REMARK    8  A    between atoms: C11_14  and  C12_17 
REMARK    9  A    between atoms: C13_18  and  N2_19 
REMARK       I    between atoms: N2_19  and  C14_21 
REMARK       I    between atoms: C14_21  and  N3_23 
REMARK   10  A    between atoms: C20_30  and  C21_31 
REMARK       I    between atoms: C21_31  and  N4_33 
REMARK   11  A    between atoms: N4_33  and  C22_35 
REMARK   12  A    between atoms: C22_35  and  C23_36 
REMARK   13  A    between atoms: C23_36  and  C24_37 
REMARK   14  A    between atoms: C24_37  and  C25_38 
REMARK   15  A    between atoms: C27_40  and  C28_41 
ROOT
HETATM    1  C12 UNL     1      15.997  64.127  24.561  1.00  0.00     0.024 C 
HETATM    2  C13 UNL     1      16.378  62.976  24.999  1.00  0.00     0.025 C 
HETATM    3  C16 UNL     1      16.513  62.609  26.444  1.00  0.00     0.067 C 
HETATM    4  C17 UNL     1      15.990  63.561  27.461  1.00  0.00    -0.029 C 
HETATM    5  C18 UNL     1      17.148  63.984  28.346  1.00  0.00     0.016 C 
HETATM    6  C19 UNL     1      15.049  62.804  28.379  1.00  0.00     0.016 C 
HETATM    7  C20 UNL     1      15.257  64.730  26.902  1.00  0.00     0.098 C 
HETATM    8  C27 UNL     1      15.773  65.195  25.587  1.00  0.00     0.061 C 
ENDROOT
BRANCH   1   9
HETATM    9  C11 UNL     1      15.767  64.570  23.219  1.00  0.00     0.149 C 
BRANCH   9  10
HETATM   10  N1  UNL     1      15.350  65.704  22.549  1.00  0.00    -0.334 N 
ATOM     11  H1  UNL     1      16.078  66.258  22.099  1.00  0.00     0.168 HD
BRANCH  10  12
HETATM   12  C10 UNL     1      13.989  66.196  22.413  1.00  0.00     0.067 A 
HETATM   13  C5  UNL     1      13.584  66.658  21.148  1.00  0.00     0.095 A 
HETATM   14  C6  UNL     1      12.313  67.092  20.962  1.00  0.00     0.039 A 
HETATM   15  C7  UNL     1      11.410  67.084  21.993  1.00  0.00     0.003 A 
HETATM   16  C8  UNL     1      11.753  66.643  23.242  1.00  0.00     0.002 A 
HETATM   17  C9  UNL     1      13.080  66.197  23.413  1.00  0.00     0.032 A 
BRANCH  13  18
HETATM   18  O1  UNL     1      14.470  66.665  20.139  1.00  0.00    -0.349 OA
BRANCH  18  19
HETATM   19  C4  UNL     1      14.774  67.455  19.082  1.00  0.00     0.179 C 
BRANCH  19  20
HETATM   20  C3  UNL     1      14.097  67.218  17.778  1.00  0.00     0.053 C 
BRANCH  20  21
HETATM   21  C2  UNL     1      13.292  68.452  17.445  1.00  0.00    -0.035 C 
HETATM   22  C1  UNL     1      11.986  68.510  17.550  1.00  0.00     0.007 C 
ENDBRANCH  20  21
ENDBRANCH  19  20
ENDBRANCH  18  19
ENDBRANCH  13  18
ENDBRANCH  10  12
ENDBRANCH   9  10
BRANCH   9  23
HETATM   23  O2  UNL     1      16.025  63.608  22.320  1.00  0.00    -0.346 OA
ATOM     24  H2  UNL     1      15.716  62.778  22.664  1.00  0.00     0.219 HD
ENDBRANCH   9  23
ENDBRANCH   1   9
BRANCH   2  25
HETATM   25  N2  UNL     1      16.642  61.923  24.107  1.00  0.00    -0.312 N 
HETATM   26  C14 UNL     1      17.814  61.117  24.165  1.00  0.00     0.320 C 
HETATM   27  O3  UNL     1      18.770  61.199  24.952  1.00  0.00    -0.247 OA
HETATM   28  N3  UNL     1      17.965  60.039  23.198  1.00  0.00    -0.347 N 
HETATM   29  C15 UNL     1      19.121  59.217  23.232  1.00  0.00     0.151 C 
ATOM     30  H3  UNL     1      17.241  59.876  22.498  1.00  0.00     0.163 HD
ATOM     31  H2  UNL     1      15.956  61.725  23.378  1.00  0.00     0.170 HD
ENDBRANCH   2  25
BRANCH   8  32
HETATM   32  C28 UNL     1      16.879  66.135  25.719  1.00  0.00    -0.014 C 
HETATM   33  C29 UNL     1      18.157  66.092  25.623  1.00  0.00    -0.091 C 
HETATM   34  C30 UNL     1      18.888  67.427  25.863  1.00  0.00     0.042 C 
HETATM   35  C31 UNL     1      19.086  64.987  25.347  1.00  0.00     0.042 C 
ENDBRANCH   8  32
BRANCH   7  36
HETATM   36  C21 UNL     1      13.805  64.465  26.785  1.00  0.00     0.223 C 
HETATM   37  O4  UNL     1      13.413  63.830  25.779  1.00  0.00    -0.273 OA
HETATM   38  N4  UNL     1      12.829  64.878  27.736  1.00  0.00    -0.357 N 
ATOM     39  H4  UNL     1      13.145  65.400  28.553  1.00  0.00     0.162 HD
BRANCH  38  40
HETATM   40  C22 UNL     1      11.436  64.605  27.613  1.00  0.00     0.149 C 
BRANCH  40  41
HETATM   41  C23 UNL     1      10.887  63.447  28.308  1.00  0.00    -0.011 C 
BRANCH  41  42
HETATM   42  C24 UNL     1      11.324  62.079  28.079  1.00  0.00    -0.029 C 
BRANCH  42  43
HETATM   43  C25 UNL     1      10.625  60.860  28.460  1.00  0.00     0.022 C 
HETATM   44  C26 UNL     1      10.566  60.499  29.887  1.00  0.00     0.009 C 
ENDBRANCH  42  43
ENDBRANCH  41  42
ENDBRANCH  40  41
ENDBRANCH  38  40
ENDBRANCH   7  36
TORSDOF 15
ENDMDL
MODEL 4
REMARK VINA RESULT: -6.800552865      2.347      7.342
REMARK  15 active torsions:
REMARK  status: ('A' for Active; 'I' for Inactive)
REMARK    1  A    between atoms: C2_2  and  C3_3 
REMARK    2  A    between atoms: C3_3  and  C4_4 
REMARK    3  A    between atoms: C4_4  and  O1_5 
REMARK    4  A    between atoms: O1_5  and  C5_6 
REMARK    5  A    between atoms: C10_11  and  N1_12 
REMARK    6  A    between atoms: N1_12  and  C11_14 
REMARK    7  A    between atoms: C11_14  and  O2_15 
REMARK    8  A    between atoms: C11_14  and  C12_17 
REMARK    9  A    between atoms: C13_18  and  N2_19 
REMARK       I    between atoms: N2_19  and  C14_21 
REMARK       I    between atoms: C14_21  and  N3_23 
REMARK   10  A    between atoms: C20_30  and  C21_31 
REMARK       I    between atoms: C21_31  and  N4_33 
REMARK   11  A    between atoms: N4_33  and  C22_35 
REMARK   12  A    between atoms: C22_35  and  C23_36 
REMARK   13  A    between atoms: C23_36  and  C24_37 
REMARK   14  A    between atoms: C24_37  and  C25_38 
REMARK   15  A    between atoms: C27_40  and  C28_41 
ROOT
HETATM    1  C12 UNL     1      18.182  64.425  26.444  1.00  0.00     0.024 C 
HETATM    2  C13 UNL     1      18.989  63.728  27.169  1.00  0.00     0.025 C 
HETATM    3  C16 UNL     1      19.205  63.919  28.639  1.00  0.00     0.067 C 
HETATM    4  C17 UNL     1      18.291  64.840  29.367  1.00  0.00    -0.029 C 
HETATM    5  C18 UNL     1      19.129  65.951  29.971  1.00  0.00     0.016 C 
HETATM    6  C19 UNL     1      17.714  64.092  30.555  1.00  0.00     0.016 C 
HETATM    7  C20 UNL     1      17.161  65.369  28.555  1.00  0.00     0.098 C 
HETATM    8  C27 UNL     1      17.490  65.569  27.119  1.00  0.00     0.061 C 
ENDROOT
BRANCH   1   9
HETATM    9  C11 UNL     1      17.844  64.292  25.059  1.00  0.00     0.149 C 
BRANCH   9  10
HETATM   10  N1  UNL     1      16.777  63.894  24.276  1.00  0.00    -0.334 N 
ATOM     11  H1  UNL     1      16.756  62.911  24.007  1.00  0.00     0.168 HD
BRANCH  10  12
HETATM   12  C10 UNL     1      15.682  64.719  23.793  1.00  0.00     0.067 A 
HETATM   13  C5  UNL     1      15.814  65.300  22.519  1.00  0.00     0.095 A 
HETATM   14  C6  UNL     1      14.804  66.047  22.010  1.00  0.00     0.039 A 
HETATM   15  C7  UNL     1      13.648  66.244  22.720  1.00  0.00     0.003 A 
HETATM   16  C8  UNL     1      13.470  65.699  23.963  1.00  0.00     0.002 A 
HETATM   17  C9  UNL     1      14.533  64.927  24.473  1.00  0.00     0.032 A 
BRANCH  13  18
HETATM   18  O1  UNL     1      16.946  65.106  21.825  1.00  0.00    -0.349 OA
BRANCH  18  19
HETATM   19  C4  UNL     1      17.336  64.432  20.717  1.00  0.00     0.179 C 
BRANCH  19  20
HETATM   20  C3  UNL     1      17.900  65.189  19.566  1.00  0.00     0.053 C 
BRANCH  20  21
HETATM   21  C2  UNL     1      16.759  65.896  18.875  1.00  0.00    -0.035 C 
HETATM   22  C1  UNL     1      16.608  67.200  18.886  1.00  0.00     0.007 C 
ENDBRANCH  20  21
ENDBRANCH  19  20
ENDBRANCH  18  19
ENDBRANCH  13  18
ENDBRANCH  10  12
ENDBRANCH   9  10
BRANCH   9  23
HETATM   23  O2  UNL     1      18.855  64.657  24.256  1.00  0.00    -0.346 OA
ATOM     24  H2  UNL     1      19.673  64.377  24.650  1.00  0.00     0.219 HD
ENDBRANCH   9  23
ENDBRANCH   1   9
BRANCH   2  25
HETATM   25  N2  UNL     1      19.705  62.655  26.614  1.00  0.00    -0.312 N 
HETATM   26  C14 UNL     1      19.088  61.496  26.064  1.00  0.00     0.320 C 
HETATM   27  O3  UNL     1      17.879  61.225  25.993  1.00  0.00    -0.247 OA
HETATM   28  N3  UNL     1      19.938  60.459  25.497  1.00  0.00    -0.347 N 
HETATM   29  C15 UNL     1      19.352  59.293  24.939  1.00  0.00     0.151 C 
ATOM     30  H3  UNL     1      20.952  60.571  25.501  1.00  0.00     0.163 HD
ATOM     31  H2  UNL     1      20.724  62.710  26.604  1.00  0.00     0.170 HD
ENDBRANCH   2  25
BRANCH   8  32
HETATM   32  C28 UNL     1      18.097  66.868  26.858  1.00  0.00    -0.014 C 
HETATM   33  C29 UNL     1      19.280  67.324  26.665  1.00  0.00    -0.091 C 
HETATM   34  C30 UNL     1      19.376  68.842  26.420  1.00  0.00     0.042 C 
HETATM   35  C31 UNL     1      20.596  66.671  26.659  1.00  0.00     0.042 C 
ENDBRANCH   8  32
BRANCH   7  36
HETATM   36  C21 UNL     1      15.958  64.512  28.661  1.00  0.00     0.223 C 
HETATM   37  O4  UNL     1      15.025  64.915  29.394  1.00  0.00    -0.273 OA
HETATM   38  N4  UNL     1      15.789  63.269  27.988  1.00  0.00    -0.357 N 
ATOM     39  H4  UNL     1      16.549  62.936  27.396  1.00  0.00     0.162 HD
BRANCH  38  40
HETATM   40  C22 UNL     1      14.620  62.461  28.094  1.00  0.00     0.149 C 
BRANCH  40  41
HETATM   41  C23 UNL     1      13.457  62.807  27.285  1.00  0.00    -0.011 C 
BRANCH  41  42
HETATM   42  C24 UNL     1      12.120  62.286  27.520  1.00  0.00    -0.029 C 
BRANCH  42  43
HETATM   43  C25 UNL     1      11.641  61.609  28.718  1.00  0.00     0.022 C 
HETATM   44  C26 UNL     1      10.444  60.757  28.615  1.00  0.00     0.009 C 
ENDBRANCH  42  43
ENDBRANCH  41  42
ENDBRANCH  40  41
ENDBRANCH  38  40
ENDBRANCH   7  36
TORSDOF 15
ENDMDL
MODEL 5
REMARK VINA RESULT: -6.730468226      2.763      7.437
REMARK  15 active torsions:
REMARK  status: ('A' for Active; 'I' for Inactive)
REMARK    1  A    between atoms: C2_2  and  C3_3 
REMARK    2  A    between atoms: C3_3  and  C4_4 
REMARK    3  A    between atoms: C4_4  and  O1_5 
REMARK    4  A    between atoms: O1_5  and  C5_6 
REMARK    5  A    between atoms: C10_11  and  N1_12 
REMARK    6  A    between atoms: N1_12  and  C11_14 
REMARK    7  A    between atoms: C11_14  and  O2_15 
REMARK    8  A    between atoms: C11_14  and  C12_17 
REMARK    9  A    between atoms: C13_18  and  N2_19 
REMARK       I    between atoms: N2_19  and  C14_21 
REMARK       I    between atoms: C14_21  and  N3_23 
REMARK   10  A    between atoms: C20_30  and  C21_31 
REMARK       I    between atoms: C21_31  and  N4_33 
REMARK   11  A    between atoms: N4_33  and  C22_35 
REMARK   12  A    between atoms: C22_35  and  C23_36 
REMARK   13  A    between atoms: C23_36  and  C24_37 
REMARK   14  A    between atoms: C24_37  and  C25_38 
REMARK   15  A    between atoms: C27_40  and  C28_41 
ROOT
HETATM    1  C12 UNL     1      16.755  64.747  24.180  1.00  0.00     0.024 C 
HETATM    2  C13 UNL     1      17.881  64.150  24.370  1.00  0.00     0.025 C 
HETATM    3  C16 UNL     1      18.839  64.457  25.479  1.00  0.00     0.067 C 
HETATM    4  C17 UNL     1      18.388  65.376  26.560  1.00  0.00    -0.029 C 
HETATM    5  C18 UNL     1      19.322  66.572  26.577  1.00  0.00     0.016 C 
HETATM    6  C19 UNL     1      18.610  64.685  27.892  1.00  0.00     0.016 C 
HETATM    7  C20 UNL     1      16.959  65.783  26.476  1.00  0.00     0.098 C 
HETATM    8  C27 UNL     1      16.442  65.897  25.087  1.00  0.00     0.061 C 
ENDROOT
BRANCH   1   9
HETATM    9  C11 UNL     1      15.735  64.497  23.206  1.00  0.00     0.149 C 
BRANCH   9  10
HETATM   10  N1  UNL     1      15.147  65.123  22.123  1.00  0.00    -0.334 N 
ATOM     11  H1  UNL     1      15.451  64.812  21.200  1.00  0.00     0.168 HD
BRANCH  10  12
HETATM   12  C10 UNL     1      14.144  66.174  22.152  1.00  0.00     0.067 A 
HETATM   13  C5  UNL     1      14.240  67.196  21.190  1.00  0.00     0.095 A 
HETATM   14  C6  UNL     1      13.307  68.178  21.153  1.00  0.00     0.039 A 
HETATM   15  C7  UNL     1      12.262  68.189  22.041  1.00  0.00     0.003 A 
HETATM   16  C8  UNL     1      12.122  67.217  22.993  1.00  0.00     0.002 A 
HETATM   17  C9  UNL     1      13.104  66.206  23.014  1.00  0.00     0.032 A 
BRANCH  13  18
HETATM   18  O1  UNL     1      15.264  67.184  20.323  1.00  0.00    -0.349 OA
BRANCH  18  19
HETATM   19  C4  UNL     1      15.439  67.261  18.982  1.00  0.00     0.179 C 
BRANCH  19  20
HETATM   20  C3  UNL     1      14.447  66.612  18.081  1.00  0.00     0.053 C 
BRANCH  20  21
HETATM   21  C2  UNL     1      13.673  67.704  17.384  1.00  0.00    -0.035 C 
HETATM   22  C1  UNL     1      14.048  68.962  17.377  1.00  0.00     0.007 C 
ENDBRANCH  20  21
ENDBRANCH  19  20
ENDBRANCH  18  19
ENDBRANCH  13  18
ENDBRANCH  10  12
ENDBRANCH   9  10
BRANCH   9  23
HETATM   23  O2  UNL     1      15.158  63.298  23.376  1.00  0.00    -0.346 OA
ATOM     24  H2  UNL     1      15.779  62.718  23.800  1.00  0.00     0.219 HD
ENDBRANCH   9  23
ENDBRANCH   1   9
BRANCH   2  25
HETATM   25  N2  UNL     1      18.273  63.080  23.547  1.00  0.00    -0.312 N 
HETATM   26  C14 UNL     1      18.229  61.717  23.953  1.00  0.00     0.320 C 
HETATM   27  O3  UNL     1      17.877  61.247  25.047  1.00  0.00    -0.247 OA
HETATM   28  N3  UNL     1      18.641  60.695  23.002  1.00  0.00    -0.347 N 
HETATM   29  C15 UNL     1      18.606  59.326  23.377  1.00  0.00     0.151 C 
ATOM     30  H3  UNL     1      18.954  60.962  22.069  1.00  0.00     0.163 HD
ATOM     31  H2  UNL     1      18.607  63.293  22.607  1.00  0.00     0.170 HD
ENDBRANCH   2  25
BRANCH   8  32
HETATM   32  C28 UNL     1      16.699  67.206  24.498  1.00  0.00    -0.014 C 
HETATM   33  C29 UNL     1      16.111  68.344  24.461  1.00  0.00    -0.091 C 
HETATM   34  C30 UNL     1      16.842  69.445  23.669  1.00  0.00     0.042 C 
HETATM   35  C31 UNL     1      14.832  68.809  25.017  1.00  0.00     0.042 C 
ENDBRANCH   8  32
BRANCH   7  36
HETATM   36  C21 UNL     1      16.081  64.871  27.245  1.00  0.00     0.223 C 
HETATM   37  O4  UNL     1      15.851  65.163  28.441  1.00  0.00    -0.273 OA
HETATM   38  N4  UNL     1      15.482  63.691  26.720  1.00  0.00    -0.357 N 
ATOM     39  H4  UNL     1      15.673  63.448  25.748  1.00  0.00     0.162 HD
BRANCH  38  40
HETATM   40  C22 UNL     1      14.632  62.830  27.472  1.00  0.00     0.149 C 
BRANCH  40  41
HETATM   41  C23 UNL     1      13.201  63.108  27.496  1.00  0.00    -0.011 C 
BRANCH  41  42
HETATM   42  C24 UNL     1      12.173  62.079  27.501  1.00  0.00    -0.029 C 
BRANCH  42  43
HETATM   43  C25 UNL     1      11.010  62.008  28.375  1.00  0.00     0.022 C 
HETATM   44  C26 UNL     1      10.398  60.692  28.627  1.00  0.00     0.009 C 
ENDBRANCH  42  43
ENDBRANCH  41  42
ENDBRANCH  40  41
ENDBRANCH  38  40
ENDBRANCH   7  36
TORSDOF 15
ENDMDL
