MODEL 1
REMARK VINA RESULT: -6.947340245      0.000      0.000
REMARK  7 active torsions:
REMARK  status: ('A' for Active; 'I' for Inactive)
REMARK    1  A    between atoms: C2_2  and  C3_3 
REMARK    2  A    between atoms: C3_3  and  C4_4 
REMARK    3  A    between atoms: C4_4  and  C5_5 
REMARK    4  A    between atoms: C5_5  and  C6_6 
REMARK    5  A    between atoms: C6_6  and  C7_8 
REMARK    6  A    between atoms: C12_14  and  C13_15 
REMARK    7  A    between atoms: C13_15  and  C14_16 
ROOT
HETATM    1  C7  UNL     1      27.763  47.365  21.849  1.00  0.00     0.048 A 
HETATM    2  C8  UNL     1      28.325  47.398  23.140  1.00  0.00     0.064 A 
HETATM    3  C9  UNL     1      29.778  47.643  23.466  1.00  0.00     0.077 C 
HETATM    4  O2  UNL     1      27.346  47.178  23.956  1.00  0.00    -0.319 OA
HETATM    5  C10 UNL     1      26.212  47.005  23.357  1.00  0.00     0.056 A 
HETATM    6  C11 UNL     1      24.882  46.729  23.996  1.00  0.00     0.077 C 
HETATM    7  C12 UNL     1      26.438  47.120  21.962  1.00  0.00    -0.012 A 
ENDROOT
BRANCH   1   8
HETATM    8  C6  UNL     1      28.590  47.472  20.682  1.00  0.00     0.162 C 
HETATM    9  O1  UNL     1      28.771  46.359  20.037  1.00  0.00    -0.292 OA
BRANCH   8  10
HETATM   10  C5  UNL     1      29.266  48.626  20.107  1.00  0.00     0.084 C 
BRANCH  10  11
HETATM   11  C4  UNL     1      30.786  48.426  20.102  1.00  0.00     0.008 C 
BRANCH  11  12
HETATM   12  C3  UNL     1      31.361  49.161  18.932  1.00  0.00     0.000 C 
BRANCH  12  13
HETATM   13  C2  UNL     1      32.115  48.284  17.982  1.00  0.00    -0.005 C 
HETATM   14  C1  UNL     1      32.884  47.183  18.654  1.00  0.00     0.005 C 
ENDBRANCH  12  13
ENDBRANCH  11  12
ENDBRANCH  10  11
ENDBRANCH   8  10
ENDBRANCH   1   8
BRANCH   7  15
HETATM   15  C13 UNL     1      25.335  47.029  20.988  1.00  0.00     0.046 C 
BRANCH  15  16
HETATM   16  C14 UNL     1      25.209  45.788  20.201  1.00  0.00    -0.018 C 
HETATM   17  C15 UNL     1      24.311  44.726  20.728  1.00  0.00     0.010 C 
HETATM   18  C16 UNL     1      24.688  46.117  18.780  1.00  0.00     0.010 C 
ENDBRANCH  15  16
ENDBRANCH   7  15
TORSDOF 7
ENDMDL
MODEL 2
REMARK VINA RESULT: -6.908727608      2.442      5.054
REMARK  7 active torsions:
REMARK  status: ('A' for Active; 'I' for Inactive)
REMARK    1  A    between atoms: C2_2  and  C3_3 
REMARK    2  A    between atoms: C3_3  and  C4_4 
REMARK    3  A    between atoms: C4_4  and  C5_5 
REMARK    4  A    between atoms: C5_5  and  C6_6 
REMARK    5  A    between atoms: C6_6  and  C7_8 
REMARK    6  A    between atoms: C12_14  and  C13_15 
REMARK    7  A    between atoms: C13_15  and  C14_16 
ROOT
HETATM    1  C7  UNL     1      30.025  47.276  18.428  1.00  0.00     0.048 A 
HETATM    2  C8  UNL     1      31.299  46.772  18.104  1.00  0.00     0.064 A 
HETATM    3  C9  UNL     1      32.604  47.518  18.231  1.00  0.00     0.077 C 
HETATM    4  O2  UNL     1      31.103  45.563  17.685  1.00  0.00    -0.319 OA
HETATM    5  C10 UNL     1      29.857  45.216  17.697  1.00  0.00     0.056 A 
HETATM    6  C11 UNL     1      29.280  43.894  17.278  1.00  0.00     0.077 C 
HETATM    7  C12 UNL     1      29.105  46.316  18.181  1.00  0.00    -0.012 A 
ENDROOT
BRANCH   1   8
HETATM    8  C6  UNL     1      29.854  48.641  18.834  1.00  0.00     0.162 C 
HETATM    9  O1  UNL     1      29.558  49.464  17.874  1.00  0.00    -0.292 OA
BRANCH   8  10
HETATM   10  C5  UNL     1      29.965  49.255  20.149  1.00  0.00     0.084 C 
BRANCH  10  11
HETATM   11  C4  UNL     1      29.954  48.192  21.255  1.00  0.00     0.008 C 
BRANCH  11  12
HETATM   12  C3  UNL     1      28.773  48.437  22.141  1.00  0.00     0.000 C 
BRANCH  12  13
HETATM   13  C2  UNL     1      28.480  47.309  23.079  1.00  0.00    -0.005 C 
HETATM   14  C1  UNL     1      27.040  47.226  23.498  1.00  0.00     0.005 C 
ENDBRANCH  12  13
ENDBRANCH  11  12
ENDBRANCH  10  11
ENDBRANCH   8  10
ENDBRANCH   1   8
BRANCH   7  15
HETATM   15  C13 UNL     1      27.645  46.234  18.371  1.00  0.00     0.046 C 
BRANCH  15  16
HETATM   16  C14 UNL     1      27.125  46.283  19.750  1.00  0.00    -0.018 C 
HETATM   17  C15 UNL     1      25.691  46.633  19.932  1.00  0.00     0.010 C 
HETATM   18  C16 UNL     1      27.314  44.906  20.433  1.00  0.00     0.010 C 
ENDBRANCH  15  16
ENDBRANCH   7  15
TORSDOF 7
ENDMDL
MODEL 3
REMARK VINA RESULT: -6.820059038      1.818      4.647
REMARK  7 active torsions:
REMARK  status: ('A' for Active; 'I' for Inactive)
REMARK    1  A    between atoms: C2_2  and  C3_3 
REMARK    2  A    between atoms: C3_3  and  C4_4 
REMARK    3  A    between atoms: C4_4  and  C5_5 
REMARK    4  A    between atoms: C5_5  and  C6_6 
REMARK    5  A    between atoms: C6_6  and  C7_8 
REMARK    6  A    between atoms: C12_14  and  C13_15 
REMARK    7  A    between atoms: C13_15  and  C14_16 
ROOT
HETATM    1  C7  UNL     1      26.340  46.500  22.020  1.00  0.00     0.048 A 
HETATM    2  C8  UNL     1      26.059  46.914  23.337  1.00  0.00     0.064 A 
HETATM    3  C9  UNL     1      24.706  46.888  24.003  1.00  0.00     0.077 C 
HETATM    4  O2  UNL     1      27.189  47.308  23.830  1.00  0.00    -0.319 OA
HETATM    5  C10 UNL     1      28.173  47.202  22.997  1.00  0.00     0.056 A 
HETATM    6  C11 UNL     1      29.609  47.568  23.239  1.00  0.00     0.077 C 
HETATM    7  C12 UNL     1      27.660  46.671  21.786  1.00  0.00    -0.012 A 
ENDROOT
BRANCH   1   8
HETATM    8  C6  UNL     1      25.287  46.092  21.136  1.00  0.00     0.162 C 
HETATM    9  O1  UNL     1      24.666  45.007  21.490  1.00  0.00    -0.292 OA
BRANCH   8  10
HETATM   10  C5  UNL     1      24.805  46.693  19.901  1.00  0.00     0.084 C 
BRANCH  10  11
HETATM   11  C4  UNL     1      25.209  45.849  18.685  1.00  0.00     0.008 C 
BRANCH  11  12
HETATM   12  C3  UNL     1      24.932  46.637  17.443  1.00  0.00     0.000 C 
BRANCH  12  13
HETATM   13  C2  UNL     1      25.519  48.013  17.461  1.00  0.00    -0.005 C 
HETATM   14  C1  UNL     1      26.438  48.295  16.307  1.00  0.00     0.005 C 
ENDBRANCH  12  13
ENDBRANCH  11  12
ENDBRANCH  10  11
ENDBRANCH   8  10
ENDBRANCH   1   8
BRANCH   7  15
HETATM   15  C13 UNL     1      28.536  46.374  20.638  1.00  0.00     0.046 C 
BRANCH  15  16
HETATM   16  C14 UNL     1      28.513  47.301  19.493  1.00  0.00    -0.018 C 
HETATM   17  C15 UNL     1      29.223  48.600  19.643  1.00  0.00     0.010 C 
HETATM   18  C16 UNL     1      29.137  46.618  18.250  1.00  0.00     0.010 C 
ENDBRANCH  15  16
ENDBRANCH   7  15
TORSDOF 7
ENDMDL
MODEL 4
REMARK VINA RESULT: -6.710480523      1.921      3.241
REMARK  7 active torsions:
REMARK  status: ('A' for Active; 'I' for Inactive)
REMARK    1  A    between atoms: C2_2  and  C3_3 
REMARK    2  A    between atoms: C3_3  and  C4_4 
REMARK    3  A    between atoms: C4_4  and  C5_5 
REMARK    4  A    between atoms: C5_5  and  C6_6 
REMARK    5  A    between atoms: C6_6  and  C7_8 
REMARK    6  A    between atoms: C12_14  and  C13_15 
REMARK    7  A    between atoms: C13_15  and  C14_16 
ROOT
HETATM    1  C7  UNL     1      27.038  46.951  21.298  1.00  0.00     0.048 A 
HETATM    2  C8  UNL     1      25.821  46.768  21.983  1.00  0.00     0.064 A 
HETATM    3  C9  UNL     1      25.627  46.842  23.477  1.00  0.00     0.077 C 
HETATM    4  O2  UNL     1      24.935  46.531  21.070  1.00  0.00    -0.319 OA
HETATM    5  C10 UNL     1      25.424  46.536  19.872  1.00  0.00     0.056 A 
HETATM    6  C11 UNL     1      24.683  46.297  18.589  1.00  0.00     0.077 C 
HETATM    7  C12 UNL     1      26.811  46.811  19.972  1.00  0.00    -0.012 A 
ENDROOT
BRANCH   1   8
HETATM    8  C6  UNL     1      28.266  47.136  22.014  1.00  0.00     0.162 C 
HETATM    9  O1  UNL     1      28.712  46.076  22.617  1.00  0.00    -0.292 OA
BRANCH   8  10
HETATM   10  C5  UNL     1      29.092  48.324  22.182  1.00  0.00     0.084 C 
BRANCH  10  11
HETATM   11  C4  UNL     1      30.216  48.362  21.140  1.00  0.00     0.008 C 
BRANCH  11  12
HETATM   12  C3  UNL     1      29.968  49.508  20.210  1.00  0.00     0.000 C 
BRANCH  12  13
HETATM   13  C2  UNL     1      31.192  49.970  19.484  1.00  0.00    -0.005 C 
HETATM   14  C1  UNL     1      31.894  48.880  18.724  1.00  0.00     0.005 C 
ENDBRANCH  12  13
ENDBRANCH  11  12
ENDBRANCH  10  11
ENDBRANCH   8  10
ENDBRANCH   1   8
BRANCH   7  15
HETATM   15  C13 UNL     1      27.664  46.942  18.776  1.00  0.00     0.046 C 
BRANCH  15  16
HETATM   16  C14 UNL     1      28.835  46.054  18.662  1.00  0.00    -0.018 C 
HETATM   17  C15 UNL     1      28.620  44.599  18.885  1.00  0.00     0.010 C 
HETATM   18  C16 UNL     1      29.453  46.179  17.247  1.00  0.00     0.010 C 
ENDBRANCH  15  16
ENDBRANCH   7  15
TORSDOF 7
ENDMDL
MODEL 5
REMARK VINA RESULT: -6.708364131      2.313      5.403
REMARK  7 active torsions:
REMARK  status: ('A' for Active; 'I' for Inactive)
REMARK    1  A    between atoms: C2_2  and  C3_3 
REMARK    2  A    between atoms: C3_3  and  C4_4 
REMARK    3  A    between atoms: C4_4  and  C5_5 
REMARK    4  A    between atoms: C5_5  and  C6_6 
REMARK    5  A    between atoms: C6_6  and  C7_8 
REMARK    6  A    between atoms: C12_14  and  C13_15 
REMARK    7  A    between atoms: C13_15  and  C14_16 
ROOT
HETATM    1  C7  UNL     1      29.635  48.244  18.748  1.00  0.00     0.048 A 
HETATM    2  C8  UNL     1      30.810  48.128  17.980  1.00  0.00     0.064 A 
HETATM    3  C9  UNL     1      32.214  48.388  18.467  1.00  0.00     0.077 C 
HETATM    4  O2  UNL     1      30.424  47.760  16.801  1.00  0.00    -0.319 OA
HETATM    5  C10 UNL     1      29.142  47.620  16.705  1.00  0.00     0.056 A 
HETATM    6  C11 UNL     1      28.363  47.209  15.489  1.00  0.00     0.077 C 
HETATM    7  C12 UNL     1      28.577  47.929  17.968  1.00  0.00    -0.012 A 
ENDROOT
BRANCH   1   8
HETATM    8  C6  UNL     1      29.680  48.737  20.094  1.00  0.00     0.162 C 
HETATM    9  O1  UNL     1      29.686  50.031  20.202  1.00  0.00    -0.292 OA
BRANCH   8  10
HETATM   10  C5  UNL     1      29.729  48.020  21.361  1.00  0.00     0.084 C 
BRANCH  10  11
HETATM   11  C4  UNL     1      28.488  48.323  22.210  1.00  0.00     0.008 C 
BRANCH  11  12
HETATM   12  C3  UNL     1      27.906  47.028  22.684  1.00  0.00     0.000 C 
BRANCH  12  13
HETATM   13  C2  UNL     1      26.809  47.193  23.688  1.00  0.00    -0.005 C 
HETATM   14  C1  UNL     1      25.462  46.750  23.193  1.00  0.00     0.005 C 
ENDBRANCH  12  13
ENDBRANCH  11  12
ENDBRANCH  10  11
ENDBRANCH   8  10
ENDBRANCH   1   8
BRANCH   7  15
HETATM   15  C13 UNL     1      27.128  47.817  18.218  1.00  0.00     0.046 C 
BRANCH  15  16
HETATM   16  C14 UNL     1      26.678  46.886  19.269  1.00  0.00    -0.018 C 
HETATM   17  C15 UNL     1      25.214  46.763  19.500  1.00  0.00     0.010 C 
HETATM   18  C16 UNL     1      27.179  45.455  18.953  1.00  0.00     0.010 C 
ENDBRANCH  15  16
ENDBRANCH   7  15
TORSDOF 7
ENDMDL
