MODEL 1
REMARK VINA RESULT: -5.549758074      0.000      0.000
REMARK  8 active torsions:
REMARK  status: ('A' for Active; 'I' for Inactive)
REMARK    1  A    between atoms: O1_1  and  C1_3 
REMARK    2  A    between atoms: C1_3  and  C2_4 
REMARK    3  A    between atoms: C1_3  and  N1_10 
REMARK    4  A    between atoms: C2_4  and  C3_5 
REMARK    5  A    between atoms: C3_5  and  C4_6 
REMARK    6  A    between atoms: C4_6  and  C5_7 
REMARK    7  A    between atoms: C5_7  and  C6_8 
REMARK    8  A    between atoms: N4_18  and  O2_19 
ROOT
HETATM    1  N1  UNL     1      -3.976   4.281  14.520  1.00  0.00    -0.213 N 
HETATM    2  N2  UNL     1      -4.884   5.109  14.111  1.00  0.00    -0.299 N 
ATOM      3  H2  UNL     1      -4.684   5.896  13.493  1.00  0.00     0.186 HD
HETATM    4  C7  UNL     1      -6.092   4.838  14.568  1.00  0.00     0.141 A 
HETATM    5  C8  UNL     1      -5.949   3.715  15.358  1.00  0.00     0.099 A 
HETATM    6  N3  UNL     1      -6.587   2.824  16.148  1.00  0.00    -0.346 N 
ATOM      7  H3  UNL     1      -7.585   2.833  16.357  1.00  0.00     0.167 HD
HETATM    8  C9  UNL     1      -5.713   1.931  16.613  1.00  0.00     0.216 A 
HETATM    9  N4  UNL     1      -4.508   2.279  16.099  1.00  0.00    -0.199 N 
HETATM   10  C10 UNL     1      -4.618   3.375  15.321  1.00  0.00     0.185 A 
ENDROOT
BRANCH   1  11
HETATM   11  C1  UNL     1      -2.580   4.248  14.245  1.00  0.00     0.163 C 
BRANCH  11  12
HETATM   12  O1  UNL     1      -1.850   4.065  15.342  1.00  0.00    -0.345 OA
ATOM     13  H1  UNL     1      -2.152   4.571  16.087  1.00  0.00     0.219 HD
ENDBRANCH  11  12
BRANCH  11  14
HETATM   14  C2  UNL     1      -1.815   4.365  13.079  1.00  0.00     0.058 C 
BRANCH  14  15
HETATM   15  C3  UNL     1      -1.882   4.131  11.837  1.00  0.00     0.004 C 
BRANCH  15  16
HETATM   16  C4  UNL     1      -2.883   3.942  10.840  1.00  0.00     0.001 C 
BRANCH  16  17
HETATM   17  C5  UNL     1      -4.040   3.360  10.967  1.00  0.00     0.012 C 
BRANCH  17  18
HETATM   18  C6  UNL     1      -4.548   2.032  11.163  1.00  0.00     0.084 C 
HETATM   19 CL1  UNL     1      -4.145   1.118  12.592  1.00  0.00    -0.097 Cl
ENDBRANCH  17  18
ENDBRANCH  16  17
ENDBRANCH  15  16
ENDBRANCH  14  15
ENDBRANCH  11  14
ENDBRANCH   1  11
BRANCH   9  20
HETATM   20  O2  UNL     1      -3.379   1.572  16.374  1.00  0.00    -0.280 OA
ATOM     21  H2  UNL     1      -2.841   1.199  15.687  1.00  0.00     0.245 HD
ENDBRANCH   9  20
TORSDOF 8
ENDMDL
MODEL 2
REMARK VINA RESULT: -5.499896802      3.619      4.624
REMARK  8 active torsions:
REMARK  status: ('A' for Active; 'I' for Inactive)
REMARK    1  A    between atoms: O1_1  and  C1_3 
REMARK    2  A    between atoms: C1_3  and  C2_4 
REMARK    3  A    between atoms: C1_3  and  N1_10 
REMARK    4  A    between atoms: C2_4  and  C3_5 
REMARK    5  A    between atoms: C3_5  and  C4_6 
REMARK    6  A    between atoms: C4_6  and  C5_7 
REMARK    7  A    between atoms: C5_7  and  C6_8 
REMARK    8  A    between atoms: N4_18  and  O2_19 
ROOT
HETATM    1  N1  UNL     1      -5.017   2.796  15.056  1.00  0.00    -0.213 N 
HETATM    2  N2  UNL     1      -4.344   1.807  14.559  1.00  0.00    -0.299 N 
ATOM      3  H2  UNL     1      -3.777   1.885  13.715  1.00  0.00     0.186 HD
HETATM    4  C7  UNL     1      -4.462   0.688  15.249  1.00  0.00     0.141 A 
HETATM    5  C8  UNL     1      -5.301   0.985  16.304  1.00  0.00     0.099 A 
HETATM    6  N3  UNL     1      -5.917   0.501  17.404  1.00  0.00    -0.346 N 
ATOM      7  H3  UNL     1      -5.844  -0.457  17.745  1.00  0.00     0.167 HD
HETATM    8  C9  UNL     1      -6.637   1.467  17.976  1.00  0.00     0.216 A 
HETATM    9  N4  UNL     1      -6.461   2.572  17.212  1.00  0.00    -0.199 N 
HETATM   10  C10 UNL     1      -5.643   2.310  16.172  1.00  0.00     0.185 A 
ENDROOT
BRANCH   1  11
HETATM   11  C1  UNL     1      -5.137   4.138  14.599  1.00  0.00     0.163 C 
BRANCH  11  12
HETATM   12  O1  UNL     1      -6.356   4.413  14.143  1.00  0.00    -0.345 OA
ATOM     13  H1  UNL     1      -6.940   3.663  14.146  1.00  0.00     0.219 HD
ENDBRANCH  11  12
BRANCH  11  14
HETATM   14  C2  UNL     1      -4.257   5.224  14.528  1.00  0.00     0.058 C 
BRANCH  14  15
HETATM   15  C3  UNL     1      -3.019   5.483  14.539  1.00  0.00     0.004 C 
BRANCH  15  16
HETATM   16  C4  UNL     1      -2.168   6.627  14.543  1.00  0.00     0.001 C 
BRANCH  16  17
HETATM   17  C5  UNL     1      -2.459   7.839  14.916  1.00  0.00     0.012 C 
BRANCH  17  18
HETATM   18  C6  UNL     1      -1.844   8.901  15.661  1.00  0.00     0.084 C 
HETATM   19 CL1  UNL     1      -1.479  10.431  14.911  1.00  0.00    -0.097 Cl
ENDBRANCH  17  18
ENDBRANCH  16  17
ENDBRANCH  15  16
ENDBRANCH  14  15
ENDBRANCH  11  14
ENDBRANCH   1  11
BRANCH   9  20
HETATM   20  O2  UNL     1      -7.062   3.755  17.512  1.00  0.00    -0.280 OA
ATOM     21  H2  UNL     1      -7.055   4.488  16.908  1.00  0.00     0.245 HD
ENDBRANCH   9  20
TORSDOF 8
ENDMDL
MODEL 3
REMARK VINA RESULT: -5.498262147      3.317      3.854
REMARK  8 active torsions:
REMARK  status: ('A' for Active; 'I' for Inactive)
REMARK    1  A    between atoms: O1_1  and  C1_3 
REMARK    2  A    between atoms: C1_3  and  C2_4 
REMARK    3  A    between atoms: C1_3  and  N1_10 
REMARK    4  A    between atoms: C2_4  and  C3_5 
REMARK    5  A    between atoms: C3_5  and  C4_6 
REMARK    6  A    between atoms: C4_6  and  C5_7 
REMARK    7  A    between atoms: C5_7  and  C6_8 
REMARK    8  A    between atoms: N4_18  and  O2_19 
ROOT
HETATM    1  N1  UNL     1      -4.989   2.755  15.044  1.00  0.00    -0.213 N 
HETATM    2  N2  UNL     1      -4.328   1.752  14.560  1.00  0.00    -0.299 N 
ATOM      3  H2  UNL     1      -3.753   1.815  13.719  1.00  0.00     0.186 HD
HETATM    4  C7  UNL     1      -4.469   0.640  15.257  1.00  0.00     0.141 A 
HETATM    5  C8  UNL     1      -5.311   0.958  16.303  1.00  0.00     0.099 A 
HETATM    6  N3  UNL     1      -5.943   0.492  17.402  1.00  0.00    -0.346 N 
ATOM      7  H3  UNL     1      -5.887  -0.464  17.750  1.00  0.00     0.167 HD
HETATM    8  C9  UNL     1      -6.651   1.473  17.961  1.00  0.00     0.216 A 
HETATM    9  N4  UNL     1      -6.453   2.570  17.191  1.00  0.00    -0.199 N 
HETATM   10  C10 UNL     1      -5.631   2.287  16.159  1.00  0.00     0.185 A 
ENDROOT
BRANCH   1  11
HETATM   11  C1  UNL     1      -5.084   4.096  14.577  1.00  0.00     0.163 C 
BRANCH  11  12
HETATM   12  O1  UNL     1      -6.309   4.403  14.159  1.00  0.00    -0.345 OA
ATOM     13  H1  UNL     1      -6.985   4.222  14.802  1.00  0.00     0.219 HD
ENDBRANCH  11  12
BRANCH  11  14
HETATM   14  C2  UNL     1      -4.175   5.154  14.464  1.00  0.00     0.058 C 
BRANCH  14  15
HETATM   15  C3  UNL     1      -4.109   6.348  14.048  1.00  0.00     0.004 C 
BRANCH  15  16
HETATM   16  C4  UNL     1      -3.778   7.042  12.848  1.00  0.00     0.001 C 
BRANCH  16  17
HETATM   17  C5  UNL     1      -4.577   7.404  11.886  1.00  0.00     0.012 C 
BRANCH  17  18
HETATM   18  C6  UNL     1      -5.930   7.157  11.477  1.00  0.00     0.084 C 
HETATM   19 CL1  UNL     1      -7.246   8.119  12.094  1.00  0.00    -0.097 Cl
ENDBRANCH  17  18
ENDBRANCH  16  17
ENDBRANCH  15  16
ENDBRANCH  14  15
ENDBRANCH  11  14
ENDBRANCH   1  11
BRANCH   9  20
HETATM   20  O2  UNL     1      -7.036   3.764  17.478  1.00  0.00    -0.280 OA
ATOM     21  H2  UNL     1      -7.134   4.445  16.822  1.00  0.00     0.245 HD
ENDBRANCH   9  20
TORSDOF 8
ENDMDL
MODEL 4
REMARK VINA RESULT: -5.452979963      2.263      3.205
REMARK  8 active torsions:
REMARK  status: ('A' for Active; 'I' for Inactive)
REMARK    1  A    between atoms: O1_1  and  C1_3 
REMARK    2  A    between atoms: C1_3  and  C2_4 
REMARK    3  A    between atoms: C1_3  and  N1_10 
REMARK    4  A    between atoms: C2_4  and  C3_5 
REMARK    5  A    between atoms: C3_5  and  C4_6 
REMARK    6  A    between atoms: C4_6  and  C5_7 
REMARK    7  A    between atoms: C5_7  and  C6_8 
REMARK    8  A    between atoms: N4_18  and  O2_19 
ROOT
HETATM    1  N1  UNL     1      -5.056   2.841  15.028  1.00  0.00    -0.213 N 
HETATM    2  N2  UNL     1      -4.367   1.873  14.513  1.00  0.00    -0.299 N 
ATOM      3  H2  UNL     1      -3.814   1.972  13.661  1.00  0.00     0.186 HD
HETATM    4  C7  UNL     1      -4.446   0.746  15.196  1.00  0.00     0.141 A 
HETATM    5  C8  UNL     1      -5.276   1.015  16.265  1.00  0.00     0.099 A 
HETATM    6  N3  UNL     1      -5.864   0.508  17.371  1.00  0.00    -0.346 N 
ATOM      7  H3  UNL     1      -5.762  -0.451  17.703  1.00  0.00     0.167 HD
HETATM    8  C9  UNL     1      -6.598   1.451  17.961  1.00  0.00     0.216 A 
HETATM    9  N4  UNL     1      -6.461   2.566  17.204  1.00  0.00    -0.199 N 
HETATM   10  C10 UNL     1      -5.653   2.332  16.150  1.00  0.00     0.185 A 
ENDROOT
BRANCH   1  11
HETATM   11  C1  UNL     1      -5.216   4.184  14.584  1.00  0.00     0.163 C 
BRANCH  11  12
HETATM   12  O1  UNL     1      -6.432   4.418  14.099  1.00  0.00    -0.345 OA
ATOM     13  H1  UNL     1      -7.131   4.168  14.692  1.00  0.00     0.219 HD
ENDBRANCH  11  12
BRANCH  11  14
HETATM   14  C2  UNL     1      -4.377   5.304  14.549  1.00  0.00     0.058 C 
BRANCH  14  15
HETATM   15  C3  UNL     1      -3.150   5.610  14.607  1.00  0.00     0.004 C 
BRANCH  15  16
HETATM   16  C4  UNL     1      -1.902   5.106  14.137  1.00  0.00     0.001 C 
BRANCH  16  17
HETATM   17  C5  UNL     1      -1.581   4.770  12.921  1.00  0.00     0.012 C 
BRANCH  17  18
HETATM   18  C6  UNL     1      -1.909   3.737  11.980  1.00  0.00     0.084 C 
HETATM   19 CL1  UNL     1      -3.544   3.523  11.414  1.00  0.00    -0.097 Cl
ENDBRANCH  17  18
ENDBRANCH  16  17
ENDBRANCH  15  16
ENDBRANCH  14  15
ENDBRANCH  11  14
ENDBRANCH   1  11
BRANCH   9  20
HETATM   20  O2  UNL     1      -7.085   3.731  17.522  1.00  0.00    -0.280 OA
ATOM     21  H2  UNL     1      -8.031   3.790  17.595  1.00  0.00     0.245 HD
ENDBRANCH   9  20
TORSDOF 8
ENDMDL
MODEL 5
REMARK VINA RESULT: -5.426733257      3.339      5.507
REMARK  8 active torsions:
REMARK  status: ('A' for Active; 'I' for Inactive)
REMARK    1  A    between atoms: O1_1  and  C1_3 
REMARK    2  A    between atoms: C1_3  and  C2_4 
REMARK    3  A    between atoms: C1_3  and  N1_10 
REMARK    4  A    between atoms: C2_4  and  C3_5 
REMARK    5  A    between atoms: C3_5  and  C4_6 
REMARK    6  A    between atoms: C4_6  and  C5_7 
REMARK    7  A    between atoms: C5_7  and  C6_8 
REMARK    8  A    between atoms: N4_18  and  O2_19 
ROOT
HETATM    1  N1  UNL     1      -3.737   3.862  10.733  1.00  0.00    -0.213 N 
HETATM    2  N2  UNL     1      -4.314   4.818  10.078  1.00  0.00    -0.299 N 
ATOM      3  H2  UNL     1      -5.291   4.786   9.786  1.00  0.00     0.186 HD
HETATM    4  C7  UNL     1      -3.517   5.840   9.823  1.00  0.00     0.141 A 
HETATM    5  C8  UNL     1      -2.296   5.507  10.372  1.00  0.00     0.099 A 
HETATM    6  N3  UNL     1      -1.021   5.908  10.574  1.00  0.00    -0.346 N 
ATOM      7  H3  UNL     1      -0.628   6.794  10.258  1.00  0.00     0.167 HD
HETATM    8  C9  UNL     1      -0.357   4.969  11.248  1.00  0.00     0.216 A 
HETATM    9  N4  UNL     1      -1.240   3.965  11.467  1.00  0.00    -0.199 N 
HETATM   10  C10 UNL     1      -2.445   4.264  10.941  1.00  0.00     0.185 A 
ENDROOT
BRANCH   1  11
HETATM   11  C1  UNL     1      -4.263   2.618  11.183  1.00  0.00     0.163 C 
BRANCH  11  12
HETATM   12  O1  UNL     1      -4.576   1.805  10.178  1.00  0.00    -0.345 OA
ATOM     13  H1  UNL     1      -4.582   2.235   9.330  1.00  0.00     0.219 HD
ENDBRANCH  11  12
BRANCH  11  14
HETATM   14  C2  UNL     1      -4.520   2.069  12.444  1.00  0.00     0.058 C 
BRANCH  14  15
HETATM   15  C3  UNL     1      -4.609   2.409  13.660  1.00  0.00     0.004 C 
BRANCH  15  16
HETATM   16  C4  UNL     1      -5.351   3.327  14.459  1.00  0.00     0.001 C 
BRANCH  16  17
HETATM   17  C5  UNL     1      -5.968   3.095  15.581  1.00  0.00     0.012 C 
BRANCH  17  18
HETATM   18  C6  UNL     1      -5.938   2.115  16.629  1.00  0.00     0.084 C 
HETATM   19 CL1  UNL     1      -7.403   1.353  17.189  1.00  0.00    -0.097 Cl
ENDBRANCH  17  18
ENDBRANCH  16  17
ENDBRANCH  15  16
ENDBRANCH  14  15
ENDBRANCH  11  14
ENDBRANCH   1  11
BRANCH   9  20
HETATM   20  O2  UNL     1      -0.890   2.834  12.136  1.00  0.00    -0.280 OA
ATOM     21  H2  UNL     1      -1.517   2.343  12.654  1.00  0.00     0.245 HD
ENDBRANCH   9  20
TORSDOF 8
ENDMDL
