MODEL 1
REMARK VINA RESULT: -8.586125551      0.000      0.000
REMARK  9 active torsions:
REMARK  status: ('A' for Active; 'I' for Inactive)
REMARK    1  A    between atoms: C4_4  and  C5_5 
REMARK    2  A    between atoms: C5_5  and  C6_6 
REMARK    3  A    between atoms: C6_6  and  C7_7 
REMARK    4  A    between atoms: C7_7  and  C8_8 
REMARK    5  A    between atoms: C17_17  and  C18_18 
REMARK    6  A    between atoms: C18_18  and  O1_19 
REMARK    7  A    between atoms: C18_18  and  C19_21 
REMARK    8  A    between atoms: C23_25  and  C24_26 
REMARK    9  A    between atoms: C24_26  and  O2_27 
ROOT
HETATM    1  C1  UNL     1      -7.459   7.884  12.245  1.00  0.00     0.049 C 
HETATM    2  C2  UNL     1      -6.150   7.339  11.714  1.00  0.00    -0.049 C 
HETATM    3  C3  UNL     1      -5.306   6.864  12.651  1.00  0.00     0.015 C 
HETATM    4  C4  UNL     1      -4.033   6.338  12.249  1.00  0.00    -0.054 C 
HETATM    5  C15 UNL     1      -3.924   5.710  10.931  1.00  0.00     0.066 C 
HETATM    6  C16 UNL     1      -4.853   6.297   9.974  1.00  0.00    -0.008 C 
HETATM    7  C17 UNL     1      -5.917   7.068  10.312  1.00  0.00     0.000 C 
ENDROOT
BRANCH   7   8
HETATM    8  C18 UNL     1      -6.766   7.440   9.219  1.00  0.00     0.086 C 
BRANCH   8   9
HETATM    9  O1  UNL     1      -7.221   6.432   8.486  1.00  0.00    -0.359 OA
ATOM     10  H1  UNL     1      -8.132   6.498   8.226  1.00  0.00     0.217 HD
ENDBRANCH   8   9
BRANCH   8  11
HETATM   11  C19 UNL     1      -7.239   8.705   8.722  1.00  0.00    -0.002 A 
HETATM   12  C20 UNL     1      -6.523   9.887   9.011  1.00  0.00     0.014 A 
HETATM   13  C21 UNL     1      -6.993  11.136   8.722  1.00  0.00     0.002 A 
HETATM   14  C22 UNL     1      -8.217  11.313   8.120  1.00  0.00     0.009 A 
HETATM   15  C23 UNL     1      -8.933  10.183   7.829  1.00  0.00    -0.034 A 
HETATM   16  C25 UNL     1      -8.458   8.917   8.123  1.00  0.00     0.023 A 
BRANCH  15  17
HETATM   17  C24 UNL     1     -10.259  10.327   7.178  1.00  0.00     0.202 C 
BRANCH  17  18
HETATM   18  O2  UNL     1     -11.253   9.681   7.893  1.00  0.00    -0.396 OA
ATOM     19  H2  UNL     1     -10.891   9.101   8.551  1.00  0.00     0.209 HD
ENDBRANCH  17  18
ENDBRANCH  15  17
ENDBRANCH   8  11
ENDBRANCH   7   8
BRANCH   4  20
HETATM   20  C5  UNL     1      -2.955   6.444  13.064  1.00  0.00     0.007 C 
BRANCH  20  21
HETATM   21  C6  UNL     1      -2.810   5.582  14.190  1.00  0.00     0.001 C 
BRANCH  21  22
HETATM   22  C7  UNL     1      -3.130   4.374  14.368  1.00  0.00     0.011 C 
BRANCH  22  23
HETATM   23  C8  UNL     1      -4.184   3.705  15.070  1.00  0.00    -0.036 A 
HETATM   24  C9  UNL     1      -5.509   4.053  15.042  1.00  0.00     0.012 A 
HETATM   25  C10 UNL     1      -6.484   3.327  15.699  1.00  0.00     0.007 A 
HETATM   26  C11 UNL     1      -6.181   2.209  16.426  1.00  0.00    -0.062 A 
HETATM   27  C12 UNL     1      -7.235   1.431  17.131  1.00  0.00     0.048 C 
HETATM   28  C13 UNL     1      -4.864   1.850  16.464  1.00  0.00     0.007 A 
HETATM   29  C14 UNL     1      -3.896   2.553  15.823  1.00  0.00     0.012 A 
ENDBRANCH  22  23
ENDBRANCH  21  22
ENDBRANCH  20  21
ENDBRANCH   4  20
TORSDOF 9
ENDMDL
MODEL 2
REMARK VINA RESULT: -8.407085199      3.864      7.915
REMARK  9 active torsions:
REMARK  status: ('A' for Active; 'I' for Inactive)
REMARK    1  A    between atoms: C4_4  and  C5_5 
REMARK    2  A    between atoms: C5_5  and  C6_6 
REMARK    3  A    between atoms: C6_6  and  C7_7 
REMARK    4  A    between atoms: C7_7  and  C8_8 
REMARK    5  A    between atoms: C17_17  and  C18_18 
REMARK    6  A    between atoms: C18_18  and  O1_19 
REMARK    7  A    between atoms: C18_18  and  C19_21 
REMARK    8  A    between atoms: C23_25  and  C24_26 
REMARK    9  A    between atoms: C24_26  and  O2_27 
ROOT
HETATM    1  C1  UNL     1      -2.422   8.054  15.281  1.00  0.00     0.049 C 
HETATM    2  C2  UNL     1      -1.881   7.520  13.971  1.00  0.00    -0.049 C 
HETATM    3  C3  UNL     1      -1.317   8.442  13.167  1.00  0.00     0.015 C 
HETATM    4  C4  UNL     1      -0.788   8.036  11.896  1.00  0.00    -0.054 C 
HETATM    5  C15 UNL     1      -0.254   6.679  11.765  1.00  0.00     0.066 C 
HETATM    6  C16 UNL     1      -0.934   5.743  12.651  1.00  0.00    -0.008 C 
HETATM    7  C17 UNL     1      -1.707   6.108  13.705  1.00  0.00     0.000 C 
ENDROOT
BRANCH   7   8
HETATM    8  C18 UNL     1      -2.180   5.023  14.512  1.00  0.00     0.086 C 
BRANCH   8   9
HETATM    9  O1  UNL     1      -1.256   4.420  15.249  1.00  0.00    -0.359 OA
ATOM     10  H1  UNL     1      -0.663   5.000  15.712  1.00  0.00     0.217 HD
ENDBRANCH   8   9
BRANCH   8  11
HETATM   11  C19 UNL     1      -3.474   4.421  14.697  1.00  0.00    -0.002 A 
HETATM   12  C20 UNL     1      -4.642   5.183  14.480  1.00  0.00     0.014 A 
HETATM   13  C21 UNL     1      -5.895   4.738  14.794  1.00  0.00     0.002 A 
HETATM   14  C22 UNL     1      -6.088   3.496  15.352  1.00  0.00     0.009 A 
HETATM   15  C23 UNL     1      -4.972   2.736  15.575  1.00  0.00    -0.034 A 
HETATM   16  C25 UNL     1      -3.703   3.187  15.258  1.00  0.00     0.023 A 
BRANCH  15  17
HETATM   17  C24 UNL     1      -5.135   1.389  16.175  1.00  0.00     0.202 C 
BRANCH  17  18
HETATM   18  O2  UNL     1      -3.953   0.668  16.144  1.00  0.00    -0.396 OA
ATOM     19  H2  UNL     1      -4.004  -0.112  16.683  1.00  0.00     0.209 HD
ENDBRANCH  17  18
ENDBRANCH  15  17
ENDBRANCH   8  11
ENDBRANCH   7   8
BRANCH   4  20
HETATM   20  C5  UNL     1      -0.805   8.885  10.839  1.00  0.00     0.007 C 
BRANCH  20  21
HETATM   21  C6  UNL     1      -1.481   8.529   9.635  1.00  0.00     0.001 C 
BRANCH  21  22
HETATM   22  C7  UNL     1      -2.707   8.380   9.374  1.00  0.00     0.011 C 
BRANCH  22  23
HETATM   23  C8  UNL     1      -3.897   8.260  10.163  1.00  0.00    -0.036 A 
HETATM   24  C9  UNL     1      -4.903   9.188  10.237  1.00  0.00     0.012 A 
HETATM   25  C10 UNL     1      -6.052   8.983  10.975  1.00  0.00     0.007 A 
HETATM   26  C11 UNL     1      -6.255   7.830  11.685  1.00  0.00    -0.062 A 
HETATM   27  C12 UNL     1      -7.495   7.614  12.478  1.00  0.00     0.048 C 
HETATM   28  C13 UNL     1      -5.261   6.897  11.622  1.00  0.00     0.007 A 
HETATM   29  C14 UNL     1      -4.127   7.086  10.900  1.00  0.00     0.012 A 
ENDBRANCH  22  23
ENDBRANCH  21  22
ENDBRANCH  20  21
ENDBRANCH   4  20
TORSDOF 9
ENDMDL
MODEL 3
REMARK VINA RESULT: -8.303083723      4.663      7.800
REMARK  9 active torsions:
REMARK  status: ('A' for Active; 'I' for Inactive)
REMARK    1  A    between atoms: C4_4  and  C5_5 
REMARK    2  A    between atoms: C5_5  and  C6_6 
REMARK    3  A    between atoms: C6_6  and  C7_7 
REMARK    4  A    between atoms: C7_7  and  C8_8 
REMARK    5  A    between atoms: C17_17  and  C18_18 
REMARK    6  A    between atoms: C18_18  and  O1_19 
REMARK    7  A    between atoms: C18_18  and  C19_21 
REMARK    8  A    between atoms: C23_25  and  C24_26 
REMARK    9  A    between atoms: C24_26  and  O2_27 
ROOT
HETATM    1  C1  UNL     1      -2.519   8.001  15.273  1.00  0.00     0.049 C 
HETATM    2  C2  UNL     1      -1.881   7.482  14.001  1.00  0.00    -0.049 C 
HETATM    3  C3  UNL     1      -1.292   8.418  13.232  1.00  0.00     0.015 C 
HETATM    4  C4  UNL     1      -0.671   8.026  11.999  1.00  0.00    -0.054 C 
HETATM    5  C15 UNL     1      -0.094   6.684  11.906  1.00  0.00     0.066 C 
HETATM    6  C16 UNL     1      -0.802   5.730  12.749  1.00  0.00    -0.008 C 
HETATM    7  C17 UNL     1      -1.651   6.075  13.750  1.00  0.00     0.000 C 
ENDROOT
BRANCH   7   8
HETATM    8  C18 UNL     1      -2.144   4.978  14.529  1.00  0.00     0.086 C 
BRANCH   8   9
HETATM    9  O1  UNL     1      -1.234   4.343  15.256  1.00  0.00    -0.359 OA
ATOM     10  H1  UNL     1      -0.425   4.136  14.803  1.00  0.00     0.217 HD
ENDBRANCH   8   9
BRANCH   8  11
HETATM   11  C19 UNL     1      -3.448   4.391  14.692  1.00  0.00    -0.002 A 
HETATM   12  C20 UNL     1      -4.604   5.170  14.470  1.00  0.00     0.014 A 
HETATM   13  C21 UNL     1      -5.866   4.739  14.764  1.00  0.00     0.002 A 
HETATM   14  C22 UNL     1      -6.082   3.493  15.306  1.00  0.00     0.009 A 
HETATM   15  C23 UNL     1      -4.978   2.715  15.533  1.00  0.00    -0.034 A 
HETATM   16  C25 UNL     1      -3.700   3.153  15.235  1.00  0.00     0.023 A 
BRANCH  15  17
HETATM   17  C24 UNL     1      -5.166   1.364  16.116  1.00  0.00     0.202 C 
BRANCH  17  18
HETATM   18  O2  UNL     1      -3.974   0.663  16.176  1.00  0.00    -0.396 OA
ATOM     19  H2  UNL     1      -4.112  -0.243  16.424  1.00  0.00     0.209 HD
ENDBRANCH  17  18
ENDBRANCH  15  17
ENDBRANCH   8  11
ENDBRANCH   7   8
BRANCH   4  20
HETATM   20  C5  UNL     1      -0.645   8.874  10.941  1.00  0.00     0.007 C 
BRANCH  20  21
HETATM   21  C6  UNL     1      -1.796   9.041  10.117  1.00  0.00     0.001 C 
BRANCH  21  22
HETATM   22  C7  UNL     1      -2.561   8.201   9.564  1.00  0.00     0.011 C 
BRANCH  22  23
HETATM   23  C8  UNL     1      -2.960   6.858   9.858  1.00  0.00    -0.036 A 
HETATM   24  C9  UNL     1      -2.423   5.725   9.304  1.00  0.00     0.012 A 
HETATM   25  C10 UNL     1      -2.818   4.454   9.677  1.00  0.00     0.007 A 
HETATM   26  C11 UNL     1      -3.780   4.250  10.627  1.00  0.00    -0.062 A 
HETATM   27  C12 UNL     1      -4.201   2.879  11.025  1.00  0.00     0.048 C 
HETATM   28  C13 UNL     1      -4.326   5.369  11.187  1.00  0.00     0.007 A 
HETATM   29  C14 UNL     1      -3.947   6.623  10.831  1.00  0.00     0.012 A 
ENDBRANCH  22  23
ENDBRANCH  21  22
ENDBRANCH  20  21
ENDBRANCH   4  20
TORSDOF 9
ENDMDL
MODEL 4
REMARK VINA RESULT: -8.147680813      3.568      7.434
REMARK  9 active torsions:
REMARK  status: ('A' for Active; 'I' for Inactive)
REMARK    1  A    between atoms: C4_4  and  C5_5 
REMARK    2  A    between atoms: C5_5  and  C6_6 
REMARK    3  A    between atoms: C6_6  and  C7_7 
REMARK    4  A    between atoms: C7_7  and  C8_8 
REMARK    5  A    between atoms: C17_17  and  C18_18 
REMARK    6  A    between atoms: C18_18  and  O1_19 
REMARK    7  A    between atoms: C18_18  and  C19_21 
REMARK    8  A    between atoms: C23_25  and  C24_26 
REMARK    9  A    between atoms: C24_26  and  O2_27 
ROOT
HETATM    1  C1  UNL     1      -5.603   7.124  11.730  1.00  0.00     0.049 C 
HETATM    2  C2  UNL     1      -4.435   6.876  12.662  1.00  0.00    -0.049 C 
HETATM    3  C3  UNL     1      -3.367   7.673  12.467  1.00  0.00     0.015 C 
HETATM    4  C4  UNL     1      -2.205   7.506  13.291  1.00  0.00    -0.054 C 
HETATM    5  C15 UNL     1      -2.387   7.026  14.663  1.00  0.00     0.066 C 
HETATM    6  C16 UNL     1      -3.548   6.154  14.781  1.00  0.00    -0.008 C 
HETATM    7  C17 UNL     1      -4.536   6.062  13.855  1.00  0.00     0.000 C 
ENDROOT
BRANCH   7   8
HETATM    8  C18 UNL     1      -5.641   5.232  14.231  1.00  0.00     0.086 C 
BRANCH   8   9
HETATM    9  O1  UNL     1      -6.827   5.633  13.791  1.00  0.00    -0.359 OA
ATOM     10  H1  UNL     1      -7.169   6.417  14.205  1.00  0.00     0.217 HD
ENDBRANCH   8   9
BRANCH   8  11
HETATM   11  C19 UNL     1      -5.750   4.027  15.010  1.00  0.00    -0.002 A 
HETATM   12  C20 UNL     1      -6.596   3.993  16.140  1.00  0.00     0.014 A 
HETATM   13  C21 UNL     1      -6.626   2.951  17.022  1.00  0.00     0.002 A 
HETATM   14  C22 UNL     1      -5.814   1.853  16.851  1.00  0.00     0.009 A 
HETATM   15  C23 UNL     1      -4.983   1.860  15.763  1.00  0.00    -0.034 A 
HETATM   16  C25 UNL     1      -4.952   2.916  14.871  1.00  0.00     0.023 A 
BRANCH  15  17
HETATM   17  C24 UNL     1      -4.091   0.695  15.541  1.00  0.00     0.202 C 
BRANCH  17  18
HETATM   18  O2  UNL     1      -4.798  -0.420  15.126  1.00  0.00    -0.396 OA
ATOM     19  H2  UNL     1      -4.421  -1.222  15.467  1.00  0.00     0.209 HD
ENDBRANCH  17  18
ENDBRANCH  15  17
ENDBRANCH   8  11
ENDBRANCH   7   8
BRANCH   4  20
HETATM   20  C5  UNL     1      -0.968   7.764  12.800  1.00  0.00     0.007 C 
BRANCH  20  21
HETATM   21  C6  UNL     1      -0.245   6.759  12.092  1.00  0.00     0.001 C 
BRANCH  21  22
HETATM   22  C7  UNL     1      -0.624   5.868  11.281  1.00  0.00     0.011 C 
BRANCH  22  23
HETATM   23  C8  UNL     1      -1.626   4.845  11.306  1.00  0.00    -0.036 A 
HETATM   24  C9  UNL     1      -1.794   3.915  12.299  1.00  0.00     0.012 A 
HETATM   25  C10 UNL     1      -2.820   2.990  12.287  1.00  0.00     0.007 A 
HETATM   26  C11 UNL     1      -3.736   2.945  11.271  1.00  0.00    -0.062 A 
HETATM   27  C12 UNL     1      -4.839   1.947  11.264  1.00  0.00     0.048 C 
HETATM   28  C13 UNL     1      -3.581   3.864  10.274  1.00  0.00     0.007 A 
HETATM   29  C14 UNL     1      -2.578   4.779  10.274  1.00  0.00     0.012 A 
ENDBRANCH  22  23
ENDBRANCH  21  22
ENDBRANCH  20  21
ENDBRANCH   4  20
TORSDOF 9
ENDMDL
MODEL 5
REMARK VINA RESULT: -8.139061331      3.891      7.925
REMARK  9 active torsions:
REMARK  status: ('A' for Active; 'I' for Inactive)
REMARK    1  A    between atoms: C4_4  and  C5_5 
REMARK    2  A    between atoms: C5_5  and  C6_6 
REMARK    3  A    between atoms: C6_6  and  C7_7 
REMARK    4  A    between atoms: C7_7  and  C8_8 
REMARK    5  A    between atoms: C17_17  and  C18_18 
REMARK    6  A    between atoms: C18_18  and  O1_19 
REMARK    7  A    between atoms: C18_18  and  C19_21 
REMARK    8  A    between atoms: C23_25  and  C24_26 
REMARK    9  A    between atoms: C24_26  and  O2_27 
ROOT
HETATM    1  C1  UNL     1      -2.479   7.859  14.955  1.00  0.00     0.049 C 
HETATM    2  C2  UNL     1      -1.868   7.191  13.741  1.00  0.00    -0.049 C 
HETATM    3  C3  UNL     1      -1.254   8.024  12.878  1.00  0.00     0.015 C 
HETATM    4  C4  UNL     1      -0.656   7.487  11.689  1.00  0.00    -0.054 C 
HETATM    5  C15 UNL     1      -0.124   6.123  11.732  1.00  0.00     0.066 C 
HETATM    6  C16 UNL     1      -0.857   5.285  12.671  1.00  0.00    -0.008 C 
HETATM    7  C17 UNL     1      -1.687   5.759  13.635  1.00  0.00     0.000 C 
ENDROOT
BRANCH   7   8
HETATM    8  C18 UNL     1      -2.211   4.765  14.524  1.00  0.00     0.086 C 
BRANCH   8   9
HETATM    9  O1  UNL     1      -1.322   4.199  15.330  1.00  0.00    -0.359 OA
ATOM     10  H1  UNL     1      -1.552   4.198  16.251  1.00  0.00     0.217 HD
ENDBRANCH   8   9
BRANCH   8  11
HETATM   11  C19 UNL     1      -3.528   4.224  14.733  1.00  0.00    -0.002 A 
HETATM   12  C20 UNL     1      -4.666   4.997  14.417  1.00  0.00     0.014 A 
HETATM   13  C21 UNL     1      -5.939   4.623  14.741  1.00  0.00     0.002 A 
HETATM   14  C22 UNL     1      -6.185   3.446  15.408  1.00  0.00     0.009 A 
HETATM   15  C23 UNL     1      -5.099   2.675  15.728  1.00  0.00    -0.034 A 
HETATM   16  C25 UNL     1      -3.809   3.055  15.401  1.00  0.00     0.023 A 
BRANCH  15  17
HETATM   17  C24 UNL     1      -5.319   1.397  16.448  1.00  0.00     0.202 C 
BRANCH  17  18
HETATM   18  O2  UNL     1      -5.052   0.304  15.642  1.00  0.00    -0.396 OA
ATOM     19  H2  UNL     1      -4.155   0.309  15.329  1.00  0.00     0.209 HD
ENDBRANCH  17  18
ENDBRANCH  15  17
ENDBRANCH   8  11
ENDBRANCH   7   8
BRANCH   4  20
HETATM   20  C5  UNL     1      -0.609   8.220  10.550  1.00  0.00     0.007 C 
BRANCH  20  21
HETATM   21  C6  UNL     1      -1.278   7.773   9.373  1.00  0.00     0.001 C 
BRANCH  21  22
HETATM   22  C7  UNL     1      -2.495   7.528   9.142  1.00  0.00     0.011 C 
BRANCH  22  23
HETATM   23  C8  UNL     1      -3.690   7.535   9.932  1.00  0.00    -0.036 A 
HETATM   24  C9  UNL     1      -4.093   6.536  10.779  1.00  0.00     0.012 A 
HETATM   25  C10 UNL     1      -5.231   6.632  11.556  1.00  0.00     0.007 A 
HETATM   26  C11 UNL     1      -6.033   7.740  11.523  1.00  0.00    -0.062 A 
HETATM   27  C12 UNL     1      -7.257   7.839  12.363  1.00  0.00     0.048 C 
HETATM   28  C13 UNL     1      -5.646   8.743  10.682  1.00  0.00     0.007 A 
HETATM   29  C14 UNL     1      -4.529   8.662   9.914  1.00  0.00     0.012 A 
ENDBRANCH  22  23
ENDBRANCH  21  22
ENDBRANCH  20  21
ENDBRANCH   4  20
TORSDOF 9
ENDMDL
