MODEL 1
REMARK VINA RESULT: -7.053090073      0.000      0.000
REMARK  3 active torsions:
REMARK  status: ('A' for Active; 'I' for Inactive)
REMARK    1  A    between atoms: N1_3  and  O1_4 
REMARK    2  A    between atoms: C5_9  and  C6_10 
REMARK    3  A    between atoms: N2_11  and  C7_13 
ROOT
HETATM    1  C6  UNL     1      -4.846   3.494  13.726  1.00  0.00     0.104 C 
HETATM    2  N2  UNL     1      -4.346   2.816  14.693  1.00  0.00    -0.347 N 
ATOM      3  H2  UNL     1      -3.342   2.643  14.713  1.00  0.00     0.167 HD
ENDROOT
BRANCH   2   4
HETATM    4  C7  UNL     1      -5.151   2.308  15.724  1.00  0.00     0.174 A 
HETATM    5  N3  UNL     1      -6.229   2.997  16.141  1.00  0.00    -0.346 N 
HETATM    6  C8  UNL     1      -7.039   2.560  17.126  1.00  0.00     0.107 A 
ATOM      7  H3  UNL     1      -6.442   3.888  15.692  1.00  0.00     0.167 HD
HETATM    8  C9  UNL     1      -6.732   1.351  17.721  1.00  0.00     0.108 A 
HETATM    9  N4  UNL     1      -5.659   0.645  17.321  1.00  0.00    -0.329 N 
HETATM   10  C10 UNL     1      -4.864   1.106  16.331  1.00  0.00     0.289 A 
ATOM     11  H4  UNL     1      -5.444  -0.246  17.769  1.00  0.00     0.168 HD
HETATM   12  O2  UNL     1      -3.860   0.427  15.968  1.00  0.00    -0.264 OA
ENDBRANCH   2   4
BRANCH   1  13
HETATM   13  C5  UNL     1      -3.970   4.015  12.654  1.00  0.00     0.023 A 
HETATM   14  C2  UNL     1      -3.793   3.439  11.354  1.00  0.00     0.044 A 
HETATM   15  C1  UNL     1      -4.471   2.191  10.848  1.00  0.00     0.071 C 
HETATM   16  N1  UNL     1      -2.963   4.144  10.670  1.00  0.00    -0.260 N 
HETATM   17  C3  UNL     1      -2.513   5.260  11.462  1.00  0.00     0.208 A 
HETATM   18  C4  UNL     1      -3.224   5.093  12.739  1.00  0.00     0.045 A 
HETATM   19 CL1  UNL     1      -3.088   6.154  14.127  1.00  0.00    -0.086 Cl
BRANCH  16  20
HETATM   20  O1  UNL     1      -2.591   3.831   9.368  1.00  0.00    -0.287 OA
ATOM     21  H1  UNL     1      -2.998   4.220   8.603  1.00  0.00     0.244 HD
ENDBRANCH  16  20
ENDBRANCH   1  13
TORSDOF 3
ENDMDL
MODEL 2
REMARK VINA RESULT: -6.766566005      1.785      2.319
REMARK  3 active torsions:
REMARK  status: ('A' for Active; 'I' for Inactive)
REMARK    1  A    between atoms: N1_3  and  O1_4 
REMARK    2  A    between atoms: C5_9  and  C6_10 
REMARK    3  A    between atoms: N2_11  and  C7_13 
ROOT
HETATM    1  C6  UNL     1      -4.477   3.711  13.860  1.00  0.00     0.104 C 
HETATM    2  N2  UNL     1      -4.123   2.844  14.737  1.00  0.00    -0.347 N 
ATOM      3  H2  UNL     1      -3.155   2.524  14.759  1.00  0.00     0.167 HD
ENDROOT
BRANCH   2   4
HETATM    4  C7  UNL     1      -5.037   2.328  15.667  1.00  0.00     0.174 A 
HETATM    5  N3  UNL     1      -6.123   3.042  16.014  1.00  0.00    -0.346 N 
HETATM    6  C8  UNL     1      -7.036   2.598  16.902  1.00  0.00     0.107 A 
ATOM      7  H3  UNL     1      -6.261   3.958  15.588  1.00  0.00     0.167 HD
HETATM    8  C9  UNL     1      -6.829   1.355  17.468  1.00  0.00     0.108 A 
HETATM    9  N4  UNL     1      -5.751   0.622  17.136  1.00  0.00    -0.329 N 
HETATM   10  C10 UNL     1      -4.852   1.091  16.244  1.00  0.00     0.289 A 
ATOM     11  H4  UNL     1      -5.611  -0.294  17.562  1.00  0.00     0.168 HD
HETATM   12  O2  UNL     1      -3.844   0.387  15.944  1.00  0.00    -0.264 OA
ENDBRANCH   2   4
BRANCH   1  13
HETATM   13  C5  UNL     1      -3.488   4.235  12.893  1.00  0.00     0.023 A 
HETATM   14  C2  UNL     1      -2.514   5.254  13.151  1.00  0.00     0.044 A 
HETATM   15  C1  UNL     1      -2.325   5.976  14.462  1.00  0.00     0.071 C 
HETATM   16  N1  UNL     1      -1.814   5.471  12.095  1.00  0.00    -0.260 N 
HETATM   17  C3  UNL     1      -2.265   4.607  11.032  1.00  0.00     0.208 A 
HETATM   18  C4  UNL     1      -3.359   3.838  11.647  1.00  0.00     0.045 A 
HETATM   19 CL1  UNL     1      -4.315   2.609  10.845  1.00  0.00    -0.086 Cl
BRANCH  16  20
HETATM   20  O1  UNL     1      -0.789   6.408  12.039  1.00  0.00    -0.287 OA
ATOM     21  H1  UNL     1      -0.402   6.708  11.225  1.00  0.00     0.244 HD
ENDBRANCH  16  20
ENDBRANCH   1  13
TORSDOF 3
ENDMDL
MODEL 3
REMARK VINA RESULT: -6.413951657      2.392      2.519
REMARK  3 active torsions:
REMARK  status: ('A' for Active; 'I' for Inactive)
REMARK    1  A    between atoms: N1_3  and  O1_4 
REMARK    2  A    between atoms: C5_9  and  C6_10 
REMARK    3  A    between atoms: N2_11  and  C7_13 
ROOT
HETATM    1  C6  UNL     1      -5.016   4.622  14.953  1.00  0.00     0.104 C 
HETATM    2  N2  UNL     1      -4.715   3.378  15.033  1.00  0.00    -0.347 N 
ATOM      3  H2  UNL     1      -3.942   3.015  14.475  1.00  0.00     0.167 HD
ENDROOT
BRANCH   2   4
HETATM    4  C7  UNL     1      -5.424   2.505  15.872  1.00  0.00     0.174 A 
HETATM    5  N3  UNL     1      -6.682   2.800  16.245  1.00  0.00    -0.346 N 
HETATM    6  C8  UNL     1      -7.413   2.001  17.048  1.00  0.00     0.107 A 
ATOM      7  H3  UNL     1      -7.102   3.665  15.905  1.00  0.00     0.167 HD
HETATM    8  C9  UNL     1      -6.825   0.833  17.499  1.00  0.00     0.108 A 
HETATM    9  N4  UNL     1      -5.568   0.518  17.140  1.00  0.00    -0.329 N 
HETATM   10  C10 UNL     1      -4.859   1.336  16.333  1.00  0.00     0.289 A 
ATOM     11  H4  UNL     1      -5.147  -0.347  17.479  1.00  0.00     0.168 HD
HETATM   12  O2  UNL     1      -3.677   1.022  16.006  1.00  0.00    -0.264 OA
ENDBRANCH   2   4
BRANCH   1  13
HETATM   13  C5  UNL     1      -4.249   5.516  14.059  1.00  0.00     0.023 A 
HETATM   14  C2  UNL     1      -2.822   5.598  13.969  1.00  0.00     0.044 A 
HETATM   15  C1  UNL     1      -1.844   4.782  14.777  1.00  0.00     0.071 C 
HETATM   16  N1  UNL     1      -2.485   6.476  13.092  1.00  0.00    -0.260 N 
HETATM   17  C3  UNL     1      -3.671   7.059  12.516  1.00  0.00     0.208 A 
HETATM   18  C4  UNL     1      -4.772   6.371  13.208  1.00  0.00     0.045 A 
HETATM   19 CL1  UNL     1      -6.479   6.652  12.937  1.00  0.00    -0.086 Cl
BRANCH  16  20
HETATM   20  O1  UNL     1      -1.165   6.777  12.784  1.00  0.00    -0.287 OA
ATOM     21  H1  UNL     1      -0.810   6.724  11.904  1.00  0.00     0.244 HD
ENDBRANCH  16  20
ENDBRANCH   1  13
TORSDOF 3
ENDMDL
MODEL 4
REMARK VINA RESULT: -6.390011973      2.299      2.386
REMARK  3 active torsions:
REMARK  status: ('A' for Active; 'I' for Inactive)
REMARK    1  A    between atoms: N1_3  and  O1_4 
REMARK    2  A    between atoms: C5_9  and  C6_10 
REMARK    3  A    between atoms: N2_11  and  C7_13 
ROOT
HETATM    1  C6  UNL     1      -5.008   4.620  14.935  1.00  0.00     0.104 C 
HETATM    2  N2  UNL     1      -4.702   3.377  15.020  1.00  0.00    -0.347 N 
ATOM      3  H2  UNL     1      -3.924   3.017  14.467  1.00  0.00     0.167 HD
ENDROOT
BRANCH   2   4
HETATM    4  C7  UNL     1      -5.413   2.503  15.855  1.00  0.00     0.174 A 
HETATM    5  N3  UNL     1      -6.677   2.791  16.215  1.00  0.00    -0.346 N 
HETATM    6  C8  UNL     1      -7.409   1.990  17.014  1.00  0.00     0.107 A 
ATOM      7  H3  UNL     1      -7.098   3.652  15.868  1.00  0.00     0.167 HD
HETATM    8  C9  UNL     1      -6.819   0.828  17.474  1.00  0.00     0.108 A 
HETATM    9  N4  UNL     1      -5.556   0.519  17.128  1.00  0.00    -0.329 N 
HETATM   10  C10 UNL     1      -4.845   1.339  16.325  1.00  0.00     0.289 A 
ATOM     11  H4  UNL     1      -5.133  -0.342  17.474  1.00  0.00     0.168 HD
HETATM   12  O2  UNL     1      -3.659   1.031  16.009  1.00  0.00    -0.264 OA
ENDBRANCH   2   4
BRANCH   1  13
HETATM   13  C5  UNL     1      -4.238   5.516  14.045  1.00  0.00     0.023 A 
HETATM   14  C2  UNL     1      -4.788   6.436  13.094  1.00  0.00     0.044 A 
HETATM   15  C1  UNL     1      -6.257   6.653  12.832  1.00  0.00     0.071 C 
HETATM   16  N1  UNL     1      -3.842   7.059  12.487  1.00  0.00    -0.260 N 
HETATM   17  C3  UNL     1      -2.568   6.604  12.985  1.00  0.00     0.208 A 
HETATM   18  C4  UNL     1      -2.928   5.598  13.998  1.00  0.00     0.045 A 
HETATM   19 CL1  UNL     1      -1.795   4.677  14.966  1.00  0.00    -0.086 Cl
BRANCH  16  20
HETATM   20  O1  UNL     1      -4.067   8.017  11.506  1.00  0.00    -0.287 OA
ATOM     21  H1  UNL     1      -3.369   8.500  11.079  1.00  0.00     0.244 HD
ENDBRANCH  16  20
ENDBRANCH   1  13
TORSDOF 3
ENDMDL
MODEL 5
REMARK VINA RESULT: -5.997909657      2.079      2.252
REMARK  3 active torsions:
REMARK  status: ('A' for Active; 'I' for Inactive)
REMARK    1  A    between atoms: N1_3  and  O1_4 
REMARK    2  A    between atoms: C5_9  and  C6_10 
REMARK    3  A    between atoms: N2_11  and  C7_13 
ROOT
HETATM    1  C6  UNL     1      -4.798   4.719  14.571  1.00  0.00     0.104 C 
HETATM    2  N2  UNL     1      -5.283   3.547  14.381  1.00  0.00    -0.347 N 
ATOM      3  H2  UNL     1      -5.455   3.228  13.427  1.00  0.00     0.167 HD
ENDROOT
BRANCH   2   4
HETATM    4  C7  UNL     1      -5.582   2.695  15.454  1.00  0.00     0.174 A 
HETATM    5  N3  UNL     1      -6.470   3.075  16.391  1.00  0.00    -0.346 N 
HETATM    6  C8  UNL     1      -6.798   2.300  17.444  1.00  0.00     0.107 A 
ATOM      7  H3  UNL     1      -6.914   3.989  16.300  1.00  0.00     0.167 HD
HETATM    8  C9  UNL     1      -6.185   1.066  17.548  1.00  0.00     0.108 A 
HETATM    9  N4  UNL     1      -5.294   0.664  16.624  1.00  0.00    -0.329 N 
HETATM   10  C10 UNL     1      -4.984   1.461  15.579  1.00  0.00     0.289 A 
ATOM     11  H4  UNL     1      -4.849  -0.249  16.714  1.00  0.00     0.168 HD
HETATM   12  O2  UNL     1      -4.143   1.066  14.719  1.00  0.00    -0.264 OA
ENDBRANCH   2   4
BRANCH   1  13
HETATM   13  C5  UNL     1      -4.493   5.594  13.418  1.00  0.00     0.023 A 
HETATM   14  C2  UNL     1      -3.239   5.676  12.729  1.00  0.00     0.044 A 
HETATM   15  C1  UNL     1      -2.001   4.882  13.063  1.00  0.00     0.071 C 
HETATM   16  N1  UNL     1      -3.317   6.534  11.775  1.00  0.00    -0.260 N 
HETATM   17  C3  UNL     1      -4.642   7.102  11.745  1.00  0.00     0.208 A 
HETATM   18  C4  UNL     1      -5.337   6.427  12.852  1.00  0.00     0.045 A 
HETATM   19 CL1  UNL     1      -7.002   6.698  13.325  1.00  0.00    -0.086 Cl
BRANCH  16  20
HETATM   20  O1  UNL     1      -2.255   6.832  10.930  1.00  0.00    -0.287 OA
ATOM     21  H1  UNL     1      -2.366   7.231  10.075  1.00  0.00     0.244 HD
ENDBRANCH  16  20
ENDBRANCH   1  13
TORSDOF 3
ENDMDL
