MODEL 1
REMARK VINA RESULT: -8.340844062      0.000      0.000
REMARK  6 active torsions:
REMARK  status: ('A' for Active; 'I' for Inactive)
REMARK    1  A    between atoms: C2_2  and  C3_3 
REMARK    2  A    between atoms: C3_3  and  C5_5 
REMARK    3  A    between atoms: C8_8  and  C9_9 
REMARK    4  A    between atoms: C9_9  and  O1_10 
REMARK    5  A    between atoms: C9_9  and  C10_12 
REMARK    6  A    between atoms: C13_16  and  C14_17 
ROOT
HETATM    1  C10 UNL     1      -5.082   7.047  11.054  1.00  0.00     0.036 A 
HETATM    2  C11 UNL     1      -4.697   6.820   9.765  1.00  0.00     0.063 A 
HETATM    3  C12 UNL     1      -3.550   6.002   9.281  1.00  0.00     0.077 C 
HETATM    4  O2  UNL     1      -5.520   7.449   8.933  1.00  0.00    -0.313 OA
HETATM    5  C13 UNL     1      -6.461   8.100   9.614  1.00  0.00     0.093 A 
HETATM    6  C22 UNL     1      -6.215   7.864  10.938  1.00  0.00    -0.012 A 
HETATM    7  C23 UNL     1      -7.077   8.284  12.097  1.00  0.00     0.052 C 
ENDROOT
BRANCH   1   8
HETATM    8  C9  UNL     1      -4.557   6.594  12.301  1.00  0.00     0.089 C 
BRANCH   8   9
HETATM    9  C8  UNL     1      -4.738   5.404  13.072  1.00  0.00    -0.002 A 
HETATM   10  C7  UNL     1      -5.600   5.552  14.190  1.00  0.00     0.015 A 
HETATM   11  C6  UNL     1      -5.851   4.526  15.060  1.00  0.00     0.013 A 
HETATM   12  C5  UNL     1      -5.262   3.279  14.881  1.00  0.00    -0.027 A 
HETATM   13  C25 UNL     1      -4.436   3.150  13.808  1.00  0.00     0.013 A 
HETATM   14  C24 UNL     1      -4.175   4.188  12.921  1.00  0.00     0.015 A 
BRANCH  12  15
HETATM   15  C3  UNL     1      -5.543   2.219  15.832  1.00  0.00    -0.036 C 
HETATM   16  C4  UNL     1      -4.736   1.149  15.910  1.00  0.00     0.024 C 
BRANCH  15  17
HETATM   17  C2  UNL     1      -6.654   2.283  16.760  1.00  0.00     0.001 C 
HETATM   18  C1  UNL     1      -7.383   1.300  17.200  1.00  0.00     0.012 C 
ENDBRANCH  15  17
ENDBRANCH  12  15
ENDBRANCH   8   9
BRANCH   8  19
HETATM   19  O1  UNL     1      -3.729   7.414  12.920  1.00  0.00    -0.359 OA
ATOM     20  H1  UNL     1      -3.839   8.299  12.592  1.00  0.00     0.217 HD
ENDBRANCH   8  19
ENDBRANCH   1   8
BRANCH   5  21
HETATM   21  C14 UNL     1      -7.483   8.855   8.919  1.00  0.00     0.005 C 
HETATM   22  C15 UNL     1      -8.639   8.254   8.545  1.00  0.00     0.014 C 
HETATM   23  C16 UNL     1      -9.639   9.038   7.887  1.00  0.00    -0.003 C 
HETATM   24  C17 UNL     1      -9.535  10.322   7.634  1.00  0.00    -0.022 C 
HETATM   25  C18 UNL     1      -8.321  11.076   8.046  1.00  0.00     0.066 C 
HETATM   26  C19 UNL     1      -7.201  10.156   8.328  1.00  0.00    -0.046 C 
HETATM   27  C20 UNL     1      -5.974  10.499   7.920  1.00  0.00    -0.023 C 
HETATM   28  C21 UNL     1      -5.720  11.820   7.335  1.00  0.00     0.036 C 
ENDBRANCH   5  21
TORSDOF 6
ENDMDL
MODEL 2
REMARK VINA RESULT: -7.921205801      1.399      1.758
REMARK  6 active torsions:
REMARK  status: ('A' for Active; 'I' for Inactive)
REMARK    1  A    between atoms: C2_2  and  C3_3 
REMARK    2  A    between atoms: C3_3  and  C5_5 
REMARK    3  A    between atoms: C8_8  and  C9_9 
REMARK    4  A    between atoms: C9_9  and  O1_10 
REMARK    5  A    between atoms: C9_9  and  C10_12 
REMARK    6  A    between atoms: C13_16  and  C14_17 
ROOT
HETATM    1  C10 UNL     1      -4.117   7.112  12.050  1.00  0.00     0.036 A 
HETATM    2  C11 UNL     1      -3.239   7.169  11.008  1.00  0.00     0.063 A 
HETATM    3  C12 UNL     1      -1.811   6.746  10.990  1.00  0.00     0.077 C 
HETATM    4  O2  UNL     1      -3.843   7.673   9.938  1.00  0.00    -0.313 OA
HETATM    5  C13 UNL     1      -5.113   7.962  10.214  1.00  0.00     0.093 A 
HETATM    6  C22 UNL     1      -5.313   7.618  11.523  1.00  0.00    -0.012 A 
HETATM    7  C23 UNL     1      -6.622   7.642  12.263  1.00  0.00     0.052 C 
ENDROOT
BRANCH   1   8
HETATM    8  C9  UNL     1      -3.980   6.644  13.391  1.00  0.00     0.089 C 
BRANCH   8   9
HETATM    9  C8  UNL     1      -4.454   5.486  14.084  1.00  0.00    -0.002 A 
HETATM   10  C7  UNL     1      -3.432   4.628  14.566  1.00  0.00     0.015 A 
HETATM   11  C6  UNL     1      -3.709   3.455  15.214  1.00  0.00     0.013 A 
HETATM   12  C5  UNL     1      -5.022   3.050  15.427  1.00  0.00    -0.027 A 
HETATM   13  C25 UNL     1      -5.992   3.879  14.957  1.00  0.00     0.013 A 
HETATM   14  C24 UNL     1      -5.719   5.071  14.298  1.00  0.00     0.015 A 
BRANCH  12  15
HETATM   15  C3  UNL     1      -5.275   1.793  16.107  1.00  0.00    -0.036 C 
HETATM   16  C4  UNL     1      -4.612   0.683  15.747  1.00  0.00     0.024 C 
BRANCH  15  17
HETATM   17  C2  UNL     1      -6.198   1.685  17.219  1.00  0.00     0.001 C 
HETATM   18  C1  UNL     1      -7.424   1.247  17.198  1.00  0.00     0.012 C 
ENDBRANCH  15  17
ENDBRANCH  12  15
ENDBRANCH   8   9
BRANCH   8  19
HETATM   19  O1  UNL     1      -3.282   7.408  14.210  1.00  0.00    -0.359 OA
ATOM     20  H1  UNL     1      -2.872   8.115  13.726  1.00  0.00     0.217 HD
ENDBRANCH   8  19
ENDBRANCH   1   8
BRANCH   5  21
HETATM   21  C14 UNL     1      -5.980   8.517   9.195  1.00  0.00     0.005 C 
HETATM   22  C15 UNL     1      -6.108   7.896   7.997  1.00  0.00     0.014 C 
HETATM   23  C16 UNL     1      -6.997   8.457   7.025  1.00  0.00    -0.003 C 
HETATM   24  C17 UNL     1      -7.730   9.529   7.214  1.00  0.00    -0.022 C 
HETATM   25  C18 UNL     1      -7.688  10.253   8.513  1.00  0.00     0.066 C 
HETATM   26  C19 UNL     1      -6.485   9.880   9.284  1.00  0.00    -0.046 C 
HETATM   27  C20 UNL     1      -5.828  10.839   9.945  1.00  0.00    -0.023 C 
HETATM   28  C21 UNL     1      -6.366  12.201  10.023  1.00  0.00     0.036 C 
ENDBRANCH   5  21
TORSDOF 6
ENDMDL
MODEL 3
REMARK VINA RESULT: -7.648438441      3.407      6.216
REMARK  6 active torsions:
REMARK  status: ('A' for Active; 'I' for Inactive)
REMARK    1  A    between atoms: C2_2  and  C3_3 
REMARK    2  A    between atoms: C3_3  and  C5_5 
REMARK    3  A    between atoms: C8_8  and  C9_9 
REMARK    4  A    between atoms: C9_9  and  O1_10 
REMARK    5  A    between atoms: C9_9  and  C10_12 
REMARK    6  A    between atoms: C13_16  and  C14_17 
ROOT
HETATM    1  C10 UNL     1      -3.364   5.310  12.200  1.00  0.00     0.036 A 
HETATM    2  C11 UNL     1      -3.488   6.266  11.234  1.00  0.00     0.063 A 
HETATM    3  C12 UNL     1      -4.562   6.401  10.212  1.00  0.00     0.077 C 
HETATM    4  O2  UNL     1      -2.478   7.124  11.319  1.00  0.00    -0.313 OA
HETATM    5  C13 UNL     1      -1.664   6.786  12.316  1.00  0.00     0.093 A 
HETATM    6  C22 UNL     1      -2.193   5.662  12.886  1.00  0.00    -0.012 A 
HETATM    7  C23 UNL     1      -1.700   4.971  14.128  1.00  0.00     0.052 C 
ENDROOT
BRANCH   1   8
HETATM    8  C9  UNL     1      -4.178   4.191  12.546  1.00  0.00     0.089 C 
BRANCH   8   9
HETATM    9  C8  UNL     1      -4.816   3.773  13.756  1.00  0.00    -0.002 A 
HETATM   10  C7  UNL     1      -4.502   2.449  14.160  1.00  0.00     0.015 A 
HETATM   11  C6  UNL     1      -5.057   1.874  15.271  1.00  0.00     0.013 A 
HETATM   12  C5  UNL     1      -5.964   2.573  16.059  1.00  0.00    -0.027 A 
HETATM   13  C25 UNL     1      -6.259   3.840  15.660  1.00  0.00     0.013 A 
HETATM   14  C24 UNL     1      -5.700   4.431  14.533  1.00  0.00     0.015 A 
BRANCH  12  15
HETATM   15  C3  UNL     1      -6.541   1.925  17.222  1.00  0.00    -0.036 C 
HETATM   16  C4  UNL     1      -7.602   1.114  17.088  1.00  0.00     0.024 C 
BRANCH  15  17
HETATM   17  C2  UNL     1      -5.982   2.075  18.551  1.00  0.00     0.001 C 
HETATM   18  C1  UNL     1      -6.584   2.491  19.627  1.00  0.00     0.012 C 
ENDBRANCH  15  17
ENDBRANCH  12  15
ENDBRANCH   8   9
BRANCH   8  19
HETATM   19  O1  UNL     1      -4.419   3.321  11.583  1.00  0.00    -0.359 OA
ATOM     20  H1  UNL     1      -3.660   3.243  11.017  1.00  0.00     0.217 HD
ENDBRANCH   8  19
ENDBRANCH   1   8
BRANCH   5  21
HETATM   21  C14 UNL     1      -0.490   7.583  12.610  1.00  0.00     0.005 C 
HETATM   22  C15 UNL     1       0.731   7.183  12.177  1.00  0.00     0.014 C 
HETATM   23  C16 UNL     1       1.865   8.010  12.459  1.00  0.00    -0.003 C 
HETATM   24  C17 UNL     1       1.812   9.157  13.095  1.00  0.00    -0.022 C 
HETATM   25  C18 UNL     1       0.511   9.698  13.571  1.00  0.00     0.066 C 
HETATM   26  C19 UNL     1      -0.515   8.636  13.616  1.00  0.00    -0.046 C 
HETATM   27  C20 UNL     1      -1.361   8.609  14.650  1.00  0.00    -0.023 C 
HETATM   28  C21 UNL     1      -1.368   9.689  15.643  1.00  0.00     0.036 C 
ENDBRANCH   5  21
TORSDOF 6
ENDMDL
MODEL 4
REMARK VINA RESULT: -7.622071398      3.368      5.933
REMARK  6 active torsions:
REMARK  status: ('A' for Active; 'I' for Inactive)
REMARK    1  A    between atoms: C2_2  and  C3_3 
REMARK    2  A    between atoms: C3_3  and  C5_5 
REMARK    3  A    between atoms: C8_8  and  C9_9 
REMARK    4  A    between atoms: C9_9  and  O1_10 
REMARK    5  A    between atoms: C9_9  and  C10_12 
REMARK    6  A    between atoms: C13_16  and  C14_17 
ROOT
HETATM    1  C10 UNL     1      -3.750   6.029  12.843  1.00  0.00     0.036 A 
HETATM    2  C11 UNL     1      -4.200   7.183  12.271  1.00  0.00     0.063 A 
HETATM    3  C12 UNL     1      -5.419   7.379  11.438  1.00  0.00     0.077 C 
HETATM    4  O2  UNL     1      -3.375   8.181  12.565  1.00  0.00    -0.313 OA
HETATM    5  C13 UNL     1      -2.372   7.747  13.325  1.00  0.00     0.093 A 
HETATM    6  C22 UNL     1      -2.583   6.409  13.518  1.00  0.00    -0.012 A 
HETATM    7  C23 UNL     1      -1.786   5.498  14.411  1.00  0.00     0.052 C 
ENDROOT
BRANCH   1   8
HETATM    8  C9  UNL     1      -4.271   4.701  12.849  1.00  0.00     0.089 C 
BRANCH   8   9
HETATM    9  C8  UNL     1      -4.785   3.849  13.876  1.00  0.00    -0.002 A 
HETATM   10  C7  UNL     1      -5.788   4.442  14.687  1.00  0.00     0.015 A 
HETATM   11  C6  UNL     1      -6.357   3.784  15.743  1.00  0.00     0.013 A 
HETATM   12  C5  UNL     1      -5.971   2.489  16.068  1.00  0.00    -0.027 A 
HETATM   13  C25 UNL     1      -5.007   1.932  15.286  1.00  0.00     0.013 A 
HETATM   14  C24 UNL     1      -4.424   2.594  14.213  1.00  0.00     0.015 A 
BRANCH  12  15
HETATM   15  C3  UNL     1      -6.589   1.828  17.203  1.00  0.00    -0.036 C 
HETATM   16  C4  UNL     1      -7.673   1.056  17.028  1.00  0.00     0.024 C 
BRANCH  15  17
HETATM   17  C2  UNL     1      -6.051   1.924  18.545  1.00  0.00     0.001 C 
HETATM   18  C1  UNL     1      -6.467   2.680  19.519  1.00  0.00     0.012 C 
ENDBRANCH  15  17
ENDBRANCH  12  15
ENDBRANCH   8   9
BRANCH   8  19
HETATM   19  O1  UNL     1      -4.299   4.077  11.686  1.00  0.00    -0.359 OA
ATOM     20  H1  UNL     1      -4.069   4.678  10.987  1.00  0.00     0.217 HD
ENDBRANCH   8  19
ENDBRANCH   1   8
BRANCH   5  21
HETATM   21  C14 UNL     1      -1.345   8.660  13.783  1.00  0.00     0.005 C 
HETATM   22  C15 UNL     1      -1.597   9.510  14.809  1.00  0.00     0.014 C 
HETATM   23  C16 UNL     1      -0.550  10.377  15.255  1.00  0.00    -0.003 C 
HETATM   24  C17 UNL     1       0.665  10.399  14.757  1.00  0.00    -0.022 C 
HETATM   25  C18 UNL     1       1.047   9.472  13.658  1.00  0.00     0.066 C 
HETATM   26  C19 UNL     1      -0.152   8.925  12.991  1.00  0.00    -0.046 C 
HETATM   27  C20 UNL     1      -0.143   8.804  11.660  1.00  0.00    -0.023 C 
HETATM   28  C21 UNL     1       1.078   9.071  10.890  1.00  0.00     0.036 C 
ENDBRANCH   5  21
TORSDOF 6
ENDMDL
MODEL 5
REMARK VINA RESULT: -7.618216793      4.020      5.414
REMARK  6 active torsions:
REMARK  status: ('A' for Active; 'I' for Inactive)
REMARK    1  A    between atoms: C2_2  and  C3_3 
REMARK    2  A    between atoms: C3_3  and  C5_5 
REMARK    3  A    between atoms: C8_8  and  C9_9 
REMARK    4  A    between atoms: C9_9  and  O1_10 
REMARK    5  A    between atoms: C9_9  and  C10_12 
REMARK    6  A    between atoms: C13_16  and  C14_17 
ROOT
HETATM    1  C10 UNL     1      -3.000   4.817  12.389  1.00  0.00     0.036 A 
HETATM    2  C11 UNL     1      -1.667   4.724  12.112  1.00  0.00     0.063 A 
HETATM    3  C12 UNL     1      -0.859   3.492  11.898  1.00  0.00     0.077 C 
HETATM    4  O2  UNL     1      -1.137   5.940  12.045  1.00  0.00    -0.313 OA
HETATM    5  C13 UNL     1      -2.068   6.866  12.265  1.00  0.00     0.093 A 
HETATM    6  C22 UNL     1      -3.240   6.194  12.478  1.00  0.00    -0.012 A 
HETATM    7  C23 UNL     1      -4.603   6.807  12.649  1.00  0.00     0.052 C 
ENDROOT
BRANCH   1   8
HETATM    8  C9  UNL     1      -4.014   3.825  12.544  1.00  0.00     0.089 C 
BRANCH   8   9
HETATM    9  C8  UNL     1      -4.581   3.164  13.678  1.00  0.00    -0.002 A 
HETATM   10  C7  UNL     1      -5.613   3.891  14.328  1.00  0.00     0.015 A 
HETATM   11  C6  UNL     1      -6.235   3.426  15.455  1.00  0.00     0.013 A 
HETATM   12  C5  UNL     1      -5.875   2.207  16.017  1.00  0.00    -0.027 A 
HETATM   13  C25 UNL     1      -4.883   1.521  15.387  1.00  0.00     0.013 A 
HETATM   14  C24 UNL     1      -4.246   1.987  14.244  1.00  0.00     0.015 A 
BRANCH  12  15
HETATM   15  C3  UNL     1      -6.550   1.753  17.219  1.00  0.00    -0.036 C 
HETATM   16  C4  UNL     1      -7.684   1.039  17.131  1.00  0.00     0.024 C 
BRANCH  15  17
HETATM   17  C2  UNL     1      -6.020   1.998  18.545  1.00  0.00     0.001 C 
HETATM   18  C1  UNL     1      -6.507   2.775  19.468  1.00  0.00     0.012 C 
ENDBRANCH  15  17
ENDBRANCH  12  15
ENDBRANCH   8   9
BRANCH   8  19
HETATM   19  O1  UNL     1      -4.574   3.381  11.434  1.00  0.00    -0.359 OA
ATOM     20  H1  UNL     1      -5.117   4.059  11.049  1.00  0.00     0.217 HD
ENDBRANCH   8  19
ENDBRANCH   1   8
BRANCH   5  21
HETATM   21  C14 UNL     1      -1.728   8.274  12.234  1.00  0.00     0.005 C 
HETATM   22  C15 UNL     1      -1.148   8.810  11.133  1.00  0.00     0.014 C 
HETATM   23  C16 UNL     1      -0.854  10.211  11.125  1.00  0.00    -0.003 C 
HETATM   24  C17 UNL     1      -1.129  11.037  12.108  1.00  0.00    -0.022 C 
HETATM   25  C18 UNL     1      -1.805  10.548  13.339  1.00  0.00     0.066 C 
HETATM   26  C19 UNL     1      -1.700   9.079  13.448  1.00  0.00    -0.046 C 
HETATM   27  C20 UNL     1      -1.460   8.542  14.649  1.00  0.00    -0.023 C 
HETATM   28  C21 UNL     1      -1.444   9.378  15.855  1.00  0.00     0.036 C 
ENDBRANCH   5  21
TORSDOF 6
ENDMDL
