MODEL 1
REMARK VINA RESULT: -6.557849958      0.000      0.000
REMARK  8 active torsions:
REMARK  status: ('A' for Active; 'I' for Inactive)
REMARK    1  A    between atoms: C2_2  and  C3_3 
REMARK    2  A    between atoms: C3_3  and  C4_4 
REMARK    3  A    between atoms: C4_4  and  C5_5 
REMARK    4  A    between atoms: C5_5  and  C6_6 
REMARK    5  A    between atoms: C6_6  and  C7_7 
REMARK    6  A    between atoms: C7_7  and  C8_9 
REMARK    7  A    between atoms: C10_11  and  C11_12 
REMARK    8  A    between atoms: C13_14  and  O2_15 
ROOT
HETATM    1  C8  UNL     1     -34.544  18.455  -5.710  1.00  0.00     0.016 A 
HETATM    2  C9  UNL     1     -33.165  18.175  -5.767  1.00  0.00     0.025 A 
HETATM    3  C10 UNL     1     -32.433  17.762  -4.675  1.00  0.00    -0.024 A 
HETATM    4  C13 UNL     1     -33.110  17.626  -3.483  1.00  0.00     0.072 A 
HETATM    5  C14 UNL     1     -34.456  17.886  -3.372  1.00  0.00     0.044 A 
HETATM    6  C15 UNL     1     -35.180  18.308  -4.510  1.00  0.00    -0.045 A 
HETATM    7  C16 UNL     1     -36.608  18.573  -4.325  1.00  0.00     0.049 C 
ENDROOT
BRANCH   1   8
HETATM    8  C7  UNL     1     -35.252  18.872  -6.888  1.00  0.00     0.160 C 
HETATM    9  O1  UNL     1     -35.687  20.053  -6.971  1.00  0.00    -0.292 OA
BRANCH   8  10
HETATM   10  C6  UNL     1     -35.547  18.037  -8.084  1.00  0.00     0.084 C 
BRANCH  10  11
HETATM   11  C5  UNL     1     -35.978  16.650  -7.672  1.00  0.00     0.008 C 
BRANCH  11  12
HETATM   12  C4  UNL     1     -37.476  16.487  -7.684  1.00  0.00     0.004 C 
BRANCH  12  13
HETATM   13  C3  UNL     1     -38.156  17.292  -8.732  1.00  0.00     0.026 C 
BRANCH  13  14
HETATM   14  C2  UNL     1     -39.199  18.137  -8.072  1.00  0.00    -0.037 C 
HETATM   15  C1  UNL     1     -39.141  18.522  -6.807  1.00  0.00     0.007 C 
ENDBRANCH  13  14
ENDBRANCH  12  13
ENDBRANCH  11  12
ENDBRANCH  10  11
ENDBRANCH   8  10
ENDBRANCH   1   8
BRANCH   3  16
HETATM   16  C11 UNL     1     -30.978  17.479  -4.786  1.00  0.00     0.037 C 
HETATM   17  C12 UNL     1     -30.454  17.736  -6.179  1.00  0.00     0.010 C 
ENDBRANCH   3  16
BRANCH   4  18
HETATM   18  O2  UNL     1     -32.359  17.209  -2.389  1.00  0.00    -0.360 OA
ATOM     19  H2  UNL     1     -32.392  16.283  -2.182  1.00  0.00     0.217 HD
ENDBRANCH   4  18
TORSDOF 8
ENDMDL
MODEL 2
REMARK VINA RESULT: -6.489273926      1.585      2.274
REMARK  8 active torsions:
REMARK  status: ('A' for Active; 'I' for Inactive)
REMARK    1  A    between atoms: C2_2  and  C3_3 
REMARK    2  A    between atoms: C3_3  and  C4_4 
REMARK    3  A    between atoms: C4_4  and  C5_5 
REMARK    4  A    between atoms: C5_5  and  C6_6 
REMARK    5  A    between atoms: C6_6  and  C7_7 
REMARK    6  A    between atoms: C7_7  and  C8_9 
REMARK    7  A    between atoms: C10_11  and  C11_12 
REMARK    8  A    between atoms: C13_14  and  O2_15 
ROOT
HETATM    1  C8  UNL     1     -34.210  18.443  -6.032  1.00  0.00     0.016 A 
HETATM    2  C9  UNL     1     -33.175  18.590  -6.975  1.00  0.00     0.025 A 
HETATM    3  C10 UNL     1     -31.845  18.393  -6.672  1.00  0.00    -0.024 A 
HETATM    4  C13 UNL     1     -31.545  18.036  -5.376  1.00  0.00     0.072 A 
HETATM    5  C14 UNL     1     -32.517  17.878  -4.417  1.00  0.00     0.044 A 
HETATM    6  C15 UNL     1     -33.872  18.087  -4.757  1.00  0.00    -0.045 A 
HETATM    7  C16 UNL     1     -34.858  17.908  -3.690  1.00  0.00     0.049 C 
ENDROOT
BRANCH   1   8
HETATM    8  C7  UNL     1     -35.578  18.653  -6.414  1.00  0.00     0.160 C 
HETATM    9  O1  UNL     1     -35.947  19.789  -6.821  1.00  0.00    -0.292 OA
BRANCH   8  10
HETATM   10  C6  UNL     1     -36.670  17.641  -6.389  1.00  0.00     0.084 C 
BRANCH  10  11
HETATM   11  C5  UNL     1     -37.934  18.236  -5.817  1.00  0.00     0.008 C 
BRANCH  11  12
HETATM   12  C4  UNL     1     -39.000  18.434  -6.864  1.00  0.00     0.004 C 
BRANCH  12  13
HETATM   13  C3  UNL     1     -38.811  17.594  -8.075  1.00  0.00     0.026 C 
BRANCH  13  14
HETATM   14  C2  UNL     1     -38.571  18.499  -9.241  1.00  0.00    -0.037 C 
HETATM   15  C1  UNL     1     -37.472  18.471  -9.979  1.00  0.00     0.007 C 
ENDBRANCH  13  14
ENDBRANCH  12  13
ENDBRANCH  11  12
ENDBRANCH  10  11
ENDBRANCH   8  10
ENDBRANCH   1   8
BRANCH   3  16
HETATM   16  C11 UNL     1     -30.787  18.562  -7.703  1.00  0.00     0.037 C 
HETATM   17  C12 UNL     1     -31.353  19.013  -9.030  1.00  0.00     0.010 C 
ENDBRANCH   3  16
BRANCH   4  18
HETATM   18  O2  UNL     1     -30.199  17.840  -5.085  1.00  0.00    -0.360 OA
ATOM     19  H2  UNL     1     -29.622  18.582  -5.231  1.00  0.00     0.217 HD
ENDBRANCH   4  18
TORSDOF 8
ENDMDL
MODEL 3
REMARK VINA RESULT: -6.482657823      1.684      2.510
REMARK  8 active torsions:
REMARK  status: ('A' for Active; 'I' for Inactive)
REMARK    1  A    between atoms: C2_2  and  C3_3 
REMARK    2  A    between atoms: C3_3  and  C4_4 
REMARK    3  A    between atoms: C4_4  and  C5_5 
REMARK    4  A    between atoms: C5_5  and  C6_6 
REMARK    5  A    between atoms: C6_6  and  C7_7 
REMARK    6  A    between atoms: C7_7  and  C8_9 
REMARK    7  A    between atoms: C10_11  and  C11_12 
REMARK    8  A    between atoms: C13_14  and  O2_15 
ROOT
HETATM    1  C8  UNL     1     -34.874  18.151  -5.061  1.00  0.00     0.016 A 
HETATM    2  C9  UNL     1     -34.109  18.577  -6.164  1.00  0.00     0.025 A 
HETATM    3  C10 UNL     1     -32.732  18.521  -6.194  1.00  0.00    -0.024 A 
HETATM    4  C13 UNL     1     -32.102  18.018  -5.078  1.00  0.00     0.072 A 
HETATM    5  C14 UNL     1     -32.801  17.587  -3.975  1.00  0.00     0.044 A 
HETATM    6  C15 UNL     1     -34.213  17.657  -3.973  1.00  0.00    -0.045 A 
HETATM    7  C16 UNL     1     -34.897  17.187  -2.768  1.00  0.00     0.049 C 
ENDROOT
BRANCH   1   8
HETATM    8  C7  UNL     1     -36.308  18.226  -5.097  1.00  0.00     0.160 C 
HETATM    9  O1  UNL     1     -36.915  18.976  -4.285  1.00  0.00    -0.292 OA
BRANCH   8  10
HETATM   10  C6  UNL     1     -37.210  17.491  -6.025  1.00  0.00     0.084 C 
BRANCH  10  11
HETATM   11  C5  UNL     1     -38.476  18.275  -6.269  1.00  0.00     0.008 C 
BRANCH  11  12
HETATM   12  C4  UNL     1     -38.427  19.060  -7.556  1.00  0.00     0.004 C 
BRANCH  12  13
HETATM   13  C3  UNL     1     -38.803  18.265  -8.754  1.00  0.00     0.026 C 
BRANCH  13  14
HETATM   14  C2  UNL     1     -37.752  18.466  -9.800  1.00  0.00    -0.037 C 
HETATM   15  C1  UNL     1     -36.471  18.192  -9.616  1.00  0.00     0.007 C 
ENDBRANCH  13  14
ENDBRANCH  12  13
ENDBRANCH  11  12
ENDBRANCH  10  11
ENDBRANCH   8  10
ENDBRANCH   1   8
BRANCH   3  16
HETATM   16  C11 UNL     1     -31.969  18.985  -7.383  1.00  0.00     0.037 C 
HETATM   17  C12 UNL     1     -32.383  18.262  -8.643  1.00  0.00     0.010 C 
ENDBRANCH   3  16
BRANCH   4  18
HETATM   18  O2  UNL     1     -30.713  17.968  -5.122  1.00  0.00    -0.360 OA
ATOM     19  H2  UNL     1     -30.328  17.583  -5.901  1.00  0.00     0.217 HD
ENDBRANCH   4  18
TORSDOF 8
ENDMDL
MODEL 4
REMARK VINA RESULT: -6.445009524      2.064      2.867
REMARK  8 active torsions:
REMARK  status: ('A' for Active; 'I' for Inactive)
REMARK    1  A    between atoms: C2_2  and  C3_3 
REMARK    2  A    between atoms: C3_3  and  C4_4 
REMARK    3  A    between atoms: C4_4  and  C5_5 
REMARK    4  A    between atoms: C5_5  and  C6_6 
REMARK    5  A    between atoms: C6_6  and  C7_7 
REMARK    6  A    between atoms: C7_7  and  C8_9 
REMARK    7  A    between atoms: C10_11  and  C11_12 
REMARK    8  A    between atoms: C13_14  and  O2_15 
ROOT
HETATM    1  C8  UNL     1     -35.430  18.278  -6.617  1.00  0.00     0.016 A 
HETATM    2  C9  UNL     1     -34.157  18.384  -7.210  1.00  0.00     0.025 A 
HETATM    3  C10 UNL     1     -33.025  18.738  -6.509  1.00  0.00    -0.024 A 
HETATM    4  C13 UNL     1     -33.177  18.996  -5.164  1.00  0.00     0.072 A 
HETATM    5  C14 UNL     1     -34.396  18.907  -4.536  1.00  0.00     0.044 A 
HETATM    6  C15 UNL     1     -35.540  18.540  -5.281  1.00  0.00    -0.045 A 
HETATM    7  C16 UNL     1     -36.808  18.467  -4.555  1.00  0.00     0.049 C 
ENDROOT
BRANCH   1   8
HETATM    8  C7  UNL     1     -36.569  17.893  -7.402  1.00  0.00     0.160 C 
HETATM    9  O1  UNL     1     -36.763  16.676  -7.667  1.00  0.00    -0.292 OA
BRANCH   8  10
HETATM   10  C6  UNL     1     -37.602  18.804  -7.968  1.00  0.00     0.084 C 
BRANCH  10  11
HETATM   11  C5  UNL     1     -38.501  18.059  -8.925  1.00  0.00     0.008 C 
BRANCH  11  12
HETATM   12  C4  UNL     1     -38.318  18.508 -10.352  1.00  0.00     0.004 C 
BRANCH  12  13
HETATM   13  C3  UNL     1     -37.371  17.665 -11.127  1.00  0.00     0.026 C 
BRANCH  13  14
HETATM   14  C2  UNL     1     -36.121  18.453 -11.358  1.00  0.00    -0.037 C 
HETATM   15  C1  UNL     1     -34.948  18.140 -10.832  1.00  0.00     0.007 C 
ENDBRANCH  13  14
ENDBRANCH  12  13
ENDBRANCH  11  12
ENDBRANCH  10  11
ENDBRANCH   8  10
ENDBRANCH   1   8
BRANCH   3  16
HETATM   16  C11 UNL     1     -31.702  18.838  -7.181  1.00  0.00     0.037 C 
HETATM   17  C12 UNL     1     -31.836  19.121  -8.659  1.00  0.00     0.010 C 
ENDBRANCH   3  16
BRANCH   4  18
HETATM   18  O2  UNL     1     -32.026  19.353  -4.469  1.00  0.00    -0.360 OA
ATOM     19  H2  UNL     1     -32.130  19.526  -3.541  1.00  0.00     0.217 HD
ENDBRANCH   4  18
TORSDOF 8
ENDMDL
MODEL 5
REMARK VINA RESULT: -6.387061727      2.326      3.426
REMARK  8 active torsions:
REMARK  status: ('A' for Active; 'I' for Inactive)
REMARK    1  A    between atoms: C2_2  and  C3_3 
REMARK    2  A    between atoms: C3_3  and  C4_4 
REMARK    3  A    between atoms: C4_4  and  C5_5 
REMARK    4  A    between atoms: C5_5  and  C6_6 
REMARK    5  A    between atoms: C6_6  and  C7_7 
REMARK    6  A    between atoms: C7_7  and  C8_9 
REMARK    7  A    between atoms: C10_11  and  C11_12 
REMARK    8  A    between atoms: C13_14  and  O2_15 
ROOT
HETATM    1  C8  UNL     1     -36.457  17.938  -7.002  1.00  0.00     0.016 A 
HETATM    2  C9  UNL     1     -35.149  18.082  -7.505  1.00  0.00     0.025 A 
HETATM    3  C10 UNL     1     -34.093  18.533  -6.742  1.00  0.00    -0.024 A 
HETATM    4  C13 UNL     1     -34.361  18.851  -5.429  1.00  0.00     0.072 A 
HETATM    5  C14 UNL     1     -35.619  18.728  -4.888  1.00  0.00     0.044 A 
HETATM    6  C15 UNL     1     -36.682  18.262  -5.695  1.00  0.00    -0.045 A 
HETATM    7  C16 UNL     1     -37.998  18.159  -5.061  1.00  0.00     0.049 C 
ENDROOT
BRANCH   1   8
HETATM    8  C7  UNL     1     -37.512  17.452  -7.847  1.00  0.00     0.160 C 
HETATM    9  O1  UNL     1     -37.673  16.210  -7.995  1.00  0.00    -0.292 OA
BRANCH   8  10
HETATM   10  C6  UNL     1     -38.490  18.280  -8.606  1.00  0.00     0.084 C 
BRANCH  10  11
HETATM   11  C5  UNL     1     -37.830  18.915  -9.806  1.00  0.00     0.008 C 
BRANCH  11  12
HETATM   12  C4  UNL     1     -38.141  18.183 -11.087  1.00  0.00     0.004 C 
BRANCH  12  13
HETATM   13  C3  UNL     1     -36.936  17.837 -11.884  1.00  0.00     0.026 C 
BRANCH  13  14
HETATM   14  C2  UNL     1     -35.725  18.221 -11.095  1.00  0.00    -0.037 C 
HETATM   15  C1  UNL     1     -34.579  18.594 -11.642  1.00  0.00     0.007 C 
ENDBRANCH  13  14
ENDBRANCH  12  13
ENDBRANCH  11  12
ENDBRANCH  10  11
ENDBRANCH   8  10
ENDBRANCH   1   8
BRANCH   3  16
HETATM   16  C11 UNL     1     -32.730  18.669  -7.319  1.00  0.00     0.037 C 
HETATM   17  C12 UNL     1     -32.563  17.855  -8.581  1.00  0.00     0.010 C 
ENDBRANCH   3  16
BRANCH   4  18
HETATM   18  O2  UNL     1     -33.286  19.305  -4.671  1.00  0.00    -0.360 OA
ATOM     19  H2  UNL     1     -33.366  20.178  -4.305  1.00  0.00     0.217 HD
ENDBRANCH   4  18
TORSDOF 8
ENDMDL
