MODEL 1
REMARK VINA RESULT: -5.249907647      0.000      0.000
REMARK  7 active torsions:
REMARK  status: ('A' for Active; 'I' for Inactive)
REMARK    1  A    between atoms: C4_4  and  C5_5 
REMARK    2  A    between atoms: C5_5  and  C6_6 
REMARK    3  A    between atoms: C6_6  and  C7_7 
REMARK    4  A    between atoms: C7_7  and  C8_8 
REMARK    5  A    between atoms: C8_8  and  C9_9 
REMARK    6  A    between atoms: C9_9  and  O1_10 
REMARK    7  A    between atoms: C9_9  and  S1_12 
ROOT
HETATM    1  C5  UNL     1      30.358  -0.664  36.361  1.00  0.00     0.005 C 
ENDROOT
BRANCH   1   2
HETATM    2  C4  UNL     1      31.841  -0.886  36.136  1.00  0.00    -0.014 C 
HETATM    3  C3  UNL     1      32.383  -0.027  35.010  1.00  0.00     0.009 C 
HETATM    4  C2  UNL     1      33.841   0.116  35.467  1.00  0.00    -0.015 C 
HETATM    5  C1  UNL     1      34.568   1.167  34.676  1.00  0.00     0.010 C 
HETATM    6  C11 UNL     1      33.629   0.531  36.907  1.00  0.00    -0.015 C 
HETATM    7  C10 UNL     1      32.624  -0.506  37.368  1.00  0.00     0.009 C 
HETATM    8  C12 UNL     1      34.907   0.464  37.709  1.00  0.00     0.010 C 
ENDBRANCH   1   2
BRANCH   1   9
HETATM    9  C6  UNL     1      29.675  -0.214  35.104  1.00  0.00     0.000 C 
BRANCH   9  10
HETATM   10  C7  UNL     1      28.828  -1.258  34.453  1.00  0.00     0.004 C 
BRANCH  10  11
HETATM   11  C8  UNL     1      27.755  -0.660  33.607  1.00  0.00     0.045 C 
BRANCH  11  12
HETATM   12  C9  UNL     1      26.424  -0.617  34.334  1.00  0.00     0.212 C 
BRANCH  12  13
HETATM   13  O1  UNL     1      25.342  -0.608  33.473  1.00  0.00    -0.383 OA
ATOM     14  H1  UNL     1      25.473  -1.159  32.711  1.00  0.00     0.211 HD
ENDBRANCH  12  13
BRANCH  12  15
HETATM   15  S1  UNL     1      26.305  -2.102  35.368  1.00  0.00     0.073 SA
HETATM   16  F1  UNL     1      26.258  -1.647  37.019  1.00  0.00    -0.162 F 
ENDBRANCH  12  15
ENDBRANCH  11  12
ENDBRANCH  10  11
ENDBRANCH   9  10
ENDBRANCH   1   9
TORSDOF 7
ENDMDL
MODEL 2
REMARK VINA RESULT: -5.238376399      1.598      2.447
REMARK  7 active torsions:
REMARK  status: ('A' for Active; 'I' for Inactive)
REMARK    1  A    between atoms: C4_4  and  C5_5 
REMARK    2  A    between atoms: C5_5  and  C6_6 
REMARK    3  A    between atoms: C6_6  and  C7_7 
REMARK    4  A    between atoms: C7_7  and  C8_8 
REMARK    5  A    between atoms: C8_8  and  C9_9 
REMARK    6  A    between atoms: C9_9  and  O1_10 
REMARK    7  A    between atoms: C9_9  and  S1_12 
ROOT
HETATM    1  C5  UNL     1      31.939  -1.185  36.303  1.00  0.00     0.005 C 
ENDROOT
BRANCH   1   2
HETATM    2  C4  UNL     1      32.939  -0.479  37.197  1.00  0.00    -0.014 C 
HETATM    3  C3  UNL     1      34.001  -1.424  37.725  1.00  0.00     0.009 C 
HETATM    4  C2  UNL     1      35.160  -0.436  37.916  1.00  0.00    -0.015 C 
HETATM    5  C1  UNL     1      36.459  -1.149  38.171  1.00  0.00     0.010 C 
HETATM    6  C11 UNL     1      35.144   0.256  36.570  1.00  0.00    -0.015 C 
HETATM    7  C10 UNL     1      33.673   0.590  36.426  1.00  0.00     0.009 C 
HETATM    8  C12 UNL     1      36.001   1.500  36.563  1.00  0.00     0.010 C 
ENDBRANCH   1   2
BRANCH   1   9
HETATM    9  C6  UNL     1      30.550  -0.656  36.509  1.00  0.00     0.000 C 
BRANCH   9  10
HETATM   10  C7  UNL     1      29.599  -0.969  35.401  1.00  0.00     0.004 C 
BRANCH  10  11
HETATM   11  C8  UNL     1      29.593   0.092  34.353  1.00  0.00     0.045 C 
BRANCH  11  12
HETATM   12  C9  UNL     1      28.325   0.051  33.519  1.00  0.00     0.212 C 
BRANCH  12  13
HETATM   13  O1  UNL     1      28.574   0.102  32.160  1.00  0.00    -0.383 OA
ATOM     14  H1  UNL     1      28.028   0.734  31.708  1.00  0.00     0.211 HD
ENDBRANCH  12  13
BRANCH  12  15
HETATM   15  S1  UNL     1      27.473  -1.510  33.876  1.00  0.00     0.073 SA
HETATM   16  F1  UNL     1      26.306  -1.256  35.104  1.00  0.00    -0.162 F 
ENDBRANCH  12  15
ENDBRANCH  11  12
ENDBRANCH  10  11
ENDBRANCH   9  10
ENDBRANCH   1   9
TORSDOF 7
ENDMDL
MODEL 3
REMARK VINA RESULT: -5.228447009      4.448      6.798
REMARK  7 active torsions:
REMARK  status: ('A' for Active; 'I' for Inactive)
REMARK    1  A    between atoms: C4_4  and  C5_5 
REMARK    2  A    between atoms: C5_5  and  C6_6 
REMARK    3  A    between atoms: C6_6  and  C7_7 
REMARK    4  A    between atoms: C7_7  and  C8_8 
REMARK    5  A    between atoms: C8_8  and  C9_9 
REMARK    6  A    between atoms: C9_9  and  O1_10 
REMARK    7  A    between atoms: C9_9  and  S1_12 
ROOT
HETATM    1  C5  UNL     1      31.123  -0.361  34.974  1.00  0.00     0.005 C 
ENDROOT
BRANCH   1   2
HETATM    2  C4  UNL     1      29.637  -0.058  34.964  1.00  0.00    -0.014 C 
HETATM    3  C3  UNL     1      29.076   0.006  33.558  1.00  0.00     0.009 C 
HETATM    4  C2  UNL     1      27.624  -0.409  33.835  1.00  0.00    -0.015 C 
HETATM    5  C1  UNL     1      26.882  -0.710  32.563  1.00  0.00     0.010 C 
HETATM    6  C11 UNL     1      27.857  -1.652  34.666  1.00  0.00    -0.015 C 
HETATM    7  C10 UNL     1      28.872  -1.149  35.673  1.00  0.00     0.009 C 
HETATM    8  C12 UNL     1      26.592  -2.128  35.340  1.00  0.00     0.010 C 
ENDBRANCH   1   2
BRANCH   1   9
HETATM    9  C6  UNL     1      31.496  -1.232  36.136  1.00  0.00     0.000 C 
BRANCH   9  10
HETATM   10  C7  UNL     1      32.056  -0.493  37.307  1.00  0.00     0.004 C 
BRANCH  10  11
HETATM   11  C8  UNL     1      33.547  -0.532  37.332  1.00  0.00     0.045 C 
BRANCH  11  12
HETATM   12  C9  UNL     1      34.148   0.858  37.227  1.00  0.00     0.212 C 
BRANCH  12  13
HETATM   13  O1  UNL     1      35.242   1.034  38.055  1.00  0.00    -0.383 OA
ATOM     14  H1  UNL     1      35.616   1.905  37.991  1.00  0.00     0.211 HD
ENDBRANCH  12  13
BRANCH  12  15
HETATM   15  S1  UNL     1      34.694   1.103  35.515  1.00  0.00     0.073 SA
HETATM   16  F1  UNL     1      33.680   2.253  34.751  1.00  0.00    -0.162 F 
ENDBRANCH  12  15
ENDBRANCH  11  12
ENDBRANCH  10  11
ENDBRANCH   9  10
ENDBRANCH   1   9
TORSDOF 7
ENDMDL
MODEL 4
REMARK VINA RESULT: -5.157921131      4.616      6.977
REMARK  7 active torsions:
REMARK  status: ('A' for Active; 'I' for Inactive)
REMARK    1  A    between atoms: C4_4  and  C5_5 
REMARK    2  A    between atoms: C5_5  and  C6_6 
REMARK    3  A    between atoms: C6_6  and  C7_7 
REMARK    4  A    between atoms: C7_7  and  C8_8 
REMARK    5  A    between atoms: C8_8  and  C9_9 
REMARK    6  A    between atoms: C9_9  and  O1_10 
REMARK    7  A    between atoms: C9_9  and  S1_12 
ROOT
HETATM    1  C5  UNL     1      30.817  -0.348  34.811  1.00  0.00     0.005 C 
ENDROOT
BRANCH   1   2
HETATM    2  C4  UNL     1      29.334  -0.045  34.740  1.00  0.00    -0.014 C 
HETATM    3  C3  UNL     1      28.812  -0.077  33.317  1.00  0.00     0.009 C 
HETATM    4  C2  UNL     1      27.352  -0.470  33.581  1.00  0.00    -0.015 C 
HETATM    5  C1  UNL     1      26.644  -0.857  32.312  1.00  0.00     0.010 C 
HETATM    6  C11 UNL     1      27.558  -1.654  34.502  1.00  0.00    -0.015 C 
HETATM    7  C10 UNL     1      28.546  -1.084  35.499  1.00  0.00     0.009 C 
HETATM    8  C12 UNL     1      26.273  -2.081  35.171  1.00  0.00     0.010 C 
ENDBRANCH   1   2
BRANCH   1   9
HETATM    9  C6  UNL     1      31.111  -1.402  35.838  1.00  0.00     0.000 C 
BRANCH   9  10
HETATM   10  C7  UNL     1      32.523  -1.410  36.328  1.00  0.00     0.004 C 
BRANCH  10  11
HETATM   11  C8  UNL     1      32.784  -0.304  37.294  1.00  0.00     0.045 C 
BRANCH  11  12
HETATM   12  C9  UNL     1      34.129   0.355  37.043  1.00  0.00     0.212 C 
BRANCH  12  13
HETATM   13  O1  UNL     1      34.256   1.575  37.683  1.00  0.00    -0.383 OA
ATOM     14  H1  UNL     1      34.101   2.312  37.105  1.00  0.00     0.211 HD
ENDBRANCH  12  13
BRANCH  12  15
HETATM   15  S1  UNL     1      35.419  -0.749  37.678  1.00  0.00     0.073 SA
HETATM   16  F1  UNL     1      36.394   0.099  38.802  1.00  0.00    -0.162 F 
ENDBRANCH  12  15
ENDBRANCH  11  12
ENDBRANCH  10  11
ENDBRANCH   9  10
ENDBRANCH   1   9
TORSDOF 7
ENDMDL
MODEL 5
REMARK VINA RESULT: -5.154164916      2.559      3.164
REMARK  7 active torsions:
REMARK  status: ('A' for Active; 'I' for Inactive)
REMARK    1  A    between atoms: C4_4  and  C5_5 
REMARK    2  A    between atoms: C5_5  and  C6_6 
REMARK    3  A    between atoms: C6_6  and  C7_7 
REMARK    4  A    between atoms: C7_7  and  C8_8 
REMARK    5  A    between atoms: C8_8  and  C9_9 
REMARK    6  A    between atoms: C9_9  and  O1_10 
REMARK    7  A    between atoms: C9_9  and  S1_12 
ROOT
HETATM    1  C5  UNL     1      31.713  -0.693  36.991  1.00  0.00     0.005 C 
ENDROOT
BRANCH   1   2
HETATM    2  C4  UNL     1      33.053  -0.356  37.614  1.00  0.00    -0.014 C 
HETATM    3  C3  UNL     1      34.000  -1.539  37.609  1.00  0.00     0.009 C 
HETATM    4  C2  UNL     1      35.345  -0.801  37.570  1.00  0.00    -0.015 C 
HETATM    5  C1  UNL     1      36.483  -1.737  37.271  1.00  0.00     0.010 C 
HETATM    6  C11 UNL     1      35.086   0.163  36.432  1.00  0.00    -0.015 C 
HETATM    7  C10 UNL     1      33.740   0.735  36.829  1.00  0.00     0.009 C 
HETATM    8  C12 UNL     1      36.145   1.237  36.348  1.00  0.00     0.010 C 
ENDBRANCH   1   2
BRANCH   1   9
HETATM    9  C6  UNL     1      31.872  -1.602  35.809  1.00  0.00     0.000 C 
BRANCH   9  10
HETATM   10  C7  UNL     1      30.643  -1.748  34.972  1.00  0.00     0.004 C 
BRANCH  10  11
HETATM   11  C8  UNL     1      29.527  -0.891  35.466  1.00  0.00     0.045 C 
BRANCH  11  12
HETATM   12  C9  UNL     1      29.075   0.105  34.413  1.00  0.00     0.212 C 
BRANCH  12  13
HETATM   13  O1  UNL     1      30.004   1.103  34.184  1.00  0.00    -0.383 OA
ATOM     14  H1  UNL     1      30.878   0.765  34.030  1.00  0.00     0.211 HD
ENDBRANCH  12  13
BRANCH  12  15
HETATM   15  S1  UNL     1      28.829  -0.799  32.860  1.00  0.00     0.073 SA
HETATM   16  F1  UNL     1      27.731   0.062  31.866  1.00  0.00    -0.162 F 
ENDBRANCH  12  15
ENDBRANCH  11  12
ENDBRANCH  10  11
ENDBRANCH   9  10
ENDBRANCH   1   9
TORSDOF 7
ENDMDL
