MODEL 1
REMARK VINA RESULT: -5.238666145      0.000      0.000
REMARK  7 active torsions:
REMARK  status: ('A' for Active; 'I' for Inactive)
REMARK    1  A    between atoms: C2_2  and  C3_3 
REMARK    2  A    between atoms: C3_3  and  C4_4 
REMARK    3  A    between atoms: C4_4  and  C5_5 
REMARK    4  A    between atoms: C5_5  and  C6_6 
REMARK    5  A    between atoms: C6_6  and  C7_7 
REMARK    6  A    between atoms: C7_7  and  C8_8 
REMARK    7  A    between atoms: C8_8  and  C10_10 
ROOT
HETATM    1  C8  UNL     1      34.146   0.188  35.296  1.00  0.00     0.042 C 
HETATM    2  C9  UNL     1      34.392   0.011  33.794  1.00  0.00     0.017 C 
ENDROOT
BRANCH   1   3
HETATM    3  C7  UNL     1      34.588   1.531  35.764  1.00  0.00     0.011 C 
BRANCH   3   4
HETATM    4  C6  UNL     1      35.689   1.472  36.783  1.00  0.00     0.001 C 
BRANCH   4   5
HETATM    5  C5  UNL     1      35.376   0.629  37.979  1.00  0.00     0.000 C 
BRANCH   5   6
HETATM    6  C4  UNL     1      36.440  -0.410  38.248  1.00  0.00     0.000 C 
BRANCH   6   7
HETATM    7  C3  UNL     1      35.943  -1.823  38.024  1.00  0.00    -0.000 C 
BRANCH   7   8
HETATM    8  C2  UNL     1      37.066  -2.740  38.526  1.00  0.00    -0.005 C 
HETATM    9  C1  UNL     1      38.168  -1.971  39.182  1.00  0.00     0.005 C 
ENDBRANCH   7   8
ENDBRANCH   6   7
ENDBRANCH   5   6
ENDBRANCH   4   5
ENDBRANCH   3   4
ENDBRANCH   1   3
BRANCH   1  10
HETATM   10  C10 UNL     1      32.690  -0.024  35.497  1.00  0.00     0.103 C 
HETATM   11  C11 UNL     1      32.117  -0.663  36.474  1.00  0.00     0.190 C 
HETATM   12  F1  UNL     1      32.654  -1.271  37.508  1.00  0.00    -0.196 F 
HETATM   13  S1  UNL     1      30.355  -0.602  36.199  1.00  0.00     0.012 SA
HETATM   14  C12 UNL     1      30.577  -0.066  34.450  1.00  0.00     0.421 C 
HETATM   15  F2  UNL     1      29.621   0.859  34.105  1.00  0.00    -0.164 F 
HETATM   16  F3  UNL     1      30.519  -1.206  33.691  1.00  0.00    -0.164 F 
HETATM   17  O1  UNL     1      31.825   0.500  34.573  1.00  0.00    -0.275 OA
ENDBRANCH   1  10
TORSDOF 7
ENDMDL
MODEL 2
REMARK VINA RESULT: -5.207389848      2.834      4.313
REMARK  7 active torsions:
REMARK  status: ('A' for Active; 'I' for Inactive)
REMARK    1  A    between atoms: C2_2  and  C3_3 
REMARK    2  A    between atoms: C3_3  and  C4_4 
REMARK    3  A    between atoms: C4_4  and  C5_5 
REMARK    4  A    between atoms: C5_5  and  C6_6 
REMARK    5  A    between atoms: C6_6  and  C7_7 
REMARK    6  A    between atoms: C7_7  and  C8_8 
REMARK    7  A    between atoms: C8_8  and  C10_10 
ROOT
HETATM    1  C8  UNL     1      30.352  -1.694  35.423  1.00  0.00     0.042 C 
HETATM    2  C9  UNL     1      31.286  -1.575  34.215  1.00  0.00     0.017 C 
ENDROOT
BRANCH   1   3
HETATM    3  C7  UNL     1      30.744  -0.752  36.509  1.00  0.00     0.011 C 
BRANCH   3   4
HETATM    4  C6  UNL     1      32.192  -0.358  36.457  1.00  0.00     0.001 C 
BRANCH   4   5
HETATM    5  C5  UNL     1      32.990  -0.791  37.647  1.00  0.00     0.000 C 
BRANCH   5   6
HETATM    6  C4  UNL     1      34.373  -0.182  37.667  1.00  0.00     0.000 C 
BRANCH   6   7
HETATM    7  C3  UNL     1      34.417   1.185  37.015  1.00  0.00    -0.000 C 
BRANCH   7   8
HETATM    8  C2  UNL     1      35.886   1.413  36.633  1.00  0.00    -0.005 C 
HETATM    9  C1  UNL     1      36.172   0.993  35.227  1.00  0.00     0.005 C 
ENDBRANCH   7   8
ENDBRANCH   6   7
ENDBRANCH   5   6
ENDBRANCH   4   5
ENDBRANCH   3   4
ENDBRANCH   1   3
BRANCH   1  10
HETATM   10  C10 UNL     1      28.986  -1.417  34.909  1.00  0.00     0.103 C 
HETATM   11  C11 UNL     1      28.565  -0.321  34.350  1.00  0.00     0.190 C 
HETATM   12  F1  UNL     1      29.212   0.796  34.100  1.00  0.00    -0.196 F 
HETATM   13  S1  UNL     1      26.844  -0.552  33.937  1.00  0.00     0.012 SA
HETATM   14  C12 UNL     1      26.714  -2.038  35.019  1.00  0.00     0.421 C 
HETATM   15  F2  UNL     1      25.915  -2.991  34.432  1.00  0.00    -0.164 F 
HETATM   16  F3  UNL     1      26.225  -1.595  36.220  1.00  0.00    -0.164 F 
HETATM   17  O1  UNL     1      28.041  -2.402  35.017  1.00  0.00    -0.275 OA
ENDBRANCH   1  10
TORSDOF 7
ENDMDL
MODEL 3
REMARK VINA RESULT: -5.200095252      2.757      3.895
REMARK  7 active torsions:
REMARK  status: ('A' for Active; 'I' for Inactive)
REMARK    1  A    between atoms: C2_2  and  C3_3 
REMARK    2  A    between atoms: C3_3  and  C4_4 
REMARK    3  A    between atoms: C4_4  and  C5_5 
REMARK    4  A    between atoms: C5_5  and  C6_6 
REMARK    5  A    between atoms: C6_6  and  C7_7 
REMARK    6  A    between atoms: C7_7  and  C8_8 
REMARK    7  A    between atoms: C8_8  and  C10_10 
ROOT
HETATM    1  C8  UNL     1      30.356  -1.688  35.434  1.00  0.00     0.042 C 
HETATM    2  C9  UNL     1      31.288  -1.606  34.221  1.00  0.00     0.017 C 
ENDROOT
BRANCH   1   3
HETATM    3  C7  UNL     1      30.754  -0.717  36.492  1.00  0.00     0.011 C 
BRANCH   3   4
HETATM    4  C6  UNL     1      32.213  -0.362  36.454  1.00  0.00     0.001 C 
BRANCH   4   5
HETATM    5  C5  UNL     1      32.970  -0.737  37.689  1.00  0.00     0.000 C 
BRANCH   5   6
HETATM    6  C4  UNL     1      34.397  -0.239  37.665  1.00  0.00     0.000 C 
BRANCH   6   7
HETATM    7  C3  UNL     1      35.406  -1.367  37.714  1.00  0.00    -0.000 C 
BRANCH   7   8
HETATM    8  C2  UNL     1      36.618  -0.804  38.469  1.00  0.00    -0.005 C 
HETATM    9  C1  UNL     1      37.571  -1.880  38.883  1.00  0.00     0.005 C 
ENDBRANCH   7   8
ENDBRANCH   6   7
ENDBRANCH   5   6
ENDBRANCH   4   5
ENDBRANCH   3   4
ENDBRANCH   1   3
BRANCH   1  10
HETATM   10  C10 UNL     1      28.990  -1.421  34.916  1.00  0.00     0.103 C 
HETATM   11  C11 UNL     1      28.568  -0.335  34.337  1.00  0.00     0.190 C 
HETATM   12  F1  UNL     1      29.214   0.776  34.066  1.00  0.00    -0.196 F 
HETATM   13  S1  UNL     1      26.847  -0.575  33.929  1.00  0.00     0.012 SA
HETATM   14  C12 UNL     1      26.718  -2.041  35.039  1.00  0.00     0.421 C 
HETATM   15  F2  UNL     1      25.920  -3.005  34.470  1.00  0.00    -0.164 F 
HETATM   16  F3  UNL     1      26.230  -1.576  36.232  1.00  0.00    -0.164 F 
HETATM   17  O1  UNL     1      28.045  -2.404  35.043  1.00  0.00    -0.275 OA
ENDBRANCH   1  10
TORSDOF 7
ENDMDL
MODEL 4
REMARK VINA RESULT: -5.171672325      0.715      1.151
REMARK  7 active torsions:
REMARK  status: ('A' for Active; 'I' for Inactive)
REMARK    1  A    between atoms: C2_2  and  C3_3 
REMARK    2  A    between atoms: C3_3  and  C4_4 
REMARK    3  A    between atoms: C4_4  and  C5_5 
REMARK    4  A    between atoms: C5_5  and  C6_6 
REMARK    5  A    between atoms: C6_6  and  C7_7 
REMARK    6  A    between atoms: C7_7  and  C8_8 
REMARK    7  A    between atoms: C8_8  and  C10_10 
ROOT
HETATM    1  C8  UNL     1      34.118   0.285  35.524  1.00  0.00     0.042 C 
HETATM    2  C9  UNL     1      34.420   0.476  34.034  1.00  0.00     0.017 C 
ENDROOT
BRANCH   1   3
HETATM    3  C7  UNL     1      34.537   1.473  36.319  1.00  0.00     0.011 C 
BRANCH   3   4
HETATM    4  C6  UNL     1      35.640   1.176  37.294  1.00  0.00     0.001 C 
BRANCH   4   5
HETATM    5  C5  UNL     1      35.462  -0.100  38.054  1.00  0.00     0.000 C 
BRANCH   5   6
HETATM    6  C4  UNL     1      36.780  -0.741  38.424  1.00  0.00     0.000 C 
BRANCH   6   7
HETATM    7  C3  UNL     1      36.718  -2.254  38.404  1.00  0.00    -0.000 C 
BRANCH   7   8
HETATM    8  C2  UNL     1      35.545  -2.606  37.479  1.00  0.00    -0.005 C 
HETATM    9  C1  UNL     1      34.827  -3.839  37.928  1.00  0.00     0.005 C 
ENDBRANCH   7   8
ENDBRANCH   6   7
ENDBRANCH   5   6
ENDBRANCH   4   5
ENDBRANCH   3   4
ENDBRANCH   1   3
BRANCH   1  10
HETATM   10  C10 UNL     1      32.656   0.039  35.614  1.00  0.00     0.103 C 
HETATM   11  C11 UNL     1      32.029  -0.637  36.530  1.00  0.00     0.190 C 
HETATM   12  F1  UNL     1      32.503  -1.262  37.584  1.00  0.00    -0.196 F 
HETATM   13  S1  UNL     1      30.290  -0.604  36.130  1.00  0.00     0.012 SA
HETATM   14  C12 UNL     1      30.626  -0.018  34.415  1.00  0.00     0.421 C 
HETATM   15  F2  UNL     1      29.676   0.897  34.025  1.00  0.00    -0.164 F 
HETATM   16  F3  UNL     1      30.647  -1.138  33.625  1.00  0.00    -0.164 F 
HETATM   17  O1  UNL     1      31.849   0.570  34.643  1.00  0.00    -0.275 OA
ENDBRANCH   1  10
TORSDOF 7
ENDMDL
MODEL 5
REMARK VINA RESULT: -5.100821052      3.253      6.736
REMARK  7 active torsions:
REMARK  status: ('A' for Active; 'I' for Inactive)
REMARK    1  A    between atoms: C2_2  and  C3_3 
REMARK    2  A    between atoms: C3_3  and  C4_4 
REMARK    3  A    between atoms: C4_4  and  C5_5 
REMARK    4  A    between atoms: C5_5  and  C6_6 
REMARK    5  A    between atoms: C6_6  and  C7_7 
REMARK    6  A    between atoms: C7_7  and  C8_8 
REMARK    7  A    between atoms: C8_8  and  C10_10 
ROOT
HETATM    1  C8  UNL     1      31.400  -1.193  34.928  1.00  0.00     0.042 C 
HETATM    2  C9  UNL     1      31.530  -2.624  35.459  1.00  0.00     0.017 C 
ENDROOT
BRANCH   1   3
HETATM    3  C7  UNL     1      30.076  -0.603  35.273  1.00  0.00     0.011 C 
BRANCH   3   4
HETATM    4  C6  UNL     1      29.627   0.454  34.304  1.00  0.00     0.001 C 
BRANCH   4   5
HETATM    5  C5  UNL     1      28.513   0.026  33.401  1.00  0.00     0.000 C 
BRANCH   5   6
HETATM    6  C4  UNL     1      27.755  -1.164  33.943  1.00  0.00     0.000 C 
BRANCH   6   7
HETATM    7  C3  UNL     1      26.311  -1.191  33.486  1.00  0.00    -0.000 C 
BRANCH   7   8
HETATM    8  C2  UNL     1      25.535  -1.891  34.609  1.00  0.00    -0.005 C 
HETATM    9  C1  UNL     1      26.290  -1.886  35.900  1.00  0.00     0.005 C 
ENDBRANCH   7   8
ENDBRANCH   6   7
ENDBRANCH   5   6
ENDBRANCH   4   5
ENDBRANCH   3   4
ENDBRANCH   1   3
BRANCH   1  10
HETATM   10  C10 UNL     1      32.525  -0.433  35.531  1.00  0.00     0.103 C 
HETATM   11  C11 UNL     1      32.705  -0.163  36.790  1.00  0.00     0.190 C 
HETATM   12  F1  UNL     1      31.966  -0.479  37.830  1.00  0.00    -0.196 F 
HETATM   13  S1  UNL     1      34.215   0.777  36.931  1.00  0.00     0.012 SA
HETATM   14  C12 UNL     1      34.246   1.126  35.122  1.00  0.00     0.421 C 
HETATM   15  F2  UNL     1      35.535   1.080  34.646  1.00  0.00    -0.164 F 
HETATM   16  F3  UNL     1      33.658   2.354  34.959  1.00  0.00    -0.164 F 
HETATM   17  O1  UNL     1      33.499   0.051  34.699  1.00  0.00    -0.275 OA
ENDBRANCH   1  10
TORSDOF 7
ENDMDL
