MODEL 1
REMARK VINA RESULT: -5.200894397      0.000      0.000
REMARK  7 active torsions:
REMARK  status: ('A' for Active; 'I' for Inactive)
REMARK    1  A    between atoms: C2_2  and  C3_3 
REMARK    2  A    between atoms: C3_3  and  C4_4 
REMARK    3  A    between atoms: C4_4  and  C5_5 
REMARK    4  A    between atoms: C5_5  and  C6_6 
REMARK    5  A    between atoms: C6_6  and  C7_7 
REMARK    6  A    between atoms: C12_12  and  S1_14 
REMARK    7  A    between atoms: S1_14  and  O1_15 
ROOT
HETATM    1  C7  UNL     1      31.754  -1.523  36.498  1.00  0.00     0.039 C 
HETATM    2  C8  UNL     1      32.680  -2.491  35.791  1.00  0.00     0.009 C 
HETATM    3  C9  UNL     1      31.806  -3.276  34.843  1.00  0.00     0.009 C 
HETATM    4  C10 UNL     1      30.403  -2.744  35.002  1.00  0.00     0.035 C 
HETATM    5  C11 UNL     1      29.639  -2.738  33.697  1.00  0.00     0.014 C 
HETATM    6  C12 UNL     1      30.625  -1.355  35.552  1.00  0.00     0.186 C 
HETATM    7  F1  UNL     1      29.457  -0.922  36.175  1.00  0.00    -0.228 F 
ENDROOT
BRANCH   1   8
HETATM    8  C6  UNL     1      32.449  -0.290  36.946  1.00  0.00     0.009 C 
BRANCH   8   9
HETATM    9  C5  UNL     1      33.721  -0.573  37.700  1.00  0.00     0.001 C 
BRANCH   9  10
HETATM   10  C4  UNL     1      34.617   0.656  37.531  1.00  0.00     0.000 C 
BRANCH  10  11
HETATM   11  C3  UNL     1      35.971   0.434  38.121  1.00  0.00    -0.000 C 
BRANCH  11  12
HETATM   12  C2  UNL     1      36.252  -1.048  38.138  1.00  0.00    -0.005 C 
HETATM   13  C1  UNL     1      37.497  -1.362  38.904  1.00  0.00     0.005 C 
ENDBRANCH  11  12
ENDBRANCH  10  11
ENDBRANCH   9  10
ENDBRANCH   8   9
ENDBRANCH   1   8
BRANCH   6  14
HETATM   14  S1  UNL     1      30.951  -0.214  34.211  1.00  0.00     0.078 SA
BRANCH  14  15
HETATM   15  O1  UNL     1      29.821   1.035  34.043  1.00  0.00    -0.117 OA
HETATM   16  F2  UNL     1      28.645   0.520  33.775  1.00  0.00    -0.034 F 
ENDBRANCH  14  15
ENDBRANCH   6  14
TORSDOF 7
ENDMDL
MODEL 2
REMARK VINA RESULT: -5.033141188      1.365      1.771
REMARK  7 active torsions:
REMARK  status: ('A' for Active; 'I' for Inactive)
REMARK    1  A    between atoms: C2_2  and  C3_3 
REMARK    2  A    between atoms: C3_3  and  C4_4 
REMARK    3  A    between atoms: C4_4  and  C5_5 
REMARK    4  A    between atoms: C5_5  and  C6_6 
REMARK    5  A    between atoms: C6_6  and  C7_7 
REMARK    6  A    between atoms: C12_12  and  S1_14 
REMARK    7  A    between atoms: S1_14  and  O1_15 
ROOT
HETATM    1  C7  UNL     1      32.365  -1.281  36.855  1.00  0.00     0.039 C 
HETATM    2  C8  UNL     1      33.339  -2.228  36.183  1.00  0.00     0.009 C 
HETATM    3  C9  UNL     1      32.502  -3.102  35.281  1.00  0.00     0.009 C 
HETATM    4  C10 UNL     1      31.074  -2.642  35.429  1.00  0.00     0.035 C 
HETATM    5  C11 UNL     1      30.301  -2.737  34.133  1.00  0.00     0.014 C 
HETATM    6  C12 UNL     1      31.222  -1.218  35.913  1.00  0.00     0.186 C 
HETATM    7  F1  UNL     1      30.036  -0.823  36.527  1.00  0.00    -0.228 F 
ENDROOT
BRANCH   1   8
HETATM    8  C6  UNL     1      32.994   0.008  37.239  1.00  0.00     0.009 C 
BRANCH   8   9
HETATM    9  C5  UNL     1      34.435  -0.141  37.652  1.00  0.00     0.001 C 
BRANCH   9  10
HETATM   10  C4  UNL     1      35.156   1.132  37.203  1.00  0.00     0.000 C 
BRANCH  10  11
HETATM   11  C3  UNL     1      34.771   1.521  35.813  1.00  0.00    -0.000 C 
BRANCH  11  12
HETATM   12  C2  UNL     1      35.672   0.797  34.844  1.00  0.00    -0.005 C 
HETATM   13  C1  UNL     1      37.112   1.110  35.096  1.00  0.00     0.005 C 
ENDBRANCH  11  12
ENDBRANCH  10  11
ENDBRANCH   9  10
ENDBRANCH   8   9
ENDBRANCH   1   8
BRANCH   6  14
HETATM   14  S1  UNL     1      31.475  -0.124  34.518  1.00  0.00     0.078 SA
BRANCH  14  15
HETATM   15  O1  UNL     1      30.251   1.020  34.274  1.00  0.00    -0.117 OA
HETATM   16  F2  UNL     1      29.136   0.400  33.967  1.00  0.00    -0.034 F 
ENDBRANCH  14  15
ENDBRANCH   6  14
TORSDOF 7
ENDMDL
MODEL 3
REMARK VINA RESULT: -5.023772198      3.580      6.250
REMARK  7 active torsions:
REMARK  status: ('A' for Active; 'I' for Inactive)
REMARK    1  A    between atoms: C2_2  and  C3_3 
REMARK    2  A    between atoms: C3_3  and  C4_4 
REMARK    3  A    between atoms: C4_4  and  C5_5 
REMARK    4  A    between atoms: C5_5  and  C6_6 
REMARK    5  A    between atoms: C6_6  and  C7_7 
REMARK    6  A    between atoms: C12_12  and  S1_14 
REMARK    7  A    between atoms: S1_14  and  O1_15 
ROOT
HETATM    1  C7  UNL     1      32.854  -0.545  35.722  1.00  0.00     0.039 C 
HETATM    2  C8  UNL     1      33.311   0.088  34.423  1.00  0.00     0.009 C 
HETATM    3  C9  UNL     1      34.233   1.216  34.820  1.00  0.00     0.009 C 
HETATM    4  C10 UNL     1      34.308   1.209  36.326  1.00  0.00     0.035 C 
HETATM    5  C11 UNL     1      35.679   1.593  36.835  1.00  0.00     0.014 C 
HETATM    6  C12 UNL     1      33.936  -0.212  36.679  1.00  0.00     0.186 C 
HETATM    7  F1  UNL     1      33.514  -0.253  38.006  1.00  0.00    -0.228 F 
ENDROOT
BRANCH   1   8
HETATM    8  C6  UNL     1      32.507  -1.980  35.567  1.00  0.00     0.009 C 
BRANCH   8   9
HETATM    9  C5  UNL     1      31.026  -2.215  35.428  1.00  0.00     0.001 C 
BRANCH   9  10
HETATM   10  C4  UNL     1      30.326  -1.019  36.077  1.00  0.00     0.000 C 
BRANCH  10  11
HETATM   11  C3  UNL     1      29.067  -0.661  35.357  1.00  0.00    -0.000 C 
BRANCH  11  12
HETATM   12  C2  UNL     1      29.414   0.249  34.204  1.00  0.00    -0.005 C 
HETATM   13  C1  UNL     1      28.533  -0.003  33.023  1.00  0.00     0.005 C 
ENDBRANCH  11  12
ENDBRANCH  10  11
ENDBRANCH   9  10
ENDBRANCH   8   9
ENDBRANCH   1   8
BRANCH   6  14
HETATM   14  S1  UNL     1      35.377  -1.268  36.560  1.00  0.00     0.078 SA
BRANCH  14  15
HETATM   15  O1  UNL     1      35.884  -1.955  38.021  1.00  0.00    -0.117 OA
HETATM   16  F2  UNL     1      36.406  -1.020  38.780  1.00  0.00    -0.034 F 
ENDBRANCH  14  15
ENDBRANCH   6  14
TORSDOF 7
ENDMDL
MODEL 4
REMARK VINA RESULT: -5.007511603      3.268      6.230
REMARK  7 active torsions:
REMARK  status: ('A' for Active; 'I' for Inactive)
REMARK    1  A    between atoms: C2_2  and  C3_3 
REMARK    2  A    between atoms: C3_3  and  C4_4 
REMARK    3  A    between atoms: C4_4  and  C5_5 
REMARK    4  A    between atoms: C5_5  and  C6_6 
REMARK    5  A    between atoms: C6_6  and  C7_7 
REMARK    6  A    between atoms: C12_12  and  S1_14 
REMARK    7  A    between atoms: S1_14  and  O1_15 
ROOT
HETATM    1  C7  UNL     1      32.878  -0.194  35.797  1.00  0.00     0.039 C 
HETATM    2  C8  UNL     1      33.674   0.779  34.952  1.00  0.00     0.009 C 
HETATM    3  C9  UNL     1      34.628   1.460  35.904  1.00  0.00     0.009 C 
HETATM    4  C10 UNL     1      34.384   0.865  37.267  1.00  0.00     0.035 C 
HETATM    5  C11 UNL     1      35.654   0.743  38.078  1.00  0.00     0.014 C 
HETATM    6  C12 UNL     1      33.767  -0.477  36.949  1.00  0.00     0.186 C 
HETATM    7  F1  UNL     1      33.074  -0.933  38.067  1.00  0.00    -0.228 F 
ENDROOT
BRANCH   1   8
HETATM    8  C6  UNL     1      32.391  -1.361  35.019  1.00  0.00     0.009 C 
BRANCH   8   9
HETATM    9  C5  UNL     1      31.137  -1.968  35.591  1.00  0.00     0.001 C 
BRANCH   9  10
HETATM   10  C4  UNL     1      30.234  -0.806  36.007  1.00  0.00     0.000 C 
BRANCH  10  11
HETATM   11  C3  UNL     1      28.979  -0.768  35.197  1.00  0.00    -0.000 C 
BRANCH  11  12
HETATM   12  C2  UNL     1      29.155   0.234  34.084  1.00  0.00    -0.005 C 
HETATM   13  C1  UNL     1      28.359  -0.144  32.875  1.00  0.00     0.005 C 
ENDBRANCH  11  12
ENDBRANCH  10  11
ENDBRANCH   9  10
ENDBRANCH   8   9
ENDBRANCH   1   8
BRANCH   6  14
HETATM   14  S1  UNL     1      35.054  -1.674  36.611  1.00  0.00     0.078 SA
BRANCH  14  15
HETATM   15  O1  UNL     1      35.399  -2.734  37.884  1.00  0.00    -0.117 OA
HETATM   16  F2  UNL     1      34.386  -3.552  38.051  1.00  0.00    -0.034 F 
ENDBRANCH  14  15
ENDBRANCH   6  14
TORSDOF 7
ENDMDL
MODEL 5
REMARK VINA RESULT: -4.981748623      2.779      5.771
REMARK  7 active torsions:
REMARK  status: ('A' for Active; 'I' for Inactive)
REMARK    1  A    between atoms: C2_2  and  C3_3 
REMARK    2  A    between atoms: C3_3  and  C4_4 
REMARK    3  A    between atoms: C4_4  and  C5_5 
REMARK    4  A    between atoms: C5_5  and  C6_6 
REMARK    5  A    between atoms: C6_6  and  C7_7 
REMARK    6  A    between atoms: C12_12  and  S1_14 
REMARK    7  A    between atoms: S1_14  and  O1_15 
ROOT
HETATM    1  C7  UNL     1      32.996  -1.513  36.523  1.00  0.00     0.039 C 
HETATM    2  C8  UNL     1      33.000  -0.356  37.500  1.00  0.00     0.009 C 
HETATM    3  C9  UNL     1      34.434   0.111  37.576  1.00  0.00     0.009 C 
HETATM    4  C10 UNL     1      35.228  -0.764  36.638  1.00  0.00     0.035 C 
HETATM    5  C11 UNL     1      36.343  -0.008  35.952  1.00  0.00     0.014 C 
HETATM    6  C12 UNL     1      34.181  -1.262  35.668  1.00  0.00     0.186 C 
HETATM    7  F1  UNL     1      34.653  -2.415  35.046  1.00  0.00    -0.228 F 
ENDROOT
BRANCH   1   8
HETATM    8  C6  UNL     1      31.691  -1.677  35.835  1.00  0.00     0.009 C 
BRANCH   8   9
HETATM    9  C5  UNL     1      30.614  -0.788  36.399  1.00  0.00     0.001 C 
BRANCH   9  10
HETATM   10  C4  UNL     1      29.460  -0.800  35.394  1.00  0.00     0.000 C 
BRANCH  10  11
HETATM   11  C3  UNL     1      29.675   0.195  34.301  1.00  0.00    -0.000 C 
BRANCH  11  12
HETATM   12  C2  UNL     1      28.539   0.078  33.314  1.00  0.00    -0.005 C 
HETATM   13  C1  UNL     1      27.312  -0.485  33.956  1.00  0.00     0.005 C 
ENDBRANCH  11  12
ENDBRANCH  10  11
ENDBRANCH   9  10
ENDBRANCH   8   9
ENDBRANCH   1   8
BRANCH   6  14
HETATM   14  S1  UNL     1      33.917  -0.047  34.380  1.00  0.00     0.078 SA
BRANCH  14  15
HETATM   15  O1  UNL     1      33.020   1.310  34.849  1.00  0.00    -0.117 OA
HETATM   16  F2  UNL     1      33.839   2.308  35.084  1.00  0.00    -0.034 F 
ENDBRANCH  14  15
ENDBRANCH   6  14
TORSDOF 7
ENDMDL
