MODEL 1
REMARK VINA RESULT: -6.551905994      0.000      0.000
REMARK  7 active torsions:
REMARK  status: ('A' for Active; 'I' for Inactive)
REMARK    1  A    between atoms: C2_2  and  C3_3 
REMARK    2  A    between atoms: C3_3  and  C4_4 
REMARK    3  A    between atoms: C4_4  and  C5_5 
REMARK    4  A    between atoms: C5_5  and  O1_6 
REMARK    5  A    between atoms: C5_5  and  C6_8 
REMARK    6  A    between atoms: C6_8  and  O2_9 
REMARK    7  A    between atoms: O2_9  and  C7_10 
ROOT
HETATM    1  O2  UNL     1      -2.333   9.312  19.414  1.00  0.00    -0.349 OA
ENDROOT
BRANCH   1   2
HETATM    2  C6  UNL     1      -2.540  10.282  18.462  1.00  0.00     0.207 C 
BRANCH   2   3
HETATM    3  C5  UNL     1      -2.932  11.592  19.074  1.00  0.00     0.142 C 
BRANCH   3   4
HETATM    4  C4  UNL     1      -2.436  12.811  18.368  1.00  0.00     0.037 C 
BRANCH   4   5
HETATM    5  C3  UNL     1      -3.538  13.592  17.735  1.00  0.00     0.029 C 
BRANCH   5   6
HETATM    6  C2  UNL     1      -3.160  15.054  17.765  1.00  0.00    -0.037 C 
HETATM    7  C1  UNL     1      -2.070  15.426  18.369  1.00  0.00     0.007 C 
ENDBRANCH   5   6
ENDBRANCH   4   5
ENDBRANCH   3   4
BRANCH   3   8
HETATM    8  O1  UNL     1      -2.379  11.587  20.400  1.00  0.00    -0.393 OA
ATOM      9  H1  UNL     1      -1.549  12.050  20.375  1.00  0.00     0.210 HD
ENDBRANCH   3   8
ENDBRANCH   2   3
ENDBRANCH   1   2
BRANCH   1  10
HETATM   10  C7  UNL     1      -2.165   7.964  19.195  1.00  0.00     0.069 A 
HETATM   11  C8  UNL     1      -1.143   7.331  19.869  1.00  0.00     0.043 A 
HETATM   12  C9  UNL     1      -0.878   5.984  19.730  1.00  0.00    -0.059 A 
HETATM   13  C10 UNL     1       0.248   5.347  20.487  1.00  0.00     0.048 C 
HETATM   14  C11 UNL     1      -1.685   5.258  18.876  1.00  0.00     0.013 A 
HETATM   15  C12 UNL     1      -2.722   5.839  18.177  1.00  0.00    -0.059 A 
HETATM   16  C13 UNL     1      -3.559   5.010  17.271  1.00  0.00     0.048 C 
HETATM   17  C14 UNL     1      -2.944   7.199  18.354  1.00  0.00     0.043 A 
ENDBRANCH   1  10
TORSDOF 7
ENDMDL
MODEL 2
REMARK VINA RESULT: -6.500347679      0.645      2.226
REMARK  7 active torsions:
REMARK  status: ('A' for Active; 'I' for Inactive)
REMARK    1  A    between atoms: C2_2  and  C3_3 
REMARK    2  A    between atoms: C3_3  and  C4_4 
REMARK    3  A    between atoms: C4_4  and  C5_5 
REMARK    4  A    between atoms: C5_5  and  O1_6 
REMARK    5  A    between atoms: C5_5  and  C6_8 
REMARK    6  A    between atoms: C6_8  and  O2_9 
REMARK    7  A    between atoms: O2_9  and  C7_10 
ROOT
HETATM    1  O2  UNL     1      -2.372   9.444  19.434  1.00  0.00    -0.349 OA
ENDROOT
BRANCH   1   2
HETATM    2  C6  UNL     1      -2.730  10.330  18.444  1.00  0.00     0.207 C 
BRANCH   2   3
HETATM    3  C5  UNL     1      -3.014  11.695  18.991  1.00  0.00     0.142 C 
BRANCH   3   4
HETATM    4  C4  UNL     1      -3.487  12.705  17.997  1.00  0.00     0.037 C 
BRANCH   4   5
HETATM    5  C3  UNL     1      -2.718  13.981  18.068  1.00  0.00     0.029 C 
BRANCH   5   6
HETATM    6  C2  UNL     1      -3.636  15.111  17.669  1.00  0.00    -0.037 C 
HETATM    7  C1  UNL     1      -3.203  16.337  17.706  1.00  0.00     0.007 C 
ENDBRANCH   5   6
ENDBRANCH   4   5
ENDBRANCH   3   4
BRANCH   3   8
HETATM    8  O1  UNL     1      -1.775  12.162  19.547  1.00  0.00    -0.393 OA
ATOM      9  H1  UNL     1      -1.952  12.957  20.035  1.00  0.00     0.210 HD
ENDBRANCH   3   8
ENDBRANCH   2   3
ENDBRANCH   1   2
BRANCH   1  10
HETATM   10  C7  UNL     1      -2.107   8.103  19.284  1.00  0.00     0.069 A 
HETATM   11  C8  UNL     1      -2.911   7.386  18.424  1.00  0.00     0.043 A 
HETATM   12  C9  UNL     1      -2.742   6.037  18.194  1.00  0.00    -0.059 A 
HETATM   13  C10 UNL     1      -3.647   5.306  17.248  1.00  0.00     0.048 C 
HETATM   14  C11 UNL     1      -1.716   5.397  18.863  1.00  0.00     0.013 A 
HETATM   15  C12 UNL     1      -0.881   6.064  19.733  1.00  0.00    -0.059 A 
HETATM   16  C13 UNL     1       0.207   5.325  20.426  1.00  0.00     0.048 C 
HETATM   17  C14 UNL     1      -1.097   7.423  19.929  1.00  0.00     0.043 A 
ENDBRANCH   1  10
TORSDOF 7
ENDMDL
MODEL 3
REMARK VINA RESULT: -6.488741739      1.528      8.055
REMARK  7 active torsions:
REMARK  status: ('A' for Active; 'I' for Inactive)
REMARK    1  A    between atoms: C2_2  and  C3_3 
REMARK    2  A    between atoms: C3_3  and  C4_4 
REMARK    3  A    between atoms: C4_4  and  C5_5 
REMARK    4  A    between atoms: C5_5  and  O1_6 
REMARK    5  A    between atoms: C5_5  and  C6_8 
REMARK    6  A    between atoms: C6_8  and  O2_9 
REMARK    7  A    between atoms: O2_9  and  C7_10 
ROOT
HETATM    1  O2  UNL     1      -3.746  12.551  17.414  1.00  0.00    -0.349 OA
ENDROOT
BRANCH   1   2
HETATM    2  C6  UNL     1      -3.644  11.554  18.356  1.00  0.00     0.207 C 
BRANCH   2   3
HETATM    3  C5  UNL     1      -2.280  10.935  18.371  1.00  0.00     0.142 C 
BRANCH   3   4
HETATM    4  C4  UNL     1      -2.215   9.502  17.956  1.00  0.00     0.037 C 
BRANCH   4   5
HETATM    5  C3  UNL     1      -2.336   8.566  19.111  1.00  0.00     0.029 C 
BRANCH   5   6
HETATM    6  C2  UNL     1      -1.765   7.230  18.702  1.00  0.00    -0.037 C 
HETATM    7  C1  UNL     1      -0.878   6.650  19.456  1.00  0.00     0.007 C 
ENDBRANCH   5   6
ENDBRANCH   4   5
ENDBRANCH   3   4
BRANCH   3   8
HETATM    8  O1  UNL     1      -1.821  11.029  19.729  1.00  0.00    -0.393 OA
ATOM      9  H1  UNL     1      -2.537  10.778  20.301  1.00  0.00     0.210 HD
ENDBRANCH   3   8
ENDBRANCH   2   3
ENDBRANCH   1   2
BRANCH   1  10
HETATM   10  C7  UNL     1      -3.427  13.879  17.580  1.00  0.00     0.069 A 
HETATM   11  C8  UNL     1      -4.289  14.812  17.044  1.00  0.00     0.043 A 
HETATM   12  C9  UNL     1      -4.074  16.171  17.146  1.00  0.00    -0.059 A 
HETATM   13  C10 UNL     1      -5.044  17.143  16.543  1.00  0.00     0.048 C 
HETATM   14  C11 UNL     1      -2.944  16.592  17.820  1.00  0.00     0.013 A 
HETATM   15  C12 UNL     1      -2.049  15.703  18.376  1.00  0.00    -0.059 A 
HETATM   16  C13 UNL     1      -0.849  16.212  19.091  1.00  0.00     0.048 C 
HETATM   17  C14 UNL     1      -2.314  14.345  18.243  1.00  0.00     0.043 A 
ENDBRANCH   1  10
TORSDOF 7
ENDMDL
MODEL 4
REMARK VINA RESULT: -6.436452628      0.906      2.293
REMARK  7 active torsions:
REMARK  status: ('A' for Active; 'I' for Inactive)
REMARK    1  A    between atoms: C2_2  and  C3_3 
REMARK    2  A    between atoms: C3_3  and  C4_4 
REMARK    3  A    between atoms: C4_4  and  C5_5 
REMARK    4  A    between atoms: C5_5  and  O1_6 
REMARK    5  A    between atoms: C5_5  and  C6_8 
REMARK    6  A    between atoms: C6_8  and  O2_9 
REMARK    7  A    between atoms: O2_9  and  C7_10 
ROOT
HETATM    1  O2  UNL     1      -2.766   9.668  19.786  1.00  0.00    -0.349 OA
ENDROOT
BRANCH   1   2
HETATM    2  C6  UNL     1      -1.998  10.767  19.477  1.00  0.00     0.207 C 
BRANCH   2   3
HETATM    3  C5  UNL     1      -2.590  11.567  18.358  1.00  0.00     0.142 C 
BRANCH   3   4
HETATM    4  C4  UNL     1      -2.407  13.046  18.452  1.00  0.00     0.037 C 
BRANCH   4   5
HETATM    5  C3  UNL     1      -3.475  13.801  17.735  1.00  0.00     0.029 C 
BRANCH   5   6
HETATM    6  C2  UNL     1      -3.165  15.275  17.840  1.00  0.00    -0.037 C 
HETATM    7  C1  UNL     1      -2.060  15.664  18.407  1.00  0.00     0.007 C 
ENDBRANCH   5   6
ENDBRANCH   4   5
ENDBRANCH   3   4
BRANCH   3   8
HETATM    8  O1  UNL     1      -3.999  11.288  18.379  1.00  0.00    -0.393 OA
ATOM      9  H1  UNL     1      -4.454  12.039  18.015  1.00  0.00     0.210 HD
ENDBRANCH   3   8
ENDBRANCH   2   3
ENDBRANCH   1   2
BRANCH   1  10
HETATM   10  C7  UNL     1      -2.472   8.352  19.510  1.00  0.00     0.069 A 
HETATM   11  C8  UNL     1      -3.399   7.630  18.790  1.00  0.00     0.043 A 
HETATM   12  C9  UNL     1      -3.215   6.304  18.455  1.00  0.00    -0.059 A 
HETATM   13  C10 UNL     1      -4.257   5.566  17.669  1.00  0.00     0.048 C 
HETATM   14  C11 UNL     1      -2.045   5.696  18.866  1.00  0.00     0.013 A 
HETATM   15  C12 UNL     1      -1.083   6.371  19.588  1.00  0.00    -0.059 A 
HETATM   16  C13 UNL     1       0.157   5.666  20.005  1.00  0.00     0.048 C 
HETATM   17  C14 UNL     1      -1.321   7.704  19.899  1.00  0.00     0.043 A 
ENDBRANCH   1  10
TORSDOF 7
ENDMDL
MODEL 5
REMARK VINA RESULT: -6.407507805      1.529      7.794
REMARK  7 active torsions:
REMARK  status: ('A' for Active; 'I' for Inactive)
REMARK    1  A    between atoms: C2_2  and  C3_3 
REMARK    2  A    between atoms: C3_3  and  C4_4 
REMARK    3  A    between atoms: C4_4  and  C5_5 
REMARK    4  A    between atoms: C5_5  and  O1_6 
REMARK    5  A    between atoms: C5_5  and  C6_8 
REMARK    6  A    between atoms: C6_8  and  O2_9 
REMARK    7  A    between atoms: O2_9  and  C7_10 
ROOT
HETATM    1  O2  UNL     1      -3.652  12.524  17.377  1.00  0.00    -0.349 OA
ENDROOT
BRANCH   1   2
HETATM    2  C6  UNL     1      -3.598  11.598  18.393  1.00  0.00     0.207 C 
BRANCH   2   3
HETATM    3  C5  UNL     1      -2.275  10.897  18.441  1.00  0.00     0.142 C 
BRANCH   3   4
HETATM    4  C4  UNL     1      -2.284   9.466  18.012  1.00  0.00     0.037 C 
BRANCH   4   5
HETATM    5  C3  UNL     1      -2.346   8.524  19.166  1.00  0.00     0.029 C 
BRANCH   5   6
HETATM    6  C2  UNL     1      -1.642   7.247  18.775  1.00  0.00    -0.037 C 
HETATM    7  C1  UNL     1      -0.882   6.638  19.638  1.00  0.00     0.007 C 
ENDBRANCH   5   6
ENDBRANCH   4   5
ENDBRANCH   3   4
BRANCH   3   8
HETATM    8  O1  UNL     1      -1.853  10.950  19.813  1.00  0.00    -0.393 OA
ATOM      9  H1  UNL     1      -1.150  11.585  19.881  1.00  0.00     0.210 HD
ENDBRANCH   3   8
ENDBRANCH   2   3
ENDBRANCH   1   2
BRANCH   1  10
HETATM   10  C7  UNL     1      -3.491  13.886  17.492  1.00  0.00     0.069 A 
HETATM   11  C8  UNL     1      -2.371  14.341  18.154  1.00  0.00     0.043 A 
HETATM   12  C9  UNL     1      -2.104  15.682  18.333  1.00  0.00    -0.059 A 
HETATM   13  C10 UNL     1      -0.869  16.123  19.062  1.00  0.00     0.048 C 
HETATM   14  C11 UNL     1      -3.008  16.590  17.816  1.00  0.00     0.013 A 
HETATM   15  C12 UNL     1      -4.144  16.191  17.144  1.00  0.00    -0.059 A 
HETATM   16  C13 UNL     1      -5.083  17.211  16.609  1.00  0.00     0.048 C 
HETATM   17  C14 UNL     1      -4.364  14.827  16.994  1.00  0.00     0.043 A 
ENDBRANCH   1  10
TORSDOF 7
ENDMDL
