MODEL 1
REMARK VINA RESULT: -5.571764245      0.000      0.000
REMARK  5 active torsions:
REMARK  status: ('A' for Active; 'I' for Inactive)
REMARK    1  A    between atoms: C2_2  and  O1_4 
REMARK    2  A    between atoms: O1_4  and  C4_5 
REMARK    3  A    between atoms: C4_5  and  C5_7 
REMARK    4  A    between atoms: C5_7  and  O3_8 
REMARK    5  A    between atoms: O3_8  and  C6_9 
ROOT
HETATM    1  C5  UNL     1      -3.458  11.616  18.782  1.00  0.00     0.286 C 
ENDROOT
BRANCH   1   2
HETATM    2  C4  UNL     1      -2.670  10.408  18.359  1.00  0.00     0.283 C 
HETATM    3  O2  UNL     1      -1.636  10.520  17.651  1.00  0.00    -0.263 OA
BRANCH   2   4
HETATM    4  O1  UNL     1      -3.048   9.127  18.731  1.00  0.00    -0.315 OA
BRANCH   4   5
HETATM    5  C2  UNL     1      -2.140   8.058  18.538  1.00  0.00     0.123 C 
HETATM    6  C1  UNL     1      -1.701   7.624  19.942  1.00  0.00     0.040 C 
HETATM    7  C3  UNL     1      -2.723   6.899  17.810  1.00  0.00     0.040 C 
ENDBRANCH   4   5
ENDBRANCH   2   4
ENDBRANCH   1   2
BRANCH   1   8
HETATM    8  O3  UNL     1      -3.552  12.473  17.660  1.00  0.00    -0.342 OA
BRANCH   8   9
HETATM    9  C6  UNL     1      -3.188  13.793  17.826  1.00  0.00     0.069 A 
HETATM   10  C7  UNL     1      -3.975  14.721  17.327  1.00  0.00     0.036 A 
HETATM   11  C8  UNL     1      -3.626  16.137  17.481  1.00  0.00     0.204 A 
HETATM   12  O4  UNL     1      -2.457  16.417  18.161  1.00  0.00    -0.359 OA
HETATM   13  C9  UNL     1      -1.652  15.422  18.673  1.00  0.00     0.137 A 
HETATM   14  C10 UNL     1      -1.973  14.163  18.529  1.00  0.00     0.060 A 
ENDBRANCH   8   9
ENDBRANCH   1   8
TORSDOF 5
ENDMDL
MODEL 2
REMARK VINA RESULT: -5.528918192      0.877      1.062
REMARK  5 active torsions:
REMARK  status: ('A' for Active; 'I' for Inactive)
REMARK    1  A    between atoms: C2_2  and  O1_4 
REMARK    2  A    between atoms: O1_4  and  C4_5 
REMARK    3  A    between atoms: C4_5  and  C5_7 
REMARK    4  A    between atoms: C5_7  and  O3_8 
REMARK    5  A    between atoms: O3_8  and  C6_9 
ROOT
HETATM    1  C5  UNL     1      -2.859  11.488  19.216  1.00  0.00     0.286 C 
ENDROOT
BRANCH   1   2
HETATM    2  C4  UNL     1      -2.386  10.124  18.797  1.00  0.00     0.283 C 
HETATM    3  O2  UNL     1      -2.292   9.813  17.582  1.00  0.00    -0.263 OA
BRANCH   2   4
HETATM    4  O1  UNL     1      -2.034   9.158  19.728  1.00  0.00    -0.315 OA
BRANCH   4   5
HETATM    5  C2  UNL     1      -2.484   7.829  19.543  1.00  0.00     0.123 C 
HETATM    6  C1  UNL     1      -1.220   6.986  19.335  1.00  0.00     0.040 C 
HETATM    7  C3  UNL     1      -3.264   7.293  20.692  1.00  0.00     0.040 C 
ENDBRANCH   4   5
ENDBRANCH   2   4
ENDBRANCH   1   2
BRANCH   1   8
HETATM    8  O3  UNL     1      -3.221  12.189  18.043  1.00  0.00    -0.342 OA
BRANCH   8   9
HETATM    9  C6  UNL     1      -3.041  13.557  18.029  1.00  0.00     0.069 A 
HETATM   10  C7  UNL     1      -3.963  14.298  17.453  1.00  0.00     0.036 A 
HETATM   11  C8  UNL     1      -3.812  15.756  17.416  1.00  0.00     0.204 A 
HETATM   12  O4  UNL     1      -2.677  16.277  18.007  1.00  0.00    -0.359 OA
HETATM   13  C9  UNL     1      -1.728  15.474  18.603  1.00  0.00     0.137 A 
HETATM   14  C10 UNL     1      -1.873  14.175  18.630  1.00  0.00     0.060 A 
ENDBRANCH   8   9
ENDBRANCH   1   8
TORSDOF 5
ENDMDL
MODEL 3
REMARK VINA RESULT: -5.522988965      0.907      1.687
REMARK  5 active torsions:
REMARK  status: ('A' for Active; 'I' for Inactive)
REMARK    1  A    between atoms: C2_2  and  O1_4 
REMARK    2  A    between atoms: O1_4  and  C4_5 
REMARK    3  A    between atoms: C4_5  and  C5_7 
REMARK    4  A    between atoms: C5_7  and  O3_8 
REMARK    5  A    between atoms: O3_8  and  C6_9 
ROOT
HETATM    1  C5  UNL     1      -2.893  11.508  19.258  1.00  0.00     0.286 C 
ENDROOT
BRANCH   1   2
HETATM    2  C4  UNL     1      -2.395  10.148  18.855  1.00  0.00     0.283 C 
HETATM    3  O2  UNL     1      -2.297   9.823  17.644  1.00  0.00    -0.263 OA
BRANCH   2   4
HETATM    4  O1  UNL     1      -2.023   9.202  19.798  1.00  0.00    -0.315 OA
BRANCH   4   5
HETATM    5  C2  UNL     1      -2.495   7.874  19.663  1.00  0.00     0.123 C 
HETATM    6  C1  UNL     1      -1.249   7.010  19.433  1.00  0.00     0.040 C 
HETATM    7  C3  UNL     1      -3.241   7.378  20.852  1.00  0.00     0.040 C 
ENDBRANCH   4   5
ENDBRANCH   2   4
ENDBRANCH   1   2
BRANCH   1   8
HETATM    8  O3  UNL     1      -3.201  12.214  18.071  1.00  0.00    -0.342 OA
BRANCH   8   9
HETATM    9  C6  UNL     1      -3.003  13.578  18.064  1.00  0.00     0.069 A 
HETATM   10  C7  UNL     1      -1.910  14.051  18.623  1.00  0.00     0.036 A 
HETATM   11  C8  UNL     1      -1.660  15.496  18.638  1.00  0.00     0.204 A 
HETATM   12  O4  UNL     1      -2.617  16.295  18.045  1.00  0.00    -0.359 OA
HETATM   13  C9  UNL     1      -3.753  15.772  17.466  1.00  0.00     0.137 A 
HETATM   14  C10 UNL     1      -3.965  14.482  17.459  1.00  0.00     0.060 A 
ENDBRANCH   8   9
ENDBRANCH   1   8
TORSDOF 5
ENDMDL
MODEL 4
REMARK VINA RESULT: -5.501763847      1.286      1.525
REMARK  5 active torsions:
REMARK  status: ('A' for Active; 'I' for Inactive)
REMARK    1  A    between atoms: C2_2  and  O1_4 
REMARK    2  A    between atoms: O1_4  and  C4_5 
REMARK    3  A    between atoms: C4_5  and  C5_7 
REMARK    4  A    between atoms: C5_7  and  O3_8 
REMARK    5  A    between atoms: O3_8  and  C6_9 
ROOT
HETATM    1  C5  UNL     1      -3.387  11.741  18.789  1.00  0.00     0.286 C 
ENDROOT
BRANCH   1   2
HETATM    2  C4  UNL     1      -2.395  11.226  19.793  1.00  0.00     0.283 C 
HETATM    3  O2  UNL     1      -1.946  11.968  20.704  1.00  0.00    -0.263 OA
BRANCH   2   4
HETATM    4  O1  UNL     1      -1.937   9.918  19.758  1.00  0.00    -0.315 OA
BRANCH   4   5
HETATM    5  C2  UNL     1      -2.788   8.904  19.255  1.00  0.00     0.123 C 
HETATM    6  C1  UNL     1      -2.099   8.370  17.993  1.00  0.00     0.040 C 
HETATM    7  C3  UNL     1      -3.024   7.789  20.211  1.00  0.00     0.040 C 
ENDBRANCH   4   5
ENDBRANCH   2   4
ENDBRANCH   1   2
BRANCH   1   8
HETATM    8  O3  UNL     1      -2.667  12.492  17.830  1.00  0.00    -0.342 OA
BRANCH   8   9
HETATM    9  C6  UNL     1      -2.788  13.866  17.866  1.00  0.00     0.069 A 
HETATM   10  C7  UNL     1      -3.847  14.411  17.308  1.00  0.00     0.036 A 
HETATM   11  C8  UNL     1      -4.014  15.868  17.323  1.00  0.00     0.204 A 
HETATM   12  O4  UNL     1      -3.020  16.599  17.941  1.00  0.00    -0.359 OA
HETATM   13  C9  UNL     1      -1.921  15.999  18.518  1.00  0.00     0.137 A 
HETATM   14  C10 UNL     1      -1.781  14.700  18.499  1.00  0.00     0.060 A 
ENDBRANCH   8   9
ENDBRANCH   1   8
TORSDOF 5
ENDMDL
MODEL 5
REMARK VINA RESULT: -5.442933893      1.177      1.948
REMARK  5 active torsions:
REMARK  status: ('A' for Active; 'I' for Inactive)
REMARK    1  A    between atoms: C2_2  and  O1_4 
REMARK    2  A    between atoms: O1_4  and  C4_5 
REMARK    3  A    between atoms: C4_5  and  C5_7 
REMARK    4  A    between atoms: C5_7  and  O3_8 
REMARK    5  A    between atoms: O3_8  and  C6_9 
ROOT
HETATM    1  C5  UNL     1      -2.044  11.648  18.276  1.00  0.00     0.286 C 
ENDROOT
BRANCH   1   2
HETATM    2  C4  UNL     1      -2.198  10.869  19.552  1.00  0.00     0.283 C 
HETATM    3  O2  UNL     1      -2.661  11.406  20.591  1.00  0.00    -0.263 OA
BRANCH   2   4
HETATM    4  O1  UNL     1      -1.838   9.533  19.636  1.00  0.00    -0.315 OA
BRANCH   4   5
HETATM    5  C2  UNL     1      -2.796   8.541  19.317  1.00  0.00     0.123 C 
HETATM    6  C1  UNL     1      -2.249   7.814  18.082  1.00  0.00     0.040 C 
HETATM    7  C3  UNL     1      -3.037   7.563  20.413  1.00  0.00     0.040 C 
ENDBRANCH   4   5
ENDBRANCH   2   4
ENDBRANCH   1   2
BRANCH   1   8
HETATM    8  O3  UNL     1      -3.186  12.471  18.143  1.00  0.00    -0.342 OA
BRANCH   8   9
HETATM    9  C6  UNL     1      -2.993  13.835  18.074  1.00  0.00     0.069 A 
HETATM   10  C7  UNL     1      -1.899  14.335  18.606  1.00  0.00     0.036 A 
HETATM   11  C8  UNL     1      -1.654  15.780  18.555  1.00  0.00     0.204 A 
HETATM   12  O4  UNL     1      -2.616  16.550  17.933  1.00  0.00    -0.359 OA
HETATM   13  C9  UNL     1      -3.754  15.997  17.384  1.00  0.00     0.137 A 
HETATM   14  C10 UNL     1      -3.962  14.708  17.435  1.00  0.00     0.060 A 
ENDBRANCH   8   9
ENDBRANCH   1   8
TORSDOF 5
ENDMDL
