MODEL 1
REMARK VINA RESULT: -6.491693325      0.000      0.000
REMARK  7 active torsions:
REMARK  status: ('A' for Active; 'I' for Inactive)
REMARK    1  A    between atoms: C2_2  and  C3_3 
REMARK    2  A    between atoms: C3_3  and  C4_4 
REMARK    3  A    between atoms: C4_4  and  O1_5 
REMARK    4  A    between atoms: C4_4  and  C5_7 
REMARK    5  A    between atoms: C5_7  and  O2_8 
REMARK    6  A    between atoms: O2_8  and  C6_9 
REMARK    7  A    between atoms: C6_9  and  C7_10 
ROOT
HETATM    1  C6  UNL     1      -3.526  12.411  17.961  1.00  0.00     0.206 C 
ENDROOT
BRANCH   1   2
HETATM    2  O2  UNL     1      -2.368  11.823  18.380  1.00  0.00    -0.384 OA
BRANCH   2   3
HETATM    3  C5  UNL     1      -2.545  10.816  19.267  1.00  0.00     0.199 C 
BRANCH   3   4
HETATM    4  C4  UNL     1      -2.646   9.442  18.626  1.00  0.00     0.142 C 
BRANCH   4   5
HETATM    5  C3  UNL     1      -2.197   8.386  19.609  1.00  0.00     0.033 C 
BRANCH   5   6
HETATM    6  C2  UNL     1      -1.669   7.180  18.934  1.00  0.00    -0.002 C 
HETATM    7  C1  UNL     1      -0.667   6.479  19.777  1.00  0.00     0.005 C 
ENDBRANCH   5   6
ENDBRANCH   4   5
BRANCH   4   8
HETATM    8  O1  UNL     1      -1.867   9.446  17.449  1.00  0.00    -0.393 OA
ATOM      9  H1  UNL     1      -1.692  10.325  17.134  1.00  0.00     0.210 HD
ENDBRANCH   4   8
ENDBRANCH   3   4
ENDBRANCH   2   3
ENDBRANCH   1   2
BRANCH   1  10
HETATM   10  C7  UNL     1      -3.324  13.884  17.889  1.00  0.00    -0.034 A 
HETATM   11  C8  UNL     1      -4.247  14.696  17.287  1.00  0.00     0.016 A 
HETATM   12  C9  UNL     1      -4.033  16.063  17.235  1.00  0.00    -0.061 A 
HETATM   13  C10 UNL     1      -5.059  16.910  16.571  1.00  0.00     0.048 C 
HETATM   14  C11 UNL     1      -2.878  16.589  17.798  1.00  0.00     0.013 A 
HETATM   15  C12 UNL     1      -1.941  15.785  18.407  1.00  0.00    -0.061 A 
HETATM   16  C13 UNL     1      -0.693  16.311  19.021  1.00  0.00     0.048 C 
HETATM   17  C14 UNL     1      -2.163  14.427  18.454  1.00  0.00     0.016 A 
ENDBRANCH   1  10
TORSDOF 7
ENDMDL
MODEL 2
REMARK VINA RESULT: -6.382163383      1.090      2.429
REMARK  7 active torsions:
REMARK  status: ('A' for Active; 'I' for Inactive)
REMARK    1  A    between atoms: C2_2  and  C3_3 
REMARK    2  A    between atoms: C3_3  and  C4_4 
REMARK    3  A    between atoms: C4_4  and  O1_5 
REMARK    4  A    between atoms: C4_4  and  C5_7 
REMARK    5  A    between atoms: C5_7  and  O2_8 
REMARK    6  A    between atoms: O2_8  and  C6_9 
REMARK    7  A    between atoms: C6_9  and  C7_10 
ROOT
HETATM    1  C6  UNL     1      -3.869  12.566  17.156  1.00  0.00     0.206 C 
ENDROOT
BRANCH   1   2
HETATM    2  O2  UNL     1      -4.018  11.919  18.348  1.00  0.00    -0.384 OA
BRANCH   2   3
HETATM    3  C5  UNL     1      -3.599  10.633  18.338  1.00  0.00     0.199 C 
BRANCH   3   4
HETATM    4  C4  UNL     1      -2.338  10.389  19.151  1.00  0.00     0.142 C 
BRANCH   4   5
HETATM    5  C3  UNL     1      -2.331   8.969  19.668  1.00  0.00     0.033 C 
BRANCH   5   6
HETATM    6  C2  UNL     1      -1.987   7.990  18.613  1.00  0.00    -0.002 C 
HETATM    7  C1  UNL     1      -1.220   6.843  19.164  1.00  0.00     0.005 C 
ENDBRANCH   5   6
ENDBRANCH   4   5
BRANCH   4   8
HETATM    8  O1  UNL     1      -2.293  11.340  20.192  1.00  0.00    -0.393 OA
ATOM      9  H1  UNL     1      -3.070  11.317  20.738  1.00  0.00     0.210 HD
ENDBRANCH   4   8
ENDBRANCH   3   4
ENDBRANCH   2   3
ENDBRANCH   1   2
BRANCH   1  10
HETATM   10  C7  UNL     1      -3.521  13.989  17.415  1.00  0.00    -0.034 A 
HETATM   11  C8  UNL     1      -2.397  14.325  18.122  1.00  0.00     0.016 A 
HETATM   12  C9  UNL     1      -2.098  15.657  18.349  1.00  0.00    -0.061 A 
HETATM   13  C10 UNL     1      -0.869  15.980  19.121  1.00  0.00     0.048 C 
HETATM   14  C11 UNL     1      -2.948  16.636  17.852  1.00  0.00     0.013 A 
HETATM   15  C12 UNL     1      -4.081  16.314  17.139  1.00  0.00    -0.061 A 
HETATM   16  C13 UNL     1      -5.015  17.333  16.591  1.00  0.00     0.048 C 
HETATM   17  C14 UNL     1      -4.371  14.985  16.919  1.00  0.00     0.016 A 
ENDBRANCH   1  10
TORSDOF 7
ENDMDL
MODEL 3
REMARK VINA RESULT: -6.378243961      1.264      1.636
REMARK  7 active torsions:
REMARK  status: ('A' for Active; 'I' for Inactive)
REMARK    1  A    between atoms: C2_2  and  C3_3 
REMARK    2  A    between atoms: C3_3  and  C4_4 
REMARK    3  A    between atoms: C4_4  and  O1_5 
REMARK    4  A    between atoms: C4_4  and  C5_7 
REMARK    5  A    between atoms: C5_7  and  O2_8 
REMARK    6  A    between atoms: O2_8  and  C6_9 
REMARK    7  A    between atoms: C6_9  and  C7_10 
ROOT
HETATM    1  C6  UNL     1      -2.963  11.417  18.910  1.00  0.00     0.206 C 
ENDROOT
BRANCH   1   2
HETATM    2  O2  UNL     1      -1.970  10.636  18.393  1.00  0.00    -0.384 OA
BRANCH   2   3
HETATM    3  C5  UNL     1      -2.349   9.365  18.121  1.00  0.00     0.199 C 
BRANCH   3   4
HETATM    4  C4  UNL     1      -2.793   8.580  19.344  1.00  0.00     0.142 C 
BRANCH   4   5
HETATM    5  C3  UNL     1      -1.622   7.808  19.908  1.00  0.00     0.033 C 
BRANCH   5   6
HETATM    6  C2  UNL     1      -1.346   6.572  19.143  1.00  0.00    -0.002 C 
HETATM    7  C1  UNL     1      -0.163   5.851  19.681  1.00  0.00     0.005 C 
ENDBRANCH   5   6
ENDBRANCH   4   5
BRANCH   4   8
HETATM    8  O1  UNL     1      -3.859   7.737  18.965  1.00  0.00    -0.393 OA
ATOM      9  H1  UNL     1      -4.217   7.967  18.115  1.00  0.00     0.210 HD
ENDBRANCH   4   8
ENDBRANCH   3   4
ENDBRANCH   2   3
ENDBRANCH   1   2
BRANCH   1  10
HETATM   10  C7  UNL     1      -2.953  12.734  18.216  1.00  0.00    -0.034 A 
HETATM   11  C8  UNL     1      -3.642  12.923  17.047  1.00  0.00     0.016 A 
HETATM   12  C9  UNL     1      -3.615  14.158  16.423  1.00  0.00    -0.061 A 
HETATM   13  C10 UNL     1      -4.375  14.322  15.156  1.00  0.00     0.048 C 
HETATM   14  C11 UNL     1      -2.887  15.191  16.998  1.00  0.00     0.013 A 
HETATM   15  C12 UNL     1      -2.191  15.017  18.173  1.00  0.00    -0.061 A 
HETATM   16  C13 UNL     1      -1.400  16.098  18.819  1.00  0.00     0.048 C 
HETATM   17  C14 UNL     1      -2.222  13.784  18.786  1.00  0.00     0.016 A 
ENDBRANCH   1  10
TORSDOF 7
ENDMDL
MODEL 4
REMARK VINA RESULT: -6.366672979      1.274      2.550
REMARK  7 active torsions:
REMARK  status: ('A' for Active; 'I' for Inactive)
REMARK    1  A    between atoms: C2_2  and  C3_3 
REMARK    2  A    between atoms: C3_3  and  C4_4 
REMARK    3  A    between atoms: C4_4  and  O1_5 
REMARK    4  A    between atoms: C4_4  and  C5_7 
REMARK    5  A    between atoms: C5_7  and  O2_8 
REMARK    6  A    between atoms: O2_8  and  C6_9 
REMARK    7  A    between atoms: C6_9  and  C7_10 
ROOT
HETATM    1  C6  UNL     1      -3.018  11.379  18.781  1.00  0.00     0.206 C 
ENDROOT
BRANCH   1   2
HETATM    2  O2  UNL     1      -1.992  10.625  18.292  1.00  0.00    -0.384 OA
BRANCH   2   3
HETATM    3  C5  UNL     1      -2.310   9.327  18.076  1.00  0.00     0.199 C 
BRANCH   3   4
HETATM    4  C4  UNL     1      -2.755   8.587  19.327  1.00  0.00     0.142 C 
BRANCH   4   5
HETATM    5  C3  UNL     1      -1.598   7.790  19.886  1.00  0.00     0.033 C 
BRANCH   5   6
HETATM    6  C2  UNL     1      -1.361   6.540  19.129  1.00  0.00    -0.002 C 
HETATM    7  C1  UNL     1      -0.089   5.891  19.537  1.00  0.00     0.005 C 
ENDBRANCH   5   6
ENDBRANCH   4   5
BRANCH   4   8
HETATM    8  O1  UNL     1      -3.856   7.771  18.990  1.00  0.00    -0.393 OA
ATOM      9  H1  UNL     1      -4.681   8.238  19.042  1.00  0.00     0.210 HD
ENDBRANCH   4   8
ENDBRANCH   3   4
ENDBRANCH   2   3
ENDBRANCH   1   2
BRANCH   1  10
HETATM   10  C7  UNL     1      -2.954  12.737  18.174  1.00  0.00    -0.034 A 
HETATM   11  C8  UNL     1      -2.223  13.739  18.757  1.00  0.00     0.016 A 
HETATM   12  C9  UNL     1      -2.181  14.991  18.171  1.00  0.00    -0.061 A 
HETATM   13  C10 UNL     1      -1.378  16.051  18.835  1.00  0.00     0.048 C 
HETATM   14  C11 UNL     1      -2.885  15.212  16.994  1.00  0.00     0.013 A 
HETATM   15  C12 UNL     1      -3.622  14.215  16.396  1.00  0.00    -0.061 A 
HETATM   16  C13 UNL     1      -4.388  14.412  15.136  1.00  0.00     0.048 C 
HETATM   17  C14 UNL     1      -3.658  12.972  16.987  1.00  0.00     0.016 A 
ENDBRANCH   1  10
TORSDOF 7
ENDMDL
MODEL 5
REMARK VINA RESULT: -6.324008193      1.621      8.185
REMARK  7 active torsions:
REMARK  status: ('A' for Active; 'I' for Inactive)
REMARK    1  A    between atoms: C2_2  and  C3_3 
REMARK    2  A    between atoms: C3_3  and  C4_4 
REMARK    3  A    between atoms: C4_4  and  O1_5 
REMARK    4  A    between atoms: C4_4  and  C5_7 
REMARK    5  A    between atoms: C5_7  and  O2_8 
REMARK    6  A    between atoms: O2_8  and  C6_9 
REMARK    7  A    between atoms: C6_9  and  C7_10 
ROOT
HETATM    1  C6  UNL     1      -2.131   9.126  18.310  1.00  0.00     0.206 C 
ENDROOT
BRANCH   1   2
HETATM    2  O2  UNL     1      -2.604   9.707  19.451  1.00  0.00    -0.384 OA
BRANCH   2   3
HETATM    3  C5  UNL     1      -2.330  11.028  19.557  1.00  0.00     0.199 C 
BRANCH   3   4
HETATM    4  C4  UNL     1      -2.869  11.862  18.406  1.00  0.00     0.142 C 
BRANCH   4   5
HETATM    5  C3  UNL     1      -2.300  13.260  18.480  1.00  0.00     0.033 C 
BRANCH   5   6
HETATM    6  C2  UNL     1      -3.167  14.254  17.808  1.00  0.00    -0.002 C 
HETATM    7  C1  UNL     1      -2.654  15.636  17.991  1.00  0.00     0.005 C 
ENDBRANCH   5   6
ENDBRANCH   4   5
BRANCH   4   8
HETATM    8  O1  UNL     1      -4.278  11.851  18.474  1.00  0.00    -0.393 OA
ATOM      9  H1  UNL     1      -4.608  12.330  19.225  1.00  0.00     0.210 HD
ENDBRANCH   4   8
ENDBRANCH   3   4
ENDBRANCH   2   3
ENDBRANCH   1   2
BRANCH   1  10
HETATM   10  C7  UNL     1      -1.987   7.662  18.535  1.00  0.00    -0.034 A 
HETATM   11  C8  UNL     1      -1.021   7.166  19.370  1.00  0.00     0.016 A 
HETATM   12  C9  UNL     1      -0.910   5.800  19.560  1.00  0.00    -0.061 A 
HETATM   13  C10 UNL     1       0.153   5.302  20.472  1.00  0.00     0.048 C 
HETATM   14  C11 UNL     1      -1.786   4.951  18.898  1.00  0.00     0.013 A 
HETATM   15  C12 UNL     1      -2.763   5.434  18.057  1.00  0.00    -0.061 A 
HETATM   16  C13 UNL     1      -3.720   4.557  17.331  1.00  0.00     0.048 C 
HETATM   17  C14 UNL     1      -2.865   6.795  17.873  1.00  0.00     0.016 A 
ENDBRANCH   1  10
TORSDOF 7
ENDMDL
