MODEL 1
REMARK VINA RESULT: -7.166402561      0.000      0.000
REMARK  9 active torsions:
REMARK  status: ('A' for Active; 'I' for Inactive)
REMARK    1  A    between atoms: C2_2  and  C3_3 
REMARK    2  A    between atoms: C3_3  and  C4_4 
REMARK    3  A    between atoms: C4_4  and  O1_5 
REMARK    4  A    between atoms: O1_5  and  C5_6 
REMARK    5  A    between atoms: C5_6  and  C6_7 
REMARK    6  A    between atoms: C10_11  and  C11_12 
REMARK    7  A    between atoms: C11_12  and  C12_13 
REMARK    8  A    between atoms: C12_13  and  C13_14 
REMARK    9  A    between atoms: C13_14  and  O2_15 
ROOT
HETATM    1  C6  UNL     1      -2.975  13.626  18.156  1.00  0.00    -0.034 A 
HETATM    2  C7  UNL     1      -1.831  14.170  18.706  1.00  0.00     0.009 A 
HETATM    3  C8  UNL     1      -1.588  15.545  18.645  1.00  0.00     0.001 A 
HETATM    4  C9  UNL     1      -2.469  16.397  18.044  1.00  0.00     0.007 A 
HETATM    5  C10 UNL     1      -3.617  15.869  17.490  1.00  0.00    -0.058 A 
HETATM    6  C14 UNL     1      -3.848  14.509  17.556  1.00  0.00     0.016 A 
ENDROOT
BRANCH   1   7
HETATM    7  C5  UNL     1      -3.228  12.165  18.224  1.00  0.00     0.206 C 
BRANCH   7   8
HETATM    8  O1  UNL     1      -3.079  11.648  19.495  1.00  0.00    -0.387 OA
BRANCH   8   9
HETATM    9  C4  UNL     1      -2.329  10.486  19.396  1.00  0.00     0.168 C 
BRANCH   9  10
HETATM   10  C3  UNL     1      -2.418   9.898  17.980  1.00  0.00     0.026 C 
BRANCH  10  11
HETATM   11  C2  UNL     1      -2.076   8.442  17.975  1.00  0.00    -0.002 C 
HETATM   12  C1  UNL     1      -1.934   7.869  19.361  1.00  0.00     0.005 C 
ENDBRANCH  10  11
ENDBRANCH   9  10
ENDBRANCH   8   9
ENDBRANCH   7   8
ENDBRANCH   1   7
BRANCH   5  13
HETATM   13  C11 UNL     1      -4.578  16.783  16.837  1.00  0.00     0.041 C 
BRANCH  13  14
HETATM   14  C12 UNL     1      -4.074  18.202  16.726  1.00  0.00     0.030 C 
BRANCH  14  15
HETATM   15  C13 UNL     1      -3.740  18.599  15.316  1.00  0.00     0.164 C 
BRANCH  15  16
HETATM   16  O2  UNL     1      -4.079  19.961  15.150  1.00  0.00    -0.401 OA
ATOM     17  H2  UNL     1      -4.760  20.019  14.490  1.00  0.00     0.209 HD
ENDBRANCH  15  16
ENDBRANCH  14  15
ENDBRANCH  13  14
ENDBRANCH   5  13
TORSDOF 9
ENDMDL
MODEL 2
REMARK VINA RESULT: -6.996210287      1.067      1.376
REMARK  9 active torsions:
REMARK  status: ('A' for Active; 'I' for Inactive)
REMARK    1  A    between atoms: C2_2  and  C3_3 
REMARK    2  A    between atoms: C3_3  and  C4_4 
REMARK    3  A    between atoms: C4_4  and  O1_5 
REMARK    4  A    between atoms: O1_5  and  C5_6 
REMARK    5  A    between atoms: C5_6  and  C6_7 
REMARK    6  A    between atoms: C10_11  and  C11_12 
REMARK    7  A    between atoms: C11_12  and  C12_13 
REMARK    8  A    between atoms: C12_13  and  C13_14 
REMARK    9  A    between atoms: C13_14  and  O2_15 
ROOT
HETATM    1  C6  UNL     1      -3.196  12.666  18.111  1.00  0.00    -0.034 A 
HETATM    2  C7  UNL     1      -2.013  12.983  18.749  1.00  0.00     0.009 A 
HETATM    3  C8  UNL     1      -1.574  14.307  18.834  1.00  0.00     0.001 A 
HETATM    4  C9  UNL     1      -2.295  15.331  18.292  1.00  0.00     0.007 A 
HETATM    5  C10 UNL     1      -3.479  15.032  17.652  1.00  0.00    -0.058 A 
HETATM    6  C14 UNL     1      -3.905  13.720  17.574  1.00  0.00     0.016 A 
ENDROOT
BRANCH   1   7
HETATM    7  C5  UNL     1      -3.657  11.258  18.025  1.00  0.00     0.206 C 
BRANCH   7   8
HETATM    8  O1  UNL     1      -2.620  10.354  17.916  1.00  0.00    -0.387 OA
BRANCH   8   9
HETATM    9  C4  UNL     1      -2.852   9.328  18.819  1.00  0.00     0.168 C 
BRANCH   9  10
HETATM   10  C3  UNL     1      -2.031   8.082  18.451  1.00  0.00     0.026 C 
BRANCH  10  11
HETATM   11  C2  UNL     1      -1.606   7.333  19.674  1.00  0.00    -0.002 C 
HETATM   12  C1  UNL     1      -0.499   6.349  19.403  1.00  0.00     0.005 C 
ENDBRANCH  10  11
ENDBRANCH   9  10
ENDBRANCH   8   9
ENDBRANCH   7   8
ENDBRANCH   1   7
BRANCH   5  13
HETATM   13  C11 UNL     1      -4.270  16.134  17.062  1.00  0.00     0.041 C 
BRANCH  13  14
HETATM   14  C12 UNL     1      -3.502  17.430  16.957  1.00  0.00     0.030 C 
BRANCH  14  15
HETATM   15  C13 UNL     1      -4.312  18.545  16.358  1.00  0.00     0.164 C 
BRANCH  15  16
HETATM   16  O2  UNL     1      -3.540  19.153  15.342  1.00  0.00    -0.401 OA
ATOM     17  H2  UNL     1      -3.383  18.507  14.663  1.00  0.00     0.209 HD
ENDBRANCH  15  16
ENDBRANCH  14  15
ENDBRANCH  13  14
ENDBRANCH   5  13
TORSDOF 9
ENDMDL
MODEL 3
REMARK VINA RESULT: -6.614259194      1.485      2.263
REMARK  9 active torsions:
REMARK  status: ('A' for Active; 'I' for Inactive)
REMARK    1  A    between atoms: C2_2  and  C3_3 
REMARK    2  A    between atoms: C3_3  and  C4_4 
REMARK    3  A    between atoms: C4_4  and  O1_5 
REMARK    4  A    between atoms: O1_5  and  C5_6 
REMARK    5  A    between atoms: C5_6  and  C6_7 
REMARK    6  A    between atoms: C10_11  and  C11_12 
REMARK    7  A    between atoms: C11_12  and  C12_13 
REMARK    8  A    between atoms: C12_13  and  C13_14 
REMARK    9  A    between atoms: C13_14  and  O2_15 
ROOT
HETATM    1  C6  UNL     1      -3.065  11.709  18.339  1.00  0.00    -0.034 A 
HETATM    2  C7  UNL     1      -1.904  11.933  19.052  1.00  0.00     0.009 A 
HETATM    3  C8  UNL     1      -1.386  13.223  19.195  1.00  0.00     0.001 A 
HETATM    4  C9  UNL     1      -2.005  14.304  18.638  1.00  0.00     0.007 A 
HETATM    5  C10 UNL     1      -3.167  14.097  17.923  1.00  0.00    -0.058 A 
HETATM    6  C14 UNL     1      -3.671  12.818  17.788  1.00  0.00     0.016 A 
ENDROOT
BRANCH   1   7
HETATM    7  C5  UNL     1      -3.611  10.336  18.192  1.00  0.00     0.206 C 
BRANCH   7   8
HETATM    8  O1  UNL     1      -2.636   9.360  18.215  1.00  0.00    -0.387 OA
BRANCH   8   9
HETATM    9  C4  UNL     1      -3.053   8.362  19.082  1.00  0.00     0.168 C 
BRANCH   9  10
HETATM   10  C3  UNL     1      -1.860   7.778  19.855  1.00  0.00     0.026 C 
BRANCH  10  11
HETATM   11  C2  UNL     1      -1.220   6.660  19.095  1.00  0.00    -0.002 C 
HETATM   12  C1  UNL     1      -0.156   5.947  19.888  1.00  0.00     0.005 C 
ENDBRANCH  10  11
ENDBRANCH   9  10
ENDBRANCH   8   9
ENDBRANCH   7   8
ENDBRANCH   1   7
BRANCH   5  13
HETATM   13  C11 UNL     1      -3.847  15.262  17.316  1.00  0.00     0.041 C 
BRANCH  13  14
HETATM   14  C12 UNL     1      -3.195  16.580  17.657  1.00  0.00     0.030 C 
BRANCH  14  15
HETATM   15  C13 UNL     1      -3.815  17.745  16.940  1.00  0.00     0.164 C 
BRANCH  15  16
HETATM   16  O2  UNL     1      -4.861  17.254  16.126  1.00  0.00    -0.401 OA
ATOM     17  H2  UNL     1      -5.394  17.992  15.851  1.00  0.00     0.209 HD
ENDBRANCH  15  16
ENDBRANCH  14  15
ENDBRANCH  13  14
ENDBRANCH   5  13
TORSDOF 9
ENDMDL
MODEL 4
REMARK VINA RESULT: -6.525326128      1.211      2.030
REMARK  9 active torsions:
REMARK  status: ('A' for Active; 'I' for Inactive)
REMARK    1  A    between atoms: C2_2  and  C3_3 
REMARK    2  A    between atoms: C3_3  and  C4_4 
REMARK    3  A    between atoms: C4_4  and  O1_5 
REMARK    4  A    between atoms: O1_5  and  C5_6 
REMARK    5  A    between atoms: C5_6  and  C6_7 
REMARK    6  A    between atoms: C10_11  and  C11_12 
REMARK    7  A    between atoms: C11_12  and  C12_13 
REMARK    8  A    between atoms: C12_13  and  C13_14 
REMARK    9  A    between atoms: C13_14  and  O2_15 
ROOT
HETATM    1  C6  UNL     1      -2.406  12.594  18.735  1.00  0.00    -0.034 A 
HETATM    2  C7  UNL     1      -3.437  12.254  17.882  1.00  0.00     0.009 A 
HETATM    3  C8  UNL     1      -4.071  13.222  17.098  1.00  0.00     0.001 A 
HETATM    4  C9  UNL     1      -3.697  14.534  17.149  1.00  0.00     0.007 A 
HETATM    5  C10 UNL     1      -2.669  14.890  17.996  1.00  0.00    -0.058 A 
HETATM    6  C14 UNL     1      -2.048  13.925  18.765  1.00  0.00     0.016 A 
ENDROOT
BRANCH   1   7
HETATM    7  C5  UNL     1      -1.736  11.560  19.563  1.00  0.00     0.206 C 
BRANCH   7   8
HETATM    8  O1  UNL     1      -2.588  10.554  19.968  1.00  0.00    -0.387 OA
BRANCH   8   9
HETATM    9  C4  UNL     1      -1.975   9.341  19.696  1.00  0.00     0.168 C 
BRANCH   9  10
HETATM   10  C3  UNL     1      -2.325   8.859  18.279  1.00  0.00     0.026 C 
BRANCH  10  11
HETATM   11  C2  UNL     1      -2.226   7.370  18.174  1.00  0.00    -0.002 C 
HETATM   12  C1  UNL     1      -1.265   6.775  19.169  1.00  0.00     0.005 C 
ENDBRANCH  10  11
ENDBRANCH   9  10
ENDBRANCH   8   9
ENDBRANCH   7   8
ENDBRANCH   1   7
BRANCH   5  13
HETATM   13  C11 UNL     1      -2.255  16.309  18.058  1.00  0.00     0.041 C 
BRANCH  13  14
HETATM   14  C12 UNL     1      -3.414  17.273  17.985  1.00  0.00     0.030 C 
BRANCH  14  15
HETATM   15  C13 UNL     1      -3.465  18.034  16.690  1.00  0.00     0.164 C 
BRANCH  15  16
HETATM   16  O2  UNL     1      -4.619  17.623  15.985  1.00  0.00    -0.401 OA
ATOM     17  H2  UNL     1      -4.432  16.788  15.571  1.00  0.00     0.209 HD
ENDBRANCH  15  16
ENDBRANCH  14  15
ENDBRANCH  13  14
ENDBRANCH   5  13
TORSDOF 9
ENDMDL
MODEL 5
REMARK VINA RESULT: -6.518169364      1.239      1.948
REMARK  9 active torsions:
REMARK  status: ('A' for Active; 'I' for Inactive)
REMARK    1  A    between atoms: C2_2  and  C3_3 
REMARK    2  A    between atoms: C3_3  and  C4_4 
REMARK    3  A    between atoms: C4_4  and  O1_5 
REMARK    4  A    between atoms: O1_5  and  C5_6 
REMARK    5  A    between atoms: C5_6  and  C6_7 
REMARK    6  A    between atoms: C10_11  and  C11_12 
REMARK    7  A    between atoms: C11_12  and  C12_13 
REMARK    8  A    between atoms: C12_13  and  C13_14 
REMARK    9  A    between atoms: C13_14  and  O2_15 
ROOT
HETATM    1  C6  UNL     1      -3.039  11.971  18.333  1.00  0.00    -0.034 A 
HETATM    2  C7  UNL     1      -1.953  12.325  19.107  1.00  0.00     0.009 A 
HETATM    3  C8  UNL     1      -1.493  13.644  19.142  1.00  0.00     0.001 A 
HETATM    4  C9  UNL     1      -2.098  14.627  18.414  1.00  0.00     0.007 A 
HETATM    5  C10 UNL     1      -3.185  14.291  17.635  1.00  0.00    -0.058 A 
HETATM    6  C14 UNL     1      -3.632  12.984  17.608  1.00  0.00     0.016 A 
ENDROOT
BRANCH   1   7
HETATM    7  C5  UNL     1      -3.524  10.568  18.301  1.00  0.00     0.206 C 
BRANCH   7   8
HETATM    8  O1  UNL     1      -2.833   9.737  19.160  1.00  0.00    -0.387 OA
BRANCH   8   9
HETATM    9  C4  UNL     1      -2.353   8.667  18.422  1.00  0.00     0.168 C 
BRANCH   9  10
HETATM   10  C3  UNL     1      -1.766   7.588  19.346  1.00  0.00     0.026 C 
BRANCH  10  11
HETATM   11  C2  UNL     1      -1.972   6.219  18.778  1.00  0.00    -0.002 C 
HETATM   12  C1  UNL     1      -3.040   6.180  17.717  1.00  0.00     0.005 C 
ENDBRANCH  10  11
ENDBRANCH   9  10
ENDBRANCH   8   9
ENDBRANCH   7   8
ENDBRANCH   1   7
BRANCH   5  13
HETATM   13  C11 UNL     1      -3.849  15.348  16.842  1.00  0.00     0.041 C 
BRANCH  13  14
HETATM   14  C12 UNL     1      -3.388  16.741  17.199  1.00  0.00     0.030 C 
BRANCH  14  15
HETATM   15  C13 UNL     1      -4.406  17.798  16.876  1.00  0.00     0.164 C 
BRANCH  15  16
HETATM   16  O2  UNL     1      -3.792  18.761  16.045  1.00  0.00    -0.401 OA
ATOM     17  H2  UNL     1      -2.890  18.864  16.326  1.00  0.00     0.209 HD
ENDBRANCH  15  16
ENDBRANCH  14  15
ENDBRANCH  13  14
ENDBRANCH   5  13
TORSDOF 9
ENDMDL
