MODEL 1
REMARK VINA RESULT: -5.327729120      0.000      0.000
REMARK  5 active torsions:
REMARK  status: ('A' for Active; 'I' for Inactive)
REMARK    1  A    between atoms: C2_2  and  C3_3 
REMARK    2  A    between atoms: C3_3  and  C6_6 
REMARK    3  A    between atoms: C6_6  and  C7_7 
REMARK    4  A    between atoms: C7_7  and  C8_8 
REMARK    5  A    between atoms: C8_8  and  O2_10 
ROOT
HETATM    1  C7  UNL     1      -2.733   7.760  18.534  1.00  0.00     0.052 C 
HETATM    2  C10 UNL     1      -2.578   6.664  17.535  1.00  0.00     0.020 C 
HETATM    3  C11 UNL     1      -3.710   5.678  17.492  1.00  0.00     0.001 C 
HETATM    4  C12 UNL     1      -4.188   5.386  18.912  1.00  0.00     0.000 C 
HETATM    5  C13 UNL     1      -4.711   6.634  19.520  1.00  0.00     0.001 C 
HETATM    6  C14 UNL     1      -4.118   7.923  19.031  1.00  0.00     0.020 C 
ENDROOT
BRANCH   1   7
HETATM    7  C6  UNL     1      -2.083   9.041  18.100  1.00  0.00     0.058 C 
BRANCH   7   8
HETATM    8  C3  UNL     1      -2.717  10.300  18.364  1.00  0.00    -0.062 C 
HETATM    9  C4  UNL     1      -3.542  10.964  17.626  1.00  0.00    -0.024 C 
HETATM   10  C5  UNL     1      -4.107  12.254  18.103  1.00  0.00     0.036 C 
BRANCH   8  11
HETATM   11  C2  UNL     1      -2.388  10.914  19.690  1.00  0.00    -0.004 C 
HETATM   12  C1  UNL     1      -1.295  11.609  19.888  1.00  0.00     0.012 C 
ENDBRANCH   8  11
ENDBRANCH   7   8
ENDBRANCH   1   7
BRANCH   1  13
HETATM   13  C8  UNL     1      -1.903   7.335  19.735  1.00  0.00     0.267 C 
HETATM   14  O1  UNL     1      -2.263   7.593  20.878  1.00  0.00    -0.264 OA
BRANCH  13  15
HETATM   15  O2  UNL     1      -0.736   6.652  19.477  1.00  0.00    -0.326 OA
HETATM   16  C9  UNL     1      -0.381   5.448  20.131  1.00  0.00     0.213 C 
ENDBRANCH  13  15
ENDBRANCH   1  13
TORSDOF 5
ENDMDL
MODEL 2
REMARK VINA RESULT: -5.245556368      1.554      2.736
REMARK  5 active torsions:
REMARK  status: ('A' for Active; 'I' for Inactive)
REMARK    1  A    between atoms: C2_2  and  C3_3 
REMARK    2  A    between atoms: C3_3  and  C6_6 
REMARK    3  A    between atoms: C6_6  and  C7_7 
REMARK    4  A    between atoms: C7_7  and  C8_8 
REMARK    5  A    between atoms: C8_8  and  O2_10 
ROOT
HETATM    1  C7  UNL     1      -2.323   7.683  19.112  1.00  0.00     0.052 C 
HETATM    2  C10 UNL     1      -3.215   7.982  20.267  1.00  0.00     0.020 C 
HETATM    3  C11 UNL     1      -3.032   7.089  21.462  1.00  0.00     0.001 C 
HETATM    4  C12 UNL     1      -2.804   5.653  20.995  1.00  0.00     0.000 C 
HETATM    5  C13 UNL     1      -1.554   5.589  20.198  1.00  0.00     0.001 C 
HETATM    6  C14 UNL     1      -1.159   6.835  19.460  1.00  0.00     0.020 C 
ENDROOT
BRANCH   1   7
HETATM    7  C6  UNL     1      -1.973   8.904  18.313  1.00  0.00     0.058 C 
BRANCH   7   8
HETATM    8  C3  UNL     1      -2.669  10.139  18.536  1.00  0.00    -0.062 C 
HETATM    9  C4  UNL     1      -3.630  10.664  17.853  1.00  0.00    -0.024 C 
HETATM   10  C5  UNL     1      -4.234  11.956  18.273  1.00  0.00     0.036 C 
BRANCH   8  11
HETATM   11  C2  UNL     1      -2.229  10.911  19.742  1.00  0.00    -0.004 C 
HETATM   12  C1  UNL     1      -1.189  11.707  19.723  1.00  0.00     0.012 C 
ENDBRANCH   8  11
ENDBRANCH   7   8
ENDBRANCH   1   7
BRANCH   1  13
HETATM   13  C8  UNL     1      -3.166   6.863  18.148  1.00  0.00     0.267 C 
HETATM   14  O1  UNL     1      -2.669   6.338  17.159  1.00  0.00    -0.264 OA
BRANCH  13  15
HETATM   15  O2  UNL     1      -4.506   6.741  18.441  1.00  0.00    -0.326 OA
HETATM   16  C9  UNL     1      -5.263   5.582  18.143  1.00  0.00     0.213 C 
ENDBRANCH  13  15
ENDBRANCH   1  13
TORSDOF 5
ENDMDL
MODEL 3
REMARK VINA RESULT: -5.226434667      1.188      2.830
REMARK  5 active torsions:
REMARK  status: ('A' for Active; 'I' for Inactive)
REMARK    1  A    between atoms: C2_2  and  C3_3 
REMARK    2  A    between atoms: C3_3  and  C6_6 
REMARK    3  A    between atoms: C6_6  and  C7_7 
REMARK    4  A    between atoms: C7_7  and  C8_8 
REMARK    5  A    between atoms: C8_8  and  O2_10 
ROOT
HETATM    1  C7  UNL     1      -2.319   7.565  18.585  1.00  0.00     0.052 C 
HETATM    2  C10 UNL     1      -1.111   7.437  19.449  1.00  0.00     0.020 C 
HETATM    3  C11 UNL     1      -0.546   6.049  19.551  1.00  0.00     0.001 C 
HETATM    4  C12 UNL     1      -1.687   5.038  19.639  1.00  0.00     0.000 C 
HETATM    5  C13 UNL     1      -2.493   5.098  18.394  1.00  0.00     0.001 C 
HETATM    6  C14 UNL     1      -2.528   6.415  17.675  1.00  0.00     0.020 C 
ENDROOT
BRANCH   1   7
HETATM    7  C6  UNL     1      -2.415   8.903  17.913  1.00  0.00     0.058 C 
BRANCH   7   8
HETATM    8  C3  UNL     1      -2.469  10.105  18.695  1.00  0.00    -0.062 C 
HETATM    9  C4  UNL     1      -1.618  10.551  19.556  1.00  0.00    -0.024 C 
HETATM   10  C5  UNL     1      -1.857  11.845  20.249  1.00  0.00     0.036 C 
BRANCH   8  11
HETATM   11  C2  UNL     1      -3.672  10.965  18.461  1.00  0.00    -0.004 C 
HETATM   12  C1  UNL     1      -3.803  11.711  17.392  1.00  0.00     0.012 C 
ENDBRANCH   8  11
ENDBRANCH   7   8
ENDBRANCH   1   7
BRANCH   1  13
HETATM   13  C8  UNL     1      -3.503   7.566  19.540  1.00  0.00     0.267 C 
HETATM   14  O1  UNL     1      -3.341   7.657  20.751  1.00  0.00    -0.264 OA
BRANCH  13  15
HETATM   15  O2  UNL     1      -4.756   7.462  18.979  1.00  0.00    -0.326 OA
HETATM   16  C9  UNL     1      -5.757   6.593  19.474  1.00  0.00     0.213 C 
ENDBRANCH  13  15
ENDBRANCH   1  13
TORSDOF 5
ENDMDL
MODEL 4
REMARK VINA RESULT: -5.214042614      2.864      4.713
REMARK  5 active torsions:
REMARK  status: ('A' for Active; 'I' for Inactive)
REMARK    1  A    between atoms: C2_2  and  C3_3 
REMARK    2  A    between atoms: C3_3  and  C6_6 
REMARK    3  A    between atoms: C6_6  and  C7_7 
REMARK    4  A    between atoms: C7_7  and  C8_8 
REMARK    5  A    between atoms: C8_8  and  O2_10 
ROOT
HETATM    1  C7  UNL     1      -4.694   5.336  18.393  1.00  0.00     0.052 C 
HETATM    2  C10 UNL     1      -5.708   6.425  18.481  1.00  0.00     0.020 C 
HETATM    3  C11 UNL     1      -6.647   6.327  19.650  1.00  0.00     0.001 C 
HETATM    4  C12 UNL     1      -7.039   4.868  19.870  1.00  0.00     0.000 C 
HETATM    5  C13 UNL     1      -5.827   4.080  20.208  1.00  0.00     0.001 C 
HETATM    6  C14 UNL     1      -4.524   4.575  19.653  1.00  0.00     0.020 C 
ENDROOT
BRANCH   1   7
HETATM    7  C6  UNL     1      -3.405   5.788  17.772  1.00  0.00     0.058 C 
BRANCH   7   8
HETATM    8  C3  UNL     1      -2.275   6.105  18.598  1.00  0.00    -0.062 C 
HETATM    9  C4  UNL     1      -1.344   5.324  19.033  1.00  0.00    -0.024 C 
HETATM   10  C5  UNL     1      -0.239   5.864  19.868  1.00  0.00     0.036 C 
BRANCH   8  11
HETATM   11  C2  UNL     1      -2.154   7.545  18.989  1.00  0.00    -0.004 C 
HETATM   12  C1  UNL     1      -2.190   8.516  18.110  1.00  0.00     0.012 C 
ENDBRANCH   8  11
ENDBRANCH   7   8
ENDBRANCH   1   7
BRANCH   1  13
HETATM   13  C8  UNL     1      -5.245   4.348  17.377  1.00  0.00     0.267 C 
HETATM   14  O1  UNL     1      -6.257   4.599  16.732  1.00  0.00    -0.264 OA
BRANCH  13  15
HETATM   15  O2  UNL     1      -4.556   3.167  17.219  1.00  0.00    -0.326 OA
HETATM   16  C9  UNL     1      -4.125   2.682  15.960  1.00  0.00     0.213 C 
ENDBRANCH  13  15
ENDBRANCH   1  13
TORSDOF 5
ENDMDL
MODEL 5
REMARK VINA RESULT: -5.183452668      2.797      4.915
REMARK  5 active torsions:
REMARK  status: ('A' for Active; 'I' for Inactive)
REMARK    1  A    between atoms: C2_2  and  C3_3 
REMARK    2  A    between atoms: C3_3  and  C6_6 
REMARK    3  A    between atoms: C6_6  and  C7_7 
REMARK    4  A    between atoms: C7_7  and  C8_8 
REMARK    5  A    between atoms: C8_8  and  O2_10 
ROOT
HETATM    1  C7  UNL     1      -3.695   5.943  18.879  1.00  0.00     0.052 C 
HETATM    2  C10 UNL     1      -3.823   6.467  20.268  1.00  0.00     0.020 C 
HETATM    3  C11 UNL     1      -2.918   7.619  20.600  1.00  0.00     0.001 C 
HETATM    4  C12 UNL     1      -1.546   7.389  19.969  1.00  0.00     0.000 C 
HETATM    5  C13 UNL     1      -1.686   7.346  18.492  1.00  0.00     0.001 C 
HETATM    6  C14 UNL     1      -3.002   6.868  17.952  1.00  0.00     0.020 C 
ENDROOT
BRANCH   1   7
HETATM    7  C6  UNL     1      -4.983   5.391  18.342  1.00  0.00     0.058 C 
BRANCH   7   8
HETATM    8  C3  UNL     1      -6.219   5.640  19.028  1.00  0.00    -0.062 C 
HETATM    9  C4  UNL     1      -6.958   6.697  19.009  1.00  0.00    -0.024 C 
HETATM   10  C5  UNL     1      -8.227   6.742  19.783  1.00  0.00     0.036 C 
BRANCH   8  11
HETATM   11  C2  UNL     1      -6.725   4.504  19.863  1.00  0.00    -0.004 C 
HETATM   12  C1  UNL     1      -6.148   3.328  19.870  1.00  0.00     0.012 C 
ENDBRANCH   8  11
ENDBRANCH   7   8
ENDBRANCH   1   7
BRANCH   1  13
HETATM   13  C8  UNL     1      -2.805   4.715  18.988  1.00  0.00     0.267 C 
HETATM   14  O1  UNL     1      -2.275   4.225  17.997  1.00  0.00    -0.264 OA
BRANCH  13  15
HETATM   15  O2  UNL     1      -2.625   4.185  20.246  1.00  0.00    -0.326 OA
HETATM   16  C9  UNL     1      -1.380   3.700  20.713  1.00  0.00     0.213 C 
ENDBRANCH  13  15
ENDBRANCH   1  13
TORSDOF 5
ENDMDL
