MODEL 1
REMARK VINA RESULT: -6.015680959      0.000      0.000
REMARK  7 active torsions:
REMARK  status: ('A' for Active; 'I' for Inactive)
REMARK    1  A    between atoms: C2_2  and  C3_3 
REMARK    2  A    between atoms: C3_3  and  C4_4 
REMARK    3  A    between atoms: C4_4  and  C5_5 
REMARK    4  A    between atoms: C5_5  and  C6_6 
REMARK    5  A    between atoms: C6_6  and  C7_8 
REMARK    6  A    between atoms: C12_14  and  C13_15 
REMARK    7  A    between atoms: C13_15  and  C14_16 
ROOT
HETATM    1  C7  UNL     1      -2.241   6.385  19.430  1.00  0.00     0.048 A 
HETATM    2  C8  UNL     1      -1.153   5.496  19.530  1.00  0.00     0.064 A 
HETATM    3  C9  UNL     1      -0.050   5.560  20.558  1.00  0.00     0.077 C 
HETATM    4  O2  UNL     1      -1.309   4.641  18.572  1.00  0.00    -0.319 OA
HETATM    5  C10 UNL     1      -2.365   4.862  17.859  1.00  0.00     0.056 A 
HETATM    6  C11 UNL     1      -2.843   4.069  16.676  1.00  0.00     0.077 C 
HETATM    7  C12 UNL     1      -3.015   6.005  18.389  1.00  0.00    -0.012 A 
ENDROOT
BRANCH   1   8
HETATM    8  C6  UNL     1      -2.335   7.533  20.284  1.00  0.00     0.162 C 
HETATM    9  O1  UNL     1      -3.140   7.399  21.294  1.00  0.00    -0.292 OA
BRANCH   8  10
HETATM   10  C5  UNL     1      -1.678   8.830  20.198  1.00  0.00     0.084 C 
BRANCH  10  11
HETATM   11  C4  UNL     1      -2.685   9.933  19.849  1.00  0.00     0.008 C 
BRANCH  11  12
HETATM   12  C3  UNL     1      -1.930  11.183  19.521  1.00  0.00     0.000 C 
BRANCH  12  13
HETATM   13  C2  UNL     1      -2.698  12.145  18.671  1.00  0.00    -0.005 C 
HETATM   14  C1  UNL     1      -4.186  11.949  18.728  1.00  0.00     0.005 C 
ENDBRANCH  12  13
ENDBRANCH  11  12
ENDBRANCH  10  11
ENDBRANCH   8  10
ENDBRANCH   1   8
BRANCH   7  15
HETATM   15  C13 UNL     1      -4.290   6.498  17.836  1.00  0.00     0.046 C 
BRANCH  15  16
HETATM   16  C14 UNL     1      -5.526   6.205  18.584  1.00  0.00    -0.018 C 
HETATM   17  C15 UNL     1      -5.474   5.124  19.605  1.00  0.00     0.010 C 
HETATM   18  C16 UNL     1      -5.999   7.475  19.336  1.00  0.00     0.010 C 
ENDBRANCH  15  16
ENDBRANCH   7  15
TORSDOF 7
ENDMDL
MODEL 2
REMARK VINA RESULT: -5.975212249      1.232      3.281
REMARK  7 active torsions:
REMARK  status: ('A' for Active; 'I' for Inactive)
REMARK    1  A    between atoms: C2_2  and  C3_3 
REMARK    2  A    between atoms: C3_3  and  C4_4 
REMARK    3  A    between atoms: C4_4  and  C5_5 
REMARK    4  A    between atoms: C5_5  and  C6_6 
REMARK    5  A    between atoms: C6_6  and  C7_8 
REMARK    6  A    between atoms: C12_14  and  C13_15 
REMARK    7  A    between atoms: C13_15  and  C14_16 
ROOT
HETATM    1  C7  UNL     1      -3.435   7.056  19.259  1.00  0.00     0.048 A 
HETATM    2  C8  UNL     1      -4.628   6.717  18.591  1.00  0.00     0.064 A 
HETATM    3  C9  UNL     1      -5.935   7.464  18.680  1.00  0.00     0.077 C 
HETATM    4  O2  UNL     1      -4.357   5.653  17.906  1.00  0.00    -0.319 OA
HETATM    5  C10 UNL     1      -3.133   5.256  18.044  1.00  0.00     0.056 A 
HETATM    6  C11 UNL     1      -2.488   4.063  17.398  1.00  0.00     0.077 C 
HETATM    7  C12 UNL     1      -2.484   6.153  18.929  1.00  0.00    -0.012 A 
ENDROOT
BRANCH   1   8
HETATM    8  C6  UNL     1      -3.399   8.140  20.197  1.00  0.00     0.162 C 
HETATM    9  O1  UNL     1      -3.656   7.806  21.426  1.00  0.00    -0.292 OA
BRANCH   8  10
HETATM   10  C5  UNL     1      -3.128   9.556  19.995  1.00  0.00     0.084 C 
BRANCH  10  11
HETATM   11  C4  UNL     1      -1.620   9.834  20.016  1.00  0.00     0.008 C 
BRANCH  11  12
HETATM   12  C3  UNL     1      -1.390  11.252  19.595  1.00  0.00     0.000 C 
BRANCH  12  13
HETATM   13  C2  UNL     1      -2.455  11.792  18.693  1.00  0.00    -0.005 C 
HETATM   14  C1  UNL     1      -2.790  13.234  18.946  1.00  0.00     0.005 C 
ENDBRANCH  12  13
ENDBRANCH  11  12
ENDBRANCH  10  11
ENDBRANCH   8  10
ENDBRANCH   1   8
BRANCH   7  15
HETATM   15  C13 UNL     1      -1.053   6.017  19.260  1.00  0.00     0.046 C 
BRANCH  15  16
HETATM   16  C14 UNL     1      -0.692   5.745  20.663  1.00  0.00    -0.018 C 
HETATM   17  C15 UNL     1      -1.453   4.685  21.378  1.00  0.00     0.010 C 
HETATM   18  C16 UNL     1       0.797   5.331  20.752  1.00  0.00     0.010 C 
ENDBRANCH  15  16
ENDBRANCH   7  15
TORSDOF 7
ENDMDL
MODEL 3
REMARK VINA RESULT: -5.861157583      2.182      4.072
REMARK  7 active torsions:
REMARK  status: ('A' for Active; 'I' for Inactive)
REMARK    1  A    between atoms: C2_2  and  C3_3 
REMARK    2  A    between atoms: C3_3  and  C4_4 
REMARK    3  A    between atoms: C4_4  and  C5_5 
REMARK    4  A    between atoms: C5_5  and  C6_6 
REMARK    5  A    between atoms: C6_6  and  C7_8 
REMARK    6  A    between atoms: C12_14  and  C13_15 
REMARK    7  A    between atoms: C13_15  and  C14_16 
ROOT
HETATM    1  C7  UNL     1      -2.993  10.114  19.394  1.00  0.00     0.048 A 
HETATM    2  C8  UNL     1      -1.695  10.306  19.906  1.00  0.00     0.064 A 
HETATM    3  C9  UNL     1      -0.897  11.585  19.838  1.00  0.00     0.077 C 
HETATM    4  O2  UNL     1      -1.352   9.173  20.430  1.00  0.00    -0.319 OA
HETATM    5  C10 UNL     1      -2.267   8.265  20.324  1.00  0.00     0.056 A 
HETATM    6  C11 UNL     1      -2.201   6.849  20.818  1.00  0.00     0.077 C 
HETATM    7  C12 UNL     1      -3.372   8.840  19.647  1.00  0.00    -0.012 A 
ENDROOT
BRANCH   1   8
HETATM    8  C6  UNL     1      -3.650  11.146  18.647  1.00  0.00     0.162 C 
HETATM    9  O1  UNL     1      -3.506  11.064  17.359  1.00  0.00    -0.292 OA
BRANCH   8  10
HETATM   10  C5  UNL     1      -4.448  12.277  19.099  1.00  0.00     0.084 C 
BRANCH  10  11
HETATM   11  C4  UNL     1      -4.232  13.497  18.196  1.00  0.00     0.008 C 
BRANCH  11  12
HETATM   12  C3  UNL     1      -3.004  14.220  18.655  1.00  0.00     0.000 C 
BRANCH  12  13
HETATM   13  C2  UNL     1      -2.973  15.663  18.260  1.00  0.00    -0.005 C 
HETATM   14  C1  UNL     1      -4.286  16.180  17.745  1.00  0.00     0.005 C 
ENDBRANCH  12  13
ENDBRANCH  11  12
ENDBRANCH  10  11
ENDBRANCH   8  10
ENDBRANCH   1   8
BRANCH   7  15
HETATM   15  C13 UNL     1      -4.615   8.084  19.408  1.00  0.00     0.046 C 
BRANCH  15  16
HETATM   16  C14 UNL     1      -4.724   7.313  18.157  1.00  0.00    -0.018 C 
HETATM   17  C15 UNL     1      -3.566   6.464  17.766  1.00  0.00     0.010 C 
HETATM   18  C16 UNL     1      -5.942   6.358  18.233  1.00  0.00     0.010 C 
ENDBRANCH  15  16
ENDBRANCH   7  15
TORSDOF 7
ENDMDL
MODEL 4
REMARK VINA RESULT: -5.830990616      1.022      1.533
REMARK  7 active torsions:
REMARK  status: ('A' for Active; 'I' for Inactive)
REMARK    1  A    between atoms: C2_2  and  C3_3 
REMARK    2  A    between atoms: C3_3  and  C4_4 
REMARK    3  A    between atoms: C4_4  and  C5_5 
REMARK    4  A    between atoms: C5_5  and  C6_6 
REMARK    5  A    between atoms: C6_6  and  C7_8 
REMARK    6  A    between atoms: C12_14  and  C13_15 
REMARK    7  A    between atoms: C13_15  and  C14_16 
ROOT
HETATM    1  C7  UNL     1      -1.940   5.808  19.436  1.00  0.00     0.048 A 
HETATM    2  C8  UNL     1      -0.750   5.083  19.641  1.00  0.00     0.064 A 
HETATM    3  C9  UNL     1       0.223   5.282  20.776  1.00  0.00     0.077 C 
HETATM    4  O2  UNL     1      -0.683   4.234  18.667  1.00  0.00    -0.319 OA
HETATM    5  C10 UNL     1      -1.684   4.315  17.851  1.00  0.00     0.056 A 
HETATM    6  C11 UNL     1      -1.920   3.486  16.621  1.00  0.00     0.077 C 
HETATM    7  C12 UNL     1      -2.542   5.341  18.318  1.00  0.00    -0.012 A 
ENDROOT
BRANCH   1   8
HETATM    8  C6  UNL     1      -2.285   6.913  20.282  1.00  0.00     0.162 C 
HETATM    9  O1  UNL     1      -3.003   6.603  21.320  1.00  0.00    -0.292 OA
BRANCH   8  10
HETATM   10  C5  UNL     1      -1.966   8.328  20.164  1.00  0.00     0.084 C 
BRANCH  10  11
HETATM   11  C4  UNL     1      -3.242   9.170  20.037  1.00  0.00     0.008 C 
BRANCH  11  12
HETATM   12  C3  UNL     1      -2.853  10.600  19.831  1.00  0.00     0.000 C 
BRANCH  12  13
HETATM   13  C2  UNL     1      -1.374  10.816  19.754  1.00  0.00    -0.005 C 
HETATM   14  C1  UNL     1      -0.905  12.057  20.458  1.00  0.00     0.005 C 
ENDBRANCH  12  13
ENDBRANCH  11  12
ENDBRANCH  10  11
ENDBRANCH   8  10
ENDBRANCH   1   8
BRANCH   7  15
HETATM   15  C13 UNL     1      -3.813   5.658  17.641  1.00  0.00     0.046 C 
BRANCH  15  16
HETATM   16  C14 UNL     1      -5.059   5.536  18.420  1.00  0.00    -0.018 C 
HETATM   17  C15 UNL     1      -5.789   6.789  18.753  1.00  0.00     0.010 C 
HETATM   18  C16 UNL     1      -6.072   4.648  17.655  1.00  0.00     0.010 C 
ENDBRANCH  15  16
ENDBRANCH   7  15
TORSDOF 7
ENDMDL
MODEL 5
REMARK VINA RESULT: -5.587799723      1.380      3.471
REMARK  7 active torsions:
REMARK  status: ('A' for Active; 'I' for Inactive)
REMARK    1  A    between atoms: C2_2  and  C3_3 
REMARK    2  A    between atoms: C3_3  and  C4_4 
REMARK    3  A    between atoms: C4_4  and  C5_5 
REMARK    4  A    between atoms: C5_5  and  C6_6 
REMARK    5  A    between atoms: C6_6  and  C7_8 
REMARK    6  A    between atoms: C12_14  and  C13_15 
REMARK    7  A    between atoms: C13_15  and  C14_16 
ROOT
HETATM    1  C7  UNL     1      -3.531   5.970  19.235  1.00  0.00     0.048 A 
HETATM    2  C8  UNL     1      -4.661   6.068  18.400  1.00  0.00     0.064 A 
HETATM    3  C9  UNL     1      -5.902   6.878  18.681  1.00  0.00     0.077 C 
HETATM    4  O2  UNL     1      -4.401   5.330  17.369  1.00  0.00    -0.319 OA
HETATM    5  C10 UNL     1      -3.240   4.762  17.429  1.00  0.00     0.056 A 
HETATM    6  C11 UNL     1      -2.626   3.845  16.411  1.00  0.00     0.077 C 
HETATM    7  C12 UNL     1      -2.627   5.157  18.645  1.00  0.00    -0.012 A 
ENDROOT
BRANCH   1   8
HETATM    8  C6  UNL     1      -3.515   6.590  20.528  1.00  0.00     0.162 C 
HETATM    9  O1  UNL     1      -3.578   5.765  21.530  1.00  0.00    -0.292 OA
BRANCH   8  10
HETATM   10  C5  UNL     1      -3.448   7.996  20.901  1.00  0.00     0.084 C 
BRANCH  10  11
HETATM   11  C4  UNL     1      -2.289   8.699  20.184  1.00  0.00     0.008 C 
BRANCH  11  12
HETATM   12  C3  UNL     1      -2.699  10.105  19.878  1.00  0.00     0.000 C 
BRANCH  12  13
HETATM   13  C2  UNL     1      -1.552  11.063  19.798  1.00  0.00    -0.005 C 
HETATM   14  C1  UNL     1      -1.969  12.505  19.737  1.00  0.00     0.005 C 
ENDBRANCH  12  13
ENDBRANCH  11  12
ENDBRANCH  10  11
ENDBRANCH   8  10
ENDBRANCH   1   8
BRANCH   7  15
HETATM   15  C13 UNL     1      -1.262   4.726  19.000  1.00  0.00     0.046 C 
BRANCH  15  16
HETATM   16  C14 UNL     1      -0.363   5.719  19.615  1.00  0.00    -0.018 C 
HETATM   17  C15 UNL     1       0.385   5.311  20.835  1.00  0.00     0.010 C 
HETATM   18  C16 UNL     1       0.711   6.162  18.589  1.00  0.00     0.010 C 
ENDBRANCH  15  16
ENDBRANCH   7  15
TORSDOF 7
ENDMDL
