MODEL 1
REMARK VINA RESULT: -5.786105252      0.000      0.000
REMARK  3 active torsions:
REMARK  status: ('A' for Active; 'I' for Inactive)
REMARK    1  A    between atoms: C2_7  and  C3_8 
REMARK    2  A    between atoms: C3_8  and  N3_9 
REMARK    3  A    between atoms: C12_22  and  O3_23 
ROOT
HETATM    1  N1  UNL     1      -0.442   6.629  19.629  1.00  0.00    -0.384 N 
ATOM      2  H11 UNL     1      -0.450   5.646  19.356  1.00  0.00     0.157 HD
ATOM      3  H12 UNL     1       0.543   6.853  19.769  1.00  0.00     0.157 HD
HETATM    4  C1  UNL     1      -1.360   7.417  19.776  1.00  0.00     0.129 A 
HETATM    5  N2  UNL     1      -1.349   8.781  20.155  1.00  0.00    -0.329 N 
ATOM      6  H2  UNL     1      -0.525   9.340  20.375  1.00  0.00     0.168 HD
HETATM    7  C2  UNL     1      -2.704   9.229  20.173  1.00  0.00     0.112 A 
HETATM    8  N4  UNL     1      -3.512   8.288  19.848  1.00  0.00    -0.340 N 
ATOM      9  H4  UNL     1      -4.527   8.380  19.794  1.00  0.00     0.167 HD
HETATM   10  C11 UNL     1      -2.784   7.093  19.574  1.00  0.00     0.099 A 
HETATM   11  C12 UNL     1      -3.293   5.928  19.210  1.00  0.00     0.164 C 
ENDROOT
BRANCH   7  12
HETATM   12  C3  UNL     1      -3.067  10.620  20.529  1.00  0.00     0.348 C 
BRANCH  12  13
HETATM   13  N3  UNL     1      -2.968  11.513  19.383  1.00  0.00     0.098 N 
HETATM   14  C4  UNL     1      -4.190  11.423  18.655  1.00  0.00     0.275 C 
HETATM   15  C5  UNL     1      -4.371  12.435  17.575  1.00  0.00     0.065 C 
HETATM   16  C6  UNL     1      -4.056  13.810  18.163  1.00  0.00     0.153 C 
HETATM   17  O1  UNL     1      -4.179  14.813  17.229  1.00  0.00    -0.381 OA
HETATM   18  C9  UNL     1      -2.649  13.758  18.652  1.00  0.00     0.178 C 
HETATM   19  C7  UNL     1      -3.963  16.015  17.905  1.00  0.00     0.194 C 
HETATM   20  C8  UNL     1      -2.645  16.089  18.577  1.00  0.00     0.194 C 
HETATM   21  O2  UNL     1      -2.030  14.929  18.878  1.00  0.00    -0.379 OA
HETATM   22  C10 UNL     1      -2.646  12.821  19.867  1.00  0.00     0.307 C 
ENDBRANCH  12  13
ENDBRANCH   7  12
BRANCH  11  23
HETATM   23  O3  UNL     1      -4.668   5.820  19.073  1.00  0.00    -0.370 OA
ATOM     24  H3  UNL     1      -5.083   6.224  18.319  1.00  0.00     0.216 HD
ENDBRANCH  11  23
TORSDOF 3
ENDMDL
MODEL 2
REMARK VINA RESULT: -5.583019507      6.448      9.010
REMARK  3 active torsions:
REMARK  status: ('A' for Active; 'I' for Inactive)
REMARK    1  A    between atoms: C2_7  and  C3_8 
REMARK    2  A    between atoms: C3_8  and  N3_9 
REMARK    3  A    between atoms: C12_22  and  O3_23 
ROOT
HETATM    1  N1  UNL     1     -10.193   3.415  23.709  1.00  0.00    -0.384 N 
ATOM      2  H11 UNL     1     -10.998   3.940  24.051  1.00  0.00     0.157 HD
ATOM      3  H12 UNL     1     -10.176   2.566  24.274  1.00  0.00     0.157 HD
HETATM    4  C1  UNL     1      -9.390   3.681  22.831  1.00  0.00     0.129 A 
HETATM    5  N2  UNL     1      -8.273   2.953  22.356  1.00  0.00    -0.329 N 
ATOM      6  H2  UNL     1      -7.953   2.047  22.697  1.00  0.00     0.168 HD
HETATM    7  C2  UNL     1      -7.675   3.722  21.313  1.00  0.00     0.112 A 
HETATM    8  N4  UNL     1      -8.311   4.819  21.118  1.00  0.00    -0.340 N 
ATOM      9  H4  UNL     1      -8.063   5.523  20.422  1.00  0.00     0.167 HD
HETATM   10  C11 UNL     1      -9.415   4.908  22.016  1.00  0.00     0.099 A 
HETATM   11  C12 UNL     1     -10.285   5.901  22.094  1.00  0.00     0.164 C 
ENDROOT
BRANCH   7  12
HETATM   12  C3  UNL     1      -6.472   3.257  20.584  1.00  0.00     0.348 C 
BRANCH  12  13
HETATM   13  N3  UNL     1      -5.247   3.735  21.209  1.00  0.00     0.098 N 
HETATM   14  C4  UNL     1      -4.357   2.628  21.324  1.00  0.00     0.275 C 
HETATM   15  C5  UNL     1      -2.962   2.963  21.729  1.00  0.00     0.065 C 
HETATM   16  C6  UNL     1      -2.477   4.105  20.839  1.00  0.00     0.153 C 
HETATM   17  O1  UNL     1      -1.195   4.499  21.153  1.00  0.00    -0.381 OA
HETATM   18  C9  UNL     1      -3.411   5.246  21.052  1.00  0.00     0.178 C 
HETATM   19  C7  UNL     1      -0.837   5.470  20.216  1.00  0.00     0.194 C 
HETATM   20  C8  UNL     1      -1.748   6.638  20.193  1.00  0.00     0.194 C 
HETATM   21  O2  UNL     1      -2.998   6.465  20.666  1.00  0.00    -0.379 OA
HETATM   22  C10 UNL     1      -4.752   4.831  20.432  1.00  0.00     0.307 C 
ENDBRANCH  12  13
ENDBRANCH   7  12
BRANCH  11  23
HETATM   23  O3  UNL     1     -10.141   6.979  21.234  1.00  0.00    -0.370 OA
ATOM     24  H3  UNL     1     -10.860   7.594  21.152  1.00  0.00     0.216 HD
ENDBRANCH  11  23
TORSDOF 3
ENDMDL
MODEL 3
REMARK VINA RESULT: -5.448539213      2.154      7.432
REMARK  3 active torsions:
REMARK  status: ('A' for Active; 'I' for Inactive)
REMARK    1  A    between atoms: C2_7  and  C3_8 
REMARK    2  A    between atoms: C3_8  and  N3_9 
REMARK    3  A    between atoms: C12_22  and  O3_23 
ROOT
HETATM    1  N1  UNL     1      -0.690  12.021  19.864  1.00  0.00    -0.384 N 
ATOM      2  H11 UNL     1      -0.758  13.000  19.588  1.00  0.00     0.157 HD
ATOM      3  H12 UNL     1       0.279  11.899  20.157  1.00  0.00     0.157 HD
HETATM    4  C1  UNL     1      -1.532  11.140  19.869  1.00  0.00     0.129 A 
HETATM    5  N2  UNL     1      -1.438   9.780  20.252  1.00  0.00    -0.329 N 
ATOM      6  H2  UNL     1      -0.605   9.307  20.601  1.00  0.00     0.168 HD
HETATM    7  C2  UNL     1      -2.725   9.193  20.061  1.00  0.00     0.112 A 
HETATM    8  N4  UNL     1      -3.567  10.048  19.608  1.00  0.00    -0.340 N 
ATOM      9  H4  UNL     1      -4.544   9.851  19.396  1.00  0.00     0.167 HD
HETATM   10  C11 UNL     1      -2.933  11.315  19.445  1.00  0.00     0.099 A 
HETATM   11  C12 UNL     1      -3.498  12.425  19.001  1.00  0.00     0.164 C 
ENDROOT
BRANCH   7  12
HETATM   12  C3  UNL     1      -2.992   7.768  20.364  1.00  0.00     0.348 C 
BRANCH  12  13
HETATM   13  N3  UNL     1      -3.279   7.005  19.158  1.00  0.00     0.098 N 
HETATM   14  C4  UNL     1      -2.236   6.049  18.989  1.00  0.00     0.275 C 
HETATM   15  C5  UNL     1      -2.471   5.020  17.936  1.00  0.00     0.065 C 
HETATM   16  C6  UNL     1      -3.867   4.438  18.151  1.00  0.00     0.153 C 
HETATM   17  O1  UNL     1      -4.183   3.486  17.209  1.00  0.00    -0.381 OA
HETATM   18  C9  UNL     1      -4.828   5.573  18.050  1.00  0.00     0.178 C 
HETATM   19  C7  UNL     1      -5.429   2.968  17.568  1.00  0.00     0.194 C 
HETATM   20  C8  UNL     1      -6.496   3.993  17.650  1.00  0.00     0.194 C 
HETATM   21  O2  UNL     1      -6.121   5.272  17.846  1.00  0.00    -0.379 OA
HETATM   22  C10 UNL     1      -4.593   6.453  19.285  1.00  0.00     0.307 C 
ENDBRANCH  12  13
ENDBRANCH   7  12
BRANCH  11  23
HETATM   23  O3  UNL     1      -4.839  12.391  18.649  1.00  0.00    -0.370 OA
ATOM     24  H3  UNL     1      -5.377  11.681  18.978  1.00  0.00     0.216 HD
ENDBRANCH  11  23
TORSDOF 3
ENDMDL
MODEL 4
REMARK VINA RESULT: -5.372359961      2.008      7.650
REMARK  3 active torsions:
REMARK  status: ('A' for Active; 'I' for Inactive)
REMARK    1  A    between atoms: C2_7  and  C3_8 
REMARK    2  A    between atoms: C3_8  and  N3_9 
REMARK    3  A    between atoms: C12_22  and  O3_23 
ROOT
HETATM    1  N1  UNL     1      -0.777  12.026  20.153  1.00  0.00    -0.384 N 
ATOM      2  H11 UNL     1      -0.535  13.009  20.032  1.00  0.00     0.157 HD
ATOM      3  H12 UNL     1       0.027  11.616  20.628  1.00  0.00     0.157 HD
HETATM    4  C1  UNL     1      -1.779  11.412  19.830  1.00  0.00     0.129 A 
HETATM    5  N2  UNL     1      -2.116  10.047  19.998  1.00  0.00    -0.329 N 
ATOM      6  H2  UNL     1      -1.537   9.332  20.439  1.00  0.00     0.168 HD
HETATM    7  C2  UNL     1      -3.413   9.856  19.435  1.00  0.00     0.112 A 
HETATM    8  N4  UNL     1      -3.881  10.949  18.955  1.00  0.00    -0.340 N 
ATOM      9  H4  UNL     1      -4.791  11.049  18.505  1.00  0.00     0.167 HD
HETATM   10  C11 UNL     1      -2.941  12.005  19.144  1.00  0.00     0.099 A 
HETATM   11  C12 UNL     1      -3.091  13.266  18.774  1.00  0.00     0.164 C 
ENDROOT
BRANCH   7  12
HETATM   12  C3  UNL     1      -4.083   8.535  19.437  1.00  0.00     0.348 C 
BRANCH  12  13
HETATM   13  N3  UNL     1      -3.135   7.451  19.651  1.00  0.00     0.098 N 
HETATM   14  C4  UNL     1      -3.351   6.937  20.963  1.00  0.00     0.275 C 
HETATM   15  C5  UNL     1      -2.632   5.671  21.284  1.00  0.00     0.065 C 
HETATM   16  C6  UNL     1      -2.883   4.686  20.144  1.00  0.00     0.153 C 
HETATM   17  O1  UNL     1      -2.240   3.486  20.344  1.00  0.00    -0.381 OA
HETATM   18  C9  UNL     1      -2.366   5.324  18.901  1.00  0.00     0.178 C 
HETATM   19  C7  UNL     1      -2.623   2.649  19.295  1.00  0.00     0.194 C 
HETATM   20  C8  UNL     1      -2.303   3.193  17.954  1.00  0.00     0.194 C 
HETATM   21  O2  UNL     1      -2.145   4.527  17.842  1.00  0.00    -0.379 OA
HETATM   22  C10 UNL     1      -3.302   6.501  18.594  1.00  0.00     0.307 C 
ENDBRANCH  12  13
ENDBRANCH   7  12
BRANCH  11  23
HETATM   23  O3  UNL     1      -4.265  13.634  18.136  1.00  0.00    -0.370 OA
ATOM     24  H3  UNL     1      -4.470  14.559  18.058  1.00  0.00     0.216 HD
ENDBRANCH  11  23
TORSDOF 3
ENDMDL
MODEL 5
REMARK VINA RESULT: -5.351281614      7.696      9.341
REMARK  3 active torsions:
REMARK  status: ('A' for Active; 'I' for Inactive)
REMARK    1  A    between atoms: C2_7  and  C3_8 
REMARK    2  A    between atoms: C3_8  and  N3_9 
REMARK    3  A    between atoms: C12_22  and  O3_23 
ROOT
HETATM    1  N1  UNL     1     -10.544   3.429  23.640  1.00  0.00    -0.384 N 
ATOM      2  H11 UNL     1     -11.257   4.069  23.990  1.00  0.00     0.157 HD
ATOM      3  H12 UNL     1     -10.662   2.580  24.192  1.00  0.00     0.157 HD
HETATM    4  C1  UNL     1      -9.707   3.578  22.767  1.00  0.00     0.129 A 
HETATM    5  N2  UNL     1      -8.716   2.690  22.282  1.00  0.00    -0.329 N 
ATOM      6  H2  UNL     1      -8.545   1.739  22.610  1.00  0.00     0.168 HD
HETATM    7  C2  UNL     1      -8.002   3.369  21.250  1.00  0.00     0.112 A 
HETATM    8  N4  UNL     1      -8.456   4.555  21.071  1.00  0.00    -0.340 N 
ATOM      9  H4  UNL     1      -8.098   5.221  20.386  1.00  0.00     0.167 HD
HETATM   10  C11 UNL     1      -9.535   4.805  21.970  1.00  0.00     0.099 A 
HETATM   11  C12 UNL     1     -10.238   5.921  22.062  1.00  0.00     0.164 C 
ENDROOT
BRANCH   7  12
HETATM   12  C3  UNL     1      -6.885   2.731  20.515  1.00  0.00     0.348 C 
BRANCH  12  13
HETATM   13  N3  UNL     1      -5.914   3.713  20.055  1.00  0.00     0.098 N 
HETATM   14  C4  UNL     1      -4.894   3.812  21.046  1.00  0.00     0.275 C 
HETATM   15  C5  UNL     1      -3.689   4.597  20.652  1.00  0.00     0.065 C 
HETATM   16  C6  UNL     1      -3.230   4.097  19.283  1.00  0.00     0.153 C 
HETATM   17  O1  UNL     1      -2.126   4.781  18.825  1.00  0.00    -0.381 OA
HETATM   18  C9  UNL     1      -4.366   4.307  18.343  1.00  0.00     0.178 C 
HETATM   19  C7  UNL     1      -1.750   4.172  17.627  1.00  0.00     0.194 C 
HETATM   20  C8  UNL     1      -2.820   4.168  16.602  1.00  0.00     0.194 C 
HETATM   21  O2  UNL     1      -4.094   4.283  17.028  1.00  0.00    -0.379 OA
HETATM   22  C10 UNL     1      -5.461   3.314  18.758  1.00  0.00     0.307 C 
ENDBRANCH  12  13
ENDBRANCH   7  12
BRANCH  11  23
HETATM   23  O3  UNL     1      -9.923   6.975  21.219  1.00  0.00    -0.370 OA
ATOM     24  H3  UNL     1     -10.246   7.842  21.434  1.00  0.00     0.216 HD
ENDBRANCH  11  23
TORSDOF 3
ENDMDL
