MODEL 1
REMARK VINA RESULT: -6.960572285      0.000      0.000
REMARK  7 active torsions:
REMARK  status: ('A' for Active; 'I' for Inactive)
REMARK    1  A    between atoms: C2_2  and  C3_3 
REMARK    2  A    between atoms: C3_3  and  C4_4 
REMARK    3  A    between atoms: C4_4  and  C5_5 
REMARK    4  A    between atoms: C6_7  and  C7_8 
REMARK    5  A    between atoms: C6_7  and  O2_10 
REMARK    6  A    between atoms: O2_10  and  C9_11 
REMARK    7  A    between atoms: C9_11  and  C10_12 
ROOT
HETATM    1  O2  UNL     1      -4.126  15.145  17.201  1.00  0.00    -0.350 OA
ENDROOT
BRANCH   1   2
HETATM    2  C6  UNL     1      -4.510  16.314  16.643  1.00  0.00     0.055 C 
HETATM    3  C4  UNL     1      -4.662  16.505  15.325  1.00  0.00     0.009 C 
BRANCH   3   4
HETATM    4  C3  UNL     1      -5.055  17.822  14.750  1.00  0.00     0.044 C 
BRANCH   4   5
HETATM    5  C2  UNL     1      -3.899  18.793  14.637  1.00  0.00     0.000 C 
HETATM    6  C1  UNL     1      -4.308  20.100  15.308  1.00  0.00     0.005 C 
ENDBRANCH   4   5
ENDBRANCH   3   4
BRANCH   3   7
HETATM    7  C5  UNL     1      -4.514  15.379  14.414  1.00  0.00     0.268 C 
HETATM    8  O1  UNL     1      -5.034  15.366  13.255  1.00  0.00    -0.302 OA
ENDBRANCH   3   7
BRANCH   2   9
HETATM    9  C7  UNL     1      -4.748  17.436  17.614  1.00  0.00     0.061 C 
HETATM   10  C8  UNL     1      -3.409  17.885  18.197  1.00  0.00     0.012 C 
ENDBRANCH   2   9
ENDBRANCH   1   2
BRANCH   1  11
HETATM   11  C9  UNL     1      -4.416  14.373  18.270  1.00  0.00     0.215 C 
BRANCH  11  12
HETATM   12  C10 UNL     1      -3.540  13.226  18.592  1.00  0.00    -0.022 A 
HETATM   13  C11 UNL     1      -3.968  11.941  18.700  1.00  0.00    -0.053 A 
HETATM   14  C12 UNL     1      -5.319  11.581  18.247  1.00  0.00     0.049 C 
HETATM   15  C13 UNL     1      -3.138  10.904  19.176  1.00  0.00     0.014 A 
HETATM   16  C14 UNL     1      -1.846  11.158  19.552  1.00  0.00    -0.061 A 
HETATM   17  C15 UNL     1      -0.979  10.060  20.071  1.00  0.00     0.048 C 
HETATM   18  C16 UNL     1      -1.395  12.463  19.444  1.00  0.00     0.014 A 
HETATM   19  C17 UNL     1      -2.218  13.481  18.975  1.00  0.00    -0.053 A 
HETATM   20  C18 UNL     1      -1.646  14.854  18.884  1.00  0.00     0.049 C 
ENDBRANCH  11  12
ENDBRANCH   1  11
TORSDOF 7
ENDMDL
MODEL 2
REMARK VINA RESULT: -6.943188790      1.309      6.997
REMARK  7 active torsions:
REMARK  status: ('A' for Active; 'I' for Inactive)
REMARK    1  A    between atoms: C2_2  and  C3_3 
REMARK    2  A    between atoms: C3_3  and  C4_4 
REMARK    3  A    between atoms: C4_4  and  C5_5 
REMARK    4  A    between atoms: C6_7  and  C7_8 
REMARK    5  A    between atoms: C6_7  and  O2_10 
REMARK    6  A    between atoms: O2_10  and  C9_11 
REMARK    7  A    between atoms: C9_11  and  C10_12 
ROOT
HETATM    1  O2  UNL     1      -3.391  14.618  17.136  1.00  0.00    -0.350 OA
ENDROOT
BRANCH   1   2
HETATM    2  C6  UNL     1      -2.705  14.021  18.136  1.00  0.00     0.055 C 
HETATM    3  C4  UNL     1      -3.070  12.870  18.717  1.00  0.00     0.009 C 
BRANCH   3   4
HETATM    4  C3  UNL     1      -2.301  12.263  19.839  1.00  0.00     0.044 C 
BRANCH   4   5
HETATM    5  C2  UNL     1      -1.203  11.331  19.375  1.00  0.00     0.000 C 
HETATM    6  C1  UNL     1      -1.591   9.908  19.767  1.00  0.00     0.005 C 
ENDBRANCH   4   5
ENDBRANCH   3   4
BRANCH   3   7
HETATM    7  C5  UNL     1      -4.213  12.133  18.195  1.00  0.00     0.268 C 
HETATM    8  O1  UNL     1      -4.670  11.092  18.762  1.00  0.00    -0.302 OA
ENDBRANCH   3   7
BRANCH   2   9
HETATM    9  C7  UNL     1      -1.476  14.755  18.592  1.00  0.00     0.061 C 
HETATM   10  C8  UNL     1      -1.896  15.968  19.421  1.00  0.00     0.012 C 
ENDBRANCH   2   9
ENDBRANCH   1   2
BRANCH   1  11
HETATM   11  C9  UNL     1      -4.527  15.323  16.948  1.00  0.00     0.215 C 
BRANCH  11  12
HETATM   12  C10 UNL     1      -4.450  16.669  16.341  1.00  0.00    -0.022 A 
HETATM   13  C11 UNL     1      -4.259  17.817  17.044  1.00  0.00    -0.053 A 
HETATM   14  C12 UNL     1      -3.864  17.750  18.457  1.00  0.00     0.049 C 
HETATM   15  C13 UNL     1      -4.363  19.093  16.451  1.00  0.00     0.014 A 
HETATM   16  C14 UNL     1      -4.662  19.225  15.122  1.00  0.00    -0.061 A 
HETATM   17  C15 UNL     1      -4.789  20.578  14.504  1.00  0.00     0.048 C 
HETATM   18  C16 UNL     1      -4.856  18.063  14.392  1.00  0.00     0.014 A 
HETATM   19  C17 UNL     1      -4.753  16.808  14.982  1.00  0.00    -0.053 A 
HETATM   20  C18 UNL     1      -4.968  15.613  14.120  1.00  0.00     0.049 C 
ENDBRANCH  11  12
ENDBRANCH   1  11
TORSDOF 7
ENDMDL
MODEL 3
REMARK VINA RESULT: -6.840037115      0.140      1.892
REMARK  7 active torsions:
REMARK  status: ('A' for Active; 'I' for Inactive)
REMARK    1  A    between atoms: C2_2  and  C3_3 
REMARK    2  A    between atoms: C3_3  and  C4_4 
REMARK    3  A    between atoms: C4_4  and  C5_5 
REMARK    4  A    between atoms: C6_7  and  C7_8 
REMARK    5  A    between atoms: C6_7  and  O2_10 
REMARK    6  A    between atoms: O2_10  and  C9_11 
REMARK    7  A    between atoms: C9_11  and  C10_12 
ROOT
HETATM    1  O2  UNL     1      -4.061  15.150  17.229  1.00  0.00    -0.350 OA
ENDROOT
BRANCH   1   2
HETATM    2  C6  UNL     1      -4.460  16.317  16.677  1.00  0.00     0.055 C 
HETATM    3  C4  UNL     1      -4.620  16.513  15.361  1.00  0.00     0.009 C 
BRANCH   3   4
HETATM    4  C3  UNL     1      -5.030  17.827  14.793  1.00  0.00     0.044 C 
BRANCH   4   5
HETATM    5  C2  UNL     1      -3.879  18.798  14.643  1.00  0.00     0.000 C 
HETATM    6  C1  UNL     1      -4.278  20.115  15.302  1.00  0.00     0.005 C 
ENDBRANCH   4   5
ENDBRANCH   3   4
BRANCH   3   7
HETATM    7  C5  UNL     1      -4.464  15.392  14.444  1.00  0.00     0.268 C 
HETATM    8  O1  UNL     1      -5.047  15.346  13.316  1.00  0.00    -0.302 OA
ENDBRANCH   3   7
BRANCH   2   9
HETATM    9  C7  UNL     1      -4.707  17.432  17.654  1.00  0.00     0.061 C 
HETATM   10  C8  UNL     1      -3.369  17.913  18.213  1.00  0.00     0.012 C 
ENDBRANCH   2   9
ENDBRANCH   1   2
BRANCH   1  11
HETATM   11  C9  UNL     1      -4.552  14.159  18.003  1.00  0.00     0.215 C 
BRANCH  11  12
HETATM   12  C10 UNL     1      -3.615  13.210  18.643  1.00  0.00    -0.022 A 
HETATM   13  C11 UNL     1      -2.341  13.517  19.006  1.00  0.00    -0.053 A 
HETATM   14  C12 UNL     1      -1.900  14.919  19.004  1.00  0.00     0.049 C 
HETATM   15  C13 UNL     1      -1.426  12.542  19.454  1.00  0.00     0.014 A 
HETATM   16  C14 UNL     1      -1.793  11.226  19.543  1.00  0.00    -0.061 A 
HETATM   17  C15 UNL     1      -0.815  10.196  20.000  1.00  0.00     0.048 C 
HETATM   18  C16 UNL     1      -3.089  10.899  19.179  1.00  0.00     0.014 A 
HETATM   19  C17 UNL     1      -3.987  11.865  18.738  1.00  0.00    -0.053 A 
HETATM   20  C18 UNL     1      -5.363  11.424  18.376  1.00  0.00     0.049 C 
ENDBRANCH  11  12
ENDBRANCH   1  11
TORSDOF 7
ENDMDL
MODEL 4
REMARK VINA RESULT: -6.623103412      1.330      6.942
REMARK  7 active torsions:
REMARK  status: ('A' for Active; 'I' for Inactive)
REMARK    1  A    between atoms: C2_2  and  C3_3 
REMARK    2  A    between atoms: C3_3  and  C4_4 
REMARK    3  A    between atoms: C4_4  and  C5_5 
REMARK    4  A    between atoms: C6_7  and  C7_8 
REMARK    5  A    between atoms: C6_7  and  O2_10 
REMARK    6  A    between atoms: O2_10  and  C9_11 
REMARK    7  A    between atoms: C9_11  and  C10_12 
ROOT
HETATM    1  O2  UNL     1      -4.129  14.596  17.686  1.00  0.00    -0.350 OA
ENDROOT
BRANCH   1   2
HETATM    2  C6  UNL     1      -3.799  13.614  18.552  1.00  0.00     0.055 C 
HETATM    3  C4  UNL     1      -2.698  13.621  19.316  1.00  0.00     0.009 C 
BRANCH   3   4
HETATM    4  C3  UNL     1      -2.356  12.499  20.234  1.00  0.00     0.044 C 
BRANCH   4   5
HETATM    5  C2  UNL     1      -1.040  11.832  19.896  1.00  0.00     0.000 C 
HETATM    6  C1  UNL     1      -1.291  10.334  19.748  1.00  0.00     0.005 C 
ENDBRANCH   4   5
ENDBRANCH   3   4
BRANCH   3   7
HETATM    7  C5  UNL     1      -1.833  14.793  19.316  1.00  0.00     0.268 C 
HETATM    8  O1  UNL     1      -0.958  14.996  18.417  1.00  0.00    -0.302 OA
ENDBRANCH   3   7
BRANCH   2   9
HETATM    9  C7  UNL     1      -4.760  12.459  18.602  1.00  0.00     0.061 C 
HETATM   10  C8  UNL     1      -4.147  11.267  17.868  1.00  0.00     0.012 C 
ENDBRANCH   2   9
ENDBRANCH   1   2
BRANCH   1  11
HETATM   11  C9  UNL     1      -3.720  15.104  16.504  1.00  0.00     0.215 C 
BRANCH  11  12
HETATM   12  C10 UNL     1      -4.190  16.444  16.091  1.00  0.00    -0.022 A 
HETATM   13  C11 UNL     1      -4.678  16.739  14.857  1.00  0.00    -0.053 A 
HETATM   14  C12 UNL     1      -5.001  15.653  13.921  1.00  0.00     0.049 C 
HETATM   15  C13 UNL     1      -4.955  18.060  14.448  1.00  0.00     0.014 A 
HETATM   16  C14 UNL     1      -4.740  19.114  15.295  1.00  0.00    -0.061 A 
HETATM   17  C15 UNL     1      -5.017  20.512  14.851  1.00  0.00     0.048 C 
HETATM   18  C16 UNL     1      -4.246  18.828  16.557  1.00  0.00     0.014 A 
HETATM   19  C17 UNL     1      -3.975  17.523  16.954  1.00  0.00    -0.053 A 
HETATM   20  C18 UNL     1      -3.454  17.308  18.333  1.00  0.00     0.049 C 
ENDBRANCH  11  12
ENDBRANCH   1  11
TORSDOF 7
ENDMDL
MODEL 5
REMARK VINA RESULT: -6.607866581      3.068      5.573
REMARK  7 active torsions:
REMARK  status: ('A' for Active; 'I' for Inactive)
REMARK    1  A    between atoms: C2_2  and  C3_3 
REMARK    2  A    between atoms: C3_3  and  C4_4 
REMARK    3  A    between atoms: C4_4  and  C5_5 
REMARK    4  A    between atoms: C6_7  and  C7_8 
REMARK    5  A    between atoms: C6_7  and  O2_10 
REMARK    6  A    between atoms: O2_10  and  C9_11 
REMARK    7  A    between atoms: C9_11  and  C10_12 
ROOT
HETATM    1  O2  UNL     1      -3.577  10.997  19.512  1.00  0.00    -0.350 OA
ENDROOT
BRANCH   1   2
HETATM    2  C6  UNL     1      -2.954  12.191  19.621  1.00  0.00     0.055 C 
HETATM    3  C4  UNL     1      -3.268  13.274  18.897  1.00  0.00     0.009 C 
BRANCH   3   4
HETATM    4  C3  UNL     1      -2.532  14.562  19.027  1.00  0.00     0.044 C 
BRANCH   4   5
HETATM    5  C2  UNL     1      -2.675  15.456  17.814  1.00  0.00     0.000 C 
HETATM    6  C1  UNL     1      -3.144  16.829  18.287  1.00  0.00     0.005 C 
ENDBRANCH   4   5
ENDBRANCH   3   4
BRANCH   3   7
HETATM    7  C5  UNL     1      -4.416  13.231  18.002  1.00  0.00     0.268 C 
HETATM    8  O1  UNL     1      -4.355  12.723  16.838  1.00  0.00    -0.302 OA
ENDBRANCH   3   7
BRANCH   2   9
HETATM    9  C7  UNL     1      -1.833  12.236  20.622  1.00  0.00     0.061 C 
HETATM   10  C8  UNL     1      -0.540  11.784  19.945  1.00  0.00     0.012 C 
ENDBRANCH   2   9
ENDBRANCH   1   2
BRANCH   1  11
HETATM   11  C9  UNL     1      -3.502   9.862  18.786  1.00  0.00     0.215 C 
BRANCH  11  12
HETATM   12  C10 UNL     1      -3.698   8.559  19.458  1.00  0.00    -0.022 A 
HETATM   13  C11 UNL     1      -2.695   7.811  19.988  1.00  0.00    -0.053 A 
HETATM   14  C12 UNL     1      -1.354   8.391  20.140  1.00  0.00     0.049 C 
HETATM   15  C13 UNL     1      -2.901   6.500  20.466  1.00  0.00     0.014 A 
HETATM   16  C14 UNL     1      -4.141   5.923  20.415  1.00  0.00    -0.061 A 
HETATM   17  C15 UNL     1      -4.349   4.529  20.906  1.00  0.00     0.048 C 
HETATM   18  C16 UNL     1      -5.174   6.676  19.881  1.00  0.00     0.014 A 
HETATM   19  C17 UNL     1      -4.965   7.968  19.410  1.00  0.00    -0.053 A 
HETATM   20  C18 UNL     1      -6.135   8.707  18.860  1.00  0.00     0.049 C 
ENDBRANCH  11  12
ENDBRANCH   1  11
TORSDOF 7
ENDMDL
