MODEL 1
REMARK VINA RESULT: -6.933297215      0.000      0.000
REMARK  5 active torsions:
REMARK  status: ('A' for Active; 'I' for Inactive)
REMARK    1  A    between atoms: C2_2  and  C5_5 
REMARK    2  A    between atoms: C6_10  and  O1_11 
REMARK    3  A    between atoms: C7_13  and  C8_14 
REMARK    4  A    between atoms: C8_14  and  C9_15 
REMARK    5  A    between atoms: C9_15  and  C10_16 
ROOT
HETATM    1  C10 UNL     1      -1.281   5.425  20.620  1.00  0.00     0.123 A 
HETATM    2  N3  UNL     1      -1.977   5.153  21.774  1.00  0.00    -0.284 N 
ATOM      3  H3  UNL     1      -2.332   5.851  22.427  1.00  0.00     0.188 HD
HETATM    4  N4  UNL     1      -2.112   3.860  21.903  1.00  0.00    -0.285 N 
ATOM      5  H4  UNL     1      -2.591   3.396  22.675  1.00  0.00     0.188 HD
HETATM    6  C11 UNL     1      -1.530   3.235  20.872  1.00  0.00     0.136 A 
HETATM    7  N5  UNL     1      -1.021   4.192  20.092  1.00  0.00    -0.317 N 
HETATM    8  C12 UNL     1      -0.295   3.838  18.905  1.00  0.00     0.159 C 
HETATM    9  C13 UNL     1      -0.065   2.377  18.797  1.00  0.00     0.254 C 
HETATM   10  N6  UNL     1      -1.131   1.543  19.212  1.00  0.00    -0.058 N 
ATOM     11  H61 UNL     1      -0.927   0.560  19.034  1.00  0.00     0.278 HD
ATOM     12  H62 UNL     1      -1.944   1.648  18.605  1.00  0.00     0.278 HD
HETATM   13  C14 UNL     1      -1.476   1.773  20.614  1.00  0.00     0.184 C 
HETATM   14  C15 UNL     1      -2.851   1.186  20.820  1.00  0.00     0.047 C 
HETATM   15  C16 UNL     1      -2.741  -0.061  21.703  1.00  0.00     0.003 C 
HETATM   16  C17 UNL     1      -2.210   0.411  23.036  1.00  0.00     0.000 C 
HETATM   17  C18 UNL     1      -0.797   0.862  22.853  1.00  0.00     0.003 C 
HETATM   18  C19 UNL     1      -0.402   1.102  21.433  1.00  0.00     0.047 C 
ENDROOT
BRANCH   1  19
HETATM   19  C9  UNL     1      -0.954   6.767  20.170  1.00  0.00     0.051 C 
BRANCH  19  20
HETATM   20  C8  UNL     1      -1.550   7.881  20.414  1.00  0.00     0.022 C 
BRANCH  20  21
HETATM   21  C7  UNL     1      -2.834   8.312  19.879  1.00  0.00     0.041 A 
HETATM   22  C5  UNL     1      -3.060   9.519  19.205  1.00  0.00     0.048 A 
HETATM   23  N1  UNL     1      -4.353   9.536  18.881  1.00  0.00    -0.301 N 
HETATM   24  N2  UNL     1      -4.937   8.452  19.295  1.00  0.00    -0.279 N 
ATOM     25  H1  UNL     1      -4.818  10.293  18.379  1.00  0.00     0.186 HD
HETATM   26  C6  UNL     1      -4.028   7.645  19.931  1.00  0.00     0.167 A 
ATOM     27  H2  UNL     1      -5.925   8.234  19.166  1.00  0.00     0.189 HD
BRANCH  22  28
HETATM   28  C2  UNL     1      -2.042  10.524  18.936  1.00  0.00    -0.006 C 
HETATM   29  C1  UNL     1      -2.743  11.811  18.490  1.00  0.00     0.021 C 
HETATM   30  C3  UNL     1      -1.143  10.117  17.765  1.00  0.00     0.021 C 
HETATM   31  C4  UNL     1      -1.220  10.899  20.151  1.00  0.00     0.021 C 
ENDBRANCH  22  28
BRANCH  26  32
HETATM   32  O1  UNL     1      -4.350   6.404  20.490  1.00  0.00    -0.344 OA
ATOM     33  H1  UNL     1      -3.716   5.835  20.911  1.00  0.00     0.219 HD
ENDBRANCH  26  32
ENDBRANCH  20  21
ENDBRANCH  19  20
ENDBRANCH   1  19
TORSDOF 5
ENDMDL
MODEL 2
REMARK VINA RESULT: -6.841955642      3.832      7.990
REMARK  5 active torsions:
REMARK  status: ('A' for Active; 'I' for Inactive)
REMARK    1  A    between atoms: C2_2  and  C5_5 
REMARK    2  A    between atoms: C6_10  and  O1_11 
REMARK    3  A    between atoms: C7_13  and  C8_14 
REMARK    4  A    between atoms: C8_14  and  C9_15 
REMARK    5  A    between atoms: C9_15  and  C10_16 
ROOT
HETATM    1  C10 UNL     1      -4.774   6.665  19.411  1.00  0.00     0.123 A 
HETATM    2  N3  UNL     1      -5.423   7.814  19.028  1.00  0.00    -0.284 N 
ATOM      3  H3  UNL     1      -6.403   7.875  18.753  1.00  0.00     0.188 HD
HETATM    4  N4  UNL     1      -4.588   8.818  19.071  1.00  0.00    -0.285 N 
ATOM      5  H4  UNL     1      -4.819   9.783  18.834  1.00  0.00     0.188 HD
HETATM    6  C11 UNL     1      -3.384   8.393  19.473  1.00  0.00     0.136 A 
HETATM    7  N5  UNL     1      -3.499   7.078  19.678  1.00  0.00    -0.317 N 
HETATM    8  C12 UNL     1      -2.355   6.314  20.089  1.00  0.00     0.159 C 
HETATM    9  C13 UNL     1      -1.106   7.111  20.071  1.00  0.00     0.254 C 
HETATM   10  N6  UNL     1      -1.214   8.454  20.506  1.00  0.00    -0.058 N 
ATOM     11  H61 UNL     1      -0.303   8.911  20.539  1.00  0.00     0.278 HD
ATOM     12  H62 UNL     1      -1.454   8.508  21.496  1.00  0.00     0.278 HD
HETATM   13  C14 UNL     1      -2.161   9.208  19.685  1.00  0.00     0.184 C 
HETATM   14  C15 UNL     1      -2.522  10.444  20.471  1.00  0.00     0.047 C 
HETATM   15  C16 UNL     1      -1.915  11.674  19.788  1.00  0.00     0.003 C 
HETATM   16  C17 UNL     1      -2.559  11.760  18.425  1.00  0.00     0.000 C 
HETATM   17  C18 UNL     1      -2.086  10.607  17.601  1.00  0.00     0.003 C 
HETATM   18  C19 UNL     1      -1.455   9.503  18.384  1.00  0.00     0.047 C 
ENDROOT
BRANCH   1  19
HETATM   19  C9  UNL     1      -5.410   5.361  19.477  1.00  0.00     0.051 C 
BRANCH  19  20
HETATM   20  C8  UNL     1      -6.626   5.028  19.216  1.00  0.00     0.022 C 
BRANCH  20  21
HETATM   21  C7  UNL     1      -7.085   3.737  18.725  1.00  0.00     0.041 A 
HETATM   22  C5  UNL     1      -7.729   2.764  19.500  1.00  0.00     0.048 A 
HETATM   23  N1  UNL     1      -7.983   1.739  18.687  1.00  0.00    -0.301 N 
HETATM   24  N2  UNL     1      -7.553   1.994  17.488  1.00  0.00    -0.279 N 
ATOM     25  H1  UNL     1      -8.448   0.875  18.966  1.00  0.00     0.186 HD
HETATM   26  C6  UNL     1      -6.978   3.239  17.454  1.00  0.00     0.167 A 
ATOM     27  H2  UNL     1      -7.632   1.364  16.691  1.00  0.00     0.189 HD
BRANCH  22  28
HETATM   28  C2  UNL     1      -8.038   2.900  20.916  1.00  0.00    -0.006 C 
HETATM   29  C1  UNL     1      -8.865   1.685  21.346  1.00  0.00     0.021 C 
HETATM   30  C3  UNL     1      -8.925   4.119  21.185  1.00  0.00     0.021 C 
HETATM   31  C4  UNL     1      -6.816   2.907  21.808  1.00  0.00     0.021 C 
ENDBRANCH  22  28
BRANCH  26  32
HETATM   32  O1  UNL     1      -6.420   3.805  16.302  1.00  0.00    -0.344 OA
ATOM     33  H1  UNL     1      -6.552   4.709  16.043  1.00  0.00     0.219 HD
ENDBRANCH  26  32
ENDBRANCH  20  21
ENDBRANCH  19  20
ENDBRANCH   1  19
TORSDOF 5
ENDMDL
MODEL 3
REMARK VINA RESULT: -6.623436169      3.390      4.472
REMARK  5 active torsions:
REMARK  status: ('A' for Active; 'I' for Inactive)
REMARK    1  A    between atoms: C2_2  and  C5_5 
REMARK    2  A    between atoms: C6_10  and  O1_11 
REMARK    3  A    between atoms: C7_13  and  C8_14 
REMARK    4  A    between atoms: C8_14  and  C9_15 
REMARK    5  A    between atoms: C9_15  and  C10_16 
ROOT
HETATM    1  C10 UNL     1      -5.956   6.281  18.854  1.00  0.00     0.123 A 
HETATM    2  N3  UNL     1      -7.069   6.102  19.641  1.00  0.00    -0.284 N 
ATOM      3  H3  UNL     1      -7.574   6.843  20.126  1.00  0.00     0.188 HD
HETATM    4  N4  UNL     1      -7.378   4.833  19.671  1.00  0.00    -0.285 N 
ATOM      5  H4  UNL     1      -8.163   4.434  20.185  1.00  0.00     0.188 HD
HETATM    6  C11 UNL     1      -6.511   4.134  18.928  1.00  0.00     0.136 A 
HETATM    7  N5  UNL     1      -5.643   5.020  18.432  1.00  0.00    -0.317 N 
HETATM    8  C12 UNL     1      -4.556   4.573  17.608  1.00  0.00     0.159 C 
HETATM    9  C13 UNL     1      -4.455   3.095  17.556  1.00  0.00     0.254 C 
HETATM   10  N6  UNL     1      -5.679   2.386  17.503  1.00  0.00    -0.058 N 
ATOM     11  H61 UNL     1      -5.526   1.384  17.391  1.00  0.00     0.278 HD
ATOM     12  H62 UNL     1      -6.178   2.568  16.633  1.00  0.00     0.278 HD
HETATM   13  C14 UNL     1      -6.514   2.672  18.670  1.00  0.00     0.184 C 
HETATM   14  C15 UNL     1      -7.915   2.238  18.312  1.00  0.00     0.047 C 
HETATM   15  C16 UNL     1      -8.286   0.999  19.134  1.00  0.00     0.003 C 
HETATM   16  C17 UNL     1      -8.265   1.431  20.581  1.00  0.00     0.000 C 
HETATM   17  C18 UNL     1      -6.853   1.725  20.971  1.00  0.00     0.003 C 
HETATM   18  C19 UNL     1      -5.917   1.901  19.820  1.00  0.00     0.047 C 
ENDROOT
BRANCH   1  19
HETATM   19  C9  UNL     1      -5.343   7.574  18.603  1.00  0.00     0.051 C 
BRANCH  19  20
HETATM   20  C8  UNL     1      -4.614   8.298  19.377  1.00  0.00     0.022 C 
BRANCH  20  21
HETATM   21  C7  UNL     1      -3.246   8.020  19.791  1.00  0.00     0.041 A 
HETATM   22  C5  UNL     1      -2.156   8.880  19.600  1.00  0.00     0.048 A 
HETATM   23  N1  UNL     1      -1.093   8.263  20.113  1.00  0.00    -0.301 N 
HETATM   24  N2  UNL     1      -1.430   7.107  20.599  1.00  0.00    -0.279 N 
ATOM     25  H1  UNL     1      -0.147   8.644  20.124  1.00  0.00     0.186 HD
HETATM   26  C6  UNL     1      -2.775   6.901  20.423  1.00  0.00     0.167 A 
ATOM     27  H2  UNL     1      -0.791   6.449  21.046  1.00  0.00     0.189 HD
BRANCH  22  28
HETATM   28  C2  UNL     1      -2.230  10.185  18.960  1.00  0.00    -0.006 C 
HETATM   29  C1  UNL     1      -1.159  11.086  19.581  1.00  0.00     0.021 C 
HETATM   30  C3  UNL     1      -3.567  10.877  19.242  1.00  0.00     0.021 C 
HETATM   31  C4  UNL     1      -1.936  10.152  17.475  1.00  0.00     0.021 C 
ENDBRANCH  22  28
BRANCH  26  32
HETATM   32  O1  UNL     1      -3.445   5.745  20.841  1.00  0.00    -0.344 OA
ATOM     33  H1  UNL     1      -3.125   4.865  20.684  1.00  0.00     0.219 HD
ENDBRANCH  26  32
ENDBRANCH  20  21
ENDBRANCH  19  20
ENDBRANCH   1  19
TORSDOF 5
ENDMDL
MODEL 4
REMARK VINA RESULT: -6.612750837      4.674      6.347
REMARK  5 active torsions:
REMARK  status: ('A' for Active; 'I' for Inactive)
REMARK    1  A    between atoms: C2_2  and  C5_5 
REMARK    2  A    between atoms: C6_10  and  O1_11 
REMARK    3  A    between atoms: C7_13  and  C8_14 
REMARK    4  A    between atoms: C8_14  and  C9_15 
REMARK    5  A    between atoms: C9_15  and  C10_16 
ROOT
HETATM    1  C10 UNL     1      -6.727   5.389  19.142  1.00  0.00     0.123 A 
HETATM    2  N3  UNL     1      -7.427   6.146  20.052  1.00  0.00    -0.284 N 
ATOM      3  H3  UNL     1      -7.379   7.161  20.136  1.00  0.00     0.188 HD
HETATM    4  N4  UNL     1      -8.162   5.360  20.794  1.00  0.00    -0.285 N 
ATOM      5  H4  UNL     1      -8.777   5.672  21.545  1.00  0.00     0.188 HD
HETATM    6  C11 UNL     1      -7.990   4.087  20.421  1.00  0.00     0.136 A 
HETATM    7  N5  UNL     1      -7.111   4.106  19.414  1.00  0.00    -0.317 N 
HETATM    8  C12 UNL     1      -6.688   2.876  18.809  1.00  0.00     0.159 C 
HETATM    9  C13 UNL     1      -7.191   1.685  19.534  1.00  0.00     0.254 C 
HETATM   10  N6  UNL     1      -8.512   1.772  20.038  1.00  0.00    -0.058 N 
ATOM     11  H61 UNL     1      -8.811   0.890  20.453  1.00  0.00     0.278 HD
ATOM     12  H62 UNL     1      -9.195   1.832  19.284  1.00  0.00     0.278 HD
HETATM   13  C14 UNL     1      -8.654   2.882  20.979  1.00  0.00     0.184 C 
HETATM   14  C15 UNL     1     -10.133   3.150  21.107  1.00  0.00     0.047 C 
HETATM   15  C16 UNL     1     -10.605   2.729  22.503  1.00  0.00     0.003 C 
HETATM   16  C17 UNL     1      -9.865   3.610  23.481  1.00  0.00     0.000 C 
HETATM   17  C18 UNL     1      -8.417   3.243  23.453  1.00  0.00     0.003 C 
HETATM   18  C19 UNL     1      -8.006   2.435  22.266  1.00  0.00     0.047 C 
ENDROOT
BRANCH   1  19
HETATM   19  C9  UNL     1      -5.812   5.947  18.162  1.00  0.00     0.051 C 
BRANCH  19  20
HETATM   20  C8  UNL     1      -4.531   6.061  18.208  1.00  0.00     0.022 C 
BRANCH  20  21
HETATM   21  C7  UNL     1      -3.565   4.974  18.277  1.00  0.00     0.041 A 
HETATM   22  C5  UNL     1      -2.619   4.801  19.296  1.00  0.00     0.048 A 
HETATM   23  N1  UNL     1      -1.933   3.700  18.993  1.00  0.00    -0.301 N 
HETATM   24  N2  UNL     1      -2.371   3.183  17.884  1.00  0.00    -0.279 N 
ATOM     25  H1  UNL     1      -1.171   3.316  19.552  1.00  0.00     0.186 HD
HETATM   26  C6  UNL     1      -3.399   3.945  17.389  1.00  0.00     0.167 A 
ATOM     27  H2  UNL     1      -2.006   2.337  17.447  1.00  0.00     0.189 HD
BRANCH  22  28
HETATM   28  C2  UNL     1      -2.461   5.685  20.441  1.00  0.00    -0.006 C 
HETATM   29  C1  UNL     1      -1.395   5.088  21.365  1.00  0.00     0.021 C 
HETATM   30  C3  UNL     1      -3.741   5.756  21.280  1.00  0.00     0.021 C 
HETATM   31  C4  UNL     1      -1.969   7.070  20.079  1.00  0.00     0.021 C 
ENDBRANCH  22  28
BRANCH  26  32
HETATM   32  O1  UNL     1      -4.083   3.650  16.205  1.00  0.00    -0.344 OA
ATOM     33  H1  UNL     1      -4.594   2.860  16.074  1.00  0.00     0.219 HD
ENDBRANCH  26  32
ENDBRANCH  20  21
ENDBRANCH  19  20
ENDBRANCH   1  19
TORSDOF 5
ENDMDL
MODEL 5
REMARK VINA RESULT: -6.587914999      4.748      6.149
REMARK  5 active torsions:
REMARK  status: ('A' for Active; 'I' for Inactive)
REMARK    1  A    between atoms: C2_2  and  C5_5 
REMARK    2  A    between atoms: C6_10  and  O1_11 
REMARK    3  A    between atoms: C7_13  and  C8_14 
REMARK    4  A    between atoms: C8_14  and  C9_15 
REMARK    5  A    between atoms: C9_15  and  C10_16 
ROOT
HETATM    1  C10 UNL     1      -6.823   4.961  19.074  1.00  0.00     0.123 A 
HETATM    2  N3  UNL     1      -7.381   5.833  19.979  1.00  0.00    -0.284 N 
ATOM      3  H3  UNL     1      -7.216   6.839  20.008  1.00  0.00     0.188 HD
HETATM    4  N4  UNL     1      -8.155   5.171  20.797  1.00  0.00    -0.285 N 
ATOM      5  H4  UNL     1      -8.687   5.584  21.563  1.00  0.00     0.188 HD
HETATM    6  C11 UNL     1      -8.147   3.870  20.482  1.00  0.00     0.136 A 
HETATM    7  N5  UNL     1      -7.331   3.744  19.432  1.00  0.00    -0.317 N 
HETATM    8  C12 UNL     1      -7.081   2.447  18.870  1.00  0.00     0.159 C 
HETATM    9  C13 UNL     1      -7.672   1.355  19.681  1.00  0.00     0.254 C 
HETATM   10  N6  UNL     1      -8.943   1.614  20.247  1.00  0.00    -0.058 N 
ATOM     11  H61 UNL     1      -9.315   0.792  20.722  1.00  0.00     0.278 HD
ATOM     12  H62 UNL     1      -9.658   1.718  19.527  1.00  0.00     0.278 HD
HETATM   13  C14 UNL     1      -8.907   2.775  21.136  1.00  0.00     0.184 C 
HETATM   14  C15 UNL     1     -10.338   3.215  21.327  1.00  0.00     0.047 C 
HETATM   15  C16 UNL     1     -10.772   2.915  22.765  1.00  0.00     0.003 C 
HETATM   16  C17 UNL     1      -9.884   3.749  23.657  1.00  0.00     0.000 C 
HETATM   17  C18 UNL     1      -8.490   3.219  23.572  1.00  0.00     0.003 C 
HETATM   18  C19 UNL     1      -8.240   2.316  22.409  1.00  0.00     0.047 C 
ENDROOT
BRANCH   1  19
HETATM   19  C9  UNL     1      -5.909   5.366  18.020  1.00  0.00     0.051 C 
BRANCH  19  20
HETATM   20  C8  UNL     1      -4.732   5.878  18.108  1.00  0.00     0.022 C 
BRANCH  20  21
HETATM   21  C7  UNL     1      -3.597   5.324  18.832  1.00  0.00     0.041 A 
HETATM   22  C5  UNL     1      -2.777   6.042  19.713  1.00  0.00     0.048 A 
HETATM   23  N1  UNL     1      -1.863   5.183  20.163  1.00  0.00    -0.301 N 
HETATM   24  N2  UNL     1      -2.047   4.009  19.640  1.00  0.00    -0.279 N 
ATOM     25  H1  UNL     1      -1.122   5.415  20.825  1.00  0.00     0.186 HD
HETATM   26  C6  UNL     1      -3.126   4.039  18.793  1.00  0.00     0.167 A 
ATOM     27  H2  UNL     1      -1.476   3.186  19.830  1.00  0.00     0.189 HD
BRANCH  22  28
HETATM   28  C2  UNL     1      -2.939   7.451  20.037  1.00  0.00    -0.006 C 
HETATM   29  C1  UNL     1      -1.549   8.057  20.256  1.00  0.00     0.021 C 
HETATM   30  C3  UNL     1      -3.685   7.643  21.361  1.00  0.00     0.021 C 
HETATM   31  C4  UNL     1      -3.576   8.262  18.929  1.00  0.00     0.021 C 
ENDBRANCH  22  28
BRANCH  26  32
HETATM   32  O1  UNL     1      -3.581   2.928  18.075  1.00  0.00    -0.344 OA
ATOM     33  H1  UNL     1      -3.667   2.911  17.129  1.00  0.00     0.219 HD
ENDBRANCH  26  32
ENDBRANCH  20  21
ENDBRANCH  19  20
ENDBRANCH   1  19
TORSDOF 5
ENDMDL
